MODEL 1
REMARK VINA RESULT:    -8.748      0.000      0.000
REMARK INTER + INTRA:         -16.435
REMARK INTER:                 -14.373
REMARK INTRA:                  -2.062
REMARK UNBOUND:                -2.062
REMARK SMILES C[C@H]1O[C@@H](OC[C@@H]2O[C@@H](Oc3c(-c4ccc(O)c(O)c4)oc4cc(O)cc(O)c4c3=O)[C@H](O)[C@H](O)[C@H]2O)[C@H](O)[C@@H](O)[C@@H]1O
REMARK SMILES IDX 7 1 36 2 34 3 32 4 9 5 8 6 6 7 5 8 4 9 1 10 2 11 42 12 3 13
REMARK SMILES IDX 40 14 38 15 43 16 41 18 39 20 37 22 35 24 10 26 11 27 12 28
REMARK SMILES IDX 30 29 21 30 29 31 31 32 22 33 27 34 23 35 26 36 24 37 13 38
REMARK SMILES IDX 20 39 14 40 18 41 15 42 16 43 19 44 17 46 28 48 25 50 33 52
REMARK H PARENT 43 17 41 19 39 21 37 23 35 25 19 45 17 47 28 49 25 51 33 53
REMARK Flexibility Score: inf
ROOT
ATOM      1  C   UNL     1     180.674 -15.887  28.586  1.00  0.00     0.180 C 
ATOM      2  C   UNL     1     179.621 -16.906  27.992  1.00  0.00     0.177 C 
ATOM      3  C   UNL     1     179.783 -17.083  26.457  1.00  0.00     0.180 C 
ATOM      4  C   UNL     1     180.150 -15.763  25.745  1.00  0.00     0.214 C 
ATOM      5  C   UNL     1     181.373 -15.155  26.451  1.00  0.00     0.339 C 
ATOM      6  O   UNL     1     180.975 -14.781  27.750  1.00  0.00    -0.332 OA
ENDROOT
BRANCH   1   7
ATOM      7  C   UNL     1     180.090 -15.300  29.871  1.00  0.00     0.198 C 
BRANCH   7   8
ATOM      8  O   UNL     1     181.111 -15.054  30.828  1.00  0.00    -0.347 OA
BRANCH   8   9
ATOM      9  C   UNL     1     182.257 -15.854  30.578  1.00  0.00     0.281 C 
ATOM     10  C   UNL     1     181.643 -15.916  33.723  1.00  0.00     0.041 C 
ATOM     11  C   UNL     1     182.848 -16.261  32.854  1.00  0.00     0.150 C 
ATOM     12  C   UNL     1     183.923 -15.118  32.822  1.00  0.00     0.174 C 
ATOM     13  O   UNL     1     182.480 -16.822  31.597  1.00  0.00    -0.344 OA
ATOM     14  C   UNL     1     183.846 -14.174  31.606  1.00  0.00     0.179 C 
ATOM     15  C   UNL     1     183.511 -14.970  30.333  1.00  0.00     0.202 C 
BRANCH  12  16
ATOM     16  O   UNL     1     185.210 -15.694  32.864  1.00  0.00    -0.388 OA
ATOM     17  H   UNL     1     185.851 -14.918  32.855  1.00  0.00     0.211 HD
ENDBRANCH  12  16
BRANCH  14  18
ATOM     18  O   UNL     1     182.938 -13.105  31.816  1.00  0.00    -0.387 OA
ATOM     19  H   UNL     1     183.038 -12.733  32.744  1.00  0.00     0.211 HD
ENDBRANCH  14  18
BRANCH  15  20
ATOM     20  O   UNL     1     184.638 -15.757  29.976  1.00  0.00    -0.385 OA
ATOM     21  H   UNL     1     184.617 -15.898  28.970  1.00  0.00     0.211 HD
ENDBRANCH  15  20
ENDBRANCH   8   9
ENDBRANCH   7   8
ENDBRANCH   1   7
BRANCH   2  22
ATOM     22  O   UNL     1     179.705 -18.194  28.576  1.00  0.00    -0.387 OA
ATOM     23  H   UNL     1     180.088 -18.136  29.493  1.00  0.00     0.211 HD
ENDBRANCH   2  22
BRANCH   3  24
ATOM     24  O   UNL     1     178.637 -17.681  25.918  1.00  0.00    -0.387 OA
ATOM     25  H   UNL     1     177.879 -17.516  26.541  1.00  0.00     0.211 HD
ENDBRANCH   3  24
BRANCH   5  26
ATOM     26  O   UNL     1     182.538 -16.029  26.501  1.00  0.00    -0.454 OA
BRANCH  26  27
ATOM     27  C   UNL     1     183.740 -15.903  25.739  1.00  0.00     0.214 A 
ATOM     28  C   UNL     1     184.126 -16.855  24.751  1.00  0.00     0.180 A 
ATOM     29  C   UNL     1     184.544 -14.766  25.900  1.00  0.00     0.239 A 
ATOM     30  O   UNL     1     185.157 -16.581  23.943  1.00  0.00    -0.452 OA
ATOM     31  C   UNL     1     185.653 -14.548  25.052  1.00  0.00     0.111 A 
ATOM     32  O   UNL     1     184.246 -13.919  26.778  1.00  0.00    -0.285 OA
ATOM     33  C   UNL     1     185.918 -15.490  24.038  1.00  0.00     0.146 A 
ATOM     34  C   UNL     1     186.478 -13.390  25.146  1.00  0.00     0.134 A 
ATOM     35  C   UNL     1     186.958 -15.274  23.123  1.00  0.00     0.094 A 
ATOM     36  C   UNL     1     187.522 -13.189  24.241  1.00  0.00     0.093 A 
ATOM     37  C   UNL     1     187.767 -14.121  23.227  1.00  0.00     0.123 A 
BRANCH  28  38
ATOM     38  C   UNL     1     183.502 -18.193  24.608  1.00  0.00     0.025 A 
ATOM     39  C   UNL     1     182.150 -18.336  24.220  1.00  0.00     0.062 A 
ATOM     40  C   UNL     1     184.230 -19.347  24.860  1.00  0.00     0.016 A 
ATOM     41  C   UNL     1     181.541 -19.608  24.228  1.00  0.00     0.158 A 
ATOM     42  C   UNL     1     183.643 -20.606  24.841  1.00  0.00     0.051 A 
ATOM     43  C   UNL     1     182.333 -20.765  24.414  1.00  0.00     0.157 A 
BRANCH  41  44
ATOM     44  O   UNL     1     180.154 -19.718  24.131  1.00  0.00    -0.504 OA
ATOM     45  H   UNL     1     179.698 -19.765  23.217  1.00  0.00     0.293 HD
ENDBRANCH  41  44
BRANCH  43  46
ATOM     46  O   UNL     1     181.841 -22.066  24.193  1.00  0.00    -0.504 OA
ATOM     47  H   UNL     1     181.463 -22.325  23.280  1.00  0.00     0.293 HD
ENDBRANCH  43  46
ENDBRANCH  28  38
BRANCH  34  48
ATOM     48  O   UNL     1     186.215 -12.394  26.098  1.00  0.00    -0.507 OA
ATOM     49  H   UNL     1     186.131 -11.403  25.880  1.00  0.00     0.293 HD
ENDBRANCH  34  48
BRANCH  37  50
ATOM     50  O   UNL     1     188.838 -13.902  22.361  1.00  0.00    -0.508 OA
ATOM     51  H   UNL     1     189.354 -14.683  21.985  1.00  0.00     0.293 HD
ENDBRANCH  37  50
ENDBRANCH  26  27
ENDBRANCH   5  26
BRANCH   4  52
ATOM     52  O   UNL     1     179.104 -14.829  25.847  1.00  0.00    -0.384 OA
ATOM     53  H   UNL     1     179.387 -13.975  25.418  1.00  0.00     0.211 HD
ENDBRANCH   4  52
TORSDOF 16
ENDMDL
MODEL 2
REMARK VINA RESULT:    -8.721      3.038      8.673
REMARK INTER + INTRA:         -16.391
REMARK INTER:                 -13.806
REMARK INTRA:                  -2.586
REMARK UNBOUND:                -2.062
REMARK SMILES C[C@H]1O[C@@H](OC[C@@H]2O[C@@H](Oc3c(-c4ccc(O)c(O)c4)oc4cc(O)cc(O)c4c3=O)[C@H](O)[C@H](O)[C@H]2O)[C@H](O)[C@@H](O)[C@@H]1O
REMARK SMILES IDX 7 1 36 2 34 3 32 4 9 5 8 6 6 7 5 8 4 9 1 10 2 11 42 12 3 13
REMARK SMILES IDX 40 14 38 15 43 16 41 18 39 20 37 22 35 24 10 26 11 27 12 28
REMARK SMILES IDX 30 29 21 30 29 31 31 32 22 33 27 34 23 35 26 36 24 37 13 38
REMARK SMILES IDX 20 39 14 40 18 41 15 42 16 43 19 44 17 46 28 48 25 50 33 52
REMARK H PARENT 43 17 41 19 39 21 37 23 35 25 19 45 17 47 28 49 25 51 33 53
REMARK Flexibility Score: inf
ROOT
ATOM      1  C   UNL     1     183.006 -17.469  25.719  1.00  0.00     0.180 C 
ATOM      2  C   UNL     1     183.492 -16.027  25.291  1.00  0.00     0.177 C 
ATOM      3  C   UNL     1     183.558 -15.052  26.500  1.00  0.00     0.180 C 
ATOM      4  C   UNL     1     182.405 -15.273  27.502  1.00  0.00     0.214 C 
ATOM      5  C   UNL     1     182.372 -16.763  27.883  1.00  0.00     0.339 C 
ATOM      6  O   UNL     1     182.012 -17.491  26.732  1.00  0.00    -0.332 OA
ENDROOT
BRANCH   1   7
ATOM      7  C   UNL     1     182.378 -18.138  24.496  1.00  0.00     0.198 C 
BRANCH   7   8
ATOM      8  O   UNL     1     181.491 -19.178  24.884  1.00  0.00    -0.347 OA
BRANCH   8   9
ATOM      9  C   UNL     1     180.975 -19.865  23.753  1.00  0.00     0.281 C 
ATOM     10  C   UNL     1     179.478 -20.951  26.371  1.00  0.00     0.041 C 
ATOM     11  C   UNL     1     179.648 -21.453  24.941  1.00  0.00     0.150 C 
ATOM     12  C   UNL     1     180.764 -22.548  24.809  1.00  0.00     0.174 C 
ATOM     13  O   UNL     1     179.676 -20.397  23.985  1.00  0.00    -0.344 OA
ATOM     14  C   UNL     1     182.141 -22.032  24.344  1.00  0.00     0.179 C 
ATOM     15  C   UNL     1     181.969 -20.954  23.260  1.00  0.00     0.202 C 
BRANCH  12  16
ATOM     16  O   UNL     1     180.329 -23.544  23.909  1.00  0.00    -0.388 OA
ATOM     17  H   UNL     1     181.121 -23.735  23.319  1.00  0.00     0.211 HD
ENDBRANCH  12  16
BRANCH  14  18
ATOM     18  O   UNL     1     182.933 -21.574  25.427  1.00  0.00    -0.387 OA
ATOM     19  H   UNL     1     183.664 -22.231  25.633  1.00  0.00     0.211 HD
ENDBRANCH  14  18
BRANCH  15  20
ATOM     20  O   UNL     1     181.510 -21.572  22.068  1.00  0.00    -0.385 OA
ATOM     21  H   UNL     1     181.543 -22.579  22.203  1.00  0.00     0.211 HD
ENDBRANCH  15  20
ENDBRANCH   8   9
ENDBRANCH   7   8
ENDBRANCH   1   7
BRANCH   2  22
ATOM     22  O   UNL     1     184.771 -16.031  24.683  1.00  0.00    -0.387 OA
ATOM     23  H   UNL     1     185.478 -15.838  25.356  1.00  0.00     0.211 HD
ENDBRANCH   2  22
BRANCH   3  24
ATOM     24  O   UNL     1     183.628 -13.729  26.047  1.00  0.00    -0.387 OA
ATOM     25  H   UNL     1     182.699 -13.387  25.944  1.00  0.00     0.211 HD
ENDBRANCH   3  24
BRANCH   5  26
ATOM     26  O   UNL     1     183.617 -17.270  28.445  1.00  0.00    -0.454 OA
BRANCH  26  27
ATOM     27  C   UNL     1     183.770 -18.372  29.340  1.00  0.00     0.214 A 
ATOM     28  C   UNL     1     183.590 -18.248  30.749  1.00  0.00     0.180 A 
ATOM     29  C   UNL     1     184.030 -19.650  28.825  1.00  0.00     0.239 A 
ATOM     30  O   UNL     1     183.558 -19.350  31.506  1.00  0.00    -0.452 OA
ATOM     31  C   UNL     1     184.035 -20.777  29.677  1.00  0.00     0.111 A 
ATOM     32  O   UNL     1     184.217 -19.790  27.591  1.00  0.00    -0.285 OA
ATOM     33  C   UNL     1     183.758 -20.586  31.044  1.00  0.00     0.146 A 
ATOM     34  C   UNL     1     184.252 -22.102  29.198  1.00  0.00     0.134 A 
ATOM     35  C   UNL     1     183.672 -21.685  31.912  1.00  0.00     0.094 A 
ATOM     36  C   UNL     1     184.181 -23.190  30.070  1.00  0.00     0.093 A 
ATOM     37  C   UNL     1     183.889 -22.992  31.423  1.00  0.00     0.123 A 
BRANCH  28  38
ATOM     38  C   UNL     1     183.517 -16.948  31.459  1.00  0.00     0.025 A 
ATOM     39  C   UNL     1     182.308 -16.220  31.537  1.00  0.00     0.062 A 
ATOM     40  C   UNL     1     184.642 -16.403  32.062  1.00  0.00     0.016 A 
ATOM     41  C   UNL     1     182.294 -14.924  32.094  1.00  0.00     0.158 A 
ATOM     42  C   UNL     1     184.629 -15.139  32.637  1.00  0.00     0.051 A 
ATOM     43  C   UNL     1     183.440 -14.436  32.766  1.00  0.00     0.157 A 
BRANCH  41  44
ATOM     44  O   UNL     1     181.185 -14.099  31.914  1.00  0.00    -0.504 OA
ATOM     45  H   UNL     1     181.155 -13.167  32.334  1.00  0.00     0.293 HD
ENDBRANCH  41  44
BRANCH  43  46
ATOM     46  O   UNL     1     183.420 -13.266  33.549  1.00  0.00    -0.504 OA
ATOM     47  H   UNL     1     183.226 -12.361  33.116  1.00  0.00     0.293 HD
ENDBRANCH  43  46
ENDBRANCH  28  38
BRANCH  34  48
ATOM     48  O   UNL     1     184.468 -22.348  27.835  1.00  0.00    -0.507 OA
ATOM     49  H   UNL     1     184.809 -23.232  27.460  1.00  0.00     0.293 HD
ENDBRANCH  34  48
BRANCH  37  50
ATOM     50  O   UNL     1     183.857 -24.100  32.271  1.00  0.00    -0.508 OA
ATOM     51  H   UNL     1     183.159 -24.164  32.996  1.00  0.00     0.293 HD
ENDBRANCH  37  50
ENDBRANCH  26  27
ENDBRANCH   5  26
BRANCH   4  52
ATOM     52  O   UNL     1     181.164 -14.966  26.916  1.00  0.00    -0.384 OA
ATOM     53  H   UNL     1     180.929 -14.021  27.128  1.00  0.00     0.211 HD
ENDBRANCH   4  52
TORSDOF 16
ENDMDL
MODEL 3
REMARK VINA RESULT:    -8.675      4.510      8.794
REMARK INTER + INTRA:         -16.316
REMARK INTER:                 -14.050
REMARK INTRA:                  -2.265
REMARK UNBOUND:                -2.062
REMARK SMILES C[C@H]1O[C@@H](OC[C@@H]2O[C@@H](Oc3c(-c4ccc(O)c(O)c4)oc4cc(O)cc(O)c4c3=O)[C@H](O)[C@H](O)[C@H]2O)[C@H](O)[C@@H](O)[C@@H]1O
REMARK SMILES IDX 7 1 36 2 34 3 32 4 9 5 8 6 6 7 5 8 4 9 1 10 2 11 42 12 3 13
REMARK SMILES IDX 40 14 38 15 43 16 41 18 39 20 37 22 35 24 10 26 11 27 12 28
REMARK SMILES IDX 30 29 21 30 29 31 31 32 22 33 27 34 23 35 26 36 24 37 13 38
REMARK SMILES IDX 20 39 14 40 18 41 15 42 16 43 19 44 17 46 28 48 25 50 33 52
REMARK H PARENT 43 17 41 19 39 21 37 23 35 25 19 45 17 47 28 49 25 51 33 53
REMARK Flexibility Score: inf
ROOT
ATOM      1  C   UNL     1     180.817 -20.020  26.689  1.00  0.00     0.180 C 
ATOM      2  C   UNL     1     180.346 -21.280  25.859  1.00  0.00     0.177 C 
ATOM      3  C   UNL     1     181.220 -22.531  26.154  1.00  0.00     0.180 C 
ATOM      4  C   UNL     1     182.711 -22.179  26.350  1.00  0.00     0.214 C 
ATOM      5  C   UNL     1     182.811 -21.065  27.406  1.00  0.00     0.339 C 
ATOM      6  O   UNL     1     182.221 -19.907  26.864  1.00  0.00    -0.332 OA
ENDROOT
BRANCH   1   7
ATOM      7  C   UNL     1     180.383 -18.766  25.929  1.00  0.00     0.198 C 
BRANCH   7   8
ATOM      8  O   UNL     1     181.337 -17.724  26.080  1.00  0.00    -0.347 OA
BRANCH   8   9
ATOM      9  C   UNL     1     180.874 -16.512  25.503  1.00  0.00     0.281 C 
ATOM     10  C   UNL     1     183.721 -15.963  26.868  1.00  0.00     0.041 C 
ATOM     11  C   UNL     1     182.570 -15.085  26.388  1.00  0.00     0.150 C 
ATOM     12  C   UNL     1     181.631 -14.622  27.556  1.00  0.00     0.174 C 
ATOM     13  O   UNL     1     181.932 -15.602  25.224  1.00  0.00    -0.344 OA
ATOM     14  C   UNL     1     180.353 -15.463  27.748  1.00  0.00     0.179 C 
ATOM     15  C   UNL     1     179.768 -15.863  26.382  1.00  0.00     0.202 C 
BRANCH  12  16
ATOM     16  O   UNL     1     181.257 -13.278  27.340  1.00  0.00    -0.388 OA
ATOM     17  H   UNL     1     181.454 -13.099  26.370  1.00  0.00     0.211 HD
ENDBRANCH  12  16
BRANCH  14  18
ATOM     18  O   UNL     1     180.576 -16.590  28.580  1.00  0.00    -0.387 OA
ATOM     19  H   UNL     1     180.772 -17.405  28.026  1.00  0.00     0.211 HD
ENDBRANCH  14  18
BRANCH  15  20
ATOM     20  O   UNL     1     179.223 -14.709  25.762  1.00  0.00    -0.385 OA
ATOM     21  H   UNL     1     178.304 -14.541  26.161  1.00  0.00     0.211 HD
ENDBRANCH  15  20
ENDBRANCH   8   9
ENDBRANCH   7   8
ENDBRANCH   1   7
BRANCH   2  22
ATOM     22  O   UNL     1     178.999 -21.638  26.111  1.00  0.00    -0.387 OA
ATOM     23  H   UNL     1     178.383 -21.091  25.553  1.00  0.00     0.211 HD
ENDBRANCH   2  22
BRANCH   3  24
ATOM     24  O   UNL     1     181.025 -23.499  25.160  1.00  0.00    -0.387 OA
ATOM     25  H   UNL     1     180.066 -23.763  25.169  1.00  0.00     0.211 HD
ENDBRANCH   3  24
BRANCH   5  26
ATOM     26  O   UNL     1     182.209 -21.397  28.691  1.00  0.00    -0.454 OA
BRANCH  26  27
ATOM     27  C   UNL     1     182.855 -22.004  29.811  1.00  0.00     0.214 A 
ATOM     28  C   UNL     1     183.534 -21.246  30.810  1.00  0.00     0.180 A 
ATOM     29  C   UNL     1     182.761 -23.390  29.995  1.00  0.00     0.239 A 
ATOM     30  O   UNL     1     183.949 -21.854  31.926  1.00  0.00    -0.452 OA
ATOM     31  C   UNL     1     183.261 -23.991  31.173  1.00  0.00     0.111 A 
ATOM     32  O   UNL     1     182.190 -24.091  29.124  1.00  0.00    -0.285 OA
ATOM     33  C   UNL     1     183.838 -23.163  32.156  1.00  0.00     0.146 A 
ATOM     34  C   UNL     1     183.154 -25.389  31.428  1.00  0.00     0.134 A 
ATOM     35  C   UNL     1     184.274 -23.705  33.374  1.00  0.00     0.094 A 
ATOM     36  C   UNL     1     183.604 -25.924  32.636  1.00  0.00     0.093 A 
ATOM     37  C   UNL     1     184.160 -25.092  33.613  1.00  0.00     0.123 A 
BRANCH  28  38
ATOM     38  C   UNL     1     183.894 -19.815  30.655  1.00  0.00     0.025 A 
ATOM     39  C   UNL     1     185.238 -19.411  30.482  1.00  0.00     0.062 A 
ATOM     40  C   UNL     1     182.919 -18.829  30.683  1.00  0.00     0.016 A 
ATOM     41  C   UNL     1     185.571 -18.040  30.477  1.00  0.00     0.158 A 
ATOM     42  C   UNL     1     183.237 -17.477  30.650  1.00  0.00     0.051 A 
ATOM     43  C   UNL     1     184.544 -17.068  30.430  1.00  0.00     0.157 A 
BRANCH  41  44
ATOM     44  O   UNL     1     186.903 -17.645  30.599  1.00  0.00    -0.504 OA
ATOM     45  H   UNL     1     187.628 -18.325  30.840  1.00  0.00     0.293 HD
ENDBRANCH  41  44
BRANCH  43  46
ATOM     46  O   UNL     1     184.799 -15.706  30.180  1.00  0.00    -0.504 OA
ATOM     47  H   UNL     1     184.043 -15.088  29.881  1.00  0.00     0.293 HD
ENDBRANCH  43  46
ENDBRANCH  28  38
BRANCH  34  48
ATOM     48  O   UNL     1     182.530 -26.243  30.508  1.00  0.00    -0.507 OA
ATOM     49  H   UNL     1     182.726 -27.239  30.427  1.00  0.00     0.293 HD
ENDBRANCH  34  48
BRANCH  37  50
ATOM     50  O   UNL     1     184.628 -25.667  34.796  1.00  0.00    -0.508 OA
ATOM     51  H   UNL     1     184.135 -25.516  35.663  1.00  0.00     0.293 HD
ENDBRANCH  37  50
ENDBRANCH  26  27
ENDBRANCH   5  26
BRANCH   4  52
ATOM     52  O   UNL     1     183.269 -21.676  25.162  1.00  0.00    -0.384 OA
ATOM     53  H   UNL     1     183.079 -22.312  24.418  1.00  0.00     0.211 HD
ENDBRANCH   4  52
TORSDOF 16
ENDMDL
MODEL 4
REMARK VINA RESULT:    -8.668      3.078      8.357
REMARK INTER + INTRA:         -16.304
REMARK INTER:                 -14.017
REMARK INTRA:                  -2.286
REMARK UNBOUND:                -2.062
REMARK SMILES C[C@H]1O[C@@H](OC[C@@H]2O[C@@H](Oc3c(-c4ccc(O)c(O)c4)oc4cc(O)cc(O)c4c3=O)[C@H](O)[C@H](O)[C@H]2O)[C@H](O)[C@@H](O)[C@@H]1O
REMARK SMILES IDX 7 1 36 2 34 3 32 4 9 5 8 6 6 7 5 8 4 9 1 10 2 11 42 12 3 13
REMARK SMILES IDX 40 14 38 15 43 16 41 18 39 20 37 22 35 24 10 26 11 27 12 28
REMARK SMILES IDX 30 29 21 30 29 31 31 32 22 33 27 34 23 35 26 36 24 37 13 38
REMARK SMILES IDX 20 39 14 40 18 41 15 42 16 43 19 44 17 46 28 48 25 50 33 52
REMARK H PARENT 43 17 41 19 39 21 37 23 35 25 19 45 17 47 28 49 25 51 33 53
REMARK Flexibility Score: inf
ROOT
ATOM      1  C   UNL     1     181.123 -18.082  26.920  1.00  0.00     0.180 C 
ATOM      2  C   UNL     1     181.342 -17.463  25.482  1.00  0.00     0.177 C 
ATOM      3  C   UNL     1     182.175 -16.152  25.533  1.00  0.00     0.180 C 
ATOM      4  C   UNL     1     181.840 -15.285  26.766  1.00  0.00     0.214 C 
ATOM      5  C   UNL     1     181.953 -16.164  28.023  1.00  0.00     0.339 C 
ATOM      6  O   UNL     1     180.933 -17.134  27.959  1.00  0.00    -0.332 OA
ENDROOT
BRANCH   1   7
ATOM      7  C   UNL     1     179.850 -18.928  26.880  1.00  0.00     0.198 C 
BRANCH   7   8
ATOM      8  O   UNL     1     179.949 -19.950  25.898  1.00  0.00    -0.347 OA
BRANCH   8   9
ATOM      9  C   UNL     1     180.830 -20.983  26.315  1.00  0.00     0.281 C 
ATOM     10  C   UNL     1     181.005 -20.722  23.125  1.00  0.00     0.041 C 
ATOM     11  C   UNL     1     181.406 -21.786  24.143  1.00  0.00     0.150 C 
ATOM     12  C   UNL     1     180.361 -22.950  24.250  1.00  0.00     0.174 C 
ATOM     13  O   UNL     1     181.866 -21.228  25.370  1.00  0.00    -0.344 OA
ATOM     14  C   UNL     1     179.350 -22.824  25.408  1.00  0.00     0.179 C 
ATOM     15  C   UNL     1     180.046 -22.278  26.666  1.00  0.00     0.202 C 
BRANCH  12  16
ATOM     16  O   UNL     1     181.048 -24.176  24.383  1.00  0.00    -0.388 OA
ATOM     17  H   UNL     1     181.957 -24.016  23.983  1.00  0.00     0.211 HD
ENDBRANCH  12  16
BRANCH  14  18
ATOM     18  O   UNL     1     178.220 -22.048  25.048  1.00  0.00    -0.387 OA
ATOM     19  H   UNL     1     178.094 -21.287  25.691  1.00  0.00     0.211 HD
ENDBRANCH  14  18
BRANCH  15  20
ATOM     20  O   UNL     1     180.907 -23.280  27.185  1.00  0.00    -0.385 OA
ATOM     21  H   UNL     1     181.253 -22.962  28.086  1.00  0.00     0.211 HD
ENDBRANCH  15  20
ENDBRANCH   8   9
ENDBRANCH   7   8
ENDBRANCH   1   7
BRANCH   2  22
ATOM     22  O   UNL     1     182.000 -18.346  24.592  1.00  0.00    -0.387 OA
ATOM     23  H   UNL     1     182.518 -17.834  23.913  1.00  0.00     0.211 HD
ENDBRANCH   2  22
BRANCH   3  24
ATOM     24  O   UNL     1     182.039 -15.448  24.330  1.00  0.00    -0.387 OA
ATOM     25  H   UNL     1     181.138 -15.024  24.320  1.00  0.00     0.211 HD
ENDBRANCH   3  24
BRANCH   5  26
ATOM     26  O   UNL     1     183.254 -16.795  28.203  1.00  0.00    -0.454 OA
BRANCH  26  27
ATOM     27  C   UNL     1     183.539 -17.980  28.947  1.00  0.00     0.214 A 
ATOM     28  C   UNL     1     183.463 -18.029  30.370  1.00  0.00     0.180 A 
ATOM     29  C   UNL     1     183.831 -19.170  28.267  1.00  0.00     0.239 A 
ATOM     30  O   UNL     1     183.554 -19.211  30.991  1.00  0.00    -0.452 OA
ATOM     31  C   UNL     1     183.967 -20.385  28.976  1.00  0.00     0.111 A 
ATOM     32  O   UNL     1     183.928 -19.156  27.015  1.00  0.00    -0.285 OA
ATOM     33  C   UNL     1     183.787 -20.370  30.373  1.00  0.00     0.146 A 
ATOM     34  C   UNL     1     184.221 -21.629  28.329  1.00  0.00     0.134 A 
ATOM     35  C   UNL     1     183.832 -21.563  31.108  1.00  0.00     0.094 A 
ATOM     36  C   UNL     1     184.280 -22.812  29.068  1.00  0.00     0.093 A 
ATOM     37  C   UNL     1     184.084 -22.789  30.453  1.00  0.00     0.123 A 
BRANCH  28  38
ATOM     38  C   UNL     1     183.372 -16.826  31.233  1.00  0.00     0.025 A 
ATOM     39  C   UNL     1     182.122 -16.268  31.586  1.00  0.00     0.062 A 
ATOM     40  C   UNL     1     184.517 -16.208  31.714  1.00  0.00     0.016 A 
ATOM     41  C   UNL     1     182.064 -15.046  32.288  1.00  0.00     0.158 A 
ATOM     42  C   UNL     1     184.467 -15.020  32.431  1.00  0.00     0.051 A 
ATOM     43  C   UNL     1     183.247 -14.489  32.827  1.00  0.00     0.157 A 
BRANCH  41  44
ATOM     44  O   UNL     1     180.858 -14.353  32.384  1.00  0.00    -0.504 OA
ATOM     45  H   UNL     1     180.828 -13.340  32.250  1.00  0.00     0.293 HD
ENDBRANCH  41  44
BRANCH  43  46
ATOM     46  O   UNL     1     183.235 -13.414  33.737  1.00  0.00    -0.504 OA
ATOM     47  H   UNL     1     184.096 -12.904  33.942  1.00  0.00     0.293 HD
ENDBRANCH  43  46
ENDBRANCH  28  38
BRANCH  34  48
ATOM     48  O   UNL     1     184.343 -21.703  26.934  1.00  0.00    -0.507 OA
ATOM     49  H   UNL     1     183.684 -22.187  26.327  1.00  0.00     0.293 HD
ENDBRANCH  34  48
BRANCH  37  50
ATOM     50  O   UNL     1     184.182 -23.987  31.163  1.00  0.00    -0.508 OA
ATOM     51  H   UNL     1     183.469 -24.693  31.066  1.00  0.00     0.293 HD
ENDBRANCH  37  50
ENDBRANCH  26  27
ENDBRANCH   5  26
BRANCH   4  52
ATOM     52  O   UNL     1     180.516 -14.815  26.705  1.00  0.00    -0.384 OA
ATOM     53  H   UNL     1     180.427 -14.013  27.290  1.00  0.00     0.211 HD
ENDBRANCH   4  52
TORSDOF 16
ENDMDL
MODEL 5
REMARK VINA RESULT:    -8.621      2.531      4.061
REMARK INTER + INTRA:         -16.227
REMARK INTER:                 -14.133
REMARK INTRA:                  -2.094
REMARK UNBOUND:                -2.062
REMARK SMILES C[C@H]1O[C@@H](OC[C@@H]2O[C@@H](Oc3c(-c4ccc(O)c(O)c4)oc4cc(O)cc(O)c4c3=O)[C@H](O)[C@H](O)[C@H]2O)[C@H](O)[C@@H](O)[C@@H]1O
REMARK SMILES IDX 7 1 36 2 34 3 32 4 9 5 8 6 6 7 5 8 4 9 1 10 2 11 42 12 3 13
REMARK SMILES IDX 40 14 38 15 43 16 41 18 39 20 37 22 35 24 10 26 11 27 12 28
REMARK SMILES IDX 30 29 21 30 29 31 31 32 22 33 27 34 23 35 26 36 24 37 13 38
REMARK SMILES IDX 20 39 14 40 18 41 15 42 16 43 19 44 17 46 28 48 25 50 33 52
REMARK H PARENT 43 17 41 19 39 21 37 23 35 25 19 45 17 47 28 49 25 51 33 53
REMARK Flexibility Score: inf
ROOT
ATOM      1  C   UNL     1     181.015 -18.238  26.856  1.00  0.00     0.180 C 
ATOM      2  C   UNL     1     179.626 -17.483  26.840  1.00  0.00     0.177 C 
ATOM      3  C   UNL     1     179.802 -15.941  26.759  1.00  0.00     0.180 C 
ATOM      4  C   UNL     1     181.008 -15.438  27.582  1.00  0.00     0.214 C 
ATOM      5  C   UNL     1     182.249 -16.247  27.167  1.00  0.00     0.339 C 
ATOM      6  O   UNL     1     182.047 -17.580  27.575  1.00  0.00    -0.332 OA
ENDROOT
BRANCH   1   7
ATOM      7  C   UNL     1     180.811 -19.586  27.548  1.00  0.00     0.198 C 
BRANCH   7   8
ATOM      8  O   UNL     1     181.952 -19.941  28.317  1.00  0.00    -0.347 OA
BRANCH   8   9
ATOM      9  C   UNL     1     182.871 -20.708  27.552  1.00  0.00     0.281 C 
ATOM     10  C   UNL     1     181.110 -22.711  29.330  1.00  0.00     0.041 C 
ATOM     11  C   UNL     1     182.430 -22.819  28.573  1.00  0.00     0.150 C 
ATOM     12  C   UNL     1     183.681 -22.676  29.508  1.00  0.00     0.174 C 
ATOM     13  O   UNL     1     182.442 -22.052  27.373  1.00  0.00    -0.344 OA
ATOM     14  C   UNL     1     184.309 -21.268  29.558  1.00  0.00     0.179 C 
ATOM     15  C   UNL     1     184.300 -20.631  28.158  1.00  0.00     0.202 C 
BRANCH  12  16
ATOM     16  O   UNL     1     184.670 -23.596  29.100  1.00  0.00    -0.388 OA
ATOM     17  H   UNL     1     184.511 -23.740  28.117  1.00  0.00     0.211 HD
ENDBRANCH  12  16
BRANCH  14  18
ATOM     18  O   UNL     1     183.684 -20.438  30.523  1.00  0.00    -0.387 OA
ATOM     19  H   UNL     1     184.021 -19.495  30.448  1.00  0.00     0.211 HD
ENDBRANCH  14  18
BRANCH  15  20
ATOM     20  O   UNL     1     185.246 -21.305  27.342  1.00  0.00    -0.385 OA
ATOM     21  H   UNL     1     184.928 -22.262  27.216  1.00  0.00     0.211 HD
ENDBRANCH  15  20
ENDBRANCH   8   9
ENDBRANCH   7   8
ENDBRANCH   1   7
BRANCH   2  22
ATOM     22  O   UNL     1     178.796 -17.870  25.760  1.00  0.00    -0.387 OA
ATOM     23  H   UNL     1     177.857 -17.989  26.068  1.00  0.00     0.211 HD
ENDBRANCH   2  22
BRANCH   3  24
ATOM     24  O   UNL     1     178.608 -15.300  27.114  1.00  0.00    -0.387 OA
ATOM     25  H   UNL     1     177.909 -15.562  26.456  1.00  0.00     0.211 HD
ENDBRANCH   3  24
BRANCH   5  26
ATOM     26  O   UNL     1     182.562 -16.185  25.745  1.00  0.00    -0.454 OA
BRANCH  26  27
ATOM     27  C   UNL     1     183.856 -16.053  25.155  1.00  0.00     0.214 A 
ATOM     28  C   UNL     1     184.428 -17.063  24.326  1.00  0.00     0.180 A 
ATOM     29  C   UNL     1     184.573 -14.860  25.320  1.00  0.00     0.239 A 
ATOM     30  O   UNL     1     185.553 -16.799  23.652  1.00  0.00    -0.452 OA
ATOM     31  C   UNL     1     185.784 -14.650  24.622  1.00  0.00     0.111 A 
ATOM     32  O   UNL     1     184.108 -13.959  26.062  1.00  0.00    -0.285 OA
ATOM     33  C   UNL     1     186.239 -15.659  23.751  1.00  0.00     0.146 A 
ATOM     34  C   UNL     1     186.530 -13.440  24.722  1.00  0.00     0.134 A 
ATOM     35  C   UNL     1     187.392 -15.461  22.977  1.00  0.00     0.094 A 
ATOM     36  C   UNL     1     187.685 -13.256  23.961  1.00  0.00     0.093 A 
ATOM     37  C   UNL     1     188.121 -14.256  23.086  1.00  0.00     0.123 A 
BRANCH  28  38
ATOM     38  C   UNL     1     183.897 -18.443  24.225  1.00  0.00     0.025 A 
ATOM     39  C   UNL     1     184.720 -19.567  24.468  1.00  0.00     0.062 A 
ATOM     40  C   UNL     1     182.573 -18.673  23.878  1.00  0.00     0.016 A 
ATOM     41  C   UNL     1     184.232 -20.869  24.229  1.00  0.00     0.158 A 
ATOM     42  C   UNL     1     182.078 -19.953  23.669  1.00  0.00     0.051 A 
ATOM     43  C   UNL     1     182.858 -21.065  23.952  1.00  0.00     0.157 A 
BRANCH  41  44
ATOM     44  O   UNL     1     185.114 -21.948  24.188  1.00  0.00    -0.504 OA
ATOM     45  H   UNL     1     184.930 -22.792  24.734  1.00  0.00     0.293 HD
ENDBRANCH  41  44
BRANCH  43  46
ATOM     46  O   UNL     1     182.259 -22.339  23.945  1.00  0.00    -0.504 OA
ATOM     47  H   UNL     1     181.712 -22.645  23.139  1.00  0.00     0.293 HD
ENDBRANCH  43  46
ENDBRANCH  28  38
BRANCH  34  48
ATOM     48  O   UNL     1     186.082 -12.383  25.527  1.00  0.00    -0.507 OA
ATOM     49  H   UNL     1     186.284 -11.401  25.348  1.00  0.00     0.293 HD
ENDBRANCH  34  48
BRANCH  37  50
ATOM     50  O   UNL     1     189.297 -14.050  22.364  1.00  0.00    -0.508 OA
ATOM     51  H   UNL     1     190.193 -14.117  22.823  1.00  0.00     0.293 HD
ENDBRANCH  37  50
ENDBRANCH  26  27
ENDBRANCH   5  26
BRANCH   4  52
ATOM     52  O   UNL     1     180.807 -15.661  28.955  1.00  0.00    -0.384 OA
ATOM     53  H   UNL     1     181.478 -16.324  29.280  1.00  0.00     0.211 HD
ENDBRANCH   4  52
TORSDOF 16
ENDMDL
MODEL 6
REMARK VINA RESULT:    -8.606      2.243      3.637
REMARK INTER + INTRA:         -16.202
REMARK INTER:                 -14.266
REMARK INTRA:                  -1.936
REMARK UNBOUND:                -2.062
REMARK SMILES C[C@H]1O[C@@H](OC[C@@H]2O[C@@H](Oc3c(-c4ccc(O)c(O)c4)oc4cc(O)cc(O)c4c3=O)[C@H](O)[C@H](O)[C@H]2O)[C@H](O)[C@@H](O)[C@@H]1O
REMARK SMILES IDX 7 1 36 2 34 3 32 4 9 5 8 6 6 7 5 8 4 9 1 10 2 11 42 12 3 13
REMARK SMILES IDX 40 14 38 15 43 16 41 18 39 20 37 22 35 24 10 26 11 27 12 28
REMARK SMILES IDX 30 29 21 30 29 31 31 32 22 33 27 34 23 35 26 36 24 37 13 38
REMARK SMILES IDX 20 39 14 40 18 41 15 42 16 43 19 44 17 46 28 48 25 50 33 52
REMARK H PARENT 43 17 41 19 39 21 37 23 35 25 19 45 17 47 28 49 25 51 33 53
REMARK Flexibility Score: inf
ROOT
ATOM      1  C   UNL     1     180.553 -16.973  28.857  1.00  0.00     0.180 C 
ATOM      2  C   UNL     1     179.777 -18.319  28.566  1.00  0.00     0.177 C 
ATOM      3  C   UNL     1     179.925 -18.769  27.086  1.00  0.00     0.180 C 
ATOM      4  C   UNL     1     179.916 -17.579  26.102  1.00  0.00     0.214 C 
ATOM      5  C   UNL     1     180.966 -16.556  26.568  1.00  0.00     0.339 C 
ATOM      6  O   UNL     1     180.530 -16.027  27.799  1.00  0.00    -0.332 OA
ENDROOT
BRANCH   1   7
ATOM      7  C   UNL     1     179.883 -16.290  30.049  1.00  0.00     0.198 C 
BRANCH   7   8
ATOM      8  O   UNL     1     179.286 -15.060  29.662  1.00  0.00    -0.347 OA
BRANCH   8   9
ATOM      9  C   UNL     1     177.925 -14.997  30.061  1.00  0.00     0.281 C 
ATOM     10  C   UNL     1     178.209 -13.589  27.196  1.00  0.00     0.041 C 
ATOM     11  C   UNL     1     177.155 -13.584  28.299  1.00  0.00     0.150 C 
ATOM     12  C   UNL     1     177.245 -12.317  29.219  1.00  0.00     0.174 C 
ATOM     13  O   UNL     1     177.040 -14.842  28.958  1.00  0.00    -0.344 OA
ATOM     14  C   UNL     1     178.019 -12.513  30.538  1.00  0.00     0.179 C 
ATOM     15  C   UNL     1     177.710 -13.896  31.137  1.00  0.00     0.202 C 
BRANCH  12  16
ATOM     16  O   UNL     1     175.940 -11.875  29.524  1.00  0.00    -0.388 OA
ATOM     17  H   UNL     1     175.345 -12.672  29.367  1.00  0.00     0.211 HD
ENDBRANCH  12  16
BRANCH  14  18
ATOM     18  O   UNL     1     179.412 -12.305  30.376  1.00  0.00    -0.387 OA
ATOM     19  H   UNL     1     179.922 -12.721  31.135  1.00  0.00     0.211 HD
ENDBRANCH  14  18
BRANCH  15  20
ATOM     20  O   UNL     1     176.375 -13.898  31.620  1.00  0.00    -0.385 OA
ATOM     21  H   UNL     1     176.066 -14.864  31.688  1.00  0.00     0.211 HD
ENDBRANCH  15  20
ENDBRANCH   8   9
ENDBRANCH   7   8
ENDBRANCH   1   7
BRANCH   2  22
ATOM     22  O   UNL     1     180.210 -19.395  29.379  1.00  0.00    -0.387 OA
ATOM     23  H   UNL     1     180.737 -19.057  30.153  1.00  0.00     0.211 HD
ENDBRANCH   2  22
BRANCH   3  24
ATOM     24  O   UNL     1     178.953 -19.729  26.775  1.00  0.00    -0.387 OA
ATOM     25  H   UNL     1     178.062 -19.287  26.803  1.00  0.00     0.211 HD
ENDBRANCH   3  24
BRANCH   5  26
ATOM     26  O   UNL     1     182.317 -17.089  26.684  1.00  0.00    -0.454 OA
BRANCH  26  27
ATOM     27  C   UNL     1     183.436 -16.782  25.852  1.00  0.00     0.214 A 
ATOM     28  C   UNL     1     183.778 -17.560  24.708  1.00  0.00     0.180 A 
ATOM     29  C   UNL     1     184.192 -15.629  26.108  1.00  0.00     0.239 A 
ATOM     30  O   UNL     1     184.716 -17.111  23.866  1.00  0.00    -0.452 OA
ATOM     31  C   UNL     1     185.207 -15.226  25.212  1.00  0.00     0.111 A 
ATOM     32  O   UNL     1     183.932 -14.934  27.121  1.00  0.00    -0.285 OA
ATOM     33  C   UNL     1     185.426 -15.998  24.054  1.00  0.00     0.146 A 
ATOM     34  C   UNL     1     185.976 -14.041  25.403  1.00  0.00     0.134 A 
ATOM     35  C   UNL     1     186.366 -15.591  23.096  1.00  0.00     0.094 A 
ATOM     36  C   UNL     1     186.922 -13.650  24.453  1.00  0.00     0.093 A 
ATOM     37  C   UNL     1     187.120 -14.414  23.299  1.00  0.00     0.123 A 
BRANCH  28  38
ATOM     38  C   UNL     1     183.214 -18.902  24.426  1.00  0.00     0.025 A 
ATOM     39  C   UNL     1     181.878 -19.061  23.991  1.00  0.00     0.062 A 
ATOM     40  C   UNL     1     183.983 -20.046  24.589  1.00  0.00     0.016 A 
ATOM     41  C   UNL     1     181.322 -20.351  23.864  1.00  0.00     0.158 A 
ATOM     42  C   UNL     1     183.449 -21.319  24.439  1.00  0.00     0.051 A 
ATOM     43  C   UNL     1     182.156 -21.489  23.964  1.00  0.00     0.157 A 
BRANCH  41  44
ATOM     44  O   UNL     1     179.943 -20.505  23.720  1.00  0.00    -0.504 OA
ATOM     45  H   UNL     1     179.559 -21.061  22.953  1.00  0.00     0.293 HD
ENDBRANCH  41  44
BRANCH  43  46
ATOM     46  O   UNL     1     181.724 -22.782  23.610  1.00  0.00    -0.504 OA
ATOM     47  H   UNL     1     182.318 -23.384  23.039  1.00  0.00     0.293 HD
ENDBRANCH  43  46
ENDBRANCH  28  38
BRANCH  34  48
ATOM     48  O   UNL     1     185.750 -13.207  26.507  1.00  0.00    -0.507 OA
ATOM     49  H   UNL     1     185.618 -12.199  26.445  1.00  0.00     0.293 HD
ENDBRANCH  34  48
BRANCH  37  50
ATOM     50  O   UNL     1     188.096 -14.009  22.387  1.00  0.00    -0.508 OA
ATOM     51  H   UNL     1     187.851 -13.843  21.423  1.00  0.00     0.293 HD
ENDBRANCH  37  50
ENDBRANCH  26  27
ENDBRANCH   5  26
BRANCH   4  52
ATOM     52  O   UNL     1     178.669 -16.930  26.112  1.00  0.00    -0.384 OA
ATOM     53  H   UNL     1     178.238 -17.038  25.219  1.00  0.00     0.211 HD
ENDBRANCH   4  52
TORSDOF 16
ENDMDL
MODEL 7
REMARK VINA RESULT:    -8.593      3.856      7.561
REMARK INTER + INTRA:         -16.180
REMARK INTER:                 -13.170
REMARK INTRA:                  -3.010
REMARK UNBOUND:                -2.062
REMARK SMILES C[C@H]1O[C@@H](OC[C@@H]2O[C@@H](Oc3c(-c4ccc(O)c(O)c4)oc4cc(O)cc(O)c4c3=O)[C@H](O)[C@H](O)[C@H]2O)[C@H](O)[C@@H](O)[C@@H]1O
REMARK SMILES IDX 7 1 36 2 34 3 32 4 9 5 8 6 6 7 5 8 4 9 1 10 2 11 42 12 3 13
REMARK SMILES IDX 40 14 38 15 43 16 41 18 39 20 37 22 35 24 10 26 11 27 12 28
REMARK SMILES IDX 30 29 21 30 29 31 31 32 22 33 27 34 23 35 26 36 24 37 13 38
REMARK SMILES IDX 20 39 14 40 18 41 15 42 16 43 19 44 17 46 28 48 25 50 33 52
REMARK H PARENT 43 17 41 19 39 21 37 23 35 25 19 45 17 47 28 49 25 51 33 53
REMARK Flexibility Score: inf
ROOT
ATOM      1  C   UNL     1     184.577 -17.131  29.544  1.00  0.00     0.180 C 
ATOM      2  C   UNL     1     185.595 -17.140  30.753  1.00  0.00     0.177 C 
ATOM      3  C   UNL     1     185.378 -18.362  31.689  1.00  0.00     0.180 C 
ATOM      4  C   UNL     1     183.885 -18.718  31.861  1.00  0.00     0.214 C 
ATOM      5  C   UNL     1     183.257 -18.861  30.464  1.00  0.00     0.339 C 
ATOM      6  O   UNL     1     183.271 -17.590  29.856  1.00  0.00    -0.332 OA
ENDROOT
BRANCH   1   7
ATOM      7  C   UNL     1     184.416 -15.685  29.074  1.00  0.00     0.198 C 
BRANCH   7   8
ATOM      8  O   UNL     1     183.070 -15.418  28.704  1.00  0.00    -0.347 OA
BRANCH   8   9
ATOM      9  C   UNL     1     182.992 -14.886  27.389  1.00  0.00     0.281 C 
ATOM     10  C   UNL     1     180.213 -14.318  28.881  1.00  0.00     0.041 C 
ATOM     11  C   UNL     1     180.674 -14.318  27.428  1.00  0.00     0.150 C 
ATOM     12  C   UNL     1     180.295 -15.637  26.669  1.00  0.00     0.174 C 
ATOM     13  O   UNL     1     182.014 -13.859  27.275  1.00  0.00    -0.344 OA
ATOM     14  C   UNL     1     181.415 -16.694  26.584  1.00  0.00     0.179 C 
ATOM     15  C   UNL     1     182.773 -16.014  26.343  1.00  0.00     0.202 C 
BRANCH  12  16
ATOM     16  O   UNL     1     179.882 -15.313  25.359  1.00  0.00    -0.388 OA
ATOM     17  H   UNL     1     180.730 -15.116  24.853  1.00  0.00     0.211 HD
ENDBRANCH  12  16
BRANCH  14  18
ATOM     18  O   UNL     1     181.440 -17.538  27.724  1.00  0.00    -0.387 OA
ATOM     19  H   UNL     1     181.911 -17.087  28.487  1.00  0.00     0.211 HD
ENDBRANCH  14  18
BRANCH  15  20
ATOM     20  O   UNL     1     182.801 -15.505  25.019  1.00  0.00    -0.385 OA
ATOM     21  H   UNL     1     182.993 -14.508  25.068  1.00  0.00     0.211 HD
ENDBRANCH  15  20
ENDBRANCH   8   9
ENDBRANCH   7   8
ENDBRANCH   1   7
BRANCH   2  22
ATOM     22  O   UNL     1     186.949 -17.162  30.338  1.00  0.00    -0.387 OA
ATOM     23  H   UNL     1     187.186 -16.313  29.877  1.00  0.00     0.211 HD
ENDBRANCH   2  22
BRANCH   3  24
ATOM     24  O   UNL     1     186.022 -18.150  32.914  1.00  0.00    -0.387 OA
ATOM     25  H   UNL     1     186.311 -19.034  33.270  1.00  0.00     0.211 HD
ENDBRANCH   3  24
BRANCH   5  26
ATOM     26  O   UNL     1     183.904 -19.849  29.610  1.00  0.00    -0.454 OA
BRANCH  26  27
ATOM     27  C   UNL     1     183.276 -20.694  28.645  1.00  0.00     0.214 A 
ATOM     28  C   UNL     1     182.608 -21.902  29.002  1.00  0.00     0.180 A 
ATOM     29  C   UNL     1     183.237 -20.298  27.301  1.00  0.00     0.239 A 
ATOM     30  O   UNL     1     181.880 -22.545  28.083  1.00  0.00    -0.452 OA
ATOM     31  C   UNL     1     182.492 -21.042  26.358  1.00  0.00     0.111 A 
ATOM     32  O   UNL     1     183.834 -19.252  26.949  1.00  0.00    -0.285 OA
ATOM     33  C   UNL     1     181.783 -22.174  26.805  1.00  0.00     0.146 A 
ATOM     34  C   UNL     1     182.384 -20.660  24.989  1.00  0.00     0.134 A 
ATOM     35  C   UNL     1     180.966 -22.895  25.922  1.00  0.00     0.094 A 
ATOM     36  C   UNL     1     181.582 -21.391  24.112  1.00  0.00     0.093 A 
ATOM     37  C   UNL     1     180.868 -22.504  24.568  1.00  0.00     0.123 A 
BRANCH  28  38
ATOM     38  C   UNL     1     182.737 -22.554  30.328  1.00  0.00     0.025 A 
ATOM     39  C   UNL     1     183.780 -23.469  30.599  1.00  0.00     0.062 A 
ATOM     40  C   UNL     1     181.828 -22.288  31.343  1.00  0.00     0.016 A 
ATOM     41  C   UNL     1     183.801 -24.181  31.816  1.00  0.00     0.158 A 
ATOM     42  C   UNL     1     181.860 -22.965  32.555  1.00  0.00     0.051 A 
ATOM     43  C   UNL     1     182.906 -23.827  32.853  1.00  0.00     0.157 A 
BRANCH  41  44
ATOM     44  O   UNL     1     184.647 -25.279  31.968  1.00  0.00    -0.504 OA
ATOM     45  H   UNL     1     185.250 -25.363  32.789  1.00  0.00     0.293 HD
ENDBRANCH  41  44
BRANCH  43  46
ATOM     46  O   UNL     1     183.030 -24.322  34.165  1.00  0.00    -0.504 OA
ATOM     47  H   UNL     1     183.771 -24.985  34.397  1.00  0.00     0.293 HD
ENDBRANCH  43  46
ENDBRANCH  28  38
BRANCH  34  48
ATOM     48  O   UNL     1     183.019 -19.505  24.512  1.00  0.00    -0.507 OA
ATOM     49  H   UNL     1     182.571 -18.593  24.442  1.00  0.00     0.293 HD
ENDBRANCH  34  48
BRANCH  37  50
ATOM     50  O   UNL     1     180.101 -23.229  23.655  1.00  0.00    -0.508 OA
ATOM     51  H   UNL     1     180.508 -24.002  23.151  1.00  0.00     0.293 HD
ENDBRANCH  37  50
ENDBRANCH  26  27
ENDBRANCH   5  26
BRANCH   4  52
ATOM     52  O   UNL     1     183.196 -17.687  32.523  1.00  0.00    -0.384 OA
ATOM     53  H   UNL     1     182.523 -18.088  33.139  1.00  0.00     0.211 HD
ENDBRANCH   4  52
TORSDOF 16
ENDMDL
MODEL 8
REMARK VINA RESULT:    -8.482      5.182      9.618
REMARK INTER + INTRA:         -15.999
REMARK INTER:                 -13.289
REMARK INTRA:                  -2.711
REMARK UNBOUND:                -2.062
REMARK SMILES C[C@H]1O[C@@H](OC[C@@H]2O[C@@H](Oc3c(-c4ccc(O)c(O)c4)oc4cc(O)cc(O)c4c3=O)[C@H](O)[C@H](O)[C@H]2O)[C@H](O)[C@@H](O)[C@@H]1O
REMARK SMILES IDX 7 1 36 2 34 3 32 4 9 5 8 6 6 7 5 8 4 9 1 10 2 11 42 12 3 13
REMARK SMILES IDX 40 14 38 15 43 16 41 18 39 20 37 22 35 24 10 26 11 27 12 28
REMARK SMILES IDX 30 29 21 30 29 31 31 32 22 33 27 34 23 35 26 36 24 37 13 38
REMARK SMILES IDX 20 39 14 40 18 41 15 42 16 43 19 44 17 46 28 48 25 50 33 52
REMARK H PARENT 43 17 41 19 39 21 37 23 35 25 19 45 17 47 28 49 25 51 33 53
REMARK Flexibility Score: inf
ROOT
ATOM      1  C   UNL     1     182.964 -19.578  28.705  1.00  0.00     0.180 C 
ATOM      2  C   UNL     1     182.316 -20.155  27.383  1.00  0.00     0.177 C 
ATOM      3  C   UNL     1     182.720 -21.635  27.134  1.00  0.00     0.180 C 
ATOM      4  C   UNL     1     184.183 -21.924  27.534  1.00  0.00     0.214 C 
ATOM      5  C   UNL     1     184.397 -21.437  28.977  1.00  0.00     0.339 C 
ATOM      6  O   UNL     1     184.280 -20.033  28.976  1.00  0.00    -0.332 OA
ENDROOT
BRANCH   1   7
ATOM      7  C   UNL     1     183.062 -18.059  28.559  1.00  0.00     0.198 C 
BRANCH   7   8
ATOM      8  O   UNL     1     181.830 -17.510  28.113  1.00  0.00    -0.347 OA
BRANCH   8   9
ATOM      9  C   UNL     1     182.036 -16.522  27.114  1.00  0.00     0.281 C 
ATOM     10  C   UNL     1     180.046 -15.331  29.326  1.00  0.00     0.041 C 
ATOM     11  C   UNL     1     180.410 -14.959  27.892  1.00  0.00     0.150 C 
ATOM     12  C   UNL     1     179.358 -15.468  26.846  1.00  0.00     0.174 C 
ATOM     13  O   UNL     1     181.779 -15.206  27.589  1.00  0.00    -0.344 OA
ATOM     14  C   UNL     1     179.713 -16.795  26.146  1.00  0.00     0.179 C 
ATOM     15  C   UNL     1     181.218 -16.846  25.832  1.00  0.00     0.202 C 
BRANCH  12  16
ATOM     16  O   UNL     1     179.169 -14.476  25.861  1.00  0.00    -0.388 OA
ATOM     17  H   UNL     1     180.012 -14.482  25.311  1.00  0.00     0.211 HD
ENDBRANCH  12  16
BRANCH  14  18
ATOM     18  O   UNL     1     179.289 -17.923  26.893  1.00  0.00    -0.387 OA
ATOM     19  H   UNL     1     179.667 -18.768  26.503  1.00  0.00     0.211 HD
ENDBRANCH  14  18
BRANCH  15  20
ATOM     20  O   UNL     1     181.500 -15.924  24.791  1.00  0.00    -0.385 OA
ATOM     21  H   UNL     1     180.891 -16.139  24.006  1.00  0.00     0.211 HD
ENDBRANCH  15  20
ENDBRANCH   8   9
ENDBRANCH   7   8
ENDBRANCH   1   7
BRANCH   2  22
ATOM     22  O   UNL     1     180.901 -20.099  27.389  1.00  0.00    -0.387 OA
ATOM     23  H   UNL     1     180.566 -19.850  28.292  1.00  0.00     0.211 HD
ENDBRANCH   2  22
BRANCH   3  24
ATOM     24  O   UNL     1     182.447 -21.991  25.808  1.00  0.00    -0.387 OA
ATOM     25  H   UNL     1     183.309 -22.023  25.312  1.00  0.00     0.211 HD
ENDBRANCH   3  24
BRANCH   5  26
ATOM     26  O   UNL     1     183.492 -22.028  29.954  1.00  0.00    -0.454 OA
BRANCH  26  27
ATOM     27  C   UNL     1     183.842 -22.589  31.220  1.00  0.00     0.214 A 
ATOM     28  C   UNL     1     183.965 -21.800  32.401  1.00  0.00     0.180 A 
ATOM     29  C   UNL     1     183.998 -23.977  31.343  1.00  0.00     0.239 A 
ATOM     30  O   UNL     1     184.105 -22.408  33.585  1.00  0.00    -0.452 OA
ATOM     31  C   UNL     1     184.195 -24.565  32.612  1.00  0.00     0.111 A 
ATOM     32  O   UNL     1     183.920 -24.699  30.318  1.00  0.00    -0.285 OA
ATOM     33  C   UNL     1     184.213 -23.728  33.745  1.00  0.00     0.146 A 
ATOM     34  C   UNL     1     184.317 -25.974  32.797  1.00  0.00     0.134 A 
ATOM     35  C   UNL     1     184.324 -24.275  35.031  1.00  0.00     0.094 A 
ATOM     36  C   UNL     1     184.442 -26.511  34.079  1.00  0.00     0.093 A 
ATOM     37  C   UNL     1     184.443 -25.673  35.199  1.00  0.00     0.123 A 
BRANCH  28  38
ATOM     38  C   UNL     1     184.034 -20.319  32.399  1.00  0.00     0.025 A 
ATOM     39  C   UNL     1     185.275 -19.641  32.413  1.00  0.00     0.062 A 
ATOM     40  C   UNL     1     182.877 -19.552  32.391  1.00  0.00     0.016 A 
ATOM     41  C   UNL     1     185.316 -18.238  32.552  1.00  0.00     0.158 A 
ATOM     42  C   UNL     1     182.910 -18.168  32.499  1.00  0.00     0.051 A 
ATOM     43  C   UNL     1     184.119 -17.488  32.463  1.00  0.00     0.157 A 
BRANCH  41  44
ATOM     44  O   UNL     1     186.519 -17.601  32.855  1.00  0.00    -0.504 OA
ATOM     45  H   UNL     1     186.875 -17.589  33.813  1.00  0.00     0.293 HD
ENDBRANCH  41  44
BRANCH  43  46
ATOM     46  O   UNL     1     184.109 -16.085  32.348  1.00  0.00    -0.504 OA
ATOM     47  H   UNL     1     183.540 -15.521  32.982  1.00  0.00     0.293 HD
ENDBRANCH  43  46
ENDBRANCH  28  38
BRANCH  34  48
ATOM     48  O   UNL     1     184.239 -26.852  31.706  1.00  0.00    -0.507 OA
ATOM     49  H   UNL     1     184.965 -26.951  31.000  1.00  0.00     0.293 HD
ENDBRANCH  34  48
BRANCH  37  50
ATOM     50  O   UNL     1     184.602 -26.243  36.462  1.00  0.00    -0.508 OA
ATOM     51  H   UNL     1     185.168 -25.783  37.159  1.00  0.00     0.293 HD
ENDBRANCH  37  50
ENDBRANCH  26  27
ENDBRANCH   5  26
BRANCH   4  52
ATOM     52  O   UNL     1     185.078 -21.211  26.717  1.00  0.00    -0.384 OA
ATOM     53  H   UNL     1     184.798 -21.309  25.765  1.00  0.00     0.211 HD
ENDBRANCH   4  52
TORSDOF 16
ENDMDL
MODEL 9
REMARK VINA RESULT:    -8.472      2.361      4.440
REMARK INTER + INTRA:         -15.982
REMARK INTER:                 -13.177
REMARK INTRA:                  -2.805
REMARK UNBOUND:                -2.062
REMARK SMILES C[C@H]1O[C@@H](OC[C@@H]2O[C@@H](Oc3c(-c4ccc(O)c(O)c4)oc4cc(O)cc(O)c4c3=O)[C@H](O)[C@H](O)[C@H]2O)[C@H](O)[C@@H](O)[C@@H]1O
REMARK SMILES IDX 7 1 36 2 34 3 32 4 9 5 8 6 6 7 5 8 4 9 1 10 2 11 42 12 3 13
REMARK SMILES IDX 40 14 38 15 43 16 41 18 39 20 37 22 35 24 10 26 11 27 12 28
REMARK SMILES IDX 30 29 21 30 29 31 31 32 22 33 27 34 23 35 26 36 24 37 13 38
REMARK SMILES IDX 20 39 14 40 18 41 15 42 16 43 19 44 17 46 28 48 25 50 33 52
REMARK H PARENT 43 17 41 19 39 21 37 23 35 25 19 45 17 47 28 49 25 51 33 53
REMARK Flexibility Score: inf
ROOT
ATOM      1  C   UNL     1     180.425 -17.993  26.689  1.00  0.00     0.180 C 
ATOM      2  C   UNL     1     179.522 -16.886  27.367  1.00  0.00     0.177 C 
ATOM      3  C   UNL     1     180.361 -15.679  27.870  1.00  0.00     0.180 C 
ATOM      4  C   UNL     1     181.724 -16.107  28.455  1.00  0.00     0.214 C 
ATOM      5  C   UNL     1     182.437 -16.995  27.422  1.00  0.00     0.339 C 
ATOM      6  O   UNL     1     181.694 -18.185  27.294  1.00  0.00    -0.332 OA
ENDROOT
BRANCH   1   7
ATOM      7  C   UNL     1     179.695 -19.332  26.803  1.00  0.00     0.198 C 
BRANCH   7   8
ATOM      8  O   UNL     1     180.070 -20.016  27.991  1.00  0.00    -0.347 OA
BRANCH   8   9
ATOM      9  C   UNL     1     179.780 -21.404  27.901  1.00  0.00     0.281 C 
ATOM     10  C   UNL     1     181.102 -20.825  30.763  1.00  0.00     0.041 C 
ATOM     11  C   UNL     1     180.867 -22.073  29.918  1.00  0.00     0.150 C 
ATOM     12  C   UNL     1     182.145 -22.523  29.129  1.00  0.00     0.174 C 
ATOM     13  O   UNL     1     179.650 -22.016  29.179  1.00  0.00    -0.344 OA
ATOM     14  C   UNL     1     182.214 -22.054  27.662  1.00  0.00     0.179 C 
ATOM     15  C   UNL     1     180.823 -22.135  27.011  1.00  0.00     0.202 C 
BRANCH  12  16
ATOM     16  O   UNL     1     182.231 -23.931  29.157  1.00  0.00    -0.388 OA
ATOM     17  H   UNL     1     181.384 -24.259  28.724  1.00  0.00     0.211 HD
ENDBRANCH  12  16
BRANCH  14  18
ATOM     18  O   UNL     1     182.783 -20.761  27.541  1.00  0.00    -0.387 OA
ATOM     19  H   UNL     1     182.494 -20.175  28.304  1.00  0.00     0.211 HD
ENDBRANCH  14  18
BRANCH  15  20
ATOM     20  O   UNL     1     180.481 -23.500  26.828  1.00  0.00    -0.385 OA
ATOM     21  H   UNL     1     179.853 -23.771  27.579  1.00  0.00     0.211 HD
ENDBRANCH  15  20
ENDBRANCH   8   9
ENDBRANCH   7   8
ENDBRANCH   1   7
BRANCH   2  22
ATOM     22  O   UNL     1     178.526 -16.376  26.500  1.00  0.00    -0.387 OA
ATOM     23  H   UNL     1     178.226 -15.477  26.805  1.00  0.00     0.211 HD
ENDBRANCH   2  22
BRANCH   3  24
ATOM     24  O   UNL     1     179.609 -14.913  28.771  1.00  0.00    -0.387 OA
ATOM     25  H   UNL     1     179.906 -13.966  28.696  1.00  0.00     0.211 HD
ENDBRANCH   3  24
BRANCH   5  26
ATOM     26  O   UNL     1     182.634 -16.368  26.121  1.00  0.00    -0.454 OA
BRANCH  26  27
ATOM     27  C   UNL     1     183.873 -16.179  25.437  1.00  0.00     0.214 A 
ATOM     28  C   UNL     1     184.372 -17.112  24.481  1.00  0.00     0.180 A 
ATOM     29  C   UNL     1     184.603 -15.000  25.641  1.00  0.00     0.239 A 
ATOM     30  O   UNL     1     185.436 -16.785  23.739  1.00  0.00    -0.452 OA
ATOM     31  C   UNL     1     185.750 -14.725  24.864  1.00  0.00     0.111 A 
ATOM     32  O   UNL     1     184.203 -14.167  26.492  1.00  0.00    -0.285 OA
ATOM     33  C   UNL     1     186.129 -15.653  23.875  1.00  0.00     0.146 A 
ATOM     34  C   UNL     1     186.503 -13.522  25.001  1.00  0.00     0.134 A 
ATOM     35  C   UNL     1     187.212 -15.384  23.026  1.00  0.00     0.094 A 
ATOM     36  C   UNL     1     187.590 -13.268  24.163  1.00  0.00     0.093 A 
ATOM     37  C   UNL     1     187.949 -14.188  23.174  1.00  0.00     0.123 A 
BRANCH  28  38
ATOM     38  C   UNL     1     183.833 -18.483  24.309  1.00  0.00     0.025 A 
ATOM     39  C   UNL     1     184.627 -19.623  24.571  1.00  0.00     0.062 A 
ATOM     40  C   UNL     1     182.531 -18.686  23.875  1.00  0.00     0.016 A 
ATOM     41  C   UNL     1     184.141 -20.911  24.267  1.00  0.00     0.158 A 
ATOM     42  C   UNL     1     182.035 -19.954  23.600  1.00  0.00     0.051 A 
ATOM     43  C   UNL     1     182.785 -21.082  23.901  1.00  0.00     0.157 A 
BRANCH  41  44
ATOM     44  O   UNL     1     185.012 -22.000  24.250  1.00  0.00    -0.504 OA
ATOM     45  H   UNL     1     184.740 -22.878  23.801  1.00  0.00     0.293 HD
ENDBRANCH  41  44
BRANCH  43  46
ATOM     46  O   UNL     1     182.173 -22.348  23.821  1.00  0.00    -0.504 OA
ATOM     47  H   UNL     1     182.564 -23.141  24.334  1.00  0.00     0.293 HD
ENDBRANCH  43  46
ENDBRANCH  28  38
BRANCH  34  48
ATOM     48  O   UNL     1     186.126 -12.539  25.928  1.00  0.00    -0.507 OA
ATOM     49  H   UNL     1     185.164 -12.357  26.209  1.00  0.00     0.293 HD
ENDBRANCH  34  48
BRANCH  37  50
ATOM     50  O   UNL     1     189.060 -13.914  22.375  1.00  0.00    -0.508 OA
ATOM     51  H   UNL     1     188.966 -13.334  21.556  1.00  0.00     0.293 HD
ENDBRANCH  37  50
ENDBRANCH  26  27
ENDBRANCH   5  26
BRANCH   4  52
ATOM     52  O   UNL     1     181.552 -16.879  29.618  1.00  0.00    -0.384 OA
ATOM     53  H   UNL     1     182.210 -16.582  30.306  1.00  0.00     0.211 HD
ENDBRANCH   4  52
TORSDOF 16
ENDMDL
