MODEL 1
REMARK VINA RESULT:    -4.942      0.000      0.000
REMARK INTER + INTRA:          -6.049
REMARK INTER:                  -5.953
REMARK INTRA:                  -0.096
REMARK UNBOUND:                -0.096
REMARK SMILES CC[C@@H](C)[C@H]([NH3+])C(=O)[O-]
REMARK SMILES IDX 3 1 4 2 5 3 6 4 7 8 8 9 9 10 2 11 1 12
REMARK H PARENT 6 5 6 6 6 7
REMARK Flexibility Score: inf
ROOT
ATOM      1  C   UNL     1       7.963   4.918  20.511  1.00  0.00     0.050 C 
ATOM      2  C   UNL     1       8.842   4.087  19.557  1.00  0.00     0.014 C 
ENDROOT
BRANCH   1   3
ATOM      3  C   UNL     1       7.411   6.181  19.778  1.00  0.00     0.230 C 
BRANCH   3   4
ATOM      4  N   UNL     1       6.375   5.839  18.792  1.00  0.00    -0.350 N 
ATOM      5  H   UNL     1       6.789   5.566  17.872  1.00  0.00     0.345 HD
ATOM      6  H   UNL     1       5.754   6.667  18.639  1.00  0.00     0.345 HD
ATOM      7  H   UNL     1       5.783   5.054  19.149  1.00  0.00     0.345 HD
ENDBRANCH   3   4
BRANCH   3   8
ATOM      8  C   UNL     1       8.504   7.010  19.146  1.00  0.00     0.099 C 
ATOM      9  O   UNL     1       8.499   7.248  17.909  1.00  0.00    -0.544 OA
ATOM     10  O   UNL     1       9.547   7.490  19.929  1.00  0.00    -0.544 OA
ENDBRANCH   3   8
ENDBRANCH   1   3
BRANCH   1  11
ATOM     11  C   UNL     1       6.849   4.046  21.145  1.00  0.00     0.006 C 
ATOM     12  C   UNL     1       6.600   4.378  22.619  1.00  0.00     0.004 C 
ENDBRANCH   1  11
TORSDOF 4
ENDMDL
MODEL 2
REMARK VINA RESULT:    -4.929      1.440      2.668
REMARK INTER + INTRA:          -6.033
REMARK INTER:                  -6.012
REMARK INTRA:                  -0.021
REMARK UNBOUND:                -0.096
REMARK SMILES CC[C@@H](C)[C@H]([NH3+])C(=O)[O-]
REMARK SMILES IDX 3 1 4 2 5 3 6 4 7 8 8 9 9 10 2 11 1 12
REMARK H PARENT 6 5 6 6 6 7
REMARK Flexibility Score: inf
ROOT
ATOM      1  C   UNL     1       8.762   4.471  19.937  1.00  0.00     0.050 C 
ATOM      2  C   UNL     1       9.887   4.583  20.982  1.00  0.00     0.014 C 
ENDROOT
BRANCH   1   3
ATOM      3  C   UNL     1       7.904   5.775  19.919  1.00  0.00     0.230 C 
BRANCH   3   4
ATOM      4  N   UNL     1       6.556   5.543  19.378  1.00  0.00    -0.350 N 
ATOM      5  H   UNL     1       5.848   5.427  20.137  1.00  0.00     0.345 HD
ATOM      6  H   UNL     1       6.560   4.673  18.797  1.00  0.00     0.345 HD
ATOM      7  H   UNL     1       6.273   6.340  18.762  1.00  0.00     0.345 HD
ENDBRANCH   3   4
BRANCH   3   8
ATOM      8  C   UNL     1       8.588   6.910  19.195  1.00  0.00     0.099 C 
ATOM      9  O   UNL     1       9.480   7.594  19.766  1.00  0.00    -0.544 OA
ATOM     10  O   UNL     1       8.209   7.230  17.898  1.00  0.00    -0.544 OA
ENDBRANCH   3   8
ENDBRANCH   1   3
BRANCH   1  11
ATOM     11  C   UNL     1       9.328   4.096  18.542  1.00  0.00     0.006 C 
ATOM     12  C   UNL     1      10.858   4.119  18.496  1.00  0.00     0.004 C 
ENDBRANCH   1  11
TORSDOF 4
ENDMDL
MODEL 3
REMARK VINA RESULT:    -4.728      2.235      3.484
REMARK INTER + INTRA:          -5.791
REMARK INTER:                  -5.831
REMARK INTRA:                   0.039
REMARK UNBOUND:                -0.096
REMARK SMILES CC[C@@H](C)[C@H]([NH3+])C(=O)[O-]
REMARK SMILES IDX 3 1 4 2 5 3 6 4 7 8 8 9 9 10 2 11 1 12
REMARK H PARENT 6 5 6 6 6 7
REMARK Flexibility Score: inf
ROOT
ATOM      1  C   UNL     1       7.509   6.605  19.349  1.00  0.00     0.050 C 
ATOM      2  C   UNL     1       7.201   6.580  17.841  1.00  0.00     0.014 C 
ENDROOT
BRANCH   1   3
ATOM      3  C   UNL     1       7.311   5.184  19.967  1.00  0.00     0.230 C 
BRANCH   3   4
ATOM      4  N   UNL     1       6.613   5.236  21.260  1.00  0.00    -0.350 N 
ATOM      5  H   UNL     1       6.800   6.131  21.767  1.00  0.00     0.345 HD
ATOM      6  H   UNL     1       6.938   4.445  21.863  1.00  0.00     0.345 HD
ATOM      7  H   UNL     1       5.583   5.130  21.118  1.00  0.00     0.345 HD
ENDBRANCH   3   4
BRANCH   3   8
ATOM      8  C   UNL     1       8.607   4.416  20.083  1.00  0.00     0.099 C 
ATOM      9  O   UNL     1       9.050   3.749  19.110  1.00  0.00    -0.544 OA
ATOM     10  O   UNL     1       9.303   4.415  21.285  1.00  0.00    -0.544 OA
ENDBRANCH   3   8
ENDBRANCH   1   3
BRANCH   1  11
ATOM     11  C   UNL     1       8.915   7.198  19.624  1.00  0.00     0.006 C 
ATOM     12  C   UNL     1       9.827   7.159  18.395  1.00  0.00     0.004 C 
ENDBRANCH   1  11
TORSDOF 4
ENDMDL
MODEL 4
REMARK VINA RESULT:    -4.693      2.655      3.248
REMARK INTER + INTRA:          -5.749
REMARK INTER:                  -5.650
REMARK INTRA:                  -0.099
REMARK UNBOUND:                -0.096
REMARK SMILES CC[C@@H](C)[C@H]([NH3+])C(=O)[O-]
REMARK SMILES IDX 3 1 4 2 5 3 6 4 7 8 8 9 9 10 2 11 1 12
REMARK H PARENT 6 5 6 6 6 7
REMARK Flexibility Score: inf
ROOT
ATOM      1  C   UNL     1       8.612   5.795  19.384  1.00  0.00     0.050 C 
ATOM      2  C   UNL     1       9.373   7.110  19.637  1.00  0.00     0.014 C 
ENDROOT
BRANCH   1   3
ATOM      3  C   UNL     1       9.538   4.569  19.665  1.00  0.00     0.230 C 
BRANCH   3   4
ATOM      4  N   UNL     1      10.606   4.892  20.623  1.00  0.00    -0.350 N 
ATOM      5  H   UNL     1      11.066   5.803  20.400  1.00  0.00     0.345 HD
ATOM      6  H   UNL     1      11.336   4.142  20.596  1.00  0.00     0.345 HD
ATOM      7  H   UNL     1      10.220   4.930  21.594  1.00  0.00     0.345 HD
ENDBRANCH   3   4
BRANCH   3   8
ATOM      8  C   UNL     1      10.109   3.971  18.401  1.00  0.00     0.099 C 
ATOM      9  O   UNL     1       9.352   3.480  17.522  1.00  0.00    -0.544 OA
ATOM     10  O   UNL     1      11.485   3.930  18.217  1.00  0.00    -0.544 OA
ENDBRANCH   3   8
ENDBRANCH   1   3
BRANCH   1  11
ATOM     11  C   UNL     1       7.286   5.752  20.187  1.00  0.00     0.006 C 
ATOM     12  C   UNL     1       7.108   4.452  20.975  1.00  0.00     0.004 C 
ENDBRANCH   1  11
TORSDOF 4
ENDMDL
MODEL 5
REMARK VINA RESULT:    -4.623      2.381      2.961
REMARK INTER + INTRA:          -5.665
REMARK INTER:                  -5.608
REMARK INTRA:                  -0.057
REMARK UNBOUND:                -0.096
REMARK SMILES CC[C@@H](C)[C@H]([NH3+])C(=O)[O-]
REMARK SMILES IDX 3 1 4 2 5 3 6 4 7 8 8 9 9 10 2 11 1 12
REMARK H PARENT 6 5 6 6 6 7
REMARK Flexibility Score: inf
ROOT
ATOM      1  C   UNL     1       8.927   6.439  19.718  1.00  0.00     0.050 C 
ATOM      2  C   UNL     1       9.763   7.093  18.602  1.00  0.00     0.014 C 
ENDROOT
BRANCH   1   3
ATOM      3  C   UNL     1       7.429   6.341  19.287  1.00  0.00     0.230 C 
BRANCH   3   4
ATOM      4  N   UNL     1       6.706   5.302  20.036  1.00  0.00    -0.350 N 
ATOM      5  H   UNL     1       6.834   4.357  19.611  1.00  0.00     0.345 HD
ATOM      6  H   UNL     1       5.683   5.525  20.040  1.00  0.00     0.345 HD
ATOM      7  H   UNL     1       7.034   5.280  21.029  1.00  0.00     0.345 HD
ENDBRANCH   3   4
BRANCH   3   8
ATOM      8  C   UNL     1       7.264   6.147  17.799  1.00  0.00     0.099 C 
ATOM      9  O   UNL     1       6.815   7.075  17.074  1.00  0.00    -0.544 OA
ATOM     10  O   UNL     1       7.577   4.922  17.224  1.00  0.00    -0.544 OA
ENDBRANCH   3   8
ENDBRANCH   1   3
BRANCH   1  11
ATOM     11  C   UNL     1       9.529   5.074  20.141  1.00  0.00     0.006 C 
ATOM     12  C   UNL     1      10.443   4.470  19.073  1.00  0.00     0.004 C 
ENDBRANCH   1  11
TORSDOF 4
ENDMDL
MODEL 6
REMARK VINA RESULT:    -4.528      2.027      3.091
REMARK INTER + INTRA:          -5.550
REMARK INTER:                  -5.420
REMARK INTRA:                  -0.130
REMARK UNBOUND:                -0.096
REMARK SMILES CC[C@@H](C)[C@H]([NH3+])C(=O)[O-]
REMARK SMILES IDX 3 1 4 2 5 3 6 4 7 8 8 9 9 10 2 11 1 12
REMARK H PARENT 6 5 6 6 6 7
REMARK Flexibility Score: inf
ROOT
ATOM      1  C   UNL     1       8.318   4.562  19.621  1.00  0.00     0.050 C 
ATOM      2  C   UNL     1       7.512   4.366  20.918  1.00  0.00     0.014 C 
ENDROOT
BRANCH   1   3
ATOM      3  C   UNL     1       7.882   5.879  18.903  1.00  0.00     0.230 C 
BRANCH   3   4
ATOM      4  N   UNL     1       7.035   6.720  19.761  1.00  0.00    -0.350 N 
ATOM      5  H   UNL     1       7.465   6.874  20.701  1.00  0.00     0.345 HD
ATOM      6  H   UNL     1       6.107   6.256  19.897  1.00  0.00     0.345 HD
ATOM      7  H   UNL     1       6.867   7.646  19.305  1.00  0.00     0.345 HD
ENDBRANCH   3   4
BRANCH   3   8
ATOM      8  C   UNL     1       7.215   5.621  17.573  1.00  0.00     0.099 C 
ATOM      9  O   UNL     1       7.587   4.666  16.840  1.00  0.00    -0.544 OA
ATOM     10  O   UNL     1       6.204   6.465  17.133  1.00  0.00    -0.544 OA
ENDBRANCH   3   8
ENDBRANCH   1   3
BRANCH   1  11
ATOM     11  C   UNL     1       9.844   4.495  19.894  1.00  0.00     0.006 C 
ATOM     12  C   UNL     1      10.668   4.284  18.622  1.00  0.00     0.004 C 
ENDBRANCH   1  11
TORSDOF 4
ENDMDL
MODEL 7
REMARK VINA RESULT:    -4.523      2.871      3.971
REMARK INTER + INTRA:          -5.544
REMARK INTER:                  -5.489
REMARK INTRA:                  -0.056
REMARK UNBOUND:                -0.096
REMARK SMILES CC[C@@H](C)[C@H]([NH3+])C(=O)[O-]
REMARK SMILES IDX 3 1 4 2 5 3 6 4 7 8 8 9 9 10 2 11 1 12
REMARK H PARENT 6 5 6 6 6 7
REMARK Flexibility Score: inf
ROOT
ATOM      1  C   UNL     1       9.026   5.830  20.091  1.00  0.00     0.050 C 
ATOM      2  C   UNL     1       7.526   5.484  20.123  1.00  0.00     0.014 C 
ENDROOT
BRANCH   1   3
ATOM      3  C   UNL     1       9.884   4.526  20.062  1.00  0.00     0.230 C 
BRANCH   3   4
ATOM      4  N   UNL     1      11.059   4.617  20.942  1.00  0.00    -0.350 N 
ATOM      5  H   UNL     1      10.859   4.241  21.896  1.00  0.00     0.345 HD
ATOM      6  H   UNL     1      11.343   5.620  21.039  1.00  0.00     0.345 HD
ATOM      7  H   UNL     1      11.862   4.093  20.526  1.00  0.00     0.345 HD
ENDBRANCH   3   4
BRANCH   3   8
ATOM      8  C   UNL     1      10.289   4.128  18.662  1.00  0.00     0.099 C 
ATOM      9  O   UNL     1      11.478   4.270  18.270  1.00  0.00    -0.544 OA
ATOM     10  O   UNL     1       9.336   3.631  17.783  1.00  0.00    -0.544 OA
ENDBRANCH   3   8
ENDBRANCH   1   3
BRANCH   1  11
ATOM     11  C   UNL     1       9.352   6.799  18.924  1.00  0.00     0.006 C 
ATOM     12  C   UNL     1       8.158   7.036  17.996  1.00  0.00     0.004 C 
ENDBRANCH   1  11
TORSDOF 4
ENDMDL
MODEL 8
REMARK VINA RESULT:    -4.519      2.361      3.679
REMARK INTER + INTRA:          -5.539
REMARK INTER:                  -5.431
REMARK INTRA:                  -0.108
REMARK UNBOUND:                -0.096
REMARK SMILES CC[C@@H](C)[C@H]([NH3+])C(=O)[O-]
REMARK SMILES IDX 3 1 4 2 5 3 6 4 7 8 8 9 9 10 2 11 1 12
REMARK H PARENT 6 5 6 6 6 7
REMARK Flexibility Score: inf
ROOT
ATOM      1  C   UNL     1       9.249   5.706  19.365  1.00  0.00     0.050 C 
ATOM      2  C   UNL     1       9.261   7.046  18.605  1.00  0.00     0.014 C 
ENDROOT
BRANCH   1   3
ATOM      3  C   UNL     1       7.788   5.172  19.502  1.00  0.00     0.230 C 
BRANCH   3   4
ATOM      4  N   UNL     1       6.790   6.224  19.251  1.00  0.00    -0.350 N 
ATOM      5  H   UNL     1       6.299   6.084  18.339  1.00  0.00     0.345 HD
ATOM      6  H   UNL     1       7.266   7.155  19.228  1.00  0.00     0.345 HD
ATOM      7  H   UNL     1       6.084   6.241  20.022  1.00  0.00     0.345 HD
ENDBRANCH   3   4
BRANCH   3   8
ATOM      8  C   UNL     1       7.538   4.498  20.830  1.00  0.00     0.099 C 
ATOM      9  O   UNL     1       8.438   4.457  21.711  1.00  0.00    -0.544 OA
ATOM     10  O   UNL     1       6.316   3.884  21.074  1.00  0.00    -0.544 OA
ENDBRANCH   3   8
ENDBRANCH   1   3
BRANCH   1  11
ATOM     11  C   UNL     1      10.211   4.682  18.708  1.00  0.00     0.006 C 
ATOM     12  C   UNL     1       9.487   3.670  17.817  1.00  0.00     0.004 C 
ENDBRANCH   1  11
TORSDOF 4
ENDMDL
MODEL 9
REMARK VINA RESULT:    -4.337      2.727      3.753
REMARK INTER + INTRA:          -5.320
REMARK INTER:                  -5.312
REMARK INTRA:                  -0.008
REMARK UNBOUND:                -0.096
REMARK SMILES CC[C@@H](C)[C@H]([NH3+])C(=O)[O-]
REMARK SMILES IDX 3 1 4 2 5 3 6 4 7 8 8 9 9 10 2 11 1 12
REMARK H PARENT 6 5 6 6 6 7
REMARK Flexibility Score: inf
ROOT
ATOM      1  C   UNL     1       8.903   6.323  18.594  1.00  0.00     0.050 C 
ATOM      2  C   UNL     1       9.354   7.389  19.609  1.00  0.00     0.014 C 
ENDROOT
BRANCH   1   3
ATOM      3  C   UNL     1       9.545   4.941  18.936  1.00  0.00     0.230 C 
BRANCH   3   4
ATOM      4  N   UNL     1       9.015   3.861  18.090  1.00  0.00    -0.350 N 
ATOM      5  H   UNL     1       8.043   3.594  18.364  1.00  0.00     0.345 HD
ATOM      6  H   UNL     1       9.626   3.016  18.182  1.00  0.00     0.345 HD
ATOM      7  H   UNL     1       9.021   4.155  17.086  1.00  0.00     0.345 HD
ENDBRANCH   3   4
BRANCH   3   8
ATOM      8  C   UNL     1       9.421   4.590  20.399  1.00  0.00     0.099 C 
ATOM      9  O   UNL     1      10.440   4.550  21.141  1.00  0.00    -0.544 OA
ATOM     10  O   UNL     1       8.178   4.272  20.931  1.00  0.00    -0.544 OA
ENDBRANCH   3   8
ENDBRANCH   1   3
BRANCH   1  11
ATOM     11  C   UNL     1       7.356   6.266  18.491  1.00  0.00     0.006 C 
ATOM     12  C   UNL     1       6.837   6.655  17.105  1.00  0.00     0.004 C 
ENDBRANCH   1  11
TORSDOF 4
ENDMDL
