MODEL 1
REMARK VINA RESULT:    -3.546      0.000      0.000
REMARK INTER + INTRA:          -7.458
REMARK INTER:                  -6.034
REMARK INTRA:                  -1.424
REMARK UNBOUND:                -1.424
REMARK SMILES CCCCCCCCCCCCCC(=O)[O-]
REMARK SMILES IDX 8 1 9 2 10 3 11 4 12 5 13 6 14 7 15 8 16 9 7 10 6 11 5 12
REMARK SMILES IDX 4 13 3 14 2 15 1 16
REMARK H PARENT
REMARK Flexibility Score: inf
ROOT
ATOM      1  C   UNL     1      64.067  32.702  60.417  1.00  0.00     0.000 C 
ENDROOT
BRANCH   1   2
ATOM      2  C   UNL     1      62.788  32.377  59.636  1.00  0.00     0.000 C 
BRANCH   2   3
ATOM      3  C   UNL     1      61.563  32.377  60.563  1.00  0.00     0.000 C 
BRANCH   3   4
ATOM      4  C   UNL     1      60.851  31.015  60.603  1.00  0.00     0.000 C 
BRANCH   4   5
ATOM      5  C   UNL     1      61.503  30.034  61.589  1.00  0.00     0.006 C 
BRANCH   5   6
ATOM      6  C   UNL     1      61.705  28.661  60.942  1.00  0.00     0.053 C 
BRANCH   6   7
ATOM      7  C   UNL     1      63.162  28.332  60.851  1.00  0.00     0.041 C 
ATOM      8  O   UNL     1      63.532  27.162  60.574  1.00  0.00    -0.550 OA
ATOM      9  O   UNL     1      64.111  29.332  61.023  1.00  0.00    -0.550 OA
ENDBRANCH   6   7
ENDBRANCH   5   6
ENDBRANCH   4   5
ENDBRANCH   3   4
ENDBRANCH   2   3
ENDBRANCH   1   2
BRANCH   1  10
ATOM     10  C   UNL     1      64.555  34.123  60.111  1.00  0.00     0.000 C 
BRANCH  10  11
ATOM     11  C   UNL     1      64.595  34.979  61.382  1.00  0.00    -0.000 C 
BRANCH  11  12
ATOM     12  C   UNL     1      63.822  36.292  61.186  1.00  0.00    -0.000 C 
BRANCH  12  13
ATOM     13  C   UNL     1      62.778  36.205  60.060  1.00  0.00    -0.000 C 
BRANCH  13  14
ATOM     14  C   UNL     1      61.355  35.958  60.590  1.00  0.00    -0.000 C 
BRANCH  14  15
ATOM     15  C   UNL     1      60.287  36.095  59.495  1.00  0.00    -0.003 C 
ATOM     16  C   UNL     1      60.492  35.116  58.338  1.00  0.00     0.004 C 
ENDBRANCH  14  15
ENDBRANCH  13  14
ENDBRANCH  12  13
ENDBRANCH  11  12
ENDBRANCH  10  11
ENDBRANCH   1  10
TORSDOF 12
ENDMDL
MODEL 2
REMARK VINA RESULT:    -3.502      1.446      2.775
REMARK INTER + INTRA:          -7.383
REMARK INTER:                  -5.562
REMARK INTRA:                  -1.821
REMARK UNBOUND:                -1.424
REMARK SMILES CCCCCCCCCCCCCC(=O)[O-]
REMARK SMILES IDX 8 1 9 2 10 3 11 4 12 5 13 6 14 7 15 8 16 9 7 10 6 11 5 12
REMARK SMILES IDX 4 13 3 14 2 15 1 16
REMARK H PARENT
REMARK Flexibility Score: inf
ROOT
ATOM      1  C   UNL     1      61.455  31.536  58.281  1.00  0.00     0.000 C 
ENDROOT
BRANCH   1   2
ATOM      2  C   UNL     1      60.500  30.970  59.340  1.00  0.00     0.000 C 
BRANCH   2   3
ATOM      3  C   UNL     1      60.941  31.382  60.753  1.00  0.00     0.000 C 
BRANCH   3   4
ATOM      4  C   UNL     1      61.116  30.178  61.693  1.00  0.00     0.000 C 
BRANCH   4   5
ATOM      5  C   UNL     1      62.273  29.260  61.271  1.00  0.00     0.006 C 
BRANCH   5   6
ATOM      6  C   UNL     1      63.603  30.019  61.273  1.00  0.00     0.053 C 
BRANCH   6   7
ATOM      7  C   UNL     1      64.529  29.458  60.240  1.00  0.00     0.041 C 
ATOM      8  O   UNL     1      64.187  29.433  59.029  1.00  0.00    -0.550 OA
ATOM      9  O   UNL     1      65.791  29.010  60.608  1.00  0.00    -0.550 OA
ENDBRANCH   6   7
ENDBRANCH   5   6
ENDBRANCH   4   5
ENDBRANCH   3   4
ENDBRANCH   2   3
ENDBRANCH   1   2
BRANCH   1  10
ATOM     10  C   UNL     1      62.073  32.859  58.747  1.00  0.00     0.000 C 
BRANCH  10  11
ATOM     11  C   UNL     1      63.505  33.014  58.223  1.00  0.00    -0.000 C 
BRANCH  11  12
ATOM     12  C   UNL     1      64.508  33.109  59.383  1.00  0.00    -0.000 C 
BRANCH  12  13
ATOM     13  C   UNL     1      63.856  33.570  60.697  1.00  0.00    -0.000 C 
BRANCH  13  14
ATOM     14  C   UNL     1      64.378  34.938  61.167  1.00  0.00    -0.000 C 
BRANCH  14  15
ATOM     15  C   UNL     1      63.554  36.107  60.606  1.00  0.00    -0.003 C 
ATOM     16  C   UNL     1      62.047  35.901  60.763  1.00  0.00     0.004 C 
ENDBRANCH  14  15
ENDBRANCH  13  14
ENDBRANCH  12  13
ENDBRANCH  11  12
ENDBRANCH  10  11
ENDBRANCH   1  10
TORSDOF 12
ENDMDL
MODEL 3
REMARK VINA RESULT:    -3.485     11.798     13.378
REMARK INTER + INTRA:          -7.354
REMARK INTER:                  -5.898
REMARK INTRA:                  -1.456
REMARK UNBOUND:                -1.424
REMARK SMILES CCCCCCCCCCCCCC(=O)[O-]
REMARK SMILES IDX 8 1 9 2 10 3 11 4 12 5 13 6 14 7 15 8 16 9 7 10 6 11 5 12
REMARK SMILES IDX 4 13 3 14 2 15 1 16
REMARK H PARENT
REMARK Flexibility Score: inf
ROOT
ATOM      1  C   UNL     1      58.532  29.204  50.519  1.00  0.00     0.000 C 
ENDROOT
BRANCH   1   2
ATOM      2  C   UNL     1      59.174  29.377  49.137  1.00  0.00     0.000 C 
BRANCH   2   3
ATOM      3  C   UNL     1      60.264  28.321  48.902  1.00  0.00     0.000 C 
BRANCH   3   4
ATOM      4  C   UNL     1      60.386  27.325  50.067  1.00  0.00     0.000 C 
BRANCH   4   5
ATOM      5  C   UNL     1      59.990  25.896  49.669  1.00  0.00     0.006 C 
BRANCH   5   6
ATOM      6  C   UNL     1      60.017  24.961  50.882  1.00  0.00     0.053 C 
BRANCH   6   7
ATOM      7  C   UNL     1      60.744  23.696  50.554  1.00  0.00     0.041 C 
ATOM      8  O   UNL     1      60.431  22.619  51.125  1.00  0.00    -0.550 OA
ATOM      9  O   UNL     1      61.734  23.696  49.581  1.00  0.00    -0.550 OA
ENDBRANCH   6   7
ENDBRANCH   5   6
ENDBRANCH   4   5
ENDBRANCH   3   4
ENDBRANCH   2   3
ENDBRANCH   1   2
BRANCH   1  10
ATOM     10  C   UNL     1      57.141  28.568  50.405  1.00  0.00     0.000 C 
BRANCH  10  11
ATOM     11  C   UNL     1      56.934  27.499  51.484  1.00  0.00    -0.000 C 
BRANCH  11  12
ATOM     12  C   UNL     1      56.457  26.177  50.864  1.00  0.00    -0.000 C 
BRANCH  12  13
ATOM     13  C   UNL     1      55.878  26.357  49.452  1.00  0.00    -0.000 C 
BRANCH  13  14
ATOM     14  C   UNL     1      54.560  25.591  49.251  1.00  0.00    -0.000 C 
BRANCH  14  15
ATOM     15  C   UNL     1      53.327  26.443  49.585  1.00  0.00    -0.003 C 
ATOM     16  C   UNL     1      53.612  27.945  49.539  1.00  0.00     0.004 C 
ENDBRANCH  14  15
ENDBRANCH  13  14
ENDBRANCH  12  13
ENDBRANCH  11  12
ENDBRANCH  10  11
ENDBRANCH   1  10
TORSDOF 12
ENDMDL
MODEL 4
REMARK VINA RESULT:    -3.483      1.505      2.845
REMARK INTER + INTRA:          -7.351
REMARK INTER:                  -5.720
REMARK INTRA:                  -1.632
REMARK UNBOUND:                -1.424
REMARK SMILES CCCCCCCCCCCCCC(=O)[O-]
REMARK SMILES IDX 8 1 9 2 10 3 11 4 12 5 13 6 14 7 15 8 16 9 7 10 6 11 5 12
REMARK SMILES IDX 4 13 3 14 2 15 1 16
REMARK H PARENT
REMARK Flexibility Score: inf
ROOT
ATOM      1  C   UNL     1      61.845  34.910  60.293  1.00  0.00     0.000 C 
ENDROOT
BRANCH   1   2
ATOM      2  C   UNL     1      62.196  33.418  60.350  1.00  0.00     0.000 C 
BRANCH   2   3
ATOM      3  C   UNL     1      61.463  32.639  59.247  1.00  0.00     0.000 C 
BRANCH   3   4
ATOM      4  C   UNL     1      60.855  31.322  59.756  1.00  0.00     0.000 C 
BRANCH   4   5
ATOM      5  C   UNL     1      61.078  31.109  61.260  1.00  0.00     0.006 C 
BRANCH   5   6
ATOM      6  C   UNL     1      61.580  29.690  61.545  1.00  0.00     0.053 C 
BRANCH   6   7
ATOM      7  C   UNL     1      63.008  29.543  61.124  1.00  0.00     0.041 C 
ATOM      8  O   UNL     1      63.830  30.470  61.337  1.00  0.00    -0.550 OA
ATOM      9  O   UNL     1      63.441  28.359  60.541  1.00  0.00    -0.550 OA
ENDBRANCH   6   7
ENDBRANCH   5   6
ENDBRANCH   4   5
ENDBRANCH   3   4
ENDBRANCH   2   3
ENDBRANCH   1   2
BRANCH   1  10
ATOM     10  C   UNL     1      62.972  35.764  60.887  1.00  0.00     0.000 C 
BRANCH  10  11
ATOM     11  C   UNL     1      64.168  34.894  61.292  1.00  0.00    -0.000 C 
BRANCH  11  12
ATOM     12  C   UNL     1      65.482  35.485  60.761  1.00  0.00    -0.000 C 
BRANCH  12  13
ATOM     13  C   UNL     1      65.354  36.029  59.328  1.00  0.00    -0.000 C 
BRANCH  13  14
ATOM     14  C   UNL     1      65.880  35.043  58.272  1.00  0.00    -0.000 C 
BRANCH  14  15
ATOM     15  C   UNL     1      64.781  34.116  57.732  1.00  0.00    -0.003 C 
ATOM     16  C   UNL     1      65.027  32.645  58.067  1.00  0.00     0.004 C 
ENDBRANCH  14  15
ENDBRANCH  13  14
ENDBRANCH  12  13
ENDBRANCH  11  12
ENDBRANCH  10  11
ENDBRANCH   1  10
TORSDOF 12
ENDMDL
MODEL 5
REMARK VINA RESULT:    -3.449      1.941      3.215
REMARK INTER + INTRA:          -7.292
REMARK INTER:                  -5.405
REMARK INTRA:                  -1.888
REMARK UNBOUND:                -1.424
REMARK SMILES CCCCCCCCCCCCCC(=O)[O-]
REMARK SMILES IDX 8 1 9 2 10 3 11 4 12 5 13 6 14 7 15 8 16 9 7 10 6 11 5 12
REMARK SMILES IDX 4 13 3 14 2 15 1 16
REMARK H PARENT
REMARK Flexibility Score: inf
ROOT
ATOM      1  C   UNL     1      62.981  33.067  58.296  1.00  0.00     0.000 C 
ENDROOT
BRANCH   1   2
ATOM      2  C   UNL     1      64.284  32.421  58.782  1.00  0.00     0.000 C 
BRANCH   2   3
ATOM      3  C   UNL     1      64.205  32.082  60.278  1.00  0.00     0.000 C 
BRANCH   3   4
ATOM      4  C   UNL     1      64.449  30.591  60.562  1.00  0.00     0.000 C 
BRANCH   4   5
ATOM      5  C   UNL     1      63.269  29.925  61.285  1.00  0.00     0.006 C 
BRANCH   5   6
ATOM      6  C   UNL     1      62.190  29.490  60.289  1.00  0.00     0.053 C 
BRANCH   6   7
ATOM      7  C   UNL     1      60.828  29.817  60.813  1.00  0.00     0.041 C 
ATOM      8  O   UNL     1      59.820  29.195  60.390  1.00  0.00    -0.550 OA
ATOM      9  O   UNL     1      60.679  30.775  61.808  1.00  0.00    -0.550 OA
ENDBRANCH   6   7
ENDBRANCH   5   6
ENDBRANCH   4   5
ENDBRANCH   3   4
ENDBRANCH   2   3
ENDBRANCH   1   2
BRANCH   1  10
ATOM     10  C   UNL     1      62.039  33.360  59.470  1.00  0.00     0.000 C 
BRANCH  10  11
ATOM     11  C   UNL     1      61.556  34.814  59.439  1.00  0.00    -0.000 C 
BRANCH  11  12
ATOM     12  C   UNL     1      61.888  35.532  60.756  1.00  0.00    -0.000 C 
BRANCH  12  13
ATOM     13  C   UNL     1      63.216  36.305  60.693  1.00  0.00    -0.000 C 
BRANCH  13  14
ATOM     14  C   UNL     1      64.355  35.585  61.435  1.00  0.00    -0.000 C 
BRANCH  14  15
ATOM     15  C   UNL     1      65.657  35.549  60.621  1.00  0.00    -0.003 C 
ATOM     16  C   UNL     1      65.453  35.932  59.155  1.00  0.00     0.004 C 
ENDBRANCH  14  15
ENDBRANCH  13  14
ENDBRANCH  12  13
ENDBRANCH  11  12
ENDBRANCH  10  11
ENDBRANCH   1  10
TORSDOF 12
ENDMDL
MODEL 6
REMARK VINA RESULT:    -3.264      1.343      3.118
REMARK INTER + INTRA:          -6.978
REMARK INTER:                  -5.306
REMARK INTRA:                  -1.672
REMARK UNBOUND:                -1.424
REMARK SMILES CCCCCCCCCCCCCC(=O)[O-]
REMARK SMILES IDX 8 1 9 2 10 3 11 4 12 5 13 6 14 7 15 8 16 9 7 10 6 11 5 12
REMARK SMILES IDX 4 13 3 14 2 15 1 16
REMARK H PARENT
REMARK Flexibility Score: inf
ROOT
ATOM      1  C   UNL     1      60.957  32.466  58.473  1.00  0.00     0.000 C 
ENDROOT
BRANCH   1   2
ATOM      2  C   UNL     1      59.924  31.335  58.545  1.00  0.00     0.000 C 
BRANCH   2   3
ATOM      3  C   UNL     1      60.336  30.278  59.580  1.00  0.00     0.000 C 
BRANCH   3   4
ATOM      4  C   UNL     1      60.830  30.900  60.897  1.00  0.00     0.000 C 
BRANCH   4   5
ATOM      5  C   UNL     1      61.898  30.044  61.592  1.00  0.00     0.006 C 
BRANCH   5   6
ATOM      6  C   UNL     1      62.744  29.282  60.567  1.00  0.00     0.053 C 
BRANCH   6   7
ATOM      7  C   UNL     1      62.794  27.826  60.906  1.00  0.00     0.041 C 
ATOM      8  O   UNL     1      63.853  27.170  60.727  1.00  0.00    -0.550 OA
ATOM      9  O   UNL     1      61.685  27.205  61.466  1.00  0.00    -0.550 OA
ENDBRANCH   6   7
ENDBRANCH   5   6
ENDBRANCH   4   5
ENDBRANCH   3   4
ENDBRANCH   2   3
ENDBRANCH   1   2
BRANCH   1  10
ATOM     10  C   UNL     1      60.276  33.821  58.245  1.00  0.00     0.000 C 
BRANCH  10  11
ATOM     11  C   UNL     1      61.006  34.939  58.999  1.00  0.00    -0.000 C 
BRANCH  11  12
ATOM     12  C   UNL     1      61.702  34.391  60.254  1.00  0.00    -0.000 C 
BRANCH  12  13
ATOM     13  C   UNL     1      63.078  35.033  60.499  1.00  0.00    -0.000 C 
BRANCH  13  14
ATOM     14  C   UNL     1      64.115  34.027  61.026  1.00  0.00    -0.000 C 
BRANCH  14  15
ATOM     15  C   UNL     1      64.141  32.727  60.209  1.00  0.00    -0.003 C 
ATOM     16  C   UNL     1      64.666  32.928  58.787  1.00  0.00     0.004 C 
ENDBRANCH  14  15
ENDBRANCH  13  14
ENDBRANCH  12  13
ENDBRANCH  11  12
ENDBRANCH  10  11
ENDBRANCH   1  10
TORSDOF 12
ENDMDL
MODEL 7
REMARK VINA RESULT:    -3.263     11.193     12.626
REMARK INTER + INTRA:          -6.976
REMARK INTER:                  -5.834
REMARK INTRA:                  -1.142
REMARK UNBOUND:                -1.424
REMARK SMILES CCCCCCCCCCCCCC(=O)[O-]
REMARK SMILES IDX 8 1 9 2 10 3 11 4 12 5 13 6 14 7 15 8 16 9 7 10 6 11 5 12
REMARK SMILES IDX 4 13 3 14 2 15 1 16
REMARK H PARENT
REMARK Flexibility Score: inf
ROOT
ATOM      1  C   UNL     1      58.846  29.006  51.091  1.00  0.00     0.000 C 
ENDROOT
BRANCH   1   2
ATOM      2  C   UNL     1      59.089  29.316  49.608  1.00  0.00     0.000 C 
BRANCH   2   3
ATOM      3  C   UNL     1      60.026  28.277  48.975  1.00  0.00     0.000 C 
BRANCH   3   4
ATOM      4  C   UNL     1      59.667  26.836  49.374  1.00  0.00     0.000 C 
BRANCH   4   5
ATOM      5  C   UNL     1      60.905  25.980  49.677  1.00  0.00     0.006 C 
BRANCH   5   6
ATOM      6  C   UNL     1      60.502  24.566  50.109  1.00  0.00     0.053 C 
BRANCH   6   7
ATOM      7  C   UNL     1      61.547  23.575  49.704  1.00  0.00     0.041 C 
ATOM      8  O   UNL     1      62.742  23.730  50.067  1.00  0.00    -0.550 OA
ATOM      9  O   UNL     1      61.191  22.453  48.968  1.00  0.00    -0.550 OA
ENDBRANCH   6   7
ENDBRANCH   5   6
ENDBRANCH   4   5
ENDBRANCH   3   4
ENDBRANCH   2   3
ENDBRANCH   1   2
BRANCH   1  10
ATOM     10  C   UNL     1      58.542  30.286  51.879  1.00  0.00     0.000 C 
BRANCH  10  11
ATOM     11  C   UNL     1      57.178  30.195  52.572  1.00  0.00    -0.000 C 
BRANCH  11  12
ATOM     12  C   UNL     1      56.396  28.964  52.087  1.00  0.00    -0.000 C 
BRANCH  12  13
ATOM     13  C   UNL     1      55.119  29.337  51.315  1.00  0.00    -0.000 C 
BRANCH  13  14
ATOM     14  C   UNL     1      54.927  28.489  50.047  1.00  0.00    -0.000 C 
BRANCH  14  15
ATOM     15  C   UNL     1      55.907  27.309  49.973  1.00  0.00    -0.003 C 
ATOM     16  C   UNL     1      55.276  26.047  49.384  1.00  0.00     0.004 C 
ENDBRANCH  14  15
ENDBRANCH  13  14
ENDBRANCH  12  13
ENDBRANCH  11  12
ENDBRANCH  10  11
ENDBRANCH   1  10
TORSDOF 12
ENDMDL
MODEL 8
REMARK VINA RESULT:    -3.212      3.351      5.711
REMARK INTER + INTRA:          -6.890
REMARK INTER:                  -4.690
REMARK INTRA:                  -2.200
REMARK UNBOUND:                -1.424
REMARK SMILES CCCCCCCCCCCCCC(=O)[O-]
REMARK SMILES IDX 8 1 9 2 10 3 11 4 12 5 13 6 14 7 15 8 16 9 7 10 6 11 5 12
REMARK SMILES IDX 4 13 3 14 2 15 1 16
REMARK H PARENT
REMARK Flexibility Score: inf
ROOT
ATOM      1  C   UNL     1      64.182  29.824  60.002  1.00  0.00     0.000 C 
ENDROOT
BRANCH   1   2
ATOM      2  C   UNL     1      64.436  31.167  59.306  1.00  0.00     0.000 C 
BRANCH   2   3
ATOM      3  C   UNL     1      64.232  32.337  60.279  1.00  0.00     0.000 C 
BRANCH   3   4
ATOM      4  C   UNL     1      63.554  33.548  59.616  1.00  0.00     0.000 C 
BRANCH   4   5
ATOM      5  C   UNL     1      62.858  34.466  60.631  1.00  0.00     0.006 C 
BRANCH   5   6
ATOM      6  C   UNL     1      61.421  34.772  60.199  1.00  0.00     0.053 C 
BRANCH   6   7
ATOM      7  C   UNL     1      61.402  35.860  59.172  1.00  0.00     0.041 C 
ATOM      8  O   UNL     1      62.204  36.825  59.256  1.00  0.00    -0.550 OA
ATOM      9  O   UNL     1      60.530  35.780  58.093  1.00  0.00    -0.550 OA
ENDBRANCH   6   7
ENDBRANCH   5   6
ENDBRANCH   4   5
ENDBRANCH   3   4
ENDBRANCH   2   3
ENDBRANCH   1   2
BRANCH   1  10
ATOM     10  C   UNL     1      63.480  30.025  61.350  1.00  0.00     0.000 C 
BRANCH  10  11
ATOM     11  C   UNL     1      62.037  29.510  61.303  1.00  0.00    -0.000 C 
BRANCH  11  12
ATOM     12  C   UNL     1      61.035  30.669  61.424  1.00  0.00    -0.000 C 
BRANCH  12  13
ATOM     13  C   UNL     1      60.597  31.221  60.058  1.00  0.00    -0.000 C 
BRANCH  13  14
ATOM     14  C   UNL     1      60.649  30.159  58.946  1.00  0.00    -0.000 C 
BRANCH  14  15
ATOM     15  C   UNL     1      61.171  30.724  57.617  1.00  0.00    -0.003 C 
ATOM     16  C   UNL     1      60.892  32.218  57.456  1.00  0.00     0.004 C 
ENDBRANCH  14  15
ENDBRANCH  13  14
ENDBRANCH  12  13
ENDBRANCH  11  12
ENDBRANCH  10  11
ENDBRANCH   1  10
TORSDOF 12
ENDMDL
MODEL 9
REMARK VINA RESULT:    -3.206     11.384     13.095
REMARK INTER + INTRA:          -6.879
REMARK INTER:                  -5.345
REMARK INTRA:                  -1.534
REMARK UNBOUND:                -1.424
REMARK SMILES CCCCCCCCCCCCCC(=O)[O-]
REMARK SMILES IDX 8 1 9 2 10 3 11 4 12 5 13 6 14 7 15 8 16 9 7 10 6 11 5 12
REMARK SMILES IDX 4 13 3 14 2 15 1 16
REMARK H PARENT
REMARK Flexibility Score: inf
ROOT
ATOM      1  C   UNL     1      55.414  29.161  52.826  1.00  0.00     0.000 C 
ENDROOT
BRANCH   1   2
ATOM      2  C   UNL     1      56.796  28.584  52.496  1.00  0.00     0.000 C 
BRANCH   2   3
ATOM      3  C   UNL     1      57.568  29.515  51.548  1.00  0.00     0.000 C 
BRANCH   3   4
ATOM      4  C   UNL     1      57.694  28.942  50.127  1.00  0.00     0.000 C 
BRANCH   4   5
ATOM      5  C   UNL     1      58.729  27.811  50.034  1.00  0.00     0.006 C 
BRANCH   5   6
ATOM      6  C   UNL     1      59.957  28.257  49.234  1.00  0.00     0.053 C 
BRANCH   6   7
ATOM      7  C   UNL     1      61.038  27.225  49.312  1.00  0.00     0.041 C 
ATOM      8  O   UNL     1      60.745  26.008  49.433  1.00  0.00    -0.550 OA
ATOM      9  O   UNL     1      62.369  27.605  49.200  1.00  0.00    -0.550 OA
ENDBRANCH   6   7
ENDBRANCH   5   6
ENDBRANCH   4   5
ENDBRANCH   3   4
ENDBRANCH   2   3
ENDBRANCH   1   2
BRANCH   1  10
ATOM     10  C   UNL     1      55.254  30.573  52.248  1.00  0.00     0.000 C 
BRANCH  10  11
ATOM     11  C   UNL     1      54.001  30.670  51.370  1.00  0.00    -0.000 C 
BRANCH  11  12
ATOM     12  C   UNL     1      54.141  29.796  50.115  1.00  0.00    -0.000 C 
BRANCH  12  13
ATOM     13  C   UNL     1      52.926  28.880  49.889  1.00  0.00    -0.000 C 
BRANCH  13  14
ATOM     14  C   UNL     1      53.320  27.499  49.339  1.00  0.00    -0.000 C 
BRANCH  14  15
ATOM     15  C   UNL     1      54.398  26.812  50.190  1.00  0.00    -0.003 C 
ATOM     16  C   UNL     1      55.419  26.045  49.350  1.00  0.00     0.004 C 
ENDBRANCH  14  15
ENDBRANCH  13  14
ENDBRANCH  12  13
ENDBRANCH  11  12
ENDBRANCH  10  11
ENDBRANCH   1  10
TORSDOF 12
ENDMDL
