MODEL 1
REMARK VINA RESULT:    -2.947      0.000      0.000
REMARK INTER + INTRA:          -6.735
REMARK INTER:                  -5.187
REMARK INTRA:                  -1.547
REMARK UNBOUND:                -1.547
REMARK SMILES CCCCCCCCCCCCCCC(=O)[O-]
REMARK SMILES IDX 9 1 10 2 11 3 12 4 13 5 14 6 15 7 16 8 17 9 8 10 7 11 6 12
REMARK SMILES IDX 5 13 4 14 3 15 2 16 1 17
REMARK H PARENT
REMARK Flexibility Score: inf
ROOT
ATOM      1  C   UNL     1       5.503  10.516 -13.944  1.00  0.00     0.000 C 
ENDROOT
BRANCH   1   2
ATOM      2  C   UNL     1       6.653  10.090 -13.023  1.00  0.00     0.000 C 
BRANCH   2   3
ATOM      3  C   UNL     1       6.812   8.562 -13.011  1.00  0.00     0.000 C 
BRANCH   3   4
ATOM      4  C   UNL     1       5.871   7.875 -12.010  1.00  0.00     0.000 C 
BRANCH   4   5
ATOM      5  C   UNL     1       5.476   8.794 -10.841  1.00  0.00     0.006 C 
BRANCH   5   6
ATOM      6  C   UNL     1       4.649   8.057  -9.780  1.00  0.00     0.053 C 
BRANCH   6   7
ATOM      7  C   UNL     1       3.273   8.634  -9.647  1.00  0.00     0.041 C 
ATOM      8  O   UNL     1       2.655   8.557  -8.553  1.00  0.00    -0.550 OA
ATOM      9  O   UNL     1       2.685   9.284 -10.726  1.00  0.00    -0.550 OA
ENDBRANCH   6   7
ENDBRANCH   5   6
ENDBRANCH   4   5
ENDBRANCH   3   4
ENDBRANCH   2   3
ENDBRANCH   1   2
BRANCH   1  10
ATOM     10  C   UNL     1       5.568   9.770 -15.285  1.00  0.00     0.000 C 
BRANCH  10  11
ATOM     11  C   UNL     1       4.381   8.811 -15.497  1.00  0.00    -0.000 C 
BRANCH  11  12
ATOM     12  C   UNL     1       3.233   8.966 -14.483  1.00  0.00    -0.000 C 
BRANCH  12  13
ATOM     13  C   UNL     1       1.964   9.646 -15.033  1.00  0.00    -0.000 C 
BRANCH  13  14
ATOM     14  C   UNL     1       1.913  11.167 -14.776  1.00  0.00    -0.000 C 
BRANCH  14  15
ATOM     15  C   UNL     1       2.550  11.977 -15.918  1.00  0.00    -0.000 C 
BRANCH  15  16
ATOM     16  C   UNL     1       3.380  13.165 -15.409  1.00  0.00    -0.003 C 
ATOM     17  C   UNL     1       2.659  13.972 -14.330  1.00  0.00     0.004 C 
ENDBRANCH  15  16
ENDBRANCH  14  15
ENDBRANCH  13  14
ENDBRANCH  12  13
ENDBRANCH  11  12
ENDBRANCH  10  11
ENDBRANCH   1  10
TORSDOF 13
ENDMDL
MODEL 2
REMARK VINA RESULT:    -1.003      1.617      2.393
REMARK INTER + INTRA:          -3.312
REMARK INTER:                  -2.969
REMARK INTRA:                  -0.344
REMARK UNBOUND:                -1.547
REMARK SMILES CCCCCCCCCCCCCCC(=O)[O-]
REMARK SMILES IDX 9 1 10 2 11 3 12 4 13 5 14 6 15 7 16 8 17 9 8 10 7 11 6 12
REMARK SMILES IDX 5 13 4 14 3 15 2 16 1 17
REMARK H PARENT
REMARK Flexibility Score: inf
ROOT
ATOM      1  C   UNL     1       5.955  11.159 -14.499  1.00  0.00     0.000 C 
ENDROOT
BRANCH   1   2
ATOM      2  C   UNL     1       6.428   9.773 -14.953  1.00  0.00     0.000 C 
BRANCH   2   3
ATOM      3  C   UNL     1       5.391   8.695 -14.601  1.00  0.00     0.000 C 
BRANCH   3   4
ATOM      4  C   UNL     1       5.646   8.052 -13.229  1.00  0.00     0.000 C 
BRANCH   4   5
ATOM      5  C   UNL     1       5.486   9.049 -12.069  1.00  0.00     0.006 C 
BRANCH   5   6
ATOM      6  C   UNL     1       5.218   8.344 -10.732  1.00  0.00     0.053 C 
BRANCH   6   7
ATOM      7  C   UNL     1       3.848   8.647 -10.208  1.00  0.00     0.041 C 
ATOM      8  O   UNL     1       2.848   8.575 -10.968  1.00  0.00    -0.550 OA
ATOM      9  O   UNL     1       3.674   8.982  -8.871  1.00  0.00    -0.550 OA
ENDBRANCH   6   7
ENDBRANCH   5   6
ENDBRANCH   4   5
ENDBRANCH   3   4
ENDBRANCH   2   3
ENDBRANCH   1   2
BRANCH   1  10
ATOM     10  C   UNL     1       4.522  11.436 -14.977  1.00  0.00     0.000 C 
BRANCH  10  11
ATOM     11  C   UNL     1       3.463  11.153 -13.896  1.00  0.00    -0.000 C 
BRANCH  11  12
ATOM     12  C   UNL     1       2.025  11.555 -14.276  1.00  0.00    -0.000 C 
BRANCH  12  13
ATOM     13  C   UNL     1       1.916  12.578 -15.423  1.00  0.00    -0.000 C 
BRANCH  13  14
ATOM     14  C   UNL     1       1.951  14.047 -14.952  1.00  0.00    -0.000 C 
BRANCH  14  15
ATOM     15  C   UNL     1       2.301  15.020 -16.091  1.00  0.00    -0.000 C 
BRANCH  15  16
ATOM     16  C   UNL     1       3.087  16.245 -15.601  1.00  0.00    -0.003 C 
ATOM     17  C   UNL     1       2.370  17.563 -15.888  1.00  0.00     0.004 C 
ENDBRANCH  15  16
ENDBRANCH  14  15
ENDBRANCH  13  14
ENDBRANCH  12  13
ENDBRANCH  11  12
ENDBRANCH  10  11
ENDBRANCH   1  10
TORSDOF 13
ENDMDL
MODEL 3
REMARK VINA RESULT:    -0.688     13.704     15.776
REMARK INTER + INTRA:          -2.757
REMARK INTER:                  -2.156
REMARK INTRA:                  -0.601
REMARK UNBOUND:                -1.547
REMARK SMILES CCCCCCCCCCCCCCC(=O)[O-]
REMARK SMILES IDX 9 1 10 2 11 3 12 4 13 5 14 6 15 7 16 8 17 9 8 10 7 11 6 12
REMARK SMILES IDX 5 13 4 14 3 15 2 16 1 17
REMARK H PARENT
REMARK Flexibility Score: inf
ROOT
ATOM      1  C   UNL     1      19.455  10.947 -13.742  1.00  0.00     0.000 C 
ENDROOT
BRANCH   1   2
ATOM      2  C   UNL     1      19.984  10.051 -14.869  1.00  0.00     0.000 C 
BRANCH   2   3
ATOM      3  C   UNL     1      18.832   9.520 -15.736  1.00  0.00     0.000 C 
BRANCH   3   4
ATOM      4  C   UNL     1      18.393   8.103 -15.338  1.00  0.00     0.000 C 
BRANCH   4   5
ATOM      5  C   UNL     1      16.902   8.027 -14.969  1.00  0.00     0.006 C 
BRANCH   5   6
ATOM      6  C   UNL     1      16.509   9.081 -13.925  1.00  0.00     0.053 C 
BRANCH   6   7
ATOM      7  C   UNL     1      15.028   9.301 -13.887  1.00  0.00     0.041 C 
ATOM      8  O   UNL     1      14.239   8.358 -14.157  1.00  0.00    -0.550 OA
ATOM      9  O   UNL     1      14.518  10.541 -13.524  1.00  0.00    -0.550 OA
ENDBRANCH   6   7
ENDBRANCH   5   6
ENDBRANCH   4   5
ENDBRANCH   3   4
ENDBRANCH   2   3
ENDBRANCH   1   2
BRANCH   1  10
ATOM     10  C   UNL     1      19.013  12.313 -14.288  1.00  0.00     0.000 C 
BRANCH  10  11
ATOM     11  C   UNL     1      19.911  12.823 -15.430  1.00  0.00    -0.000 C 
BRANCH  11  12
ATOM     12  C   UNL     1      20.241  14.327 -15.374  1.00  0.00    -0.000 C 
BRANCH  12  13
ATOM     13  C   UNL     1      21.744  14.664 -15.359  1.00  0.00    -0.000 C 
BRANCH  13  14
ATOM     14  C   UNL     1      22.098  15.958 -16.124  1.00  0.00    -0.000 C 
BRANCH  14  15
ATOM     15  C   UNL     1      22.125  17.192 -15.207  1.00  0.00    -0.000 C 
BRANCH  15  16
ATOM     16  C   UNL     1      21.131  18.278 -15.648  1.00  0.00    -0.003 C 
ATOM     17  C   UNL     1      21.559  19.681 -15.224  1.00  0.00     0.004 C 
ENDBRANCH  15  16
ENDBRANCH  14  15
ENDBRANCH  13  14
ENDBRANCH  12  13
ENDBRANCH  11  12
ENDBRANCH  10  11
ENDBRANCH   1  10
TORSDOF 13
ENDMDL
MODEL 4
REMARK VINA RESULT:    -0.552      2.598      4.152
REMARK INTER + INTRA:          -2.519
REMARK INTER:                  -1.830
REMARK INTRA:                  -0.689
REMARK UNBOUND:                -1.547
REMARK SMILES CCCCCCCCCCCCCCC(=O)[O-]
REMARK SMILES IDX 9 1 10 2 11 3 12 4 13 5 14 6 15 7 16 8 17 9 8 10 7 11 6 12
REMARK SMILES IDX 5 13 4 14 3 15 2 16 1 17
REMARK H PARENT
REMARK Flexibility Score: inf
ROOT
ATOM      1  C   UNL     1       5.531   8.132 -10.919  1.00  0.00     0.000 C 
ENDROOT
BRANCH   1   2
ATOM      2  C   UNL     1       5.732   9.218 -11.983  1.00  0.00     0.000 C 
BRANCH   2   3
ATOM      3  C   UNL     1       7.000   8.951 -12.809  1.00  0.00     0.000 C 
BRANCH   3   4
ATOM      4  C   UNL     1       6.728   8.087 -14.050  1.00  0.00     0.000 C 
BRANCH   4   5
ATOM      5  C   UNL     1       5.227   7.875 -14.308  1.00  0.00     0.006 C 
BRANCH   5   6
ATOM      6  C   UNL     1       4.867   8.022 -15.793  1.00  0.00     0.053 C 
BRANCH   6   7
ATOM      7  C   UNL     1       3.542   8.694 -15.980  1.00  0.00     0.041 C 
ATOM      8  O   UNL     1       3.479   9.943 -16.125  1.00  0.00    -0.550 OA
ATOM      9  O   UNL     1       2.379   7.936 -16.026  1.00  0.00    -0.550 OA
ENDBRANCH   6   7
ENDBRANCH   5   6
ENDBRANCH   4   5
ENDBRANCH   3   4
ENDBRANCH   2   3
ENDBRANCH   1   2
BRANCH   1  10
ATOM     10  C   UNL     1       4.328   8.456 -10.023  1.00  0.00     0.000 C 
BRANCH  10  11
ATOM     11  C   UNL     1       3.004   7.885 -10.565  1.00  0.00    -0.000 C 
BRANCH  11  12
ATOM     12  C   UNL     1       1.981   8.942 -11.022  1.00  0.00    -0.000 C 
BRANCH  12  13
ATOM     13  C   UNL     1       2.101   9.371 -12.497  1.00  0.00    -0.000 C 
BRANCH  13  14
ATOM     14  C   UNL     1       1.942  10.891 -12.717  1.00  0.00    -0.000 C 
BRANCH  14  15
ATOM     15  C   UNL     1       2.838  11.415 -13.853  1.00  0.00    -0.000 C 
BRANCH  15  16
ATOM     16  C   UNL     1       2.446  12.829 -14.309  1.00  0.00    -0.003 C 
ATOM     17  C   UNL     1       3.415  13.409 -15.338  1.00  0.00     0.004 C 
ENDBRANCH  15  16
ENDBRANCH  14  15
ENDBRANCH  13  14
ENDBRANCH  12  13
ENDBRANCH  11  12
ENDBRANCH  10  11
ENDBRANCH   1  10
TORSDOF 13
ENDMDL
