MODEL 1
REMARK VINA RESULT:     1.526      0.000      0.000
REMARK INTER + INTRA:           8.432
REMARK INTER:                   3.846
REMARK INTRA:                   4.586
REMARK UNBOUND:                 4.586
REMARK SMILES CCCCCCCCCCCCCCCCCCCCCCCCCCCC(=O)[O-]
REMARK SMILES IDX 15 1 16 2 17 3 18 4 19 5 20 6 21 7 22 8 23 9 24 10 25 11
REMARK SMILES IDX 26 12 27 13 28 14 29 15 30 16 14 17 13 18 12 19 11 20 10 21
REMARK SMILES IDX 9 22 8 23 7 24 6 25 5 26 4 27 3 28 2 29 1 30
REMARK H PARENT
REMARK Flexibility Score: inf
ROOT
ATOM      1  C   UNL     1     -16.912  14.638  -9.505  1.00  0.00     0.000 C 
ENDROOT
BRANCH   1   2
ATOM      2  C   UNL     1     -16.306  13.307  -9.985  1.00  0.00     0.000 C 
BRANCH   2   3
ATOM      3  C   UNL     1     -17.068  12.693 -11.174  1.00  0.00     0.000 C 
BRANCH   3   4
ATOM      4  C   UNL     1     -16.323  12.767 -12.522  1.00  0.00     0.000 C 
BRANCH   4   5
ATOM      5  C   UNL     1     -15.295  13.913 -12.586  1.00  0.00     0.000 C 
BRANCH   5   6
ATOM      6  C   UNL     1     -13.918  13.457 -13.102  1.00  0.00     0.000 C 
BRANCH   6   7
ATOM      7  C   UNL     1     -13.287  12.318 -12.272  1.00  0.00     0.000 C 
BRANCH   7   8
ATOM      8  C   UNL     1     -14.259  11.146 -12.059  1.00  0.00     0.000 C 
BRANCH   8   9
ATOM      9  C   UNL     1     -14.629  10.987 -10.580  1.00  0.00     0.000 C 
BRANCH   9  10
ATOM     10  C   UNL     1     -13.754  11.886  -9.697  1.00  0.00     0.000 C 
BRANCH  10  11
ATOM     11  C   UNL     1     -14.556  12.447  -8.514  1.00  0.00     0.000 C 
BRANCH  11  12
ATOM     12  C   UNL     1     -13.665  13.154  -7.475  1.00  0.00     0.006 C 
BRANCH  12  13
ATOM     13  C   UNL     1     -14.099  12.931  -6.016  1.00  0.00     0.053 C 
BRANCH  13  14
ATOM     14  C   UNL     1     -15.589  12.915  -5.869  1.00  0.00     0.041 C 
ATOM     15  O   UNL     1     -16.256  13.964  -6.070  1.00  0.00    -0.550 OA
ATOM     16  O   UNL     1     -16.246  11.730  -5.565  1.00  0.00    -0.550 OA
ENDBRANCH  13  14
ENDBRANCH  12  13
ENDBRANCH  11  12
ENDBRANCH  10  11
ENDBRANCH   9  10
ENDBRANCH   8   9
ENDBRANCH   7   8
ENDBRANCH   6   7
ENDBRANCH   5   6
ENDBRANCH   4   5
ENDBRANCH   3   4
ENDBRANCH   2   3
ENDBRANCH   1   2
BRANCH   1  17
ATOM     17  C   UNL     1     -16.589  14.964  -8.034  1.00  0.00     0.000 C 
BRANCH  17  18
ATOM     18  C   UNL     1     -16.110  16.403  -7.751  1.00  0.00     0.000 C 
BRANCH  18  19
ATOM     19  C   UNL     1     -16.783  17.458  -8.641  1.00  0.00     0.000 C 
BRANCH  19  20
ATOM     20  C   UNL     1     -15.894  17.894  -9.819  1.00  0.00     0.000 C 
BRANCH  20  21
ATOM     21  C   UNL     1     -16.264  17.221 -11.158  1.00  0.00     0.000 C 
BRANCH  21  22
ATOM     22  C   UNL     1     -17.123  18.133 -12.053  1.00  0.00    -0.000 C 
BRANCH  22  23
ATOM     23  C   UNL     1     -16.797  19.627 -11.870  1.00  0.00    -0.000 C 
BRANCH  23  24
ATOM     24  C   UNL     1     -17.003  20.494 -13.124  1.00  0.00    -0.000 C 
BRANCH  24  25
ATOM     25  C   UNL     1     -16.598  21.965 -12.910  1.00  0.00    -0.000 C 
BRANCH  25  26
ATOM     26  C   UNL     1     -15.263  22.094 -12.158  1.00  0.00    -0.000 C 
BRANCH  26  27
ATOM     27  C   UNL     1     -14.089  21.450 -12.919  1.00  0.00    -0.000 C 
BRANCH  27  28
ATOM     28  C   UNL     1     -12.934  21.048 -11.979  1.00  0.00    -0.000 C 
BRANCH  28  29
ATOM     29  C   UNL     1     -12.594  22.124 -10.934  1.00  0.00    -0.003 C 
ATOM     30  C   UNL     1     -11.243  21.894 -10.257  1.00  0.00     0.004 C 
ENDBRANCH  28  29
ENDBRANCH  27  28
ENDBRANCH  26  27
ENDBRANCH  25  26
ENDBRANCH  24  25
ENDBRANCH  23  24
ENDBRANCH  22  23
ENDBRANCH  21  22
ENDBRANCH  20  21
ENDBRANCH  19  20
ENDBRANCH  18  19
ENDBRANCH  17  18
ENDBRANCH   1  17
TORSDOF 26
ENDMDL
MODEL 2
REMARK VINA RESULT:     2.190      1.716      3.553
REMARK INTER + INTRA:          10.105
REMARK INTER:                   8.198
REMARK INTRA:                   1.907
REMARK UNBOUND:                 4.586
REMARK SMILES CCCCCCCCCCCCCCCCCCCCCCCCCCCC(=O)[O-]
REMARK SMILES IDX 15 1 16 2 17 3 18 4 19 5 20 6 21 7 22 8 23 9 24 10 25 11
REMARK SMILES IDX 26 12 27 13 28 14 29 15 30 16 14 17 13 18 12 19 11 20 10 21
REMARK SMILES IDX 9 22 8 23 7 24 6 25 5 26 4 27 3 28 2 29 1 30
REMARK H PARENT
REMARK Flexibility Score: inf
ROOT
ATOM      1  C   UNL     1     -14.099  14.248  -5.869  1.00  0.00     0.000 C 
ENDROOT
BRANCH   1   2
ATOM      2  C   UNL     1     -14.899  12.982  -6.223  1.00  0.00     0.000 C 
BRANCH   2   3
ATOM      3  C   UNL     1     -16.416  13.231  -6.301  1.00  0.00     0.000 C 
BRANCH   3   4
ATOM      4  C   UNL     1     -17.076  12.769  -7.617  1.00  0.00     0.000 C 
BRANCH   4   5
ATOM      5  C   UNL     1     -16.804  13.718  -8.799  1.00  0.00     0.000 C 
BRANCH   5   6
ATOM      6  C   UNL     1     -17.119  13.082 -10.166  1.00  0.00     0.000 C 
BRANCH   6   7
ATOM      7  C   UNL     1     -16.725  11.593 -10.267  1.00  0.00     0.000 C 
BRANCH   7   8
ATOM      8  C   UNL     1     -16.335  11.190 -11.699  1.00  0.00     0.000 C 
BRANCH   8   9
ATOM      9  C   UNL     1     -17.103  12.012 -12.740  1.00  0.00     0.000 C 
BRANCH   9  10
ATOM     10  C   UNL     1     -16.332  13.286 -13.109  1.00  0.00     0.000 C 
BRANCH  10  11
ATOM     11  C   UNL     1     -14.938  13.294 -12.465  1.00  0.00     0.000 C 
BRANCH  11  12
ATOM     12  C   UNL     1     -14.226  11.933 -12.575  1.00  0.00     0.006 C 
BRANCH  12  13
ATOM     13  C   UNL     1     -12.939  11.824 -11.740  1.00  0.00     0.053 C 
BRANCH  13  14
ATOM     14  C   UNL     1     -13.215  11.894 -10.269  1.00  0.00     0.041 C 
ATOM     15  O   UNL     1     -13.061  10.873  -9.548  1.00  0.00    -0.550 OA
ATOM     16  O   UNL     1     -13.588  13.098  -9.687  1.00  0.00    -0.550 OA
ENDBRANCH  13  14
ENDBRANCH  12  13
ENDBRANCH  11  12
ENDBRANCH  10  11
ENDBRANCH   9  10
ENDBRANCH   8   9
ENDBRANCH   7   8
ENDBRANCH   6   7
ENDBRANCH   5   6
ENDBRANCH   4   5
ENDBRANCH   3   4
ENDBRANCH   2   3
ENDBRANCH   1   2
BRANCH   1  17
ATOM     17  C   UNL     1     -14.461  15.468  -6.737  1.00  0.00     0.000 C 
BRANCH  17  18
ATOM     18  C   UNL     1     -15.820  16.132  -6.435  1.00  0.00     0.000 C 
BRANCH  18  19
ATOM     19  C   UNL     1     -16.534  16.660  -7.689  1.00  0.00     0.000 C 
BRANCH  19  20
ATOM     20  C   UNL     1     -15.553  17.080  -8.797  1.00  0.00     0.000 C 
BRANCH  20  21
ATOM     21  C   UNL     1     -16.088  16.837 -10.225  1.00  0.00     0.000 C 
BRANCH  21  22
ATOM     22  C   UNL     1     -17.125  17.894 -10.648  1.00  0.00    -0.000 C 
BRANCH  22  23
ATOM     23  C   UNL     1     -16.500  19.066 -11.426  1.00  0.00    -0.000 C 
BRANCH  23  24
ATOM     24  C   UNL     1     -16.484  20.408 -10.675  1.00  0.00    -0.000 C 
BRANCH  24  25
ATOM     25  C   UNL     1     -17.039  21.573 -11.517  1.00  0.00    -0.000 C 
BRANCH  25  26
ATOM     26  C   UNL     1     -16.581  21.499 -12.982  1.00  0.00    -0.000 C 
BRANCH  26  27
ATOM     27  C   UNL     1     -15.047  21.514 -13.124  1.00  0.00    -0.000 C 
BRANCH  27  28
ATOM     28  C   UNL     1     -14.338  21.783 -11.780  1.00  0.00    -0.000 C 
BRANCH  28  29
ATOM     29  C   UNL     1     -12.809  21.886 -11.905  1.00  0.00    -0.003 C 
ATOM     30  C   UNL     1     -12.211  20.819 -12.822  1.00  0.00     0.004 C 
ENDBRANCH  28  29
ENDBRANCH  27  28
ENDBRANCH  26  27
ENDBRANCH  25  26
ENDBRANCH  24  25
ENDBRANCH  23  24
ENDBRANCH  22  23
ENDBRANCH  21  22
ENDBRANCH  20  21
ENDBRANCH  19  20
ENDBRANCH  18  19
ENDBRANCH  17  18
ENDBRANCH   1  17
TORSDOF 26
ENDMDL
MODEL 3
REMARK VINA RESULT:     3.502      2.358      3.563
REMARK INTER + INTRA:          13.410
REMARK INTER:                  10.778
REMARK INTRA:                   2.632
REMARK UNBOUND:                 4.586
REMARK SMILES CCCCCCCCCCCCCCCCCCCCCCCCCCCC(=O)[O-]
REMARK SMILES IDX 15 1 16 2 17 3 18 4 19 5 20 6 21 7 22 8 23 9 24 10 25 11
REMARK SMILES IDX 26 12 27 13 28 14 29 15 30 16 14 17 13 18 12 19 11 20 10 21
REMARK SMILES IDX 9 22 8 23 7 24 6 25 5 26 4 27 3 28 2 29 1 30
REMARK H PARENT
REMARK Flexibility Score: inf
ROOT
ATOM      1  C   UNL     1     -14.846  13.543  -7.174  1.00  0.00     0.000 C 
ENDROOT
BRANCH   1   2
ATOM      2  C   UNL     1     -15.766  12.357  -6.832  1.00  0.00     0.000 C 
BRANCH   2   3
ATOM      3  C   UNL     1     -17.088  12.374  -7.619  1.00  0.00     0.000 C 
BRANCH   3   4
ATOM      4  C   UNL     1     -16.939  12.704  -9.119  1.00  0.00     0.000 C 
BRANCH   4   5
ATOM      5  C   UNL     1     -16.880  11.451 -10.014  1.00  0.00     0.000 C 
BRANCH   5   6
ATOM      6  C   UNL     1     -17.123  11.763 -11.502  1.00  0.00     0.000 C 
BRANCH   6   7
ATOM      7  C   UNL     1     -16.750  10.604 -12.452  1.00  0.00     0.000 C 
BRANCH   7   8
ATOM      8  C   UNL     1     -15.243  10.298 -12.433  1.00  0.00     0.000 C 
BRANCH   8   9
ATOM      9  C   UNL     1     -14.415  11.574 -12.252  1.00  0.00     0.000 C 
BRANCH   9  10
ATOM     10  C   UNL     1     -14.130  11.837 -10.767  1.00  0.00     0.000 C 
BRANCH  10  11
ATOM     11  C   UNL     1     -14.291  13.327 -10.430  1.00  0.00     0.000 C 
BRANCH  11  12
ATOM     12  C   UNL     1     -14.626  14.182 -11.666  1.00  0.00     0.006 C 
BRANCH  12  13
ATOM     13  C   UNL     1     -15.440  15.450 -11.356  1.00  0.00     0.053 C 
BRANCH  13  14
ATOM     14  C   UNL     1     -16.364  15.814 -12.477  1.00  0.00     0.041 C 
ATOM     15  O   UNL     1     -16.968  14.913 -13.117  1.00  0.00    -0.550 OA
ATOM     16  O   UNL     1     -16.601  17.148 -12.778  1.00  0.00    -0.550 OA
ENDBRANCH  13  14
ENDBRANCH  12  13
ENDBRANCH  11  12
ENDBRANCH  10  11
ENDBRANCH   9  10
ENDBRANCH   8   9
ENDBRANCH   7   8
ENDBRANCH   6   7
ENDBRANCH   5   6
ENDBRANCH   4   5
ENDBRANCH   3   4
ENDBRANCH   2   3
ENDBRANCH   1   2
BRANCH   1  17
ATOM     17  C   UNL     1     -15.492  14.917  -6.913  1.00  0.00     0.000 C 
BRANCH  17  18
ATOM     18  C   UNL     1     -14.666  16.145  -7.349  1.00  0.00     0.000 C 
BRANCH  18  19
ATOM     19  C   UNL     1     -15.527  17.313  -7.854  1.00  0.00     0.000 C 
BRANCH  19  20
ATOM     20  C   UNL     1     -16.205  17.010  -9.201  1.00  0.00     0.000 C 
BRANCH  20  21
ATOM     21  C   UNL     1     -17.125  18.145  -9.702  1.00  0.00     0.000 C 
BRANCH  21  22
ATOM     22  C   UNL     1     -16.462  18.988 -10.807  1.00  0.00    -0.000 C 
BRANCH  22  23
ATOM     23  C   UNL     1     -16.024  20.380 -10.315  1.00  0.00    -0.000 C 
BRANCH  23  24
ATOM     24  C   UNL     1     -16.911  21.544 -10.792  1.00  0.00    -0.000 C 
BRANCH  24  25
ATOM     25  C   UNL     1     -16.821  21.782 -12.311  1.00  0.00    -0.000 C 
BRANCH  25  26
ATOM     26  C   UNL     1     -15.382  21.643 -12.835  1.00  0.00    -0.000 C 
BRANCH  26  27
ATOM     27  C   UNL     1     -14.921  20.175 -12.918  1.00  0.00    -0.000 C 
BRANCH  27  28
ATOM     28  C   UNL     1     -13.567  19.948 -12.214  1.00  0.00    -0.000 C 
BRANCH  28  29
ATOM     29  C   UNL     1     -12.565  21.095 -12.434  1.00  0.00    -0.003 C 
ATOM     30  C   UNL     1     -12.544  22.099 -11.282  1.00  0.00     0.004 C 
ENDBRANCH  28  29
ENDBRANCH  27  28
ENDBRANCH  26  27
ENDBRANCH  25  26
ENDBRANCH  24  25
ENDBRANCH  23  24
ENDBRANCH  22  23
ENDBRANCH  21  22
ENDBRANCH  20  21
ENDBRANCH  19  20
ENDBRANCH  18  19
ENDBRANCH  17  18
ENDBRANCH   1  17
TORSDOF 26
ENDMDL
