MODEL 1
REMARK VINA RESULT:    -4.409      0.000      0.000
REMARK INTER + INTRA:         -10.436
REMARK INTER:                  -8.017
REMARK INTRA:                  -2.419
REMARK UNBOUND:                -2.419
REMARK SMILES CCCCCCCCCCCCCC[C@H](C)C(=O)[O-]
REMARK SMILES IDX 9 1 10 2 11 3 12 4 13 5 14 6 15 7 16 8 17 9 18 10 19 11 8 12
REMARK SMILES IDX 7 13 6 14 5 15 4 16 3 17 2 18 1 19
REMARK H PARENT
REMARK Flexibility Score: inf
ROOT
ATOM      1  C   UNL     1      13.626  54.060 156.361  1.00  0.00     0.000 C 
ENDROOT
BRANCH   1   2
ATOM      2  C   UNL     1      14.698  55.165 156.343  1.00  0.00     0.000 C 
BRANCH   2   3
ATOM      3  C   UNL     1      16.118  54.600 156.169  1.00  0.00     0.000 C 
BRANCH   3   4
ATOM      4  C   UNL     1      17.189  55.480 156.837  1.00  0.00     0.000 C 
BRANCH   4   5
ATOM      5  C   UNL     1      16.588  56.642 157.644  1.00  0.00     0.001 C 
BRANCH   5   6
ATOM      6  C   UNL     1      17.357  57.030 158.928  1.00  0.00     0.009 C 
BRANCH   6   7
ATOM      7  C   UNL     1      18.462  58.109 158.786  1.00  0.00     0.032 C 
ATOM      8  C   UNL     1      19.859  57.592 159.169  1.00  0.00     0.014 C 
BRANCH   7   9
ATOM      9  C   UNL     1      18.103  59.396 159.488  1.00  0.00     0.044 C 
ATOM     10  O   UNL     1      18.993  60.169 159.935  1.00  0.00    -0.550 OA
ATOM     11  O   UNL     1      16.766  59.751 159.626  1.00  0.00    -0.550 OA
ENDBRANCH   7   9
ENDBRANCH   6   7
ENDBRANCH   5   6
ENDBRANCH   4   5
ENDBRANCH   3   4
ENDBRANCH   2   3
ENDBRANCH   1   2
BRANCH   1  12
ATOM     12  C   UNL     1      14.120  52.769 157.032  1.00  0.00     0.000 C 
BRANCH  12  13
ATOM     13  C   UNL     1      13.769  52.705 158.526  1.00  0.00    -0.000 C 
BRANCH  13  14
ATOM     14  C   UNL     1      14.904  52.059 159.330  1.00  0.00    -0.000 C 
BRANCH  14  15
ATOM     15  C   UNL     1      16.025  51.571 158.405  1.00  0.00    -0.000 C 
BRANCH  15  16
ATOM     16  C   UNL     1      17.359  52.251 158.749  1.00  0.00    -0.000 C 
BRANCH  16  17
ATOM     17  C   UNL     1      17.227  53.298 159.868  1.00  0.00    -0.000 C 
BRANCH  17  18
ATOM     18  C   UNL     1      18.561  53.889 160.362  1.00  0.00    -0.003 C 
ATOM     19  C   UNL     1      19.664  53.841 159.306  1.00  0.00     0.004 C 
ENDBRANCH  17  18
ENDBRANCH  16  17
ENDBRANCH  15  16
ENDBRANCH  14  15
ENDBRANCH  13  14
ENDBRANCH  12  13
ENDBRANCH   1  12
TORSDOF 14
ENDMDL
MODEL 2
REMARK VINA RESULT:    -4.381      2.512      3.997
REMARK INTER + INTRA:         -10.385
REMARK INTER:                  -8.423
REMARK INTRA:                  -1.961
REMARK UNBOUND:                -2.419
REMARK SMILES CCCCCCCCCCCCCC[C@H](C)C(=O)[O-]
REMARK SMILES IDX 9 1 10 2 11 3 12 4 13 5 14 6 15 7 16 8 17 9 18 10 19 11 8 12
REMARK SMILES IDX 7 13 6 14 5 15 4 16 3 17 2 18 1 19
REMARK H PARENT
REMARK Flexibility Score: inf
ROOT
ATOM      1  C   UNL     1      16.001  56.039 157.329  1.00  0.00     0.000 C 
ENDROOT
BRANCH   1   2
ATOM      2  C   UNL     1      17.508  56.092 157.026  1.00  0.00     0.000 C 
BRANCH   2   3
ATOM      3  C   UNL     1      17.974  54.910 156.160  1.00  0.00     0.000 C 
BRANCH   3   4
ATOM      4  C   UNL     1      18.081  53.599 156.958  1.00  0.00     0.000 C 
BRANCH   4   5
ATOM      5  C   UNL     1      18.994  53.722 158.188  1.00  0.00     0.001 C 
BRANCH   5   6
ATOM      6  C   UNL     1      18.294  53.570 159.558  1.00  0.00     0.009 C 
BRANCH   6   7
ATOM      7  C   UNL     1      18.889  54.371 160.744  1.00  0.00     0.032 C 
ATOM      8  C   UNL     1      18.320  55.796 160.851  1.00  0.00     0.014 C 
BRANCH   7   9
ATOM      9  C   UNL     1      20.397  54.340 160.760  1.00  0.00     0.044 C 
ATOM     10  O   UNL     1      21.070  55.364 161.058  1.00  0.00    -0.550 OA
ATOM     11  O   UNL     1      21.061  53.157 160.462  1.00  0.00    -0.550 OA
ENDBRANCH   7   9
ENDBRANCH   6   7
ENDBRANCH   5   6
ENDBRANCH   4   5
ENDBRANCH   3   4
ENDBRANCH   2   3
ENDBRANCH   1   2
BRANCH   1  12
ATOM     12  C   UNL     1      15.145  55.944 156.055  1.00  0.00     0.000 C 
BRANCH  12  13
ATOM     13  C   UNL     1      14.009  54.918 156.178  1.00  0.00    -0.000 C 
BRANCH  13  14
ATOM     14  C   UNL     1      14.550  53.486 156.083  1.00  0.00    -0.000 C 
BRANCH  14  15
ATOM     15  C   UNL     1      14.010  52.616 157.224  1.00  0.00    -0.000 C 
BRANCH  15  16
ATOM     16  C   UNL     1      14.858  52.785 158.494  1.00  0.00    -0.000 C 
BRANCH  16  17
ATOM     17  C   UNL     1      14.422  51.849 159.635  1.00  0.00    -0.000 C 
BRANCH  17  18
ATOM     18  C   UNL     1      15.449  50.765 160.011  1.00  0.00    -0.003 C 
ATOM     19  C   UNL     1      16.577  50.630 158.990  1.00  0.00     0.004 C 
ENDBRANCH  17  18
ENDBRANCH  16  17
ENDBRANCH  15  16
ENDBRANCH  14  15
ENDBRANCH  13  14
ENDBRANCH  12  13
ENDBRANCH   1  12
TORSDOF 14
ENDMDL
MODEL 3
REMARK VINA RESULT:    -4.341      2.480      4.618
REMARK INTER + INTRA:         -10.312
REMARK INTER:                  -8.062
REMARK INTRA:                  -2.250
REMARK UNBOUND:                -2.419
REMARK SMILES CCCCCCCCCCCCCC[C@H](C)C(=O)[O-]
REMARK SMILES IDX 9 1 10 2 11 3 12 4 13 5 14 6 15 7 16 8 17 9 18 10 19 11 8 12
REMARK SMILES IDX 7 13 6 14 5 15 4 16 3 17 2 18 1 19
REMARK H PARENT
REMARK Flexibility Score: inf
ROOT
ATOM      1  C   UNL     1      16.233  57.498 157.573  1.00  0.00     0.000 C 
ENDROOT
BRANCH   1   2
ATOM      2  C   UNL     1      17.127  58.257 158.570  1.00  0.00     0.000 C 
BRANCH   2   3
ATOM      3  C   UNL     1      18.624  58.105 158.248  1.00  0.00     0.000 C 
BRANCH   3   4
ATOM      4  C   UNL     1      19.482  57.908 159.510  1.00  0.00     0.000 C 
BRANCH   4   5
ATOM      5  C   UNL     1      20.228  56.565 159.519  1.00  0.00     0.001 C 
BRANCH   5   6
ATOM      6  C   UNL     1      19.469  55.374 158.889  1.00  0.00     0.009 C 
BRANCH   6   7
ATOM      7  C   UNL     1      19.181  54.159 159.808  1.00  0.00     0.032 C 
ATOM      8  C   UNL     1      17.869  54.300 160.598  1.00  0.00     0.014 C 
BRANCH   7   9
ATOM      9  C   UNL     1      20.358  53.810 160.686  1.00  0.00     0.044 C 
ATOM     10  O   UNL     1      21.357  53.192 160.228  1.00  0.00    -0.550 OA
ATOM     11  O   UNL     1      20.354  54.196 162.021  1.00  0.00    -0.550 OA
ENDBRANCH   7   9
ENDBRANCH   6   7
ENDBRANCH   5   6
ENDBRANCH   4   5
ENDBRANCH   3   4
ENDBRANCH   2   3
ENDBRANCH   1   2
BRANCH   1  12
ATOM     12  C   UNL     1      17.037  56.846 156.437  1.00  0.00     0.000 C 
BRANCH  12  13
ATOM     13  C   UNL     1      16.781  55.336 156.319  1.00  0.00    -0.000 C 
BRANCH  13  14
ATOM     14  C   UNL     1      16.005  54.814 157.534  1.00  0.00    -0.000 C 
BRANCH  14  15
ATOM     15  C   UNL     1      14.746  54.056 157.100  1.00  0.00    -0.000 C 
BRANCH  15  16
ATOM     16  C   UNL     1      14.674  52.677 157.773  1.00  0.00    -0.000 C 
BRANCH  16  17
ATOM     17  C   UNL     1      15.964  51.856 157.600  1.00  0.00    -0.000 C 
BRANCH  17  18
ATOM     18  C   UNL     1      16.542  51.276 158.903  1.00  0.00    -0.003 C 
ATOM     19  C   UNL     1      15.476  51.015 159.966  1.00  0.00     0.004 C 
ENDBRANCH  17  18
ENDBRANCH  16  17
ENDBRANCH  15  16
ENDBRANCH  14  15
ENDBRANCH  13  14
ENDBRANCH  12  13
ENDBRANCH   1  12
TORSDOF 14
ENDMDL
MODEL 4
REMARK VINA RESULT:    -4.288      2.866      4.903
REMARK INTER + INTRA:         -10.217
REMARK INTER:                  -8.334
REMARK INTRA:                  -1.883
REMARK UNBOUND:                -2.419
REMARK SMILES CCCCCCCCCCCCCC[C@H](C)C(=O)[O-]
REMARK SMILES IDX 9 1 10 2 11 3 12 4 13 5 14 6 15 7 16 8 17 9 18 10 19 11 8 12
REMARK SMILES IDX 7 13 6 14 5 15 4 16 3 17 2 18 1 19
REMARK H PARENT
REMARK Flexibility Score: inf
ROOT
ATOM      1  C   UNL     1      17.801  55.549 158.713  1.00  0.00     0.000 C 
ENDROOT
BRANCH   1   2
ATOM      2  C   UNL     1      17.544  55.409 160.224  1.00  0.00     0.000 C 
BRANCH   2   3
ATOM      3  C   UNL     1      18.155  54.122 160.806  1.00  0.00     0.000 C 
BRANCH   3   4
ATOM      4  C   UNL     1      19.284  53.555 159.928  1.00  0.00     0.000 C 
BRANCH   4   5
ATOM      5  C   UNL     1      20.676  53.748 160.550  1.00  0.00     0.001 C 
BRANCH   5   6
ATOM      6  C   UNL     1      20.710  54.534 161.881  1.00  0.00     0.009 C 
BRANCH   6   7
ATOM      7  C   UNL     1      21.375  55.934 161.853  1.00  0.00     0.032 C 
ATOM      8  C   UNL     1      21.396  56.562 160.449  1.00  0.00     0.014 C 
BRANCH   7   9
ATOM      9  C   UNL     1      22.731  55.940 162.516  1.00  0.00     0.044 C 
ATOM     10  O   UNL     1      23.672  55.218 162.089  1.00  0.00    -0.550 OA
ATOM     11  O   UNL     1      22.957  56.773 163.605  1.00  0.00    -0.550 OA
ENDBRANCH   7   9
ENDBRANCH   6   7
ENDBRANCH   5   6
ENDBRANCH   4   5
ENDBRANCH   3   4
ENDBRANCH   2   3
ENDBRANCH   1   2
BRANCH   1  12
ATOM     12  C   UNL     1      16.951  56.656 158.070  1.00  0.00     0.000 C 
BRANCH  12  13
ATOM     13  C   UNL     1      15.898  56.106 157.096  1.00  0.00    -0.000 C 
BRANCH  13  14
ATOM     14  C   UNL     1      15.883  54.572 157.112  1.00  0.00    -0.000 C 
BRANCH  14  15
ATOM     15  C   UNL     1      14.457  54.033 156.953  1.00  0.00    -0.000 C 
BRANCH  15  16
ATOM     16  C   UNL     1      14.188  52.885 157.937  1.00  0.00    -0.000 C 
BRANCH  16  17
ATOM     17  C   UNL     1      15.355  52.644 158.911  1.00  0.00    -0.000 C 
BRANCH  17  18
ATOM     18  C   UNL     1      15.296  51.307 159.673  1.00  0.00    -0.003 C 
ATOM     19  C   UNL     1      16.491  50.400 159.381  1.00  0.00     0.004 C 
ENDBRANCH  17  18
ENDBRANCH  16  17
ENDBRANCH  15  16
ENDBRANCH  14  15
ENDBRANCH  13  14
ENDBRANCH  12  13
ENDBRANCH   1  12
TORSDOF 14
ENDMDL
MODEL 5
REMARK VINA RESULT:    -4.250      1.550      3.495
REMARK INTER + INTRA:         -10.148
REMARK INTER:                  -7.988
REMARK INTRA:                  -2.160
REMARK UNBOUND:                -2.419
REMARK SMILES CCCCCCCCCCCCCC[C@H](C)C(=O)[O-]
REMARK SMILES IDX 9 1 10 2 11 3 12 4 13 5 14 6 15 7 16 8 17 9 18 10 19 11 8 12
REMARK SMILES IDX 7 13 6 14 5 15 4 16 3 17 2 18 1 19
REMARK H PARENT
REMARK Flexibility Score: inf
ROOT
ATOM      1  C   UNL     1      17.742  55.194 156.827  1.00  0.00     0.000 C 
ENDROOT
BRANCH   1   2
ATOM      2  C   UNL     1      18.118  53.787 157.322  1.00  0.00     0.000 C 
BRANCH   2   3
ATOM      3  C   UNL     1      19.180  53.821 158.435  1.00  0.00     0.000 C 
BRANCH   3   4
ATOM      4  C   UNL     1      18.601  53.460 159.814  1.00  0.00     0.000 C 
BRANCH   4   5
ATOM      5  C   UNL     1      18.546  54.661 160.771  1.00  0.00     0.001 C 
BRANCH   5   6
ATOM      6  C   UNL     1      19.213  55.957 160.255  1.00  0.00     0.009 C 
BRANCH   6   7
ATOM      7  C   UNL     1      18.332  57.232 160.212  1.00  0.00     0.032 C 
ATOM      8  C   UNL     1      18.656  58.146 159.019  1.00  0.00     0.014 C 
BRANCH   7   9
ATOM      9  C   UNL     1      18.322  57.970 161.529  1.00  0.00     0.044 C 
ATOM     10  O   UNL     1      17.609  57.580 162.492  1.00  0.00    -0.550 OA
ATOM     11  O   UNL     1      19.131  59.087 161.693  1.00  0.00    -0.550 OA
ENDBRANCH   7   9
ENDBRANCH   6   7
ENDBRANCH   5   6
ENDBRANCH   4   5
ENDBRANCH   3   4
ENDBRANCH   2   3
ENDBRANCH   1   2
BRANCH   1  12
ATOM     12  C   UNL     1      16.393  55.675 157.384  1.00  0.00     0.000 C 
BRANCH  12  13
ATOM     13  C   UNL     1      15.273  55.651 156.333  1.00  0.00    -0.000 C 
BRANCH  13  14
ATOM     14  C   UNL     1      14.759  54.223 156.112  1.00  0.00    -0.000 C 
BRANCH  14  15
ATOM     15  C   UNL     1      14.062  53.687 157.367  1.00  0.00    -0.000 C 
BRANCH  15  16
ATOM     16  C   UNL     1      14.690  52.361 157.822  1.00  0.00    -0.000 C 
BRANCH  16  17
ATOM     17  C   UNL     1      14.468  52.073 159.317  1.00  0.00    -0.000 C 
BRANCH  17  18
ATOM     18  C   UNL     1      15.460  51.073 159.938  1.00  0.00    -0.003 C 
ATOM     19  C   UNL     1      16.580  50.668 158.981  1.00  0.00     0.004 C 
ENDBRANCH  17  18
ENDBRANCH  16  17
ENDBRANCH  15  16
ENDBRANCH  14  15
ENDBRANCH  13  14
ENDBRANCH  12  13
ENDBRANCH   1  12
TORSDOF 14
ENDMDL
MODEL 6
REMARK VINA RESULT:    -4.229      1.346      1.526
REMARK INTER + INTRA:         -10.109
REMARK INTER:                  -7.695
REMARK INTRA:                  -2.414
REMARK UNBOUND:                -2.419
REMARK SMILES CCCCCCCCCCCCCC[C@H](C)C(=O)[O-]
REMARK SMILES IDX 9 1 10 2 11 3 12 4 13 5 14 6 15 7 16 8 17 9 18 10 19 11 8 12
REMARK SMILES IDX 7 13 6 14 5 15 4 16 3 17 2 18 1 19
REMARK H PARENT
REMARK Flexibility Score: inf
ROOT
ATOM      1  C   UNL     1      14.359  54.639 156.600  1.00  0.00     0.000 C 
ENDROOT
BRANCH   1   2
ATOM      2  C   UNL     1      15.667  55.437 156.461  1.00  0.00     0.000 C 
BRANCH   2   3
ATOM      3  C   UNL     1      16.895  54.525 156.295  1.00  0.00     0.000 C 
BRANCH   3   4
ATOM      4  C   UNL     1      18.160  55.114 156.943  1.00  0.00     0.000 C 
BRANCH   4   5
ATOM      5  C   UNL     1      18.004  56.596 157.317  1.00  0.00     0.001 C 
BRANCH   5   6
ATOM      6  C   UNL     1      18.594  57.005 158.686  1.00  0.00     0.009 C 
BRANCH   6   7
ATOM      7  C   UNL     1      17.639  57.718 159.678  1.00  0.00     0.032 C 
ATOM      8  C   UNL     1      17.174  59.096 159.179  1.00  0.00     0.014 C 
BRANCH   7   9
ATOM      9  C   UNL     1      18.193  57.760 161.081  1.00  0.00     0.044 C 
ATOM     10  O   UNL     1      19.402  58.045 161.299  1.00  0.00    -0.550 OA
ATOM     11  O   UNL     1      17.354  57.501 162.157  1.00  0.00    -0.550 OA
ENDBRANCH   7   9
ENDBRANCH   6   7
ENDBRANCH   5   6
ENDBRANCH   4   5
ENDBRANCH   3   4
ENDBRANCH   2   3
ENDBRANCH   1   2
BRANCH   1  12
ATOM     12  C   UNL     1      14.599  53.175 157.002  1.00  0.00     0.000 C 
BRANCH  12  13
ATOM     13  C   UNL     1      13.963  52.818 158.354  1.00  0.00    -0.000 C 
BRANCH  13  14
ATOM     14  C   UNL     1      14.920  51.976 159.206  1.00  0.00    -0.000 C 
BRANCH  14  15
ATOM     15  C   UNL     1      16.236  51.717 158.464  1.00  0.00    -0.000 C 
BRANCH  15  16
ATOM     16  C   UNL     1      17.437  52.214 159.282  1.00  0.00    -0.000 C 
BRANCH  16  17
ATOM     17  C   UNL     1      17.120  53.470 160.112  1.00  0.00    -0.000 C 
BRANCH  17  18
ATOM     18  C   UNL     1      18.318  54.061 160.877  1.00  0.00    -0.003 C 
ATOM     19  C   UNL     1      19.663  53.732 160.229  1.00  0.00     0.004 C 
ENDBRANCH  17  18
ENDBRANCH  16  17
ENDBRANCH  15  16
ENDBRANCH  14  15
ENDBRANCH  13  14
ENDBRANCH  12  13
ENDBRANCH   1  12
TORSDOF 14
ENDMDL
MODEL 7
REMARK VINA RESULT:    -4.205      2.412      4.886
REMARK INTER + INTRA:         -10.066
REMARK INTER:                  -7.697
REMARK INTRA:                  -2.369
REMARK UNBOUND:                -2.419
REMARK SMILES CCCCCCCCCCCCCC[C@H](C)C(=O)[O-]
REMARK SMILES IDX 9 1 10 2 11 3 12 4 13 5 14 6 15 7 16 8 17 9 18 10 19 11 8 12
REMARK SMILES IDX 7 13 6 14 5 15 4 16 3 17 2 18 1 19
REMARK H PARENT
REMARK Flexibility Score: inf
ROOT
ATOM      1  C   UNL     1      15.977  53.662 156.323  1.00  0.00     0.000 C 
ENDROOT
BRANCH   1   2
ATOM      2  C   UNL     1      15.747  52.256 156.906  1.00  0.00     0.000 C 
BRANCH   2   3
ATOM      3  C   UNL     1      14.870  52.282 158.169  1.00  0.00     0.000 C 
BRANCH   3   4
ATOM      4  C   UNL     1      15.554  51.616 159.376  1.00  0.00     0.000 C 
BRANCH   4   5
ATOM      5  C   UNL     1      17.023  52.038 159.536  1.00  0.00     0.001 C 
BRANCH   5   6
ATOM      6  C   UNL     1      17.253  53.479 160.047  1.00  0.00     0.009 C 
BRANCH   6   7
ATOM      7  C   UNL     1      18.618  54.133 159.713  1.00  0.00     0.032 C 
ATOM      8  C   UNL     1      19.192  53.671 158.363  1.00  0.00     0.014 C 
BRANCH   7   9
ATOM      9  C   UNL     1      19.609  54.005 160.845  1.00  0.00     0.044 C 
ATOM     10  O   UNL     1      19.315  54.366 162.016  1.00  0.00    -0.550 OA
ATOM     11  O   UNL     1      20.862  53.459 160.598  1.00  0.00    -0.550 OA
ENDBRANCH   7   9
ENDBRANCH   6   7
ENDBRANCH   5   6
ENDBRANCH   4   5
ENDBRANCH   3   4
ENDBRANCH   2   3
ENDBRANCH   1   2
BRANCH   1  12
ATOM     12  C   UNL     1      15.097  54.730 156.992  1.00  0.00     0.000 C 
BRANCH  12  13
ATOM     13  C   UNL     1      15.831  56.063 157.195  1.00  0.00    -0.000 C 
BRANCH  13  14
ATOM     14  C   UNL     1      17.265  55.987 156.656  1.00  0.00    -0.000 C 
BRANCH  14  15
ATOM     15  C   UNL     1      18.084  57.207 157.094  1.00  0.00    -0.000 C 
BRANCH  15  16
ATOM     16  C   UNL     1      17.258  58.128 158.004  1.00  0.00    -0.000 C 
BRANCH  16  17
ATOM     17  C   UNL     1      18.124  58.942 158.980  1.00  0.00    -0.000 C 
BRANCH  17  18
ATOM     18  C   UNL     1      17.665  58.893 160.449  1.00  0.00    -0.003 C 
ATOM     19  C   UNL     1      17.778  57.499 161.064  1.00  0.00     0.004 C 
ENDBRANCH  17  18
ENDBRANCH  16  17
ENDBRANCH  15  16
ENDBRANCH  14  15
ENDBRANCH  13  14
ENDBRANCH  12  13
ENDBRANCH   1  12
TORSDOF 14
ENDMDL
MODEL 8
REMARK VINA RESULT:    -4.153      1.724      4.238
REMARK INTER + INTRA:          -9.970
REMARK INTER:                  -7.359
REMARK INTRA:                  -2.611
REMARK UNBOUND:                -2.419
REMARK SMILES CCCCCCCCCCCCCC[C@H](C)C(=O)[O-]
REMARK SMILES IDX 9 1 10 2 11 3 12 4 13 5 14 6 15 7 16 8 17 9 18 10 19 11 8 12
REMARK SMILES IDX 7 13 6 14 5 15 4 16 3 17 2 18 1 19
REMARK H PARENT
REMARK Flexibility Score: inf
ROOT
ATOM      1  C   UNL     1      17.737  54.636 159.594  1.00  0.00     0.000 C 
ENDROOT
BRANCH   1   2
ATOM      2  C   UNL     1      18.219  53.686 160.705  1.00  0.00     0.000 C 
BRANCH   2   3
ATOM      3  C   UNL     1      18.864  54.439 161.881  1.00  0.00     0.000 C 
BRANCH   3   4
ATOM      4  C   UNL     1      20.399  54.483 161.782  1.00  0.00     0.000 C 
BRANCH   4   5
ATOM      5  C   UNL     1      20.946  55.912 161.637  1.00  0.00     0.001 C 
BRANCH   5   6
ATOM      6  C   UNL     1      20.880  56.511 160.213  1.00  0.00     0.009 C 
BRANCH   6   7
ATOM      7  C   UNL     1      20.036  57.799 160.032  1.00  0.00     0.032 C 
ATOM      8  C   UNL     1      19.118  58.090 161.231  1.00  0.00     0.014 C 
BRANCH   7   9
ATOM      9  C   UNL     1      19.301  57.824 158.713  1.00  0.00     0.044 C 
ATOM     10  O   UNL     1      19.885  57.539 157.633  1.00  0.00    -0.550 OA
ATOM     11  O   UNL     1      17.950  58.146 158.689  1.00  0.00    -0.550 OA
ENDBRANCH   7   9
ENDBRANCH   6   7
ENDBRANCH   5   6
ENDBRANCH   4   5
ENDBRANCH   3   4
ENDBRANCH   2   3
ENDBRANCH   1   2
BRANCH   1  12
ATOM     12  C   UNL     1      18.387  54.332 158.235  1.00  0.00     0.000 C 
BRANCH  12  13
ATOM     13  C   UNL     1      17.490  54.717 157.049  1.00  0.00    -0.000 C 
BRANCH  13  14
ATOM     14  C   UNL     1      16.154  55.292 157.534  1.00  0.00    -0.000 C 
BRANCH  14  15
ATOM     15  C   UNL     1      14.972  54.554 156.896  1.00  0.00    -0.000 C 
BRANCH  15  16
ATOM     16  C   UNL     1      15.078  53.039 157.125  1.00  0.00    -0.000 C 
BRANCH  16  17
ATOM     17  C   UNL     1      14.404  52.580 158.429  1.00  0.00    -0.000 C 
BRANCH  17  18
ATOM     18  C   UNL     1      15.313  51.784 159.383  1.00  0.00    -0.003 C 
ATOM     19  C   UNL     1      16.480  51.104 158.669  1.00  0.00     0.004 C 
ENDBRANCH  17  18
ENDBRANCH  16  17
ENDBRANCH  15  16
ENDBRANCH  14  15
ENDBRANCH  13  14
ENDBRANCH  12  13
ENDBRANCH   1  12
TORSDOF 14
ENDMDL
MODEL 9
REMARK VINA RESULT:    -4.148      0.932      3.408
REMARK INTER + INTRA:          -9.962
REMARK INTER:                  -7.774
REMARK INTRA:                  -2.188
REMARK UNBOUND:                -2.419
REMARK SMILES CCCCCCCCCCCCCC[C@H](C)C(=O)[O-]
REMARK SMILES IDX 9 1 10 2 11 3 12 4 13 5 14 6 15 7 16 8 17 9 18 10 19 11 8 12
REMARK SMILES IDX 7 13 6 14 5 15 4 16 3 17 2 18 1 19
REMARK H PARENT
REMARK Flexibility Score: inf
ROOT
ATOM      1  C   UNL     1      17.004  52.318 159.041  1.00  0.00     0.000 C 
ENDROOT
BRANCH   1   2
ATOM      2  C   UNL     1      17.186  53.618 159.843  1.00  0.00     0.000 C 
BRANCH   2   3
ATOM      3  C   UNL     1      18.600  53.749 160.433  1.00  0.00     0.000 C 
BRANCH   3   4
ATOM      4  C   UNL     1      19.637  54.200 159.390  1.00  0.00     0.000 C 
BRANCH   4   5
ATOM      5  C   UNL     1      20.191  55.606 159.668  1.00  0.00     0.001 C 
BRANCH   5   6
ATOM      6  C   UNL     1      19.133  56.696 159.957  1.00  0.00     0.009 C 
BRANCH   6   7
ATOM      7  C   UNL     1      18.610  57.506 158.743  1.00  0.00     0.032 C 
ATOM      8  C   UNL     1      19.682  57.734 157.665  1.00  0.00     0.014 C 
BRANCH   7   9
ATOM      9  C   UNL     1      17.918  58.782 159.159  1.00  0.00     0.044 C 
ATOM     10  O   UNL     1      16.704  58.987 158.886  1.00  0.00    -0.550 OA
ATOM     11  O   UNL     1      18.623  59.741 159.874  1.00  0.00    -0.550 OA
ENDBRANCH   7   9
ENDBRANCH   6   7
ENDBRANCH   5   6
ENDBRANCH   4   5
ENDBRANCH   3   4
ENDBRANCH   2   3
ENDBRANCH   1   2
BRANCH   1  12
ATOM     12  C   UNL     1      15.717  51.567 159.418  1.00  0.00     0.000 C 
BRANCH  12  13
ATOM     13  C   UNL     1      14.450  52.258 158.890  1.00  0.00    -0.000 C 
BRANCH  13  14
ATOM     14  C   UNL     1      14.588  52.591 157.399  1.00  0.00    -0.000 C 
BRANCH  14  15
ATOM     15  C   UNL     1      13.649  53.736 157.002  1.00  0.00    -0.000 C 
BRANCH  15  16
ATOM     16  C   UNL     1      14.397  54.809 156.198  1.00  0.00    -0.000 C 
BRANCH  16  17
ATOM     17  C   UNL     1      15.514  55.493 157.004  1.00  0.00    -0.000 C 
BRANCH  17  18
ATOM     18  C   UNL     1      16.815  55.750 156.221  1.00  0.00    -0.003 C 
ATOM     19  C   UNL     1      17.750  54.542 156.203  1.00  0.00     0.004 C 
ENDBRANCH  17  18
ENDBRANCH  16  17
ENDBRANCH  15  16
ENDBRANCH  14  15
ENDBRANCH  13  14
ENDBRANCH  12  13
ENDBRANCH   1  12
TORSDOF 14
ENDMDL
