MODEL 1
REMARK VINA RESULT:    -3.959      0.000      0.000
REMARK INTER + INTRA:          -5.012
REMARK INTER:                  -4.885
REMARK INTRA:                  -0.127
REMARK UNBOUND:                -0.127
REMARK SMILES CCCCCC(=O)[O-]
REMARK SMILES IDX 4 1 5 2 6 3 7 4 8 5 3 6 2 7 1 8
REMARK H PARENT
REMARK Flexibility Score: inf
ROOT
ATOM      1  C   UNL     1      -5.387  -2.143  29.057  1.00  0.00     0.006 C 
ENDROOT
BRANCH   1   2
ATOM      2  C   UNL     1      -4.680  -1.048  28.248  1.00  0.00     0.053 C 
BRANCH   2   3
ATOM      3  C   UNL     1      -3.228  -0.945  28.601  1.00  0.00     0.041 C 
ATOM      4  O   UNL     1      -2.482  -1.956  28.518  1.00  0.00    -0.550 OA
ATOM      5  O   UNL     1      -2.704   0.261  29.051  1.00  0.00    -0.550 OA
ENDBRANCH   2   3
ENDBRANCH   1   2
BRANCH   1   6
ATOM      6  C   UNL     1      -5.777  -3.349  28.186  1.00  0.00     0.000 C 
BRANCH   6   7
ATOM      7  C   UNL     1      -5.044  -4.636  28.597  1.00  0.00    -0.003 C 
ATOM      8  C   UNL     1      -5.714  -5.898  28.056  1.00  0.00     0.004 C 
ENDBRANCH   6   7
ENDBRANCH   1   6
TORSDOF 4
ENDMDL
MODEL 2
REMARK VINA RESULT:    -3.952      0.120      1.150
REMARK INTER + INTRA:          -5.003
REMARK INTER:                  -4.872
REMARK INTRA:                  -0.131
REMARK UNBOUND:                -0.127
REMARK SMILES CCCCCC(=O)[O-]
REMARK SMILES IDX 4 1 5 2 6 3 7 4 8 5 3 6 2 7 1 8
REMARK H PARENT
REMARK Flexibility Score: inf
ROOT
ATOM      1  C   UNL     1      -5.363  -2.029  29.052  1.00  0.00     0.006 C 
ENDROOT
BRANCH   1   2
ATOM      2  C   UNL     1      -4.619  -0.948  28.257  1.00  0.00     0.053 C 
BRANCH   2   3
ATOM      3  C   UNL     1      -3.167  -0.887  28.623  1.00  0.00     0.041 C 
ATOM      4  O   UNL     1      -2.642   0.208  28.954  1.00  0.00    -0.550 OA
ATOM      5  O   UNL     1      -2.386  -2.036  28.569  1.00  0.00    -0.550 OA
ENDBRANCH   2   3
ENDBRANCH   1   2
BRANCH   1   6
ATOM      6  C   UNL     1      -5.736  -3.239  28.178  1.00  0.00     0.000 C 
BRANCH   6   7
ATOM      7  C   UNL     1      -4.994  -4.518  28.595  1.00  0.00    -0.003 C 
ATOM      8  C   UNL     1      -5.651  -5.787  28.054  1.00  0.00     0.004 C 
ENDBRANCH   6   7
ENDBRANCH   1   6
TORSDOF 4
ENDMDL
MODEL 3
REMARK VINA RESULT:    -3.862      1.419      1.799
REMARK INTER + INTRA:          -4.892
REMARK INTER:                  -4.842
REMARK INTRA:                  -0.050
REMARK UNBOUND:                -0.127
REMARK SMILES CCCCCC(=O)[O-]
REMARK SMILES IDX 4 1 5 2 6 3 7 4 8 5 3 6 2 7 1 8
REMARK H PARENT
REMARK Flexibility Score: inf
ROOT
ATOM      1  C   UNL     1      -4.966  -2.394  29.282  1.00  0.00     0.006 C 
ENDROOT
BRANCH   1   2
ATOM      2  C   UNL     1      -4.922  -1.199  28.320  1.00  0.00     0.053 C 
BRANCH   2   3
ATOM      3  C   UNL     1      -4.900   0.107  29.054  1.00  0.00     0.041 C 
ATOM      4  O   UNL     1      -3.803   0.625  29.391  1.00  0.00    -0.550 OA
ATOM      5  O   UNL     1      -6.091   0.737  29.392  1.00  0.00    -0.550 OA
ENDBRANCH   2   3
ENDBRANCH   1   2
BRANCH   1   6
ATOM      6  C   UNL     1      -5.800  -3.559  28.724  1.00  0.00     0.000 C 
BRANCH   6   7
ATOM      7  C   UNL     1      -5.024  -4.886  28.709  1.00  0.00    -0.003 C 
ATOM      8  C   UNL     1      -5.780  -6.006  27.998  1.00  0.00     0.004 C 
ENDBRANCH   6   7
ENDBRANCH   1   6
TORSDOF 4
ENDMDL
MODEL 4
REMARK VINA RESULT:    -3.798      1.035      1.427
REMARK INTER + INTRA:          -4.813
REMARK INTER:                  -4.707
REMARK INTRA:                  -0.106
REMARK UNBOUND:                -0.127
REMARK SMILES CCCCCC(=O)[O-]
REMARK SMILES IDX 4 1 5 2 6 3 7 4 8 5 3 6 2 7 1 8
REMARK H PARENT
REMARK Flexibility Score: inf
ROOT
ATOM      1  C   UNL     1      -4.886  -1.675  28.172  1.00  0.00     0.006 C 
ENDROOT
BRANCH   1   2
ATOM      2  C   UNL     1      -3.669  -1.217  28.986  1.00  0.00     0.053 C 
BRANCH   2   3
ATOM      3  C   UNL     1      -2.420  -1.197  28.159  1.00  0.00     0.041 C 
ATOM      4  O   UNL     1      -2.362  -0.494  27.116  1.00  0.00    -0.550 OA
ATOM      5  O   UNL     1      -1.330  -1.979  28.523  1.00  0.00    -0.550 OA
ENDBRANCH   2   3
ENDBRANCH   1   2
BRANCH   1   6
ATOM      6  C   UNL     1      -5.552  -2.924  28.775  1.00  0.00     0.000 C 
BRANCH   6   7
ATOM      7  C   UNL     1      -4.682  -4.183  28.634  1.00  0.00    -0.003 C 
ATOM      8  C   UNL     1      -5.475  -5.400  28.163  1.00  0.00     0.004 C 
ENDBRANCH   6   7
ENDBRANCH   1   6
TORSDOF 4
ENDMDL
MODEL 5
REMARK VINA RESULT:    -3.785      2.478      4.528
REMARK INTER + INTRA:          -4.798
REMARK INTER:                  -4.709
REMARK INTRA:                  -0.089
REMARK UNBOUND:                -0.127
REMARK SMILES CCCCCC(=O)[O-]
REMARK SMILES IDX 4 1 5 2 6 3 7 4 8 5 3 6 2 7 1 8
REMARK H PARENT
REMARK Flexibility Score: inf
ROOT
ATOM      1  C   UNL     1      -4.983  -2.590  29.408  1.00  0.00     0.006 C 
ENDROOT
BRANCH   1   2
ATOM      2  C   UNL     1      -5.921  -3.747  29.040  1.00  0.00     0.053 C 
BRANCH   2   3
ATOM      3  C   UNL     1      -5.177  -4.895  28.428  1.00  0.00     0.041 C 
ATOM      4  O   UNL     1      -3.937  -4.811  28.228  1.00  0.00    -0.550 OA
ATOM      5  O   UNL     1      -5.858  -6.045  28.051  1.00  0.00    -0.550 OA
ENDBRANCH   2   3
ENDBRANCH   1   2
BRANCH   1   6
ATOM      6  C   UNL     1      -5.174  -1.372  28.488  1.00  0.00     0.000 C 
BRANCH   6   7
ATOM      7  C   UNL     1      -4.789  -0.051  29.170  1.00  0.00    -0.003 C 
ATOM      8  C   UNL     1      -5.981   0.885  29.363  1.00  0.00     0.004 C 
ENDBRANCH   6   7
ENDBRANCH   1   6
TORSDOF 4
ENDMDL
MODEL 6
REMARK VINA RESULT:    -3.653      2.203      4.105
REMARK INTER + INTRA:          -4.634
REMARK INTER:                  -4.477
REMARK INTRA:                  -0.158
REMARK UNBOUND:                -0.127
REMARK SMILES CCCCCC(=O)[O-]
REMARK SMILES IDX 4 1 5 2 6 3 7 4 8 5 3 6 2 7 1 8
REMARK H PARENT
REMARK Flexibility Score: inf
ROOT
ATOM      1  C   UNL     1      -5.369  -2.162  28.246  1.00  0.00     0.006 C 
ENDROOT
BRANCH   1   2
ATOM      2  C   UNL     1      -5.449  -3.365  29.196  1.00  0.00     0.053 C 
BRANCH   2   3
ATOM      3  C   UNL     1      -4.731  -4.559  28.645  1.00  0.00     0.041 C 
ATOM      4  O   UNL     1      -3.472  -4.593  28.636  1.00  0.00    -0.550 OA
ATOM      5  O   UNL     1      -5.452  -5.621  28.113  1.00  0.00    -0.550 OA
ENDBRANCH   2   3
ENDBRANCH   1   2
BRANCH   1   6
ATOM      6  C   UNL     1      -5.225  -0.832  29.005  1.00  0.00     0.000 C 
BRANCH   6   7
ATOM      7  C   UNL     1      -3.775  -0.325  29.037  1.00  0.00    -0.003 C 
ATOM      8  C   UNL     1      -2.942  -0.839  27.864  1.00  0.00     0.004 C 
ENDBRANCH   6   7
ENDBRANCH   1   6
TORSDOF 4
ENDMDL
MODEL 7
REMARK VINA RESULT:    -3.576      2.681      4.301
REMARK INTER + INTRA:          -4.539
REMARK INTER:                  -4.396
REMARK INTRA:                  -0.144
REMARK UNBOUND:                -0.127
REMARK SMILES CCCCCC(=O)[O-]
REMARK SMILES IDX 4 1 5 2 6 3 7 4 8 5 3 6 2 7 1 8
REMARK H PARENT
REMARK Flexibility Score: inf
ROOT
ATOM      1  C   UNL     1      -5.422  -1.751  28.988  1.00  0.00     0.006 C 
ENDROOT
BRANCH   1   2
ATOM      2  C   UNL     1      -4.775  -3.084  29.389  1.00  0.00     0.053 C 
BRANCH   2   3
ATOM      3  C   UNL     1      -5.516  -4.256  28.820  1.00  0.00     0.041 C 
ATOM      4  O   UNL     1      -6.177  -4.131  27.756  1.00  0.00    -0.550 OA
ATOM      5  O   UNL     1      -5.499  -5.478  29.481  1.00  0.00    -0.550 OA
ENDBRANCH   2   3
ENDBRANCH   1   2
BRANCH   1   6
ATOM      6  C   UNL     1      -4.470  -0.869  28.163  1.00  0.00     0.000 C 
BRANCH   6   7
ATOM      7  C   UNL     1      -2.995  -1.258  28.348  1.00  0.00    -0.003 C 
ATOM      8  C   UNL     1      -2.063  -0.519  27.390  1.00  0.00     0.004 C 
ENDBRANCH   6   7
ENDBRANCH   1   6
TORSDOF 4
ENDMDL
MODEL 8
REMARK VINA RESULT:    -3.299      2.230      4.402
REMARK INTER + INTRA:          -4.198
REMARK INTER:                  -4.116
REMARK INTRA:                  -0.082
REMARK UNBOUND:                -0.127
REMARK SMILES CCCCCC(=O)[O-]
REMARK SMILES IDX 4 1 5 2 6 3 7 4 8 5 3 6 2 7 1 8
REMARK H PARENT
REMARK Flexibility Score: inf
ROOT
ATOM      1  C   UNL     1      -4.666  -1.113  28.367  1.00  0.00     0.006 C 
ENDROOT
BRANCH   1   2
ATOM      2  C   UNL     1      -5.004  -2.266  29.322  1.00  0.00     0.053 C 
BRANCH   2   3
ATOM      3  C   UNL     1      -5.032  -3.586  28.613  1.00  0.00     0.041 C 
ATOM      4  O   UNL     1      -4.031  -4.348  28.653  1.00  0.00    -0.550 OA
ATOM      5  O   UNL     1      -6.154  -3.962  27.883  1.00  0.00    -0.550 OA
ENDBRANCH   2   3
ENDBRANCH   1   2
BRANCH   1   6
ATOM      6  C   UNL     1      -3.293  -0.490  28.672  1.00  0.00     0.000 C 
BRANCH   6   7
ATOM      7  C   UNL     1      -2.326  -0.584  27.482  1.00  0.00    -0.003 C 
ATOM      8  C   UNL     1      -1.236   0.486  27.519  1.00  0.00     0.004 C 
ENDBRANCH   6   7
ENDBRANCH   1   6
TORSDOF 4
ENDMDL
