MODEL 1
REMARK VINA RESULT:    -5.094      0.000      0.000
REMARK INTER + INTRA:          -5.540
REMARK INTER:                  -5.540
REMARK INTRA:                   0.000
REMARK UNBOUND:                 0.000
REMARK SMILES Oc1cccc(O)c1O
REMARK SMILES IDX 4 1 5 2 6 3 8 4 2 5 3 6 7 7 1 9 9 11
REMARK H PARENT 7 8 1 10 9 12
REMARK Flexibility Score: inf
ROOT
ATOM      1  C   UNL     1     146.140 146.082 157.758  1.00  0.00     0.008 A 
ATOM      2  C   UNL     1     146.078 147.149 156.861  1.00  0.00     0.050 A 
ATOM      3  C   UNL     1     147.146 147.419 155.998  1.00  0.00     0.161 A 
ATOM      4  C   UNL     1     148.302 146.599 156.039  1.00  0.00     0.200 A 
ATOM      5  C   UNL     1     148.354 145.524 156.949  1.00  0.00     0.161 A 
ATOM      6  C   UNL     1     147.275 145.273 157.802  1.00  0.00     0.050 A 
ENDROOT
BRANCH   3   7
ATOM      7  O   UNL     1     147.018 148.502 155.125  1.00  0.00    -0.504 OA
ATOM      8  H   UNL     1     147.027 149.468 155.417  1.00  0.00     0.293 HD
ENDBRANCH   3   7
BRANCH   5   9
ATOM      9  O   UNL     1     149.473 144.694 157.020  1.00  0.00    -0.504 OA
ATOM     10  H   UNL     1     150.050 144.634 157.851  1.00  0.00     0.293 HD
ENDBRANCH   5   9
BRANCH   4  11
ATOM     11  O   UNL     1     149.400 146.817 155.203  1.00  0.00    -0.502 OA
ATOM     12  H   UNL     1     150.235 147.314 155.481  1.00  0.00     0.293 HD
ENDBRANCH   4  11
TORSDOF 3
ENDMDL
MODEL 2
REMARK VINA RESULT:    -5.089      0.043      2.825
REMARK INTER + INTRA:          -5.535
REMARK INTER:                  -5.535
REMARK INTRA:                   0.000
REMARK UNBOUND:                 0.000
REMARK SMILES Oc1cccc(O)c1O
REMARK SMILES IDX 4 1 5 2 6 3 8 4 2 5 3 6 7 7 1 9 9 11
REMARK H PARENT 7 8 1 10 9 12
REMARK Flexibility Score: inf
ROOT
ATOM      1  C   UNL     1     146.150 146.090 157.754  1.00  0.00     0.008 A 
ATOM      2  C   UNL     1     147.277 145.268 157.796  1.00  0.00     0.050 A 
ATOM      3  C   UNL     1     148.363 145.502 156.944  1.00  0.00     0.161 A 
ATOM      4  C   UNL     1     148.314 146.585 156.031  1.00  0.00     0.200 A 
ATOM      5  C   UNL     1     147.170 147.409 155.997  1.00  0.00     0.161 A 
ATOM      6  C   UNL     1     146.097 147.156 156.857  1.00  0.00     0.050 A 
ENDROOT
BRANCH   3   7
ATOM      7  O   UNL     1     149.459 144.642 157.038  1.00  0.00    -0.504 OA
ATOM      8  H   UNL     1     149.436 143.666 156.781  1.00  0.00     0.293 HD
ENDBRANCH   3   7
BRANCH   5   9
ATOM      9  O   UNL     1     147.083 148.484 155.114  1.00  0.00    -0.504 OA
ATOM     10  H   UNL     1     147.538 148.480 154.208  1.00  0.00     0.293 HD
ENDBRANCH   5   9
BRANCH   4  11
ATOM     11  O   UNL     1     149.365 146.871 155.156  1.00  0.00    -0.502 OA
ATOM     12  H   UNL     1     150.026 147.622 155.291  1.00  0.00     0.293 HD
ENDBRANCH   4  11
TORSDOF 3
ENDMDL
MODEL 3
REMARK VINA RESULT:    -4.751      2.496      3.332
REMARK INTER + INTRA:          -5.167
REMARK INTER:                  -5.167
REMARK INTRA:                   0.000
REMARK UNBOUND:                 0.000
REMARK SMILES Oc1cccc(O)c1O
REMARK SMILES IDX 4 1 5 2 6 3 8 4 2 5 3 6 7 7 1 9 9 11
REMARK H PARENT 7 8 1 10 9 12
REMARK Flexibility Score: inf
ROOT
ATOM      1  C   UNL     1     148.838 149.524 158.125  1.00  0.00     0.008 A 
ATOM      2  C   UNL     1     147.789 150.407 157.865  1.00  0.00     0.050 A 
ATOM      3  C   UNL     1     146.766 150.057 156.976  1.00  0.00     0.161 A 
ATOM      4  C   UNL     1     146.799 148.793 156.336  1.00  0.00     0.200 A 
ATOM      5  C   UNL     1     147.863 147.909 156.605  1.00  0.00     0.161 A 
ATOM      6  C   UNL     1     148.875 148.280 157.497  1.00  0.00     0.050 A 
ENDROOT
BRANCH   3   7
ATOM      7  O   UNL     1     145.747 150.987 156.762  1.00  0.00    -0.504 OA
ATOM      8  H   UNL     1     145.340 151.559 157.487  1.00  0.00     0.293 HD
ENDBRANCH   3   7
BRANCH   5   9
ATOM      9  O   UNL     1     147.932 146.657 155.996  1.00  0.00    -0.504 OA
ATOM     10  H   UNL     1     147.445 145.848 156.364  1.00  0.00     0.293 HD
ENDBRANCH   5   9
BRANCH   4  11
ATOM     11  O   UNL     1     145.807 148.385 155.439  1.00  0.00    -0.502 OA
ATOM     12  H   UNL     1     145.971 148.194 154.461  1.00  0.00     0.293 HD
ENDBRANCH   4  11
TORSDOF 3
ENDMDL
MODEL 4
REMARK VINA RESULT:    -4.652      2.472      4.202
REMARK INTER + INTRA:          -5.060
REMARK INTER:                  -5.060
REMARK INTRA:                   0.000
REMARK UNBOUND:                 0.000
REMARK SMILES Oc1cccc(O)c1O
REMARK SMILES IDX 4 1 5 2 6 3 8 4 2 5 3 6 7 7 1 9 9 11
REMARK H PARENT 7 8 1 10 9 12
REMARK Flexibility Score: inf
ROOT
ATOM      1  C   UNL     1     148.897 149.518 158.125  1.00  0.00     0.008 A 
ATOM      2  C   UNL     1     148.962 148.276 157.493  1.00  0.00     0.050 A 
ATOM      3  C   UNL     1     147.950 147.867 156.617  1.00  0.00     0.161 A 
ATOM      4  C   UNL     1     146.850 148.726 156.371  1.00  0.00     0.200 A 
ATOM      5  C   UNL     1     146.794 149.979 157.014  1.00  0.00     0.161 A 
ATOM      6  C   UNL     1     147.816 150.367 157.886  1.00  0.00     0.050 A 
ENDROOT
BRANCH   3   7
ATOM      7  O   UNL     1     148.078 146.612 156.019  1.00  0.00    -0.504 OA
ATOM      8  H   UNL     1     148.508 145.814 156.463  1.00  0.00     0.293 HD
ENDBRANCH   3   7
BRANCH   5   9
ATOM      9  O   UNL     1     145.728 150.852 156.799  1.00  0.00    -0.504 OA
ATOM     10  H   UNL     1     144.828 150.730 157.248  1.00  0.00     0.293 HD
ENDBRANCH   5   9
BRANCH   4  11
ATOM     11  O   UNL     1     145.809 148.376 155.507  1.00  0.00    -0.502 OA
ATOM     12  H   UNL     1     144.864 148.182 155.807  1.00  0.00     0.293 HD
ENDBRANCH   4  11
TORSDOF 3
ENDMDL
MODEL 5
REMARK VINA RESULT:    -4.547      9.431     10.496
REMARK INTER + INTRA:          -4.946
REMARK INTER:                  -4.946
REMARK INTRA:                   0.000
REMARK UNBOUND:                 0.000
REMARK SMILES Oc1cccc(O)c1O
REMARK SMILES IDX 4 1 5 2 6 3 8 4 2 5 3 6 7 7 1 9 9 11
REMARK H PARENT 7 8 1 10 9 12
REMARK Flexibility Score: inf
ROOT
ATOM      1  C   UNL     1     149.767 157.900 157.803  1.00  0.00     0.008 A 
ATOM      2  C   UNL     1     151.075 157.872 157.319  1.00  0.00     0.050 A 
ATOM      3  C   UNL     1     151.563 156.745 156.647  1.00  0.00     0.161 A 
ATOM      4  C   UNL     1     150.717 155.624 156.458  1.00  0.00     0.200 A 
ATOM      5  C   UNL     1     149.397 155.663 156.950  1.00  0.00     0.161 A 
ATOM      6  C   UNL     1     148.930 156.799 157.619  1.00  0.00     0.050 A 
ENDROOT
BRANCH   3   7
ATOM      7  O   UNL     1     152.882 156.783 156.189  1.00  0.00    -0.504 OA
ATOM      8  H   UNL     1     153.594 156.121 156.460  1.00  0.00     0.293 HD
ENDBRANCH   3   7
BRANCH   5   9
ATOM      9  O   UNL     1     148.533 154.580 156.784  1.00  0.00    -0.504 OA
ATOM     10  H   UNL     1     148.409 153.873 157.499  1.00  0.00     0.293 HD
ENDBRANCH   5   9
BRANCH   4  11
ATOM     11  O   UNL     1     151.145 154.470 155.795  1.00  0.00    -0.502 OA
ATOM     12  H   UNL     1     151.691 154.474 154.945  1.00  0.00     0.293 HD
ENDBRANCH   4  11
TORSDOF 3
ENDMDL
MODEL 6
REMARK VINA RESULT:    -4.493      1.308      2.696
REMARK INTER + INTRA:          -4.887
REMARK INTER:                  -4.887
REMARK INTRA:                   0.000
REMARK UNBOUND:                 0.000
REMARK SMILES Oc1cccc(O)c1O
REMARK SMILES IDX 4 1 5 2 6 3 8 4 2 5 3 6 7 7 1 9 9 11
REMARK H PARENT 7 8 1 10 9 12
REMARK Flexibility Score: inf
ROOT
ATOM      1  C   UNL     1     146.209 148.039 156.139  1.00  0.00     0.008 A 
ATOM      2  C   UNL     1     145.829 147.009 157.000  1.00  0.00     0.050 A 
ATOM      3  C   UNL     1     146.690 145.934 157.251  1.00  0.00     0.161 A 
ATOM      4  C   UNL     1     147.960 145.896 156.623  1.00  0.00     0.200 A 
ATOM      5  C   UNL     1     148.335 146.941 155.755  1.00  0.00     0.161 A 
ATOM      6  C   UNL     1     147.458 148.005 155.519  1.00  0.00     0.050 A 
ENDROOT
BRANCH   3   7
ATOM      7  O   UNL     1     146.248 144.938 158.123  1.00  0.00    -0.504 OA
ATOM      8  H   UNL     1     145.503 144.290 157.911  1.00  0.00     0.293 HD
ENDBRANCH   3   7
BRANCH   5   9
ATOM      9  O   UNL     1     149.575 146.941 155.118  1.00  0.00    -0.504 OA
ATOM     10  H   UNL     1     150.336 146.340 155.415  1.00  0.00     0.293 HD
ENDBRANCH   5   9
BRANCH   4  11
ATOM     11  O   UNL     1     148.865 144.852 156.834  1.00  0.00    -0.502 OA
ATOM     12  H   UNL     1     148.687 144.059 157.434  1.00  0.00     0.293 HD
ENDBRANCH   4  11
TORSDOF 3
ENDMDL
MODEL 7
REMARK VINA RESULT:    -4.343      2.655      3.562
REMARK INTER + INTRA:          -4.724
REMARK INTER:                  -4.724
REMARK INTRA:                   0.000
REMARK UNBOUND:                 0.000
REMARK SMILES Oc1cccc(O)c1O
REMARK SMILES IDX 4 1 5 2 6 3 8 4 2 5 3 6 7 7 1 9 9 11
REMARK H PARENT 7 8 1 10 9 12
REMARK Flexibility Score: inf
ROOT
ATOM      1  C   UNL     1     148.619 146.704 156.727  1.00  0.00     0.008 A 
ATOM      2  C   UNL     1     149.070 147.819 157.434  1.00  0.00     0.050 A 
ATOM      3  C   UNL     1     148.357 149.024 157.396  1.00  0.00     0.161 A 
ATOM      4  C   UNL     1     147.166 149.107 156.632  1.00  0.00     0.200 A 
ATOM      5  C   UNL     1     146.719 147.974 155.922  1.00  0.00     0.161 A 
ATOM      6  C   UNL     1     147.448 146.781 155.974  1.00  0.00     0.050 A 
ENDROOT
BRANCH   3   7
ATOM      7  O   UNL     1     148.864 150.101 158.125  1.00  0.00    -0.504 OA
ATOM      8  H   UNL     1     148.553 150.354 159.051  1.00  0.00     0.293 HD
ENDBRANCH   3   7
BRANCH   5   9
ATOM      9  O   UNL     1     145.553 148.015 155.160  1.00  0.00    -0.504 OA
ATOM     10  H   UNL     1     145.484 148.554 154.305  1.00  0.00     0.293 HD
ENDBRANCH   5   9
BRANCH   4  11
ATOM     11  O   UNL     1     146.410 150.279 156.555  1.00  0.00    -0.502 OA
ATOM     12  H   UNL     1     146.728 151.181 156.879  1.00  0.00     0.293 HD
ENDBRANCH   4  11
TORSDOF 3
ENDMDL
MODEL 8
REMARK VINA RESULT:    -4.304      2.761      3.351
REMARK INTER + INTRA:          -4.681
REMARK INTER:                  -4.681
REMARK INTRA:                   0.000
REMARK UNBOUND:                 0.000
REMARK SMILES Oc1cccc(O)c1O
REMARK SMILES IDX 4 1 5 2 6 3 8 4 2 5 3 6 7 7 1 9 9 11
REMARK H PARENT 7 8 1 10 9 12
REMARK Flexibility Score: inf
ROOT
ATOM      1  C   UNL     1     148.742 146.823 156.360  1.00  0.00     0.008 A 
ATOM      2  C   UNL     1     147.539 146.882 155.655  1.00  0.00     0.050 A 
ATOM      3  C   UNL     1     146.705 148.001 155.759  1.00  0.00     0.161 A 
ATOM      4  C   UNL     1     147.090 149.084 156.588  1.00  0.00     0.200 A 
ATOM      5  C   UNL     1     148.307 149.015 157.296  1.00  0.00     0.161 A 
ATOM      6  C   UNL     1     149.124 147.886 157.178  1.00  0.00     0.050 A 
ENDROOT
BRANCH   3   7
ATOM      7  O   UNL     1     145.517 147.995 155.027  1.00  0.00    -0.504 OA
ATOM      8  H   UNL     1     145.401 148.443 154.130  1.00  0.00     0.293 HD
ENDBRANCH   3   7
BRANCH   5   9
ATOM      9  O   UNL     1     148.721 150.059 158.123  1.00  0.00    -0.504 OA
ATOM     10  H   UNL     1     149.448 149.942 158.819  1.00  0.00     0.293 HD
ENDBRANCH   5   9
BRANCH   4  11
ATOM     11  O   UNL     1     146.302 150.229 156.733  1.00  0.00    -0.502 OA
ATOM     12  H   UNL     1     145.553 150.485 156.105  1.00  0.00     0.293 HD
ENDBRANCH   4  11
TORSDOF 3
ENDMDL
MODEL 9
REMARK VINA RESULT:    -4.293      1.287      2.401
REMARK INTER + INTRA:          -4.669
REMARK INTER:                  -4.669
REMARK INTRA:                   0.000
REMARK UNBOUND:                 0.000
REMARK SMILES Oc1cccc(O)c1O
REMARK SMILES IDX 4 1 5 2 6 3 8 4 2 5 3 6 7 7 1 9 9 11
REMARK H PARENT 7 8 1 10 9 12
REMARK Flexibility Score: inf
ROOT
ATOM      1  C   UNL     1     146.450 147.946 155.801  1.00  0.00     0.008 A 
ATOM      2  C   UNL     1     147.722 147.895 155.229  1.00  0.00     0.050 A 
ATOM      3  C   UNL     1     148.637 146.907 155.613  1.00  0.00     0.161 A 
ATOM      4  C   UNL     1     148.264 145.951 156.590  1.00  0.00     0.200 A 
ATOM      5  C   UNL     1     146.976 146.012 157.160  1.00  0.00     0.161 A 
ATOM      6  C   UNL     1     146.079 147.008 156.763  1.00  0.00     0.050 A 
ENDROOT
BRANCH   3   7
ATOM      7  O   UNL     1     149.892 146.913 155.002  1.00  0.00    -0.504 OA
ATOM      8  H   UNL     1     150.625 146.250 155.208  1.00  0.00     0.293 HD
ENDBRANCH   3   7
BRANCH   5   9
ATOM      9  O   UNL     1     146.570 145.090 158.125  1.00  0.00    -0.504 OA
ATOM     10  H   UNL     1     145.820 144.428 157.960  1.00  0.00     0.293 HD
ENDBRANCH   5   9
BRANCH   4  11
ATOM     11  O   UNL     1     149.130 144.940 157.014  1.00  0.00    -0.502 OA
ATOM     12  H   UNL     1     149.906 145.086 157.644  1.00  0.00     0.293 HD
ENDBRANCH   4  11
TORSDOF 3
ENDMDL
