MODEL 1
REMARK VINA RESULT:    -3.599      0.000      0.000
REMARK INTER + INTRA:          -4.027
REMARK INTER:                  -4.019
REMARK INTRA:                  -0.008
REMARK UNBOUND:                -0.008
REMARK SMILES CCCC(=O)[O-]
REMARK SMILES IDX 3 1 4 2 5 3 6 4 2 5 1 6
REMARK H PARENT
REMARK Flexibility Score: inf
ROOT
ATOM      1  C   UNL     1       0.205   6.992  20.113  1.00  0.00     0.052 C 
ENDROOT
BRANCH   1   2
ATOM      2  C   UNL     1       0.397   6.765  21.580  1.00  0.00     0.041 C 
ATOM      3  O   UNL     1      -0.600   6.628  22.337  1.00  0.00    -0.550 OA
ATOM      4  O   UNL     1       1.678   6.739  22.119  1.00  0.00    -0.550 OA
ENDBRANCH   1   2
BRANCH   1   5
ATOM      5  C   UNL     1       0.817   8.323  19.657  1.00  0.00     0.003 C 
ATOM      6  C   UNL     1       1.011   8.386  18.143  1.00  0.00     0.004 C 
ENDBRANCH   1   5
TORSDOF 2
ENDMDL
MODEL 2
REMARK VINA RESULT:    -3.447      2.220      3.475
REMARK INTER + INTRA:          -3.858
REMARK INTER:                  -3.839
REMARK INTRA:                  -0.018
REMARK UNBOUND:                -0.008
REMARK SMILES CCCC(=O)[O-]
REMARK SMILES IDX 3 1 4 2 5 3 6 4 2 5 1 6
REMARK H PARENT
REMARK Flexibility Score: inf
ROOT
ATOM      1  C   UNL     1      -0.066   6.790  20.410  1.00  0.00     0.052 C 
ENDROOT
BRANCH   1   2
ATOM      2  C   UNL     1       0.679   7.719  19.502  1.00  0.00     0.041 C 
ATOM      3  O   UNL     1       1.380   8.648  19.981  1.00  0.00    -0.550 OA
ATOM      4  O   UNL     1       0.571   7.580  18.124  1.00  0.00    -0.550 OA
ENDBRANCH   1   2
BRANCH   1   5
ATOM      5  C   UNL     1       0.514   6.797  21.830  1.00  0.00     0.003 C 
ATOM      6  C   UNL     1      -0.556   6.564  22.896  1.00  0.00     0.004 C 
ENDBRANCH   1   5
TORSDOF 2
ENDMDL
MODEL 3
REMARK VINA RESULT:    -3.362      1.650      2.118
REMARK INTER + INTRA:          -3.763
REMARK INTER:                  -3.750
REMARK INTRA:                  -0.012
REMARK UNBOUND:                -0.008
REMARK SMILES CCCC(=O)[O-]
REMARK SMILES IDX 3 1 4 2 5 3 6 4 2 5 1 6
REMARK H PARENT
REMARK Flexibility Score: inf
ROOT
ATOM      1  C   UNL     1       0.948   8.252  19.293  1.00  0.00     0.052 C 
ENDROOT
BRANCH   1   2
ATOM      2  C   UNL     1       0.252   7.062  19.878  1.00  0.00     0.041 C 
ATOM      3  O   UNL     1      -0.019   7.027  21.107  1.00  0.00    -0.550 OA
ATOM      4  O   UNL     1      -0.068   5.977  19.072  1.00  0.00    -0.550 OA
ENDBRANCH   1   2
BRANCH   1   5
ATOM      5  C   UNL     1       0.951   8.214  17.760  1.00  0.00     0.003 C 
ATOM      6  C   UNL     1       2.101   9.021  17.160  1.00  0.00     0.004 C 
ENDBRANCH   1   5
TORSDOF 2
ENDMDL
MODEL 4
REMARK VINA RESULT:    -3.270      1.975      3.489
REMARK INTER + INTRA:          -3.660
REMARK INTER:                  -3.651
REMARK INTRA:                  -0.009
REMARK UNBOUND:                -0.008
REMARK SMILES CCCC(=O)[O-]
REMARK SMILES IDX 3 1 4 2 5 3 6 4 2 5 1 6
REMARK H PARENT
REMARK Flexibility Score: inf
ROOT
ATOM      1  C   UNL     1      -0.375   6.746  21.624  1.00  0.00     0.052 C 
ENDROOT
BRANCH   1   2
ATOM      2  C   UNL     1       0.940   7.158  21.038  1.00  0.00     0.041 C 
ATOM      3  O   UNL     1       0.985   7.712  19.908  1.00  0.00    -0.550 OA
ATOM      4  O   UNL     1       2.120   6.899  21.724  1.00  0.00    -0.550 OA
ENDBRANCH   1   2
BRANCH   1   5
ATOM      5  C   UNL     1      -0.257   6.429  23.121  1.00  0.00     0.003 C 
ATOM      6  C   UNL     1      -1.610   6.460  23.829  1.00  0.00     0.004 C 
ENDBRANCH   1   5
TORSDOF 2
ENDMDL
MODEL 5
REMARK VINA RESULT:    -3.227      2.023      2.694
REMARK INTER + INTRA:          -3.611
REMARK INTER:                  -3.595
REMARK INTRA:                  -0.017
REMARK UNBOUND:                -0.008
REMARK SMILES CCCC(=O)[O-]
REMARK SMILES IDX 3 1 4 2 5 3 6 4 2 5 1 6
REMARK H PARENT
REMARK Flexibility Score: inf
ROOT
ATOM      1  C   UNL     1       0.937   8.279  18.002  1.00  0.00     0.052 C 
ENDROOT
BRANCH   1   2
ATOM      2  C   UNL     1       1.033   8.320  19.496  1.00  0.00     0.041 C 
ATOM      3  O   UNL     1       0.121   7.819  20.204  1.00  0.00    -0.550 OA
ATOM      4  O   UNL     1       2.115   8.942  20.107  1.00  0.00    -0.550 OA
ENDBRANCH   1   2
BRANCH   1   5
ATOM      5  C   UNL     1       2.145   8.950  17.335  1.00  0.00     0.003 C 
ATOM      6  C   UNL     1       1.750   9.770  16.108  1.00  0.00     0.004 C 
ENDBRANCH   1   5
TORSDOF 2
ENDMDL
MODEL 6
REMARK VINA RESULT:    -3.211      2.906      3.754
REMARK INTER + INTRA:          -3.594
REMARK INTER:                  -3.586
REMARK INTRA:                  -0.008
REMARK UNBOUND:                -0.008
REMARK SMILES CCCC(=O)[O-]
REMARK SMILES IDX 3 1 4 2 5 3 6 4 2 5 1 6
REMARK H PARENT
REMARK Flexibility Score: inf
ROOT
ATOM      1  C   UNL     1       0.619   8.198  19.632  1.00  0.00     0.052 C 
ENDROOT
BRANCH   1   2
ATOM      2  C   UNL     1       1.097   8.160  18.213  1.00  0.00     0.041 C 
ATOM      3  O   UNL     1       0.555   7.385  17.382  1.00  0.00    -0.550 OA
ATOM      4  O   UNL     1       2.164   8.956  17.816  1.00  0.00    -0.550 OA
ENDBRANCH   1   2
BRANCH   1   5
ATOM      5  C   UNL     1       0.214   6.806  20.133  1.00  0.00     0.003 C 
ATOM      6  C   UNL     1      -0.221   6.820  21.598  1.00  0.00     0.004 C 
ENDBRANCH   1   5
TORSDOF 2
ENDMDL
MODEL 7
REMARK VINA RESULT:    -2.994      3.389      3.990
REMARK INTER + INTRA:          -3.352
REMARK INTER:                  -3.333
REMARK INTRA:                  -0.018
REMARK UNBOUND:                -0.008
REMARK SMILES CCCC(=O)[O-]
REMARK SMILES IDX 3 1 4 2 5 3 6 4 2 5 1 6
REMARK H PARENT
REMARK Flexibility Score: inf
ROOT
ATOM      1  C   UNL     1      -0.187   6.248  18.981  1.00  0.00     0.052 C 
ENDROOT
BRANCH   1   2
ATOM      2  C   UNL     1       0.179   6.339  17.532  1.00  0.00     0.041 C 
ATOM      3  O   UNL     1       0.744   7.371  17.083  1.00  0.00    -0.550 OA
ATOM      4  O   UNL     1      -0.133   5.296  16.668  1.00  0.00    -0.550 OA
ENDBRANCH   1   2
BRANCH   1   5
ATOM      5  C   UNL     1       0.375   7.428  19.785  1.00  0.00     0.003 C 
ATOM      6  C   UNL     1       0.961   6.990  21.126  1.00  0.00     0.004 C 
ENDBRANCH   1   5
TORSDOF 2
ENDMDL
MODEL 8
REMARK VINA RESULT:    -2.986      6.499      7.065
REMARK INTER + INTRA:          -3.342
REMARK INTER:                  -3.304
REMARK INTRA:                  -0.038
REMARK UNBOUND:                -0.008
REMARK SMILES CCCC(=O)[O-]
REMARK SMILES IDX 3 1 4 2 5 3 6 4 2 5 1 6
REMARK H PARENT
REMARK Flexibility Score: inf
ROOT
ATOM      1  C   UNL     1      -2.645   3.020  15.892  1.00  0.00     0.052 C 
ENDROOT
BRANCH   1   2
ATOM      2  C   UNL     1      -1.578   2.943  16.940  1.00  0.00     0.041 C 
ATOM      3  O   UNL     1      -0.826   3.930  17.153  1.00  0.00    -0.550 OA
ATOM      4  O   UNL     1      -1.392   1.769  17.660  1.00  0.00    -0.550 OA
ENDBRANCH   1   2
BRANCH   1   5
ATOM      5  C   UNL     1      -3.973   3.527  16.468  1.00  0.00     0.003 C 
ATOM      6  C   UNL     1      -4.953   2.391  16.756  1.00  0.00     0.004 C 
ENDBRANCH   1   5
TORSDOF 2
ENDMDL
MODEL 9
REMARK VINA RESULT:    -2.883      2.905      3.469
REMARK INTER + INTRA:          -3.228
REMARK INTER:                  -3.215
REMARK INTRA:                  -0.013
REMARK UNBOUND:                -0.008
REMARK SMILES CCCC(=O)[O-]
REMARK SMILES IDX 3 1 4 2 5 3 6 4 2 5 1 6
REMARK H PARENT
REMARK Flexibility Score: inf
ROOT
ATOM      1  C   UNL     1       0.580   6.884  16.977  1.00  0.00     0.052 C 
ENDROOT
BRANCH   1   2
ATOM      2  C   UNL     1      -0.104   5.955  17.931  1.00  0.00     0.041 C 
ATOM      3  O   UNL     1      -0.257   6.283  19.137  1.00  0.00    -0.550 OA
ATOM      4  O   UNL     1      -0.543   4.710  17.497  1.00  0.00    -0.550 OA
ENDBRANCH   1   2
BRANCH   1   5
ATOM      5  C   UNL     1       1.016   8.185  17.663  1.00  0.00     0.003 C 
ATOM      6  C   UNL     1       2.126   8.903  16.896  1.00  0.00     0.004 C 
ENDBRANCH   1   5
TORSDOF 2
ENDMDL
