MODEL 1
REMARK VINA RESULT:    -4.244      0.000      0.000
REMARK INTER + INTRA:          -4.588
REMARK INTER:                  -4.493
REMARK INTRA:                  -0.095
REMARK UNBOUND:                -0.095
REMARK SMILES C=C(C)[C@H]1CC=C(C)C(=O)C1
REMARK SMILES IDX 8 1 7 2 6 3 5 4 4 5 11 6 9 7 10 8 2 9 1 10 3 11
REMARK H PARENT
REMARK Flexibility Score: inf
ROOT
ATOM      1  C   UNL     1      53.893 -11.786  -8.754  1.00  0.00     0.048 C 
ATOM      2  C   UNL     1      54.763 -12.551  -7.796  1.00  0.00    -0.012 C 
ATOM      3  C   UNL     1      54.426 -12.621  -6.497  1.00  0.00    -0.019 C 
ATOM      4  C   UNL     1      55.270 -13.359  -5.491  1.00  0.00     0.036 C 
ATOM      5  C   UNL     1      55.967 -14.572  -6.135  1.00  0.00     0.025 C 
ATOM      6  C   UNL     1      56.779 -14.130  -7.366  1.00  0.00     0.089 C 
ATOM      7  C   UNL     1      55.921 -13.328  -8.306  1.00  0.00     0.158 C 
ATOM      8  O   UNL     1      56.218 -13.292  -9.530  1.00  0.00    -0.295 OA
ENDROOT
BRANCH   5   9
ATOM      9  C   UNL     1      56.833 -15.322  -5.131  1.00  0.00    -0.077 C 
ATOM     10  C   UNL     1      56.489 -15.404  -3.834  1.00  0.00     0.008 C 
ATOM     11  C   UNL     1      58.104 -15.994  -5.583  1.00  0.00     0.039 C 
ENDBRANCH   5   9
TORSDOF 1
ENDMDL
MODEL 2
REMARK VINA RESULT:    -4.193      8.891     10.355
REMARK INTER + INTRA:          -4.534
REMARK INTER:                  -4.445
REMARK INTRA:                  -0.088
REMARK UNBOUND:                -0.095
REMARK SMILES C=C(C)[C@H]1CC=C(C)C(=O)C1
REMARK SMILES IDX 8 1 7 2 6 3 5 4 4 5 11 6 9 7 10 8 2 9 1 10 3 11
REMARK H PARENT
REMARK Flexibility Score: inf
ROOT
ATOM      1  C   UNL     1      56.720 -20.889   2.631  1.00  0.00     0.048 C 
ATOM      2  C   UNL     1      57.752 -20.112   1.861  1.00  0.00    -0.012 C 
ATOM      3  C   UNL     1      58.961 -19.886   2.404  1.00  0.00    -0.019 C 
ATOM      4  C   UNL     1      60.025 -19.099   1.684  1.00  0.00     0.036 C 
ATOM      5  C   UNL     1      59.930 -19.304   0.160  1.00  0.00     0.025 C 
ATOM      6  C   UNL     1      58.514 -18.961  -0.338  1.00  0.00     0.089 C 
ATOM      7  C   UNL     1      57.479 -19.705   0.460  1.00  0.00     0.158 C 
ATOM      8  O   UNL     1      56.358 -19.947  -0.063  1.00  0.00    -0.295 OA
ENDROOT
BRANCH   5   9
ATOM      9  C   UNL     1      60.995 -18.506  -0.582  1.00  0.00    -0.077 C 
ATOM     10  C   UNL     1      62.057 -19.110  -1.144  1.00  0.00     0.008 C 
ATOM     11  C   UNL     1      60.872 -17.009  -0.699  1.00  0.00     0.039 C 
ENDBRANCH   5   9
TORSDOF 1
ENDMDL
MODEL 3
REMARK VINA RESULT:    -4.130      1.670      2.668
REMARK INTER + INTRA:          -4.467
REMARK INTER:                  -4.378
REMARK INTRA:                  -0.089
REMARK UNBOUND:                -0.095
REMARK SMILES C=C(C)[C@H]1CC=C(C)C(=O)C1
REMARK SMILES IDX 8 1 7 2 6 3 5 4 4 5 11 6 9 7 10 8 2 9 1 10 3 11
REMARK H PARENT
REMARK Flexibility Score: inf
ROOT
ATOM      1  C   UNL     1      56.559 -13.163  -9.144  1.00  0.00     0.048 C 
ATOM      2  C   UNL     1      56.680 -13.955  -7.872  1.00  0.00    -0.012 C 
ATOM      3  C   UNL     1      57.702 -14.815  -7.714  1.00  0.00    -0.019 C 
ATOM      4  C   UNL     1      57.861 -15.647  -6.469  1.00  0.00     0.036 C 
ATOM      5  C   UNL     1      57.334 -14.896  -5.230  1.00  0.00     0.025 C 
ATOM      6  C   UNL     1      55.877 -14.454  -5.454  1.00  0.00     0.089 C 
ATOM      7  C   UNL     1      55.746 -13.698  -6.748  1.00  0.00     0.158 C 
ATOM      8  O   UNL     1      54.809 -12.866  -6.880  1.00  0.00    -0.295 OA
ENDROOT
BRANCH   5   9
ATOM      9  C   UNL     1      57.480 -15.730  -3.963  1.00  0.00    -0.077 C 
ATOM     10  C   UNL     1      58.585 -15.657  -3.202  1.00  0.00     0.008 C 
ATOM     11  C   UNL     1      56.373 -16.660  -3.540  1.00  0.00     0.039 C 
ENDBRANCH   5   9
TORSDOF 1
ENDMDL
MODEL 4
REMARK VINA RESULT:    -3.986      8.726     11.195
REMARK INTER + INTRA:          -4.314
REMARK INTER:                  -4.218
REMARK INTRA:                  -0.096
REMARK UNBOUND:                -0.095
REMARK SMILES C=C(C)[C@H]1CC=C(C)C(=O)C1
REMARK SMILES IDX 8 1 7 2 6 3 5 4 4 5 11 6 9 7 10 8 2 9 1 10 3 11
REMARK H PARENT
REMARK Flexibility Score: inf
ROOT
ATOM      1  C   UNL     1      57.430 -20.364   3.877  1.00  0.00     0.048 C 
ATOM      2  C   UNL     1      58.297 -20.101   2.677  1.00  0.00    -0.012 C 
ATOM      3  C   UNL     1      57.756 -20.108   1.447  1.00  0.00    -0.019 C 
ATOM      4  C   UNL     1      58.581 -19.869   0.210  1.00  0.00     0.036 C 
ATOM      5  C   UNL     1      59.741 -18.896   0.497  1.00  0.00     0.025 C 
ATOM      6  C   UNL     1      60.590 -19.409   1.674  1.00  0.00     0.089 C 
ATOM      7  C   UNL     1      59.718 -19.713   2.861  1.00  0.00     0.158 C 
ATOM      8  O   UNL     1      60.219 -19.671   4.017  1.00  0.00    -0.295 OA
ENDROOT
BRANCH   5   9
ATOM      9  C   UNL     1      60.591 -18.652  -0.744  1.00  0.00    -0.077 C 
ATOM     10  C   UNL     1      61.870 -19.062  -0.807  1.00  0.00     0.008 C 
ATOM     11  C   UNL     1      60.003 -17.940  -1.934  1.00  0.00     0.039 C 
ENDBRANCH   5   9
TORSDOF 1
ENDMDL
MODEL 5
REMARK VINA RESULT:    -3.913      9.713     11.099
REMARK INTER + INTRA:          -4.237
REMARK INTER:                  -4.142
REMARK INTRA:                  -0.094
REMARK UNBOUND:                -0.095
REMARK SMILES C=C(C)[C@H]1CC=C(C)C(=O)C1
REMARK SMILES IDX 8 1 7 2 6 3 5 4 4 5 11 6 9 7 10 8 2 9 1 10 3 11
REMARK H PARENT
REMARK Flexibility Score: inf
ROOT
ATOM      1  C   UNL     1      61.819 -19.295  -0.506  1.00  0.00     0.048 C 
ATOM      2  C   UNL     1      60.541 -19.330   0.286  1.00  0.00    -0.012 C 
ATOM      3  C   UNL     1      59.371 -19.072  -0.322  1.00  0.00    -0.019 C 
ATOM      4  C   UNL     1      58.064 -19.075   0.427  1.00  0.00     0.036 C 
ATOM      5  C   UNL     1      58.085 -20.104   1.573  1.00  0.00     0.025 C 
ATOM      6  C   UNL     1      59.287 -19.846   2.500  1.00  0.00     0.089 C 
ATOM      7  C   UNL     1      60.561 -19.768   1.703  1.00  0.00     0.158 C 
ATOM      8  O   UNL     1      61.654 -20.045   2.266  1.00  0.00    -0.295 OA
ENDROOT
BRANCH   5   9
ATOM      9  C   UNL     1      56.772 -20.112   2.346  1.00  0.00    -0.077 C 
ATOM     10  C   UNL     1      56.473 -21.102   3.206  1.00  0.00     0.008 C 
ATOM     11  C   UNL     1      55.778 -18.996   2.157  1.00  0.00     0.039 C 
ENDBRANCH   5   9
TORSDOF 1
ENDMDL
MODEL 6
REMARK VINA RESULT:    -3.887      7.941      9.845
REMARK INTER + INTRA:          -4.210
REMARK INTER:                  -4.114
REMARK INTRA:                  -0.096
REMARK UNBOUND:                -0.095
REMARK SMILES C=C(C)[C@H]1CC=C(C)C(=O)C1
REMARK SMILES IDX 8 1 7 2 6 3 5 4 4 5 11 6 9 7 10 8 2 9 1 10 3 11
REMARK H PARENT
REMARK Flexibility Score: inf
ROOT
ATOM      1  C   UNL     1      60.164 -17.875  -2.591  1.00  0.00     0.048 C 
ATOM      2  C   UNL     1      59.666 -18.276  -1.230  1.00  0.00    -0.012 C 
ATOM      3  C   UNL     1      58.366 -18.126  -0.923  1.00  0.00    -0.019 C 
ATOM      4  C   UNL     1      57.817 -18.495   0.431  1.00  0.00     0.036 C 
ATOM      5  C   UNL     1      58.581 -19.690   1.032  1.00  0.00     0.025 C 
ATOM      6  C   UNL     1      60.091 -19.391   1.076  1.00  0.00     0.089 C 
ATOM      7  C   UNL     1      60.582 -18.948  -0.275  1.00  0.00     0.158 C 
ATOM      8  O   UNL     1      61.794 -19.122  -0.575  1.00  0.00    -0.295 OA
ENDROOT
BRANCH   5   9
ATOM      9  C   UNL     1      58.043 -20.068   2.406  1.00  0.00    -0.077 C 
ATOM     10  C   UNL     1      58.710 -19.750   3.529  1.00  0.00     0.008 C 
ATOM     11  C   UNL     1      56.739 -20.811   2.528  1.00  0.00     0.039 C 
ENDBRANCH   5   9
TORSDOF 1
ENDMDL
MODEL 7
REMARK VINA RESULT:    -3.869      6.225      8.562
REMARK INTER + INTRA:          -4.190
REMARK INTER:                  -4.097
REMARK INTRA:                  -0.093
REMARK UNBOUND:                -0.095
REMARK SMILES C=C(C)[C@H]1CC=C(C)C(=O)C1
REMARK SMILES IDX 8 1 7 2 6 3 5 4 4 5 11 6 9 7 10 8 2 9 1 10 3 11
REMARK H PARENT
REMARK Flexibility Score: inf
ROOT
ATOM      1  C   UNL     1      59.318 -19.372   0.260  1.00  0.00     0.048 C 
ATOM      2  C   UNL     1      58.079 -18.960  -0.486  1.00  0.00    -0.012 C 
ATOM      3  C   UNL     1      58.179 -18.150  -1.553  1.00  0.00    -0.019 C 
ATOM      4  C   UNL     1      56.969 -17.692  -2.325  1.00  0.00     0.036 C 
ATOM      5  C   UNL     1      55.870 -18.771  -2.323  1.00  0.00     0.025 C 
ATOM      6  C   UNL     1      55.522 -19.175  -0.878  1.00  0.00     0.089 C 
ATOM      7  C   UNL     1      56.766 -19.546  -0.119  1.00  0.00     0.158 C 
ATOM      8  O   UNL     1      56.675 -20.335   0.861  1.00  0.00    -0.295 OA
ENDROOT
BRANCH   5   9
ATOM      9  C   UNL     1      54.635 -18.318  -3.092  1.00  0.00    -0.077 C 
ATOM     10  C   UNL     1      54.719 -17.914  -4.371  1.00  0.00     0.008 C 
ATOM     11  C   UNL     1      53.286 -18.318  -2.422  1.00  0.00     0.039 C 
ENDBRANCH   5   9
TORSDOF 1
ENDMDL
MODEL 8
REMARK VINA RESULT:    -3.854      8.167      9.865
REMARK INTER + INTRA:          -4.174
REMARK INTER:                  -4.078
REMARK INTRA:                  -0.096
REMARK UNBOUND:                -0.095
REMARK SMILES C=C(C)[C@H]1CC=C(C)C(=O)C1
REMARK SMILES IDX 8 1 7 2 6 3 5 4 4 5 11 6 9 7 10 8 2 9 1 10 3 11
REMARK H PARENT
REMARK Flexibility Score: inf
ROOT
ATOM      1  C   UNL     1      61.484 -17.712  -1.972  1.00  0.00     0.048 C 
ATOM      2  C   UNL     1      60.618 -18.427  -0.973  1.00  0.00    -0.012 C 
ATOM      3  C   UNL     1      61.183 -19.063   0.068  1.00  0.00    -0.019 C 
ATOM      4  C   UNL     1      60.365 -19.811   1.088  1.00  0.00     0.036 C 
ATOM      5  C   UNL     1      58.991 -19.144   1.293  1.00  0.00     0.025 C 
ATOM      6  C   UNL     1      58.259 -19.005  -0.055  1.00  0.00     0.089 C 
ATOM      7  C   UNL     1      59.140 -18.328  -1.068  1.00  0.00     0.158 C 
ATOM      8  O   UNL     1      58.607 -17.702  -2.024  1.00  0.00    -0.295 OA
ENDROOT
BRANCH   5   9
ATOM      9  C   UNL     1      58.148 -19.895   2.316  1.00  0.00    -0.077 C 
ATOM     10  C   UNL     1      57.059 -20.592   1.947  1.00  0.00     0.008 C 
ATOM     11  C   UNL     1      58.528 -19.870   3.773  1.00  0.00     0.039 C 
ENDBRANCH   5   9
TORSDOF 1
ENDMDL
MODEL 9
REMARK VINA RESULT:    -3.781     10.013     12.976
REMARK INTER + INTRA:          -4.098
REMARK INTER:                  -4.002
REMARK INTRA:                  -0.095
REMARK UNBOUND:                -0.095
REMARK SMILES C=C(C)[C@H]1CC=C(C)C(=O)C1
REMARK SMILES IDX 8 1 7 2 6 3 5 4 4 5 11 6 9 7 10 8 2 9 1 10 3 11
REMARK H PARENT
REMARK Flexibility Score: inf
ROOT
ATOM      1  C   UNL     1      61.830 -20.672   5.636  1.00  0.00     0.048 C 
ATOM      2  C   UNL     1      60.980 -20.217   4.482  1.00  0.00    -0.012 C 
ATOM      3  C   UNL     1      61.522 -20.101   3.258  1.00  0.00    -0.019 C 
ATOM      4  C   UNL     1      60.722 -19.633   2.071  1.00  0.00     0.036 C 
ATOM      5  C   UNL     1      59.251 -20.079   2.184  1.00  0.00     0.025 C 
ATOM      6  C   UNL     1      58.650 -19.601   3.518  1.00  0.00     0.089 C 
ATOM      7  C   UNL     1      59.521 -20.018   4.670  1.00  0.00     0.158 C 
ATOM      8  O   UNL     1      59.004 -20.160   5.811  1.00  0.00    -0.295 OA
ENDROOT
BRANCH   5   9
ATOM      9  C   UNL     1      58.427 -19.604   0.993  1.00  0.00    -0.077 C 
ATOM     10  C   UNL     1      58.833 -18.577   0.227  1.00  0.00     0.008 C 
ATOM     11  C   UNL     1      57.129 -20.288   0.653  1.00  0.00     0.039 C 
ENDBRANCH   5   9
TORSDOF 1
ENDMDL
