MODEL 1
REMARK VINA RESULT:    -6.768      0.000      0.000
REMARK INTER + INTRA:         -11.462
REMARK INTER:                 -10.329
REMARK INTRA:                  -1.132
REMARK UNBOUND:                -1.132
REMARK SMILES OC[C@@H]1O[C@@H](O[C@@]2(CO)O[C@@H](CO)[C@H](O)[C@@H]2O)[C@H](O)[C@@H](O)[C@H]1O
REMARK SMILES IDX 6 1 5 2 3 3 22 4 4 5 20 6 18 7 2 8 1 9 23 11 21 13 19 15
REMARK SMILES IDX 7 17 16 18 10 19 14 20 11 21 8 22 9 23 17 25 15 27 12 29
REMARK SMILES IDX 13 30
REMARK H PARENT 1 10 23 12 21 14 19 16 9 24 17 26 15 28 13 31
REMARK Flexibility Score: inf
ROOT
ATOM      1  O   UNL     1      39.365  29.060  10.037  1.00  0.00    -0.313 OA
ENDROOT
BRANCH   1   2
ATOM      2  C   UNL     1      40.301  28.913  11.148  1.00  0.00     0.285 C 
ATOM      3  C   UNL     1      41.912  29.931  12.618  1.00  0.00     0.178 C 
ATOM      4  C   UNL     1      42.578  28.532  12.934  1.00  0.00     0.177 C 
ATOM      5  O   UNL     1      41.104  30.069  11.410  1.00  0.00    -0.341 OA
ATOM      6  C   UNL     1      42.390  27.423  11.852  1.00  0.00     0.179 C 
ATOM      7  C   UNL     1      41.300  27.791  10.780  1.00  0.00     0.202 C 
BRANCH   3   8
ATOM      8  C   UNL     1      41.058  30.367  13.852  1.00  0.00     0.191 C 
BRANCH   8   9
ATOM      9  O   UNL     1      41.541  29.803  15.039  1.00  0.00    -0.394 OA
ATOM     10  H   UNL     1      41.606  28.790  14.918  1.00  0.00     0.210 HD
ENDBRANCH   8   9
ENDBRANCH   3   8
BRANCH   4  11
ATOM     11  O   UNL     1      43.958  28.596  13.368  1.00  0.00    -0.387 OA
ATOM     12  H   UNL     1      43.981  28.857  14.337  1.00  0.00     0.211 HD
ENDBRANCH   4  11
BRANCH   6  13
ATOM     13  O   UNL     1      43.630  27.114  11.246  1.00  0.00    -0.387 OA
ATOM     14  H   UNL     1      44.011  26.318  11.721  1.00  0.00     0.211 HD
ENDBRANCH   6  13
BRANCH   7  15
ATOM     15  O   UNL     1      40.620  26.645  10.418  1.00  0.00    -0.385 OA
ATOM     16  H   UNL     1      41.080  25.876  10.825  1.00  0.00     0.211 HD
ENDBRANCH   7  15
ENDBRANCH   1   2
BRANCH   1  17
ATOM     17  C   UNL     1      38.020  28.430   9.956  1.00  0.00     0.224 C 
ATOM     18  C   UNL     1      36.957  29.560  10.052  1.00  0.00     0.208 C 
ATOM     19  O   UNL     1      37.802  27.549  11.039  1.00  0.00    -0.337 OA
ATOM     20  C   UNL     1      35.819  28.924  10.811  1.00  0.00     0.180 C 
ATOM     21  C   UNL     1      36.500  27.780  11.562  1.00  0.00     0.179 C 
BRANCH  17  22
ATOM     22  C   UNL     1      37.805  27.628   8.621  1.00  0.00     0.225 C 
BRANCH  22  23
ATOM     23  O   UNL     1      39.038  27.026   8.222  1.00  0.00    -0.391 OA
ATOM     24  H   UNL     1      38.820  26.066   8.023  1.00  0.00     0.210 HD
ENDBRANCH  22  23
ENDBRANCH  17  22
BRANCH  18  25
ATOM     25  O   UNL     1      36.535  30.171   8.824  1.00  0.00    -0.385 OA
ATOM     26  H   UNL     1      36.037  29.493   8.338  1.00  0.00     0.211 HD
ENDBRANCH  18  25
BRANCH  20  27
ATOM     27  O   UNL     1      34.876  28.365   9.908  1.00  0.00    -0.387 OA
ATOM     28  H   UNL     1      34.523  29.114   9.322  1.00  0.00     0.211 HD
ENDBRANCH  20  27
BRANCH  21  29
ATOM     29  C   UNL     1      36.605  28.042  13.099  1.00  0.00     0.191 C 
BRANCH  29  30
ATOM     30  O   UNL     1      35.723  27.218  13.786  1.00  0.00    -0.394 OA
ATOM     31  H   UNL     1      35.210  27.809  14.377  1.00  0.00     0.210 HD
ENDBRANCH  29  30
ENDBRANCH  21  29
ENDBRANCH   1  17
TORSDOF 13
ENDMDL
MODEL 2
REMARK VINA RESULT:    -6.708      1.590      3.783
REMARK INTER + INTRA:         -11.369
REMARK INTER:                  -9.996
REMARK INTRA:                  -1.373
REMARK UNBOUND:                -1.132
REMARK SMILES OC[C@@H]1O[C@@H](O[C@@]2(CO)O[C@@H](CO)[C@H](O)[C@@H]2O)[C@H](O)[C@@H](O)[C@H]1O
REMARK SMILES IDX 6 1 5 2 3 3 22 4 4 5 20 6 18 7 2 8 1 9 23 11 21 13 19 15
REMARK SMILES IDX 7 17 16 18 10 19 14 20 11 21 8 22 9 23 17 25 15 27 12 29
REMARK SMILES IDX 13 30
REMARK H PARENT 1 10 23 12 21 14 19 16 9 24 17 26 15 28 13 31
REMARK Flexibility Score: inf
ROOT
ATOM      1  O   UNL     1      39.110  28.089  11.659  1.00  0.00    -0.313 OA
ENDROOT
BRANCH   1   2
ATOM      2  C   UNL     1      40.428  28.480  11.167  1.00  0.00     0.285 C 
ATOM      3  C   UNL     1      42.550  27.815  10.246  1.00  0.00     0.178 C 
ATOM      4  C   UNL     1      43.238  29.147  10.748  1.00  0.00     0.177 C 
ATOM      5  O   UNL     1      41.305  27.386  10.876  1.00  0.00    -0.341 OA
ATOM      6  C   UNL     1      42.563  29.852  11.966  1.00  0.00     0.179 C 
ATOM      7  C   UNL     1      41.131  29.286  12.284  1.00  0.00     0.202 C 
BRANCH   3   8
ATOM      8  C   UNL     1      42.329  27.919   8.703  1.00  0.00     0.191 C 
BRANCH   8   9
ATOM      9  O   UNL     1      41.617  26.818   8.209  1.00  0.00    -0.394 OA
ATOM     10  H   UNL     1      40.732  27.149   7.819  1.00  0.00     0.210 HD
ENDBRANCH   8   9
ENDBRANCH   3   8
BRANCH   4  11
ATOM     11  O   UNL     1      44.672  29.063  10.935  1.00  0.00    -0.387 OA
ATOM     12  H   UNL     1      44.878  28.264  11.505  1.00  0.00     0.211 HD
ENDBRANCH   4  11
BRANCH   6  13
ATOM     13  O   UNL     1      43.408  29.789  13.099  1.00  0.00    -0.387 OA
ATOM     14  H   UNL     1      43.622  28.823  13.265  1.00  0.00     0.211 HD
ENDBRANCH   6  13
BRANCH   7  15
ATOM     15  O   UNL     1      40.322  30.322  12.707  1.00  0.00    -0.385 OA
ATOM     16  H   UNL     1      39.694  29.966  13.375  1.00  0.00     0.211 HD
ENDBRANCH   7  15
ENDBRANCH   1   2
BRANCH   1  17
ATOM     17  C   UNL     1      37.811  28.534  11.084  1.00  0.00     0.224 C 
ATOM     18  C   UNL     1      36.899  27.284  10.944  1.00  0.00     0.208 C 
ATOM     19  O   UNL     1      37.984  29.080   9.793  1.00  0.00    -0.337 OA
ATOM     20  C   UNL     1      36.106  27.553   9.690  1.00  0.00     0.180 C 
ATOM     21  C   UNL     1      36.979  28.554   8.936  1.00  0.00     0.179 C 
BRANCH  17  22
ATOM     22  C   UNL     1      37.088  29.607  11.977  1.00  0.00     0.225 C 
BRANCH  22  23
ATOM     23  O   UNL     1      37.501  29.453  13.336  1.00  0.00    -0.391 OA
ATOM     24  H   UNL     1      38.417  29.044  13.297  1.00  0.00     0.210 HD
ENDBRANCH  22  23
ENDBRANCH  17  22
BRANCH  18  25
ATOM     25  O   UNL     1      36.070  26.947  12.067  1.00  0.00    -0.385 OA
ATOM     26  H   UNL     1      36.657  26.913  12.840  1.00  0.00     0.211 HD
ENDBRANCH  18  25
BRANCH  20  27
ATOM     27  O   UNL     1      34.876  28.187  10.011  1.00  0.00    -0.387 OA
ATOM     28  H   UNL     1      34.175  27.464  10.136  1.00  0.00     0.211 HD
ENDBRANCH  20  27
BRANCH  21  29
ATOM     29  C   UNL     1      37.657  27.935   7.671  1.00  0.00     0.191 C 
BRANCH  29  30
ATOM     30  O   UNL     1      38.636  27.025   8.051  1.00  0.00    -0.394 OA
ATOM     31  H   UNL     1      39.376  27.561   8.406  1.00  0.00     0.210 HD
ENDBRANCH  29  30
ENDBRANCH  21  29
ENDBRANCH   1  17
TORSDOF 13
ENDMDL
MODEL 3
REMARK VINA RESULT:    -6.572      1.381      2.809
REMARK INTER + INTRA:         -11.163
REMARK INTER:                 -10.222
REMARK INTRA:                  -0.941
REMARK UNBOUND:                -1.132
REMARK SMILES OC[C@@H]1O[C@@H](O[C@@]2(CO)O[C@@H](CO)[C@H](O)[C@@H]2O)[C@H](O)[C@@H](O)[C@H]1O
REMARK SMILES IDX 6 1 5 2 3 3 22 4 4 5 20 6 18 7 2 8 1 9 23 11 21 13 19 15
REMARK SMILES IDX 7 17 16 18 10 19 14 20 11 21 8 22 9 23 17 25 15 27 12 29
REMARK SMILES IDX 13 30
REMARK H PARENT 1 10 23 12 21 14 19 16 9 24 17 26 15 28 13 31
REMARK Flexibility Score: inf
ROOT
ATOM      1  O   UNL     1      39.428  27.780  10.351  1.00  0.00    -0.313 OA
ENDROOT
BRANCH   1   2
ATOM      2  C   UNL     1      40.490  28.195  11.263  1.00  0.00     0.285 C 
ATOM      3  C   UNL     1      41.633  29.984  12.398  1.00  0.00     0.178 C 
ATOM      4  C   UNL     1      42.931  29.099  12.583  1.00  0.00     0.177 C 
ATOM      5  O   UNL     1      40.670  29.611  11.365  1.00  0.00    -0.341 OA
ATOM      6  C   UNL     1      43.121  27.936  11.560  1.00  0.00     0.179 C 
ATOM      7  C   UNL     1      41.827  27.646  10.715  1.00  0.00     0.202 C 
BRANCH   3   8
ATOM      8  C   UNL     1      40.894  30.080  13.770  1.00  0.00     0.191 C 
BRANCH   8   9
ATOM      9  O   UNL     1      41.702  29.631  14.824  1.00  0.00    -0.394 OA
ATOM     10  H   UNL     1      41.581  30.261  15.620  1.00  0.00     0.210 HD
ENDBRANCH   8   9
ENDBRANCH   3   8
BRANCH   4  11
ATOM     11  O   UNL     1      44.162  29.844  12.746  1.00  0.00    -0.387 OA
ATOM     12  H   UNL     1      44.840  29.497  12.093  1.00  0.00     0.211 HD
ENDBRANCH   4  11
BRANCH   6  13
ATOM     13  O   UNL     1      44.237  28.192  10.728  1.00  0.00    -0.387 OA
ATOM     14  H   UNL     1      45.049  28.230  11.314  1.00  0.00     0.211 HD
ENDBRANCH   6  13
BRANCH   7  15
ATOM     15  O   UNL     1      41.731  26.287  10.491  1.00  0.00    -0.385 OA
ATOM     16  H   UNL     1      41.319  25.875  11.284  1.00  0.00     0.211 HD
ENDBRANCH   7  15
ENDBRANCH   1   2
BRANCH   1  17
ATOM     17  C   UNL     1      38.030  28.291  10.370  1.00  0.00     0.224 C 
ATOM     18  C   UNL     1      37.085  27.109  10.014  1.00  0.00     0.208 C 
ATOM     19  O   UNL     1      37.840  29.295   9.394  1.00  0.00    -0.337 OA
ATOM     20  C   UNL     1      35.974  27.758   9.228  1.00  0.00     0.180 C 
ATOM     21  C   UNL     1      36.619  29.042   8.710  1.00  0.00     0.179 C 
BRANCH  17  22
ATOM     22  C   UNL     1      37.618  28.882  11.767  1.00  0.00     0.225 C 
BRANCH  22  23
ATOM     23  O   UNL     1      37.808  30.298  11.761  1.00  0.00    -0.391 OA
ATOM     24  H   UNL     1      36.977  30.681  11.346  1.00  0.00     0.210 HD
ENDBRANCH  22  23
ENDBRANCH  17  22
BRANCH  18  25
ATOM     25  O   UNL     1      36.604  26.304  11.100  1.00  0.00    -0.385 OA
ATOM     26  H   UNL     1      35.808  26.747  11.438  1.00  0.00     0.211 HD
ENDBRANCH  18  25
BRANCH  20  27
ATOM     27  O   UNL     1      34.903  28.113  10.090  1.00  0.00    -0.387 OA
ATOM     28  H   UNL     1      35.147  28.984  10.550  1.00  0.00     0.211 HD
ENDBRANCH  20  27
BRANCH  21  29
ATOM     29  C   UNL     1      36.894  29.005   7.171  1.00  0.00     0.191 C 
BRANCH  29  30
ATOM     30  O   UNL     1      37.952  28.149   6.895  1.00  0.00    -0.394 OA
ATOM     31  H   UNL     1      37.796  27.815   5.986  1.00  0.00     0.210 HD
ENDBRANCH  29  30
ENDBRANCH  21  29
ENDBRANCH   1  17
TORSDOF 13
ENDMDL
MODEL 4
REMARK VINA RESULT:    -6.536      1.517      5.692
REMARK INTER + INTRA:         -11.108
REMARK INTER:                 -11.004
REMARK INTRA:                  -0.104
REMARK UNBOUND:                -1.132
REMARK SMILES OC[C@@H]1O[C@@H](O[C@@]2(CO)O[C@@H](CO)[C@H](O)[C@@H]2O)[C@H](O)[C@@H](O)[C@H]1O
REMARK SMILES IDX 6 1 5 2 3 3 22 4 4 5 20 6 18 7 2 8 1 9 23 11 21 13 19 15
REMARK SMILES IDX 7 17 16 18 10 19 14 20 11 21 8 22 9 23 17 25 15 27 12 29
REMARK SMILES IDX 13 30
REMARK H PARENT 1 10 23 12 21 14 19 16 9 24 17 26 15 28 13 31
REMARK Flexibility Score: inf
ROOT
ATOM      1  O   UNL     1      40.825  29.453   9.669  1.00  0.00    -0.313 OA
ENDROOT
BRANCH   1   2
ATOM      2  C   UNL     1      39.465  28.923   9.688  1.00  0.00     0.285 C 
ATOM      3  C   UNL     1      37.810  27.567  10.793  1.00  0.00     0.178 C 
ATOM      4  C   UNL     1      36.993  27.389   9.452  1.00  0.00     0.177 C 
ATOM      5  O   UNL     1      39.216  27.955  10.714  1.00  0.00    -0.341 OA
ATOM      6  C   UNL     1      37.803  27.552   8.127  1.00  0.00     0.179 C 
ATOM      7  C   UNL     1      39.226  28.180   8.354  1.00  0.00     0.202 C 
BRANCH   3   8
ATOM      8  C   UNL     1      37.055  28.584  11.707  1.00  0.00     0.191 C 
BRANCH   8   9
ATOM      9  O   UNL     1      35.665  28.477  11.560  1.00  0.00    -0.394 OA
ATOM     10  H   UNL     1      35.424  27.491  11.438  1.00  0.00     0.210 HD
ENDBRANCH   8   9
ENDBRANCH   3   8
BRANCH   4  11
ATOM     11  O   UNL     1      36.155  26.209   9.398  1.00  0.00    -0.387 OA
ATOM     12  H   UNL     1      36.693  25.416   9.695  1.00  0.00     0.211 HD
ENDBRANCH   4  11
BRANCH   6  13
ATOM     13  O   UNL     1      37.884  26.314   7.447  1.00  0.00    -0.387 OA
ATOM     14  H   UNL     1      37.169  26.306   6.744  1.00  0.00     0.211 HD
ENDBRANCH   6  13
BRANCH   7  15
ATOM     15  O   UNL     1      39.529  29.003   7.287  1.00  0.00    -0.385 OA
ATOM     16  H   UNL     1      39.399  29.935   7.574  1.00  0.00     0.211 HD
ENDBRANCH   7  15
ENDBRANCH   1   2
BRANCH   1  17
ATOM     17  C   UNL     1      41.955  28.955  10.499  1.00  0.00     0.224 C 
ATOM     18  C   UNL     1      41.481  27.665  11.225  1.00  0.00     0.208 C 
ATOM     19  O   UNL     1      42.313  29.894  11.492  1.00  0.00    -0.337 OA
ATOM     20  C   UNL     1      42.181  27.722  12.559  1.00  0.00     0.180 C 
ATOM     21  C   UNL     1      42.489  29.209  12.726  1.00  0.00     0.179 C 
BRANCH  17  22
ATOM     22  C   UNL     1      43.236  28.630   9.647  1.00  0.00     0.225 C 
BRANCH  22  23
ATOM     23  O   UNL     1      42.876  27.802   8.541  1.00  0.00    -0.391 OA
ATOM     24  H   UNL     1      43.735  27.402   8.209  1.00  0.00     0.210 HD
ENDBRANCH  22  23
ENDBRANCH  17  22
BRANCH  18  25
ATOM     25  O   UNL     1      41.680  26.417  10.543  1.00  0.00    -0.385 OA
ATOM     26  H   UNL     1      41.442  25.719  11.175  1.00  0.00     0.211 HD
ENDBRANCH  18  25
BRANCH  20  27
ATOM     27  O   UNL     1      43.412  27.016  12.500  1.00  0.00    -0.387 OA
ATOM     28  H   UNL     1      43.229  26.048  12.740  1.00  0.00     0.211 HD
ENDBRANCH  20  27
BRANCH  21  29
ATOM     29  C   UNL     1      41.606  29.892  13.820  1.00  0.00     0.191 C 
BRANCH  29  30
ATOM     30  O   UNL     1      41.874  29.339  15.065  1.00  0.00    -0.394 OA
ATOM     31  H   UNL     1      42.736  28.880  14.975  1.00  0.00     0.210 HD
ENDBRANCH  29  30
ENDBRANCH  21  29
ENDBRANCH   1  17
TORSDOF 13
ENDMDL
MODEL 5
REMARK VINA RESULT:    -6.206      2.169      6.471
REMARK INTER + INTRA:         -10.603
REMARK INTER:                 -10.267
REMARK INTRA:                  -0.336
REMARK UNBOUND:                -1.132
REMARK SMILES OC[C@@H]1O[C@@H](O[C@@]2(CO)O[C@@H](CO)[C@H](O)[C@@H]2O)[C@H](O)[C@@H](O)[C@H]1O
REMARK SMILES IDX 6 1 5 2 3 3 22 4 4 5 20 6 18 7 2 8 1 9 23 11 21 13 19 15
REMARK SMILES IDX 7 17 16 18 10 19 14 20 11 21 8 22 9 23 17 25 15 27 12 29
REMARK SMILES IDX 13 30
REMARK H PARENT 1 10 23 12 21 14 19 16 9 24 17 26 15 28 13 31
REMARK Flexibility Score: inf
ROOT
ATOM      1  O   UNL     1      40.545  29.510  10.280  1.00  0.00    -0.313 OA
ENDROOT
BRANCH   1   2
ATOM      2  C   UNL     1      39.225  28.912  10.104  1.00  0.00     0.285 C 
ATOM      3  C   UNL     1      37.565  27.349  10.876  1.00  0.00     0.178 C 
ATOM      4  C   UNL     1      36.886  27.294   9.449  1.00  0.00     0.177 C 
ATOM      5  O   UNL     1      38.945  27.815  10.981  1.00  0.00    -0.341 OA
ATOM      6  C   UNL     1      37.801  27.658   8.239  1.00  0.00     0.179 C 
ATOM      7  C   UNL     1      39.156  28.326   8.675  1.00  0.00     0.202 C 
BRANCH   3   8
ATOM      8  C   UNL     1      36.667  28.206  11.824  1.00  0.00     0.191 C 
BRANCH   8   9
ATOM      9  O   UNL     1      36.008  27.410  12.770  1.00  0.00    -0.394 OA
ATOM     10  H   UNL     1      35.688  26.554  12.312  1.00  0.00     0.210 HD
ENDBRANCH   8   9
ENDBRANCH   3   8
BRANCH   4  11
ATOM     11  O   UNL     1      36.132  26.088   9.177  1.00  0.00    -0.387 OA
ATOM     12  H   UNL     1      35.857  26.088   8.212  1.00  0.00     0.211 HD
ENDBRANCH   4  11
BRANCH   6  13
ATOM     13  O   UNL     1      38.021  26.518   7.431  1.00  0.00    -0.387 OA
ATOM     14  H   UNL     1      38.599  25.885   7.950  1.00  0.00     0.211 HD
ENDBRANCH   6  13
BRANCH   7  15
ATOM     15  O   UNL     1      39.502  29.288   7.747  1.00  0.00    -0.385 OA
ATOM     16  H   UNL     1      39.759  28.831   6.914  1.00  0.00     0.211 HD
ENDBRANCH   7  15
ENDBRANCH   1   2
BRANCH   1  17
ATOM     17  C   UNL     1      41.825  28.757  10.371  1.00  0.00     0.224 C 
ATOM     18  C   UNL     1      42.896  29.708  10.975  1.00  0.00     0.208 C 
ATOM     19  O   UNL     1      42.279  28.364   9.092  1.00  0.00    -0.337 OA
ATOM     20  C   UNL     1      44.171  29.307  10.276  1.00  0.00     0.180 C 
ATOM     21  C   UNL     1      43.671  28.640   8.996  1.00  0.00     0.179 C 
BRANCH  17  22
ATOM     22  C   UNL     1      41.710  27.470  11.267  1.00  0.00     0.225 C 
BRANCH  22  23
ATOM     23  O   UNL     1      41.586  26.317  10.432  1.00  0.00    -0.391 OA
ATOM     24  H   UNL     1      41.347  26.666   9.521  1.00  0.00     0.210 HD
ENDBRANCH  22  23
ENDBRANCH  17  22
BRANCH  18  25
ATOM     25  O   UNL     1      43.026  29.727  12.404  1.00  0.00    -0.385 OA
ATOM     26  H   UNL     1      42.659  30.577  12.701  1.00  0.00     0.211 HD
ENDBRANCH  18  25
BRANCH  20  27
ATOM     27  O   UNL     1      44.869  28.335  11.042  1.00  0.00    -0.387 OA
ATOM     28  H   UNL     1      44.204  27.624  11.325  1.00  0.00     0.211 HD
ENDBRANCH  20  27
BRANCH  21  29
ATOM     29  C   UNL     1      43.933  29.504   7.720  1.00  0.00     0.191 C 
BRANCH  29  30
ATOM     30  O   UNL     1      44.980  28.964   6.983  1.00  0.00    -0.394 OA
ATOM     31  H   UNL     1      45.620  29.695   6.853  1.00  0.00     0.210 HD
ENDBRANCH  29  30
ENDBRANCH  21  29
ENDBRANCH   1  17
TORSDOF 13
ENDMDL
MODEL 6
REMARK VINA RESULT:    -6.193      1.765      2.962
REMARK INTER + INTRA:         -10.584
REMARK INTER:                  -9.617
REMARK INTRA:                  -0.967
REMARK UNBOUND:                -1.132
REMARK SMILES OC[C@@H]1O[C@@H](O[C@@]2(CO)O[C@@H](CO)[C@H](O)[C@@H]2O)[C@H](O)[C@@H](O)[C@H]1O
REMARK SMILES IDX 6 1 5 2 3 3 22 4 4 5 20 6 18 7 2 8 1 9 23 11 21 13 19 15
REMARK SMILES IDX 7 17 16 18 10 19 14 20 11 21 8 22 9 23 17 25 15 27 12 29
REMARK SMILES IDX 13 30
REMARK H PARENT 1 10 23 12 21 14 19 16 9 24 17 26 15 28 13 31
REMARK Flexibility Score: inf
ROOT
ATOM      1  O   UNL     1      39.385  29.208  10.751  1.00  0.00    -0.313 OA
ENDROOT
BRANCH   1   2
ATOM      2  C   UNL     1      40.710  29.165  11.361  1.00  0.00     0.285 C 
ATOM      3  C   UNL     1      42.646  27.868  11.965  1.00  0.00     0.178 C 
ATOM      4  C   UNL     1      43.059  28.914  13.076  1.00  0.00     0.177 C 
ATOM      5  O   UNL     1      41.264  27.851  11.493  1.00  0.00    -0.341 OA
ATOM      6  C   UNL     1      41.906  29.793  13.654  1.00  0.00     0.179 C 
ATOM      7  C   UNL     1      40.585  29.706  12.804  1.00  0.00     0.202 C 
BRANCH   3   8
ATOM      8  C   UNL     1      43.599  28.039  10.739  1.00  0.00     0.191 C 
BRANCH   8   9
ATOM      9  O   UNL     1      44.876  28.459  11.132  1.00  0.00    -0.394 OA
ATOM     10  H   UNL     1      45.442  27.634  11.340  1.00  0.00     0.210 HD
ENDBRANCH   8   9
ENDBRANCH   3   8
BRANCH   4  11
ATOM     11  O   UNL     1      43.881  28.382  14.142  1.00  0.00    -0.387 OA
ATOM     12  H   UNL     1      43.505  27.499  14.432  1.00  0.00     0.211 HD
ENDBRANCH   4  11
BRANCH   6  13
ATOM     13  O   UNL     1      41.672  29.465  15.010  1.00  0.00    -0.387 OA
ATOM     14  H   UNL     1      42.279  30.034  15.569  1.00  0.00     0.211 HD
ENDBRANCH   6  13
BRANCH   7  15
ATOM     15  O   UNL     1      39.972  30.944  12.799  1.00  0.00    -0.385 OA
ATOM     16  H   UNL     1      39.254  30.926  12.127  1.00  0.00     0.211 HD
ENDBRANCH   7  15
ENDBRANCH   1   2
BRANCH   1  17
ATOM     17  C   UNL     1      38.997  28.526   9.486  1.00  0.00     0.224 C 
ATOM     18  C   UNL     1      37.925  29.402   8.780  1.00  0.00     0.208 C 
ATOM     19  O   UNL     1      38.414  27.265   9.742  1.00  0.00    -0.337 OA
ATOM     20  C   UNL     1      37.013  28.398   8.122  1.00  0.00     0.180 C 
ATOM     21  C   UNL     1      37.251  27.127   8.936  1.00  0.00     0.179 C 
BRANCH  17  22
ATOM     22  C   UNL     1      40.215  28.313   8.514  1.00  0.00     0.225 C 
BRANCH  22  23
ATOM     23  O   UNL     1      40.690  26.971   8.632  1.00  0.00    -0.391 OA
ATOM     24  H   UNL     1      41.017  26.717   7.717  1.00  0.00     0.210 HD
ENDBRANCH  22  23
ENDBRANCH  17  22
BRANCH  18  25
ATOM     25  O   UNL     1      38.395  30.409   7.871  1.00  0.00    -0.385 OA
ATOM     26  H   UNL     1      38.567  31.202   8.406  1.00  0.00     0.211 HD
ENDBRANCH  18  25
BRANCH  20  27
ATOM     27  O   UNL     1      37.429  28.156   6.785  1.00  0.00    -0.387 OA
ATOM     28  H   UNL     1      38.442  28.135   6.772  1.00  0.00     0.211 HD
ENDBRANCH  20  27
BRANCH  21  29
ATOM     29  C   UNL     1      36.037  26.755   9.848  1.00  0.00     0.191 C 
BRANCH  29  30
ATOM     30  O   UNL     1      36.484  26.154  11.018  1.00  0.00    -0.394 OA
ATOM     31  H   UNL     1      36.071  26.656  11.751  1.00  0.00     0.210 HD
ENDBRANCH  29  30
ENDBRANCH  21  29
ENDBRANCH   1  17
TORSDOF 13
ENDMDL
MODEL 7
REMARK VINA RESULT:    -6.102      1.901      3.921
REMARK INTER + INTRA:         -10.445
REMARK INTER:                  -9.452
REMARK INTRA:                  -0.994
REMARK UNBOUND:                -1.132
REMARK SMILES OC[C@@H]1O[C@@H](O[C@@]2(CO)O[C@@H](CO)[C@H](O)[C@@H]2O)[C@H](O)[C@@H](O)[C@H]1O
REMARK SMILES IDX 6 1 5 2 3 3 22 4 4 5 20 6 18 7 2 8 1 9 23 11 21 13 19 15
REMARK SMILES IDX 7 17 16 18 10 19 14 20 11 21 8 22 9 23 17 25 15 27 12 29
REMARK SMILES IDX 13 30
REMARK H PARENT 1 10 23 12 21 14 19 16 9 24 17 26 15 28 13 31
REMARK Flexibility Score: inf
ROOT
ATOM      1  O   UNL     1      38.469  27.456  10.508  1.00  0.00    -0.313 OA
ENDROOT
BRANCH   1   2
ATOM      2  C   UNL     1      39.770  28.118  10.493  1.00  0.00     0.285 C 
ATOM      3  C   UNL     1      42.168  27.922  10.453  1.00  0.00     0.178 C 
ATOM      4  C   UNL     1      42.344  29.372  11.059  1.00  0.00     0.177 C 
ATOM      5  O   UNL     1      40.890  27.237  10.627  1.00  0.00    -0.341 OA
ATOM      6  C   UNL     1      41.142  29.918  11.891  1.00  0.00     0.179 C 
ATOM      7  C   UNL     1      39.836  29.059  11.718  1.00  0.00     0.202 C 
BRANCH   3   8
ATOM      8  C   UNL     1      42.515  27.971   8.931  1.00  0.00     0.191 C 
BRANCH   8   9
ATOM      9  O   UNL     1      41.905  26.924   8.228  1.00  0.00    -0.394 OA
ATOM     10  H   UNL     1      42.599  26.495   7.612  1.00  0.00     0.210 HD
ENDBRANCH   8   9
ENDBRANCH   3   8
BRANCH   4  11
ATOM     11  O   UNL     1      43.594  29.597  11.755  1.00  0.00    -0.387 OA
ATOM     12  H   UNL     1      43.649  28.967  12.534  1.00  0.00     0.211 HD
ENDBRANCH   4  11
BRANCH   6  13
ATOM     13  O   UNL     1      41.505  30.041  13.253  1.00  0.00    -0.387 OA
ATOM     14  H   UNL     1      42.056  30.873  13.347  1.00  0.00     0.211 HD
ENDBRANCH   6  13
BRANCH   7  15
ATOM     15  O   UNL     1      38.741  29.899  11.736  1.00  0.00    -0.385 OA
ATOM     16  H   UNL     1      38.995  30.724  12.209  1.00  0.00     0.211 HD
ENDBRANCH   7  15
ENDBRANCH   1   2
BRANCH   1  17
ATOM     17  C   UNL     1      37.378  27.679   9.521  1.00  0.00     0.224 C 
ATOM     18  C   UNL     1      37.991  27.564   8.098  1.00  0.00     0.208 C 
ATOM     19  O   UNL     1      36.834  28.978   9.645  1.00  0.00    -0.337 OA
ATOM     20  C   UNL     1      37.217  28.573   7.287  1.00  0.00     0.180 C 
ATOM     21  C   UNL     1      36.690  29.539   8.347  1.00  0.00     0.179 C 
BRANCH  17  22
ATOM     22  C   UNL     1      36.205  26.642   9.667  1.00  0.00     0.225 C 
BRANCH  22  23
ATOM     23  O   UNL     1      36.419  25.841  10.831  1.00  0.00    -0.391 OA
ATOM     24  H   UNL     1      36.219  24.897  10.551  1.00  0.00     0.210 HD
ENDBRANCH  22  23
ENDBRANCH  17  22
BRANCH  18  25
ATOM     25  O   UNL     1      38.011  26.261   7.496  1.00  0.00    -0.385 OA
ATOM     26  H   UNL     1      38.776  26.247   6.898  1.00  0.00     0.211 HD
ENDBRANCH  18  25
BRANCH  20  27
ATOM     27  O   UNL     1      36.105  27.951   6.658  1.00  0.00    -0.387 OA
ATOM     28  H   UNL     1      36.407  27.612   5.752  1.00  0.00     0.211 HD
ENDBRANCH  20  27
BRANCH  21  29
ATOM     29  C   UNL     1      37.405  30.929   8.308  1.00  0.00     0.191 C 
BRANCH  29  30
ATOM     30  O   UNL     1      38.128  31.063   7.130  1.00  0.00    -0.394 OA
ATOM     31  H   UNL     1      37.816  30.343   6.541  1.00  0.00     0.210 HD
ENDBRANCH  29  30
ENDBRANCH  21  29
ENDBRANCH   1  17
TORSDOF 13
ENDMDL
MODEL 8
REMARK VINA RESULT:    -5.921      1.717      6.346
REMARK INTER + INTRA:         -10.169
REMARK INTER:                  -9.444
REMARK INTRA:                  -0.725
REMARK UNBOUND:                -1.132
REMARK SMILES OC[C@@H]1O[C@@H](O[C@@]2(CO)O[C@@H](CO)[C@H](O)[C@@H]2O)[C@H](O)[C@@H](O)[C@H]1O
REMARK SMILES IDX 6 1 5 2 3 3 22 4 4 5 20 6 18 7 2 8 1 9 23 11 21 13 19 15
REMARK SMILES IDX 7 17 16 18 10 19 14 20 11 21 8 22 9 23 17 25 15 27 12 29
REMARK SMILES IDX 13 30
REMARK H PARENT 1 10 23 12 21 14 19 16 9 24 17 26 15 28 13 31
REMARK Flexibility Score: inf
ROOT
ATOM      1  O   UNL     1      40.992  27.998  10.689  1.00  0.00    -0.313 OA
ENDROOT
BRANCH   1   2
ATOM      2  C   UNL     1      39.614  28.216  10.259  1.00  0.00     0.285 C 
ATOM      3  C   UNL     1      37.370  27.366  10.062  1.00  0.00     0.178 C 
ATOM      4  C   UNL     1      37.039  28.379   8.894  1.00  0.00     0.177 C 
ATOM      5  O   UNL     1      38.768  27.064  10.356  1.00  0.00    -0.341 OA
ATOM      6  C   UNL     1      38.259  28.905   8.075  1.00  0.00     0.179 C 
ATOM      7  C   UNL     1      39.639  28.583   8.757  1.00  0.00     0.202 C 
BRANCH   3   8
ATOM      8  C   UNL     1      36.674  27.866  11.368  1.00  0.00     0.191 C 
BRANCH   8   9
ATOM      9  O   UNL     1      36.012  26.824  12.031  1.00  0.00    -0.394 OA
ATOM     10  H   UNL     1      36.591  25.983  11.980  1.00  0.00     0.210 HD
ENDBRANCH   8   9
ENDBRANCH   3   8
BRANCH   4  11
ATOM     11  O   UNL     1      35.969  27.965   8.010  1.00  0.00    -0.387 OA
ATOM     12  H   UNL     1      35.526  27.152   8.397  1.00  0.00     0.211 HD
ENDBRANCH   4  11
BRANCH   6  13
ATOM     13  O   UNL     1      38.209  28.412   6.750  1.00  0.00    -0.387 OA
ATOM     14  H   UNL     1      37.319  27.968   6.624  1.00  0.00     0.211 HD
ENDBRANCH   6  13
BRANCH   7  15
ATOM     15  O   UNL     1      40.506  29.635   8.536  1.00  0.00    -0.385 OA
ATOM     16  H   UNL     1      41.078  29.732   9.330  1.00  0.00     0.211 HD
ENDBRANCH   7  15
ENDBRANCH   1   2
BRANCH   1  17
ATOM     17  C   UNL     1      41.684  28.749  11.772  1.00  0.00     0.224 C 
ATOM     18  C   UNL     1      42.748  29.667  11.110  1.00  0.00     0.208 C 
ATOM     19  O   UNL     1      42.364  27.873  12.648  1.00  0.00    -0.337 OA
ATOM     20  C   UNL     1      43.883  29.681  12.104  1.00  0.00     0.180 C 
ATOM     21  C   UNL     1      43.662  28.396  12.900  1.00  0.00     0.179 C 
BRANCH  17  22
ATOM     22  C   UNL     1      40.699  29.627  12.626  1.00  0.00     0.225 C 
BRANCH  22  23
ATOM     23  O   UNL     1      41.092  29.588  13.999  1.00  0.00    -0.391 OA
ATOM     24  H   UNL     1      41.093  30.543  14.309  1.00  0.00     0.210 HD
ENDBRANCH  22  23
ENDBRANCH  17  22
BRANCH  18  25
ATOM     25  O   UNL     1      42.329  30.985  10.724  1.00  0.00    -0.385 OA
ATOM     26  H   UNL     1      41.678  30.868  10.012  1.00  0.00     0.211 HD
ENDBRANCH  18  25
BRANCH  20  27
ATOM     27  O   UNL     1      43.750  30.783  12.989  1.00  0.00    -0.387 OA
ATOM     28  H   UNL     1      44.370  31.519  12.669  1.00  0.00     0.211 HD
ENDBRANCH  20  27
BRANCH  21  29
ATOM     29  C   UNL     1      44.727  27.296  12.585  1.00  0.00     0.191 C 
BRANCH  29  30
ATOM     30  O   UNL     1      44.551  26.205  13.426  1.00  0.00    -0.394 OA
ATOM     31  H   UNL     1      45.238  25.555  13.167  1.00  0.00     0.210 HD
ENDBRANCH  29  30
ENDBRANCH  21  29
ENDBRANCH   1  17
TORSDOF 13
ENDMDL
MODEL 9
REMARK VINA RESULT:    -5.837      1.875      6.250
REMARK INTER + INTRA:         -10.041
REMARK INTER:                  -8.733
REMARK INTRA:                  -1.308
REMARK UNBOUND:                -1.132
REMARK SMILES OC[C@@H]1O[C@@H](O[C@@]2(CO)O[C@@H](CO)[C@H](O)[C@@H]2O)[C@H](O)[C@@H](O)[C@H]1O
REMARK SMILES IDX 6 1 5 2 3 3 22 4 4 5 20 6 18 7 2 8 1 9 23 11 21 13 19 15
REMARK SMILES IDX 7 17 16 18 10 19 14 20 11 21 8 22 9 23 17 25 15 27 12 29
REMARK SMILES IDX 13 30
REMARK H PARENT 1 10 23 12 21 14 19 16 9 24 17 26 15 28 13 31
REMARK Flexibility Score: inf
ROOT
ATOM      1  O   UNL     1      41.331  27.425  11.159  1.00  0.00    -0.313 OA
ENDROOT
BRANCH   1   2
ATOM      2  C   UNL     1      40.229  28.121  10.501  1.00  0.00     0.285 C 
ATOM      3  C   UNL     1      37.974  28.956  10.614  1.00  0.00     0.178 C 
ATOM      4  C   UNL     1      37.845  28.957   9.038  1.00  0.00     0.177 C 
ATOM      5  O   UNL     1      38.999  28.122  11.235  1.00  0.00    -0.341 OA
ATOM      6  C   UNL     1      38.783  27.972   8.272  1.00  0.00     0.179 C 
ATOM      7  C   UNL     1      39.919  27.377   9.181  1.00  0.00     0.202 C 
BRANCH   3   8
ATOM      8  C   UNL     1      38.152  30.428  11.102  1.00  0.00     0.191 C 
BRANCH   8   9
ATOM      9  O   UNL     1      38.648  30.482  12.411  1.00  0.00    -0.394 OA
ATOM     10  H   UNL     1      39.197  31.338  12.518  1.00  0.00     0.210 HD
ENDBRANCH   8   9
ENDBRANCH   3   8
BRANCH   4  11
ATOM     11  O   UNL     1      36.490  28.871   8.534  1.00  0.00    -0.387 OA
ATOM     12  H   UNL     1      35.873  28.666   9.298  1.00  0.00     0.211 HD
ENDBRANCH   4  11
BRANCH   6  13
ATOM     13  O   UNL     1      38.023  26.951   7.656  1.00  0.00    -0.387 OA
ATOM     14  H   UNL     1      38.263  26.939   6.682  1.00  0.00     0.211 HD
ENDBRANCH   6  13
BRANCH   7  15
ATOM     15  O   UNL     1      41.070  27.238   8.429  1.00  0.00    -0.385 OA
ATOM     16  H   UNL     1      41.764  27.811   8.825  1.00  0.00     0.211 HD
ENDBRANCH   7  15
ENDBRANCH   1   2
BRANCH   1  17
ATOM     17  C   UNL     1      42.540  28.077  11.731  1.00  0.00     0.224 C 
ATOM     18  C   UNL     1      42.307  29.613  11.714  1.00  0.00     0.208 C 
ATOM     19  O   UNL     1      43.684  27.812  10.946  1.00  0.00    -0.337 OA
ATOM     20  C   UNL     1      43.676  30.184  11.440  1.00  0.00     0.180 C 
ATOM     21  C   UNL     1      44.408  29.023  10.770  1.00  0.00     0.179 C 
BRANCH  17  22
ATOM     22  C   UNL     1      42.839  27.614  13.204  1.00  0.00     0.225 C 
BRANCH  22  23
ATOM     23  O   UNL     1      43.868  26.623  13.193  1.00  0.00    -0.391 OA
ATOM     24  H   UNL     1      44.280  26.649  14.108  1.00  0.00     0.210 HD
ENDBRANCH  22  23
ENDBRANCH  17  22
BRANCH  18  25
ATOM     25  O   UNL     1      41.680  30.196  12.866  1.00  0.00    -0.385 OA
ATOM     26  H   UNL     1      41.075  30.879  12.533  1.00  0.00     0.211 HD
ENDBRANCH  18  25
BRANCH  20  27
ATOM     27  O   UNL     1      44.338  30.484  12.661  1.00  0.00    -0.387 OA
ATOM     28  H   UNL     1      43.651  30.451  13.405  1.00  0.00     0.211 HD
ENDBRANCH  20  27
BRANCH  21  29
ATOM     29  C   UNL     1      44.648  29.258   9.243  1.00  0.00     0.191 C 
BRANCH  29  30
ATOM     30  O   UNL     1      43.771  28.482   8.496  1.00  0.00    -0.394 OA
ATOM     31  H   UNL     1      44.269  28.210   7.696  1.00  0.00     0.210 HD
ENDBRANCH  29  30
ENDBRANCH  21  29
ENDBRANCH   1  17
TORSDOF 13
ENDMDL
