MODEL 1
REMARK VINA RESULT:    -3.102      0.000      0.000
REMARK INTER + INTRA:          -4.909
REMARK INTER:                  -4.371
REMARK INTRA:                  -0.538
REMARK UNBOUND:                -0.538
REMARK SMILES CCCCCCCCC(=O)[O-]
REMARK SMILES IDX 6 1 7 2 8 3 9 4 10 5 11 6 5 7 4 8 3 9 2 10 1 11
REMARK H PARENT
REMARK Flexibility Score: inf
ROOT
ATOM      1  C   UNL     1     -44.798 -47.456  70.319  1.00  0.00     0.000 C 
ENDROOT
BRANCH   1   2
ATOM      2  C   UNL     1     -45.984 -47.112  71.235  1.00  0.00     0.006 C 
BRANCH   2   3
ATOM      3  C   UNL     1     -47.329 -47.149  70.500  1.00  0.00     0.053 C 
BRANCH   3   4
ATOM      4  C   UNL     1     -48.123 -48.344  70.925  1.00  0.00     0.041 C 
ATOM      5  O   UNL     1     -49.317 -48.210  71.302  1.00  0.00    -0.550 OA
ATOM      6  O   UNL     1     -47.530 -49.600  70.951  1.00  0.00    -0.550 OA
ENDBRANCH   3   4
ENDBRANCH   2   3
ENDBRANCH   1   2
BRANCH   1   7
ATOM      7  C   UNL     1     -43.447 -47.044  70.921  1.00  0.00     0.000 C 
BRANCH   7   8
ATOM      8  C   UNL     1     -43.168 -45.553  70.673  1.00  0.00    -0.000 C 
BRANCH   8   9
ATOM      9  C   UNL     1     -43.014 -44.754  71.976  1.00  0.00    -0.000 C 
BRANCH   9  10
ATOM     10  C   UNL     1     -43.138 -45.634  73.228  1.00  0.00    -0.003 C 
ATOM     11  C   UNL     1     -44.214 -45.101  74.170  1.00  0.00     0.004 C 
ENDBRANCH   9  10
ENDBRANCH   8   9
ENDBRANCH   7   8
ENDBRANCH   1   7
TORSDOF 7
ENDMDL
MODEL 2
REMARK VINA RESULT:    -3.068      1.714      2.693
REMARK INTER + INTRA:          -4.862
REMARK INTER:                  -4.454
REMARK INTRA:                  -0.408
REMARK UNBOUND:                -0.538
REMARK SMILES CCCCCCCCC(=O)[O-]
REMARK SMILES IDX 6 1 7 2 8 3 9 4 10 5 11 6 5 7 4 8 3 9 2 10 1 11
REMARK H PARENT
REMARK Flexibility Score: inf
ROOT
ATOM      1  C   UNL     1     -43.520 -47.170  70.469  1.00  0.00     0.000 C 
ENDROOT
BRANCH   1   2
ATOM      2  C   UNL     1     -44.883 -47.882  70.457  1.00  0.00     0.006 C 
BRANCH   2   3
ATOM      3  C   UNL     1     -45.953 -47.124  71.251  1.00  0.00     0.053 C 
BRANCH   3   4
ATOM      4  C   UNL     1     -47.315 -47.419  70.704  1.00  0.00     0.041 C 
ATOM      5  O   UNL     1     -47.931 -46.548  70.036  1.00  0.00    -0.550 OA
ATOM      6  O   UNL     1     -47.923 -48.638  70.973  1.00  0.00    -0.550 OA
ENDBRANCH   3   4
ENDBRANCH   2   3
ENDBRANCH   1   2
BRANCH   1   7
ATOM      7  C   UNL     1     -43.441 -46.062  71.529  1.00  0.00     0.000 C 
BRANCH   7   8
ATOM      8  C   UNL     1     -42.860 -44.771  70.931  1.00  0.00    -0.000 C 
BRANCH   8   9
ATOM      9  C   UNL     1     -42.813 -44.798  69.395  1.00  0.00    -0.000 C 
BRANCH   9  10
ATOM     10  C   UNL     1     -42.654 -43.397  68.784  1.00  0.00    -0.003 C 
ATOM     11  C   UNL     1     -43.669 -42.423  69.375  1.00  0.00     0.004 C 
ENDBRANCH   9  10
ENDBRANCH   8   9
ENDBRANCH   7   8
ENDBRANCH   1   7
TORSDOF 7
ENDMDL
MODEL 3
REMARK VINA RESULT:    -3.040      2.047      3.382
REMARK INTER + INTRA:          -4.822
REMARK INTER:                  -4.301
REMARK INTRA:                  -0.521
REMARK UNBOUND:                -0.538
REMARK SMILES CCCCCCCCC(=O)[O-]
REMARK SMILES IDX 6 1 7 2 8 3 9 4 10 5 11 6 5 7 4 8 3 9 2 10 1 11
REMARK H PARENT
REMARK Flexibility Score: inf
ROOT
ATOM      1  C   UNL     1     -47.963 -47.552  71.019  1.00  0.00     0.000 C 
ENDROOT
BRANCH   1   2
ATOM      2  C   UNL     1     -48.223 -48.952  70.441  1.00  0.00     0.006 C 
BRANCH   2   3
ATOM      3  C   UNL     1     -49.104 -48.920  69.186  1.00  0.00     0.053 C 
BRANCH   3   4
ATOM      4  C   UNL     1     -48.451 -48.109  68.111  1.00  0.00     0.041 C 
ATOM      5  O   UNL     1     -47.347 -48.472  67.626  1.00  0.00    -0.550 OA
ATOM      6  O   UNL     1     -49.037 -46.927  67.678  1.00  0.00    -0.550 OA
ENDBRANCH   3   4
ENDBRANCH   2   3
ENDBRANCH   1   2
BRANCH   1   7
ATOM      7  C   UNL     1     -46.466 -47.236  71.152  1.00  0.00     0.000 C 
BRANCH   7   8
ATOM      8  C   UNL     1     -45.610 -48.424  70.687  1.00  0.00    -0.000 C 
BRANCH   8   9
ATOM      9  C   UNL     1     -44.106 -48.111  70.695  1.00  0.00    -0.000 C 
BRANCH   9  10
ATOM     10  C   UNL     1     -43.813 -46.619  70.914  1.00  0.00    -0.003 C 
ATOM     11  C   UNL     1     -42.795 -46.419  72.033  1.00  0.00     0.004 C 
ENDBRANCH   9  10
ENDBRANCH   8   9
ENDBRANCH   7   8
ENDBRANCH   1   7
TORSDOF 7
ENDMDL
MODEL 4
REMARK VINA RESULT:    -3.025      3.514      5.226
REMARK INTER + INTRA:          -4.802
REMARK INTER:                  -4.092
REMARK INTRA:                  -0.709
REMARK UNBOUND:                -0.538
REMARK SMILES CCCCCCCCC(=O)[O-]
REMARK SMILES IDX 6 1 7 2 8 3 9 4 10 5 11 6 5 7 4 8 3 9 2 10 1 11
REMARK H PARENT
REMARK Flexibility Score: inf
ROOT
ATOM      1  C   UNL     1     -48.293 -49.414  68.255  1.00  0.00     0.000 C 
ENDROOT
BRANCH   1   2
ATOM      2  C   UNL     1     -48.193 -48.282  67.221  1.00  0.00     0.006 C 
BRANCH   2   3
ATOM      3  C   UNL     1     -49.118 -47.102  67.545  1.00  0.00     0.053 C 
BRANCH   3   4
ATOM      4  C   UNL     1     -50.264 -47.058  66.584  1.00  0.00     0.041 C 
ATOM      5  O   UNL     1     -51.319 -47.700  66.828  1.00  0.00    -0.550 OA
ATOM      6  O   UNL     1     -50.149 -46.348  65.396  1.00  0.00    -0.550 OA
ENDBRANCH   3   4
ENDBRANCH   2   3
ENDBRANCH   1   2
BRANCH   1   7
ATOM      7  C   UNL     1     -49.090 -49.008  69.503  1.00  0.00     0.000 C 
BRANCH   7   8
ATOM      8  C   UNL     1     -48.172 -48.902  70.730  1.00  0.00    -0.000 C 
BRANCH   8   9
ATOM      9  C   UNL     1     -47.734 -47.458  71.021  1.00  0.00    -0.000 C 
BRANCH   9  10
ATOM     10  C   UNL     1     -46.214 -47.268  70.909  1.00  0.00    -0.003 C 
ATOM     11  C   UNL     1     -45.510 -48.600  70.666  1.00  0.00     0.004 C 
ENDBRANCH   9  10
ENDBRANCH   8   9
ENDBRANCH   7   8
ENDBRANCH   1   7
TORSDOF 7
ENDMDL
MODEL 5
REMARK VINA RESULT:    -3.015      2.671      3.989
REMARK INTER + INTRA:          -4.787
REMARK INTER:                  -4.018
REMARK INTRA:                  -0.769
REMARK UNBOUND:                -0.538
REMARK SMILES CCCCCCCCC(=O)[O-]
REMARK SMILES IDX 6 1 7 2 8 3 9 4 10 5 11 6 5 7 4 8 3 9 2 10 1 11
REMARK H PARENT
REMARK Flexibility Score: inf
ROOT
ATOM      1  C   UNL     1     -47.944 -47.404  69.674  1.00  0.00     0.000 C 
ENDROOT
BRANCH   1   2
ATOM      2  C   UNL     1     -48.891 -48.601  69.491  1.00  0.00     0.006 C 
BRANCH   2   3
ATOM      3  C   UNL     1     -49.106 -49.389  70.789  1.00  0.00     0.053 C 
BRANCH   3   4
ATOM      4  C   UNL     1     -50.507 -49.208  71.283  1.00  0.00     0.041 C 
ATOM      5  O   UNL     1     -50.750 -48.398  72.215  1.00  0.00    -0.550 OA
ATOM      6  O   UNL     1     -51.537 -49.970  70.746  1.00  0.00    -0.550 OA
ENDBRANCH   3   4
ENDBRANCH   2   3
ENDBRANCH   1   2
BRANCH   1   7
ATOM      7  C   UNL     1     -47.359 -47.324  71.092  1.00  0.00     0.000 C 
BRANCH   7   8
ATOM      8  C   UNL     1     -45.837 -47.118  71.046  1.00  0.00    -0.000 C 
BRANCH   8   9
ATOM      9  C   UNL     1     -45.146 -48.030  70.022  1.00  0.00    -0.000 C 
BRANCH   9  10
ATOM     10  C   UNL     1     -44.792 -49.408  70.600  1.00  0.00    -0.003 C 
ATOM     11  C   UNL     1     -45.642 -50.505  69.965  1.00  0.00     0.004 C 
ENDBRANCH   9  10
ENDBRANCH   8   9
ENDBRANCH   7   8
ENDBRANCH   1   7
TORSDOF 7
ENDMDL
MODEL 6
REMARK VINA RESULT:    -3.003      0.931      1.992
REMARK INTER + INTRA:          -4.770
REMARK INTER:                  -4.272
REMARK INTRA:                  -0.498
REMARK UNBOUND:                -0.538
REMARK SMILES CCCCCCCCC(=O)[O-]
REMARK SMILES IDX 6 1 7 2 8 3 9 4 10 5 11 6 5 7 4 8 3 9 2 10 1 11
REMARK H PARENT
REMARK Flexibility Score: inf
ROOT
ATOM      1  C   UNL     1     -46.352 -47.120  71.215  1.00  0.00     0.000 C 
ENDROOT
BRANCH   1   2
ATOM      2  C   UNL     1     -47.659 -47.207  70.411  1.00  0.00     0.006 C 
BRANCH   2   3
ATOM      3  C   UNL     1     -47.895 -48.599  69.813  1.00  0.00     0.053 C 
BRANCH   3   4
ATOM      4  C   UNL     1     -48.762 -49.416  70.719  1.00  0.00     0.041 C 
ATOM      5  O   UNL     1     -48.466 -50.614  70.969  1.00  0.00    -0.550 OA
ATOM      6  O   UNL     1     -49.924 -48.869  71.248  1.00  0.00    -0.550 OA
ENDBRANCH   3   4
ENDBRANCH   2   3
ENDBRANCH   1   2
BRANCH   1   7
ATOM      7  C   UNL     1     -45.326 -48.182  70.791  1.00  0.00     0.000 C 
BRANCH   7   8
ATOM      8  C   UNL     1     -43.913 -47.582  70.724  1.00  0.00    -0.000 C 
BRANCH   8   9
ATOM      9  C   UNL     1     -43.923 -46.060  70.514  1.00  0.00    -0.000 C 
BRANCH   9  10
ATOM     10  C   UNL     1     -43.016 -45.320  71.508  1.00  0.00    -0.003 C 
ATOM     11  C   UNL     1     -43.543 -45.452  72.934  1.00  0.00     0.004 C 
ENDBRANCH   9  10
ENDBRANCH   8   9
ENDBRANCH   7   8
ENDBRANCH   1   7
TORSDOF 7
ENDMDL
MODEL 7
REMARK VINA RESULT:    -2.975      3.565      5.435
REMARK INTER + INTRA:          -4.731
REMARK INTER:                  -4.330
REMARK INTRA:                  -0.401
REMARK UNBOUND:                -0.538
REMARK SMILES CCCCCCCCC(=O)[O-]
REMARK SMILES IDX 6 1 7 2 8 3 9 4 10 5 11 6 5 7 4 8 3 9 2 10 1 11
REMARK H PARENT
REMARK Flexibility Score: inf
ROOT
ATOM      1  C   UNL     1     -43.989 -46.176  71.041  1.00  0.00     0.000 C 
ENDROOT
BRANCH   1   2
ATOM      2  C   UNL     1     -43.159 -45.765  72.267  1.00  0.00     0.006 C 
BRANCH   2   3
ATOM      3  C   UNL     1     -44.030 -45.387  73.472  1.00  0.00     0.053 C 
BRANCH   3   4
ATOM      4  C   UNL     1     -43.479 -44.174  74.153  1.00  0.00     0.041 C 
ATOM      5  O   UNL     1     -44.252 -43.255  74.533  1.00  0.00    -0.550 OA
ATOM      6  O   UNL     1     -42.108 -44.035  74.325  1.00  0.00    -0.550 OA
ENDBRANCH   3   4
ENDBRANCH   2   3
ENDBRANCH   1   2
BRANCH   1   7
ATOM      7  C   UNL     1     -44.007 -47.696  70.820  1.00  0.00     0.000 C 
BRANCH   7   8
ATOM      8  C   UNL     1     -45.449 -48.220  70.737  1.00  0.00    -0.000 C 
BRANCH   8   9
ATOM      9  C   UNL     1     -46.486 -47.178  71.181  1.00  0.00    -0.000 C 
BRANCH   9  10
ATOM     10  C   UNL     1     -47.928 -47.609  70.873  1.00  0.00    -0.003 C 
ATOM     11  C   UNL     1     -48.028 -49.125  70.727  1.00  0.00     0.004 C 
ENDBRANCH   9  10
ENDBRANCH   8   9
ENDBRANCH   7   8
ENDBRANCH   1   7
TORSDOF 7
ENDMDL
MODEL 8
REMARK VINA RESULT:    -2.951      3.357      5.661
REMARK INTER + INTRA:          -4.697
REMARK INTER:                  -4.036
REMARK INTRA:                  -0.661
REMARK UNBOUND:                -0.538
REMARK SMILES CCCCCCCCC(=O)[O-]
REMARK SMILES IDX 6 1 7 2 8 3 9 4 10 5 11 6 5 7 4 8 3 9 2 10 1 11
REMARK H PARENT
REMARK Flexibility Score: inf
ROOT
ATOM      1  C   UNL     1     -46.179 -47.395  71.129  1.00  0.00     0.000 C 
ENDROOT
BRANCH   1   2
ATOM      2  C   UNL     1     -45.588 -48.737  70.671  1.00  0.00     0.006 C 
BRANCH   2   3
ATOM      3  C   UNL     1     -44.074 -48.666  70.431  1.00  0.00     0.053 C 
BRANCH   3   4
ATOM      4  C   UNL     1     -43.771 -47.754  69.284  1.00  0.00     0.041 C 
ATOM      5  O   UNL     1     -44.128 -48.063  68.117  1.00  0.00    -0.550 OA
ATOM      6  O   UNL     1     -43.051 -46.585  69.497  1.00  0.00    -0.550 OA
ENDBRANCH   3   4
ENDBRANCH   2   3
ENDBRANCH   1   2
BRANCH   1   7
ATOM      7  C   UNL     1     -47.664 -47.247  70.764  1.00  0.00     0.000 C 
BRANCH   7   8
ATOM      8  C   UNL     1     -48.333 -48.623  70.620  1.00  0.00    -0.000 C 
BRANCH   8   9
ATOM      9  C   UNL     1     -49.004 -48.815  69.252  1.00  0.00    -0.000 C 
BRANCH   9  10
ATOM     10  C   UNL     1     -48.496 -47.820  68.198  1.00  0.00    -0.003 C 
ATOM     11  C   UNL     1     -47.546 -48.498  67.215  1.00  0.00     0.004 C 
ENDBRANCH   9  10
ENDBRANCH   8   9
ENDBRANCH   7   8
ENDBRANCH   1   7
TORSDOF 7
ENDMDL
MODEL 9
REMARK VINA RESULT:    -2.890      3.169      5.556
REMARK INTER + INTRA:          -4.611
REMARK INTER:                  -4.237
REMARK INTRA:                  -0.373
REMARK UNBOUND:                -0.538
REMARK SMILES CCCCCCCCC(=O)[O-]
REMARK SMILES IDX 6 1 7 2 8 3 9 4 10 5 11 6 5 7 4 8 3 9 2 10 1 11
REMARK H PARENT
REMARK Flexibility Score: inf
ROOT
ATOM      1  C   UNL     1     -44.430 -47.846  70.734  1.00  0.00     0.000 C 
ENDROOT
BRANCH   1   2
ATOM      2  C   UNL     1     -44.457 -46.401  71.255  1.00  0.00     0.006 C 
BRANCH   2   3
ATOM      3  C   UNL     1     -43.083 -45.922  71.742  1.00  0.00     0.053 C 
BRANCH   3   4
ATOM      4  C   UNL     1     -43.107 -45.687  73.220  1.00  0.00     0.041 C 
ATOM      5  O   UNL     1     -42.154 -46.084  73.940  1.00  0.00    -0.550 OA
ATOM      6  O   UNL     1     -44.205 -45.073  73.809  1.00  0.00    -0.550 OA
ENDBRANCH   3   4
ENDBRANCH   2   3
ENDBRANCH   1   2
BRANCH   1   7
ATOM      7  C   UNL     1     -45.835 -48.452  70.598  1.00  0.00     0.000 C 
BRANCH   7   8
ATOM      8  C   UNL     1     -46.903 -47.486  71.134  1.00  0.00    -0.000 C 
BRANCH   8   9
ATOM      9  C   UNL     1     -47.984 -47.160  70.092  1.00  0.00    -0.000 C 
BRANCH   9  10
ATOM     10  C   UNL     1     -47.844 -47.997  68.811  1.00  0.00    -0.003 C 
ATOM     11  C   UNL     1     -48.792 -47.500  67.724  1.00  0.00     0.004 C 
ENDBRANCH   9  10
ENDBRANCH   8   9
ENDBRANCH   7   8
ENDBRANCH   1   7
TORSDOF 7
ENDMDL
