MODEL 1
REMARK VINA RESULT:    -4.647      0.000      0.000
REMARK INTER + INTRA:          -7.929
REMARK INTER:                  -7.228
REMARK INTRA:                  -0.702
REMARK UNBOUND:                -0.702
REMARK SMILES COc1cc(CNC(=O)CCCCC=CC(C)C)ccc1O
REMARK SMILES IDX 11 1 12 2 13 3 14 4 15 5 16 6 17 7 18 8 10 9 8 10 9 11 7 12
REMARK SMILES IDX 6 14 5 15 4 16 19 17 3 18 20 19 21 20 2 21 1 22 22 23
REMARK H PARENT 7 13 22 24
REMARK Flexibility Score: inf
ROOT
ATOM      1  C   UNL     1      16.221  32.080  41.120  1.00  0.00     0.010 C 
ENDROOT
BRANCH   1   2
ATOM      2  C   UNL     1      14.895  32.810  41.377  1.00  0.00     0.005 C 
BRANCH   2   3
ATOM      3  C   UNL     1      13.684  31.875  41.219  1.00  0.00     0.027 C 
BRANCH   3   4
ATOM      4  C   UNL     1      12.392  32.641  41.054  1.00  0.00    -0.031 C 
ATOM      5  C   UNL     1      11.604  33.057  42.066  1.00  0.00    -0.028 C 
BRANCH   5   6
ATOM      6  C   UNL     1      11.853  32.789  43.536  1.00  0.00     0.005 C 
ATOM      7  C   UNL     1      10.521  32.784  44.290  1.00  0.00     0.012 C 
ATOM      8  C   UNL     1      12.790  33.858  44.105  1.00  0.00     0.012 C 
ENDBRANCH   5   6
ENDBRANCH   3   4
ENDBRANCH   2   3
ENDBRANCH   1   2
BRANCH   1   9
ATOM      9  C   UNL     1      17.218  32.994  40.399  1.00  0.00     0.100 C 
BRANCH   9  10
ATOM     10  C   UNL     1      18.619  32.679  40.828  1.00  0.00     0.220 C 
ATOM     11  O   UNL     1      18.845  32.378  42.032  1.00  0.00    -0.275 OA
ATOM     12  N   UNL     1      19.698  32.763  39.886  1.00  0.00    -0.352 N 
ATOM     13  H   UNL     1      19.489  32.992  38.887  1.00  0.00     0.163 HD
BRANCH  12  14
ATOM     14  C   UNL     1      21.097  32.621  40.283  1.00  0.00     0.151 C 
BRANCH  14  15
ATOM     15  C   UNL     1      21.683  33.974  40.583  1.00  0.00    -0.025 A 
ATOM     16  C   UNL     1      22.296  34.213  41.824  1.00  0.00     0.056 A 
ATOM     17  C   UNL     1      21.667  34.987  39.613  1.00  0.00     0.009 A 
ATOM     18  C   UNL     1      22.875  35.468  42.107  1.00  0.00     0.160 A 
ATOM     19  C   UNL     1      22.237  36.231  39.889  1.00  0.00     0.050 A 
ATOM     20  C   UNL     1      22.835  36.479  41.129  1.00  0.00     0.157 A 
BRANCH  18  21
ATOM     21  O   UNL     1      23.494  35.740  43.338  1.00  0.00    -0.493 OA
ATOM     22  C   UNL     1      24.621  35.034  43.851  1.00  0.00     0.278 C 
ENDBRANCH  18  21
BRANCH  20  23
ATOM     23  O   UNL     1      23.390  37.738  41.370  1.00  0.00    -0.504 OA
ATOM     24  H   UNL     1      22.864  38.596  41.232  1.00  0.00     0.293 HD
ENDBRANCH  20  23
ENDBRANCH  14  15
ENDBRANCH  12  14
ENDBRANCH   9  10
ENDBRANCH   1   9
TORSDOF 10
ENDMDL
MODEL 2
REMARK VINA RESULT:    -4.432      1.303      2.238
REMARK INTER + INTRA:          -7.595
REMARK INTER:                  -6.912
REMARK INTRA:                  -0.683
REMARK UNBOUND:                -0.702
REMARK SMILES COc1cc(CNC(=O)CCCCC=CC(C)C)ccc1O
REMARK SMILES IDX 11 1 12 2 13 3 14 4 15 5 16 6 17 7 18 8 10 9 8 10 9 11 7 12
REMARK SMILES IDX 6 14 5 15 4 16 19 17 3 18 20 19 21 20 2 21 1 22 22 23
REMARK H PARENT 7 13 22 24
REMARK Flexibility Score: inf
ROOT
ATOM      1  C   UNL     1      17.282  32.386  41.133  1.00  0.00     0.010 C 
ENDROOT
BRANCH   1   2
ATOM      2  C   UNL     1      16.048  31.948  40.330  1.00  0.00     0.005 C 
BRANCH   2   3
ATOM      3  C   UNL     1      14.786  31.879  41.205  1.00  0.00     0.027 C 
BRANCH   3   4
ATOM      4  C   UNL     1      14.392  33.233  41.745  1.00  0.00    -0.031 C 
ATOM      5  C   UNL     1      13.278  33.488  42.460  1.00  0.00    -0.028 C 
BRANCH   5   6
ATOM      6  C   UNL     1      12.209  32.471  42.807  1.00  0.00     0.005 C 
ATOM      7  C   UNL     1      11.265  32.293  41.615  1.00  0.00     0.012 C 
ATOM      8  C   UNL     1      11.435  32.935  44.044  1.00  0.00     0.012 C 
ENDBRANCH   5   6
ENDBRANCH   3   4
ENDBRANCH   2   3
ENDBRANCH   1   2
BRANCH   1   9
ATOM      9  C   UNL     1      18.058  33.479  40.392  1.00  0.00     0.100 C 
BRANCH   9  10
ATOM     10  C   UNL     1      19.466  33.036  40.134  1.00  0.00     0.220 C 
ATOM     11  O   UNL     1      19.826  31.880  40.488  1.00  0.00    -0.275 OA
ATOM     12  N   UNL     1      20.407  33.937  39.530  1.00  0.00    -0.352 N 
ATOM     13  H   UNL     1      20.085  34.883  39.222  1.00  0.00     0.163 HD
BRANCH  12  14
ATOM     14  C   UNL     1      21.826  33.614  39.399  1.00  0.00     0.151 C 
BRANCH  14  15
ATOM     15  C   UNL     1      22.538  33.907  40.692  1.00  0.00    -0.025 A 
ATOM     16  C   UNL     1      22.324  35.129  41.350  1.00  0.00     0.056 A 
ATOM     17  C   UNL     1      23.378  32.946  41.274  1.00  0.00     0.009 A 
ATOM     18  C   UNL     1      22.963  35.405  42.576  1.00  0.00     0.160 A 
ATOM     19  C   UNL     1      24.015  33.214  42.487  1.00  0.00     0.050 A 
ATOM     20  C   UNL     1      23.817  34.437  43.138  1.00  0.00     0.157 A 
BRANCH  18  21
ATOM     21  O   UNL     1      22.771  36.617  43.258  1.00  0.00    -0.493 OA
ATOM     22  C   UNL     1      22.446  37.856  42.633  1.00  0.00     0.278 C 
ENDBRANCH  18  21
BRANCH  20  23
ATOM     23  O   UNL     1      24.475  34.670  44.347  1.00  0.00    -0.504 OA
ATOM     24  H   UNL     1      24.328  34.086  45.165  1.00  0.00     0.293 HD
ENDBRANCH  20  23
ENDBRANCH  14  15
ENDBRANCH  12  14
ENDBRANCH   9  10
ENDBRANCH   1   9
TORSDOF 10
ENDMDL
MODEL 3
REMARK VINA RESULT:    -3.757      3.864      8.556
REMARK INTER + INTRA:          -6.545
REMARK INTER:                  -5.270
REMARK INTRA:                  -1.276
REMARK UNBOUND:                -0.702
REMARK SMILES COc1cc(CNC(=O)CCCCC=CC(C)C)ccc1O
REMARK SMILES IDX 11 1 12 2 13 3 14 4 15 5 16 6 17 7 18 8 10 9 8 10 9 11 7 12
REMARK SMILES IDX 6 14 5 15 4 16 19 17 3 18 20 19 21 20 2 21 1 22 22 23
REMARK H PARENT 7 13 22 24
REMARK Flexibility Score: inf
ROOT
ATOM      1  C   UNL     1      24.201  32.733  43.437  1.00  0.00     0.010 C 
ENDROOT
BRANCH   1   2
ATOM      2  C   UNL     1      25.125  33.775  44.085  1.00  0.00     0.005 C 
BRANCH   2   3
ATOM      3  C   UNL     1      24.474  35.167  44.140  1.00  0.00     0.027 C 
BRANCH   3   4
ATOM      4  C   UNL     1      25.044  36.102  43.102  1.00  0.00    -0.031 C 
ATOM      5  C   UNL     1      24.316  36.815  42.218  1.00  0.00    -0.028 C 
BRANCH   5   6
ATOM      6  C   UNL     1      22.807  36.765  42.086  1.00  0.00     0.005 C 
ATOM      7  C   UNL     1      22.430  36.484  40.629  1.00  0.00     0.012 C 
ATOM      8  C   UNL     1      22.202  38.092  42.553  1.00  0.00     0.012 C 
ENDBRANCH   5   6
ENDBRANCH   3   4
ENDBRANCH   2   3
ENDBRANCH   1   2
BRANCH   1   9
ATOM      9  C   UNL     1      24.855  32.118  42.196  1.00  0.00     0.100 C 
BRANCH   9  10
ATOM     10  C   UNL     1      24.129  32.547  40.957  1.00  0.00     0.220 C 
ATOM     11  O   UNL     1      24.601  33.481  40.253  1.00  0.00    -0.275 OA
ATOM     12  N   UNL     1      22.884  31.927  40.600  1.00  0.00    -0.352 N 
ATOM     13  H   UNL     1      22.520  31.138  41.182  1.00  0.00     0.163 HD
BRANCH  12  14
ATOM     14  C   UNL     1      22.059  32.409  39.495  1.00  0.00     0.151 C 
BRANCH  14  15
ATOM     15  C   UNL     1      20.631  32.549  39.947  1.00  0.00    -0.025 A 
ATOM     16  C   UNL     1      19.583  32.374  39.029  1.00  0.00     0.056 A 
ATOM     17  C   UNL     1      20.333  32.805  41.294  1.00  0.00     0.009 A 
ATOM     18  C   UNL     1      18.239  32.475  39.446  1.00  0.00     0.160 A 
ATOM     19  C   UNL     1      19.006  32.908  41.713  1.00  0.00     0.050 A 
ATOM     20  C   UNL     1      17.958  32.749  40.798  1.00  0.00     0.157 A 
BRANCH  18  21
ATOM     21  O   UNL     1      17.169  32.306  38.552  1.00  0.00    -0.493 OA
ATOM     22  C   UNL     1      17.253  32.499  37.143  1.00  0.00     0.278 C 
ENDBRANCH  18  21
BRANCH  20  23
ATOM     23  O   UNL     1      16.643  32.864  41.253  1.00  0.00    -0.504 OA
ATOM     24  H   UNL     1      16.423  33.081  42.220  1.00  0.00     0.293 HD
ENDBRANCH  20  23
ENDBRANCH  14  15
ENDBRANCH  12  14
ENDBRANCH   9  10
ENDBRANCH   1   9
TORSDOF 10
ENDMDL
MODEL 4
REMARK VINA RESULT:    -3.602      3.668      8.516
REMARK INTER + INTRA:          -6.305
REMARK INTER:                  -4.990
REMARK INTRA:                  -1.314
REMARK UNBOUND:                -0.702
REMARK SMILES COc1cc(CNC(=O)CCCCC=CC(C)C)ccc1O
REMARK SMILES IDX 11 1 12 2 13 3 14 4 15 5 16 6 17 7 18 8 10 9 8 10 9 11 7 12
REMARK SMILES IDX 6 14 5 15 4 16 19 17 3 18 20 19 21 20 2 21 1 22 22 23
REMARK H PARENT 7 13 22 24
REMARK Flexibility Score: inf
ROOT
ATOM      1  C   UNL     1      25.011  32.840  42.414  1.00  0.00     0.010 C 
ENDROOT
BRANCH   1   2
ATOM      2  C   UNL     1      24.940  33.255  43.890  1.00  0.00     0.005 C 
BRANCH   2   3
ATOM      3  C   UNL     1      24.476  34.711  44.057  1.00  0.00     0.027 C 
BRANCH   3   4
ATOM      4  C   UNL     1      25.114  35.631  43.044  1.00  0.00    -0.031 C 
ATOM      5  C   UNL     1      24.441  36.443  42.203  1.00  0.00    -0.028 C 
BRANCH   5   6
ATOM      6  C   UNL     1      22.932  36.537  42.098  1.00  0.00     0.005 C 
ATOM      7  C   UNL     1      22.510  36.397  40.634  1.00  0.00     0.012 C 
ATOM      8  C   UNL     1      22.456  37.875  42.671  1.00  0.00     0.012 C 
ENDBRANCH   5   6
ENDBRANCH   3   4
ENDBRANCH   2   3
ENDBRANCH   1   2
BRANCH   1   9
ATOM      9  C   UNL     1      23.611  32.560  41.856  1.00  0.00     0.100 C 
BRANCH   9  10
ATOM     10  C   UNL     1      23.549  32.910  40.401  1.00  0.00     0.220 C 
ATOM     11  O   UNL     1      24.553  33.436  39.847  1.00  0.00    -0.275 OA
ATOM     12  N   UNL     1      22.343  32.688  39.656  1.00  0.00    -0.352 N 
ATOM     13  H   UNL     1      21.528  32.230  40.125  1.00  0.00     0.163 HD
BRANCH  12  14
ATOM     14  C   UNL     1      22.175  33.153  38.281  1.00  0.00     0.151 C 
BRANCH  14  15
ATOM     15  C   UNL     1      20.729  33.045  37.878  1.00  0.00    -0.025 A 
ATOM     16  C   UNL     1      19.743  32.829  38.853  1.00  0.00     0.056 A 
ATOM     17  C   UNL     1      20.351  33.209  36.537  1.00  0.00     0.009 A 
ATOM     18  C   UNL     1      18.381  32.754  38.492  1.00  0.00     0.160 A 
ATOM     19  C   UNL     1      19.006  33.133  36.173  1.00  0.00     0.050 A 
ATOM     20  C   UNL     1      18.021  32.903  37.140  1.00  0.00     0.157 A 
BRANCH  18  21
ATOM     21  O   UNL     1      17.371  32.537  39.443  1.00  0.00    -0.493 OA
ATOM     22  C   UNL     1      17.451  32.924  40.812  1.00  0.00     0.278 C 
ENDBRANCH  18  21
BRANCH  20  23
ATOM     23  O   UNL     1      16.686  32.829  36.736  1.00  0.00    -0.504 OA
ATOM     24  H   UNL     1      16.209  33.612  36.300  1.00  0.00     0.293 HD
ENDBRANCH  20  23
ENDBRANCH  14  15
ENDBRANCH  12  14
ENDBRANCH   9  10
ENDBRANCH   1   9
TORSDOF 10
ENDMDL
MODEL 5
REMARK VINA RESULT:    -3.546      4.268      8.293
REMARK INTER + INTRA:          -6.217
REMARK INTER:                  -5.109
REMARK INTRA:                  -1.108
REMARK UNBOUND:                -0.702
REMARK SMILES COc1cc(CNC(=O)CCCCC=CC(C)C)ccc1O
REMARK SMILES IDX 11 1 12 2 13 3 14 4 15 5 16 6 17 7 18 8 10 9 8 10 9 11 7 12
REMARK SMILES IDX 6 14 5 15 4 16 19 17 3 18 20 19 21 20 2 21 1 22 22 23
REMARK H PARENT 7 13 22 24
REMARK Flexibility Score: inf
ROOT
ATOM      1  C   UNL     1      24.005  32.703  42.786  1.00  0.00     0.010 C 
ENDROOT
BRANCH   1   2
ATOM      2  C   UNL     1      24.970  33.353  43.788  1.00  0.00     0.005 C 
BRANCH   2   3
ATOM      3  C   UNL     1      24.741  34.869  43.908  1.00  0.00     0.027 C 
BRANCH   3   4
ATOM      4  C   UNL     1      23.280  35.234  43.798  1.00  0.00    -0.031 C 
ATOM      5  C   UNL     1      22.750  36.032  42.849  1.00  0.00    -0.028 C 
BRANCH   5   6
ATOM      6  C   UNL     1      23.535  36.735  41.760  1.00  0.00     0.005 C 
ATOM      7  C   UNL     1      24.271  37.939  42.353  1.00  0.00     0.012 C 
ATOM      8  C   UNL     1      22.585  37.180  40.644  1.00  0.00     0.012 C 
ENDBRANCH   5   6
ENDBRANCH   3   4
ENDBRANCH   2   3
ENDBRANCH   1   2
BRANCH   1   9
ATOM      9  C   UNL     1      24.774  31.988  41.670  1.00  0.00     0.100 C 
BRANCH   9  10
ATOM     10  C   UNL     1      24.590  32.705  40.367  1.00  0.00     0.220 C 
ATOM     11  O   UNL     1      24.958  33.907  40.264  1.00  0.00    -0.275 OA
ATOM     12  N   UNL     1      23.961  32.041  39.260  1.00  0.00    -0.352 N 
ATOM     13  H   UNL     1      23.683  31.037  39.357  1.00  0.00     0.163 HD
BRANCH  12  14
ATOM     14  C   UNL     1      23.616  32.737  38.023  1.00  0.00     0.151 C 
BRANCH  14  15
ATOM     15  C   UNL     1      22.120  32.801  37.873  1.00  0.00    -0.025 A 
ATOM     16  C   UNL     1      21.323  33.219  38.951  1.00  0.00     0.056 A 
ATOM     17  C   UNL     1      21.515  32.494  36.644  1.00  0.00     0.009 A 
ATOM     18  C   UNL     1      19.922  33.310  38.814  1.00  0.00     0.160 A 
ATOM     19  C   UNL     1      20.129  32.581  36.504  1.00  0.00     0.050 A 
ATOM     20  C   UNL     1      19.330  32.982  37.580  1.00  0.00     0.157 A 
BRANCH  18  21
ATOM     21  O   UNL     1      19.098  33.723  39.873  1.00  0.00    -0.493 OA
ATOM     22  C   UNL     1      18.767  32.920  41.003  1.00  0.00     0.278 C 
ENDBRANCH  18  21
BRANCH  20  23
ATOM     23  O   UNL     1      17.947  33.053  37.403  1.00  0.00    -0.504 OA
ATOM     24  H   UNL     1      17.424  33.908  37.562  1.00  0.00     0.293 HD
ENDBRANCH  20  23
ENDBRANCH  14  15
ENDBRANCH  12  14
ENDBRANCH   9  10
ENDBRANCH   1   9
TORSDOF 10
ENDMDL
MODEL 6
REMARK VINA RESULT:    -3.436      1.668      2.256
REMARK INTER + INTRA:          -6.046
REMARK INTER:                  -5.874
REMARK INTRA:                  -0.172
REMARK UNBOUND:                -0.702
REMARK SMILES COc1cc(CNC(=O)CCCCC=CC(C)C)ccc1O
REMARK SMILES IDX 11 1 12 2 13 3 14 4 15 5 16 6 17 7 18 8 10 9 8 10 9 11 7 12
REMARK SMILES IDX 6 14 5 15 4 16 19 17 3 18 20 19 21 20 2 21 1 22 22 23
REMARK H PARENT 7 13 22 24
REMARK Flexibility Score: inf
ROOT
ATOM      1  C   UNL     1      15.396  32.753  41.103  1.00  0.00     0.010 C 
ENDROOT
BRANCH   1   2
ATOM      2  C   UNL     1      14.145  31.877  40.942  1.00  0.00     0.005 C 
BRANCH   2   3
ATOM      3  C   UNL     1      13.277  31.875  42.211  1.00  0.00     0.027 C 
BRANCH   3   4
ATOM      4  C   UNL     1      13.122  33.259  42.796  1.00  0.00    -0.031 C 
ATOM      5  C   UNL     1      12.086  33.666  43.557  1.00  0.00    -0.028 C 
BRANCH   5   6
ATOM      6  C   UNL     1      10.880  32.822  43.918  1.00  0.00     0.005 C 
ATOM      7  C   UNL     1      10.288  32.204  42.649  1.00  0.00     0.012 C 
ATOM      8  C   UNL     1       9.838  33.686  44.634  1.00  0.00     0.012 C 
ENDBRANCH   5   6
ENDBRANCH   3   4
ENDBRANCH   2   3
ENDBRANCH   1   2
BRANCH   1   9
ATOM      9  C   UNL     1      16.666  31.895  41.115  1.00  0.00     0.100 C 
BRANCH   9  10
ATOM     10  C   UNL     1      17.529  32.224  39.935  1.00  0.00     0.220 C 
ATOM     11  O   UNL     1      17.005  32.319  38.791  1.00  0.00    -0.275 OA
ATOM     12  N   UNL     1      18.946  32.388  40.100  1.00  0.00    -0.352 N 
ATOM     13  H   UNL     1      19.359  32.330  41.059  1.00  0.00     0.163 HD
BRANCH  12  14
ATOM     14  C   UNL     1      19.852  32.554  38.967  1.00  0.00     0.151 C 
BRANCH  14  15
ATOM     15  C   UNL     1      21.223  32.930  39.459  1.00  0.00    -0.025 A 
ATOM     16  C   UNL     1      21.369  33.605  40.682  1.00  0.00     0.056 A 
ATOM     17  C   UNL     1      22.365  32.566  38.730  1.00  0.00     0.009 A 
ATOM     18  C   UNL     1      22.650  33.938  41.169  1.00  0.00     0.160 A 
ATOM     19  C   UNL     1      23.635  32.895  39.206  1.00  0.00     0.050 A 
ATOM     20  C   UNL     1      23.785  33.581  40.416  1.00  0.00     0.157 A 
BRANCH  18  21
ATOM     21  O   UNL     1      22.830  34.613  42.387  1.00  0.00    -0.493 OA
ATOM     22  C   UNL     1      22.606  36.007  42.581  1.00  0.00     0.278 C 
ENDBRANCH  18  21
BRANCH  20  23
ATOM     23  O   UNL     1      25.072  33.896  40.857  1.00  0.00    -0.504 OA
ATOM     24  H   UNL     1      25.805  34.191  40.219  1.00  0.00     0.293 HD
ENDBRANCH  20  23
ENDBRANCH  14  15
ENDBRANCH  12  14
ENDBRANCH   9  10
ENDBRANCH   1   9
TORSDOF 10
ENDMDL
MODEL 7
REMARK VINA RESULT:    -3.385      3.642      8.612
REMARK INTER + INTRA:          -5.966
REMARK INTER:                  -4.717
REMARK INTRA:                  -1.249
REMARK UNBOUND:                -0.702
REMARK SMILES COc1cc(CNC(=O)CCCCC=CC(C)C)ccc1O
REMARK SMILES IDX 11 1 12 2 13 3 14 4 15 5 16 6 17 7 18 8 10 9 8 10 9 11 7 12
REMARK SMILES IDX 6 14 5 15 4 16 19 17 3 18 20 19 21 20 2 21 1 22 22 23
REMARK H PARENT 7 13 22 24
REMARK Flexibility Score: inf
ROOT
ATOM      1  C   UNL     1      22.066  36.357  42.111  1.00  0.00     0.010 C 
ENDROOT
BRANCH   1   2
ATOM      2  C   UNL     1      22.586  35.413  43.205  1.00  0.00     0.005 C 
BRANCH   2   3
ATOM      3  C   UNL     1      24.107  35.540  43.399  1.00  0.00     0.027 C 
BRANCH   3   4
ATOM      4  C   UNL     1      24.732  34.241  43.850  1.00  0.00    -0.031 C 
ATOM      5  C   UNL     1      24.731  33.094  43.142  1.00  0.00    -0.028 C 
BRANCH   5   6
ATOM      6  C   UNL     1      24.065  32.898  41.795  1.00  0.00     0.005 C 
ATOM      7  C   UNL     1      22.933  31.875  41.927  1.00  0.00     0.012 C 
ATOM      8  C   UNL     1      25.100  32.426  40.769  1.00  0.00     0.012 C 
ENDBRANCH   5   6
ENDBRANCH   3   4
ENDBRANCH   2   3
ENDBRANCH   1   2
BRANCH   1   9
ATOM      9  C   UNL     1      22.921  36.251  40.844  1.00  0.00     0.100 C 
BRANCH   9  10
ATOM     10  C   UNL     1      22.110  35.695  39.713  1.00  0.00     0.220 C 
ATOM     11  O   UNL     1      21.481  36.483  38.956  1.00  0.00    -0.275 OA
ATOM     12  N   UNL     1      22.018  34.275  39.520  1.00  0.00    -0.352 N 
ATOM     13  H   UNL     1      22.566  33.638  40.143  1.00  0.00     0.163 HD
BRANCH  12  14
ATOM     14  C   UNL     1      21.122  33.676  38.535  1.00  0.00     0.151 C 
BRANCH  14  15
ATOM     15  C   UNL     1      19.828  33.282  39.194  1.00  0.00    -0.025 A 
ATOM     16  C   UNL     1      18.765  32.793  38.417  1.00  0.00     0.056 A 
ATOM     17  C   UNL     1      19.690  33.353  40.588  1.00  0.00     0.009 A 
ATOM     18  C   UNL     1      17.556  32.394  39.026  1.00  0.00     0.160 A 
ATOM     19  C   UNL     1      18.495  32.961  41.196  1.00  0.00     0.050 A 
ATOM     20  C   UNL     1      17.428  32.487  40.424  1.00  0.00     0.157 A 
BRANCH  18  21
ATOM     21  O   UNL     1      16.475  31.902  38.278  1.00  0.00    -0.493 OA
ATOM     22  C   UNL     1      16.318  32.073  36.872  1.00  0.00     0.278 C 
ENDBRANCH  18  21
BRANCH  20  23
ATOM     23  O   UNL     1      16.248  32.110  41.068  1.00  0.00    -0.504 OA
ATOM     24  H   UNL     1      15.472  31.684  40.569  1.00  0.00     0.293 HD
ENDBRANCH  20  23
ENDBRANCH  14  15
ENDBRANCH  12  14
ENDBRANCH   9  10
ENDBRANCH   1   9
TORSDOF 10
ENDMDL
MODEL 8
REMARK VINA RESULT:    -3.366      3.310      8.711
REMARK INTER + INTRA:          -5.937
REMARK INTER:                  -4.948
REMARK INTRA:                  -0.990
REMARK UNBOUND:                -0.702
REMARK SMILES COc1cc(CNC(=O)CCCCC=CC(C)C)ccc1O
REMARK SMILES IDX 11 1 12 2 13 3 14 4 15 5 16 6 17 7 18 8 10 9 8 10 9 11 7 12
REMARK SMILES IDX 6 14 5 15 4 16 19 17 3 18 20 19 21 20 2 21 1 22 22 23
REMARK H PARENT 7 13 22 24
REMARK Flexibility Score: inf
ROOT
ATOM      1  C   UNL     1      21.713  36.693  40.399  1.00  0.00     0.010 C 
ENDROOT
BRANCH   1   2
ATOM      2  C   UNL     1      23.117  37.135  40.835  1.00  0.00     0.005 C 
BRANCH   2   3
ATOM      3  C   UNL     1      23.166  37.512  42.325  1.00  0.00     0.027 C 
BRANCH   3   4
ATOM      4  C   UNL     1      22.488  36.480  43.194  1.00  0.00    -0.031 C 
ATOM      5  C   UNL     1      23.020  35.292  43.544  1.00  0.00    -0.028 C 
BRANCH   5   6
ATOM      6  C   UNL     1      24.368  34.769  43.089  1.00  0.00     0.005 C 
ATOM      7  C   UNL     1      24.174  33.796  41.923  1.00  0.00     0.012 C 
ATOM      8  C   UNL     1      25.076  34.076  44.257  1.00  0.00     0.012 C 
ENDBRANCH   5   6
ENDBRANCH   3   4
ENDBRANCH   2   3
ENDBRANCH   1   2
BRANCH   1   9
ATOM      9  C   UNL     1      21.722  36.192  38.951  1.00  0.00     0.100 C 
BRANCH   9  10
ATOM     10  C   UNL     1      21.273  34.764  38.890  1.00  0.00     0.220 C 
ATOM     11  O   UNL     1      21.279  34.067  39.941  1.00  0.00    -0.275 OA
ATOM     12  N   UNL     1      20.882  34.183  37.637  1.00  0.00    -0.352 N 
ATOM     13  H   UNL     1      20.861  34.782  36.780  1.00  0.00     0.163 HD
BRANCH  12  14
ATOM     14  C   UNL     1      20.587  32.760  37.492  1.00  0.00     0.151 C 
BRANCH  14  15
ATOM     15  C   UNL     1      19.106  32.559  37.323  1.00  0.00    -0.025 A 
ATOM     16  C   UNL     1      18.300  32.299  38.444  1.00  0.00     0.056 A 
ATOM     17  C   UNL     1      18.512  32.679  36.058  1.00  0.00     0.009 A 
ATOM     18  C   UNL     1      16.906  32.137  38.302  1.00  0.00     0.160 A 
ATOM     19  C   UNL     1      17.133  32.518  35.912  1.00  0.00     0.050 A 
ATOM     20  C   UNL     1      16.328  32.244  37.024  1.00  0.00     0.157 A 
BRANCH  18  21
ATOM     21  O   UNL     1      16.073  31.875  39.402  1.00  0.00    -0.493 OA
ATOM     22  C   UNL     1      16.381  32.219  40.751  1.00  0.00     0.278 C 
ENDBRANCH  18  21
BRANCH  20  23
ATOM     23  O   UNL     1      14.954  32.084  36.837  1.00  0.00    -0.504 OA
ATOM     24  H   UNL     1      14.270  32.549  37.427  1.00  0.00     0.293 HD
ENDBRANCH  20  23
ENDBRANCH  14  15
ENDBRANCH  12  14
ENDBRANCH   9  10
ENDBRANCH   1   9
TORSDOF 10
ENDMDL
