MODEL 1
REMARK VINA RESULT:    -3.069      0.000      0.000
REMARK INTER + INTRA:          -3.885
REMARK INTER:                  -3.786
REMARK INTRA:                  -0.099
REMARK UNBOUND:                -0.099
REMARK SMILES CCCCCC(=O)[O-]
REMARK SMILES IDX 4 1 5 2 6 3 7 4 8 5 3 6 2 7 1 8
REMARK H PARENT
REMARK Flexibility Score: inf
ROOT
ATOM      1  C   UNL     1      55.538  28.923  50.513  1.00  0.00     0.006 C 
ENDROOT
BRANCH   1   2
ATOM      2  C   UNL     1      56.899  28.255  50.271  1.00  0.00     0.053 C 
BRANCH   2   3
ATOM      3  C   UNL     1      57.993  29.266  50.115  1.00  0.00     0.041 C 
ATOM      4  O   UNL     1      58.390  29.930  51.108  1.00  0.00    -0.550 OA
ATOM      5  O   UNL     1      58.594  29.454  48.877  1.00  0.00    -0.550 OA
ENDBRANCH   2   3
ENDBRANCH   1   2
BRANCH   1   6
ATOM      6  C   UNL     1      54.369  28.047  50.034  1.00  0.00     0.000 C 
BRANCH   6   7
ATOM      7  C   UNL     1      54.806  26.612  49.698  1.00  0.00    -0.003 C 
ATOM      8  C   UNL     1      53.691  25.788  49.054  1.00  0.00     0.004 C 
ENDBRANCH   6   7
ENDBRANCH   1   6
TORSDOF 4
ENDMDL
MODEL 2
REMARK VINA RESULT:    -2.981     13.200     14.312
REMARK INTER + INTRA:          -3.777
REMARK INTER:                  -3.646
REMARK INTRA:                  -0.131
REMARK UNBOUND:                -0.099
REMARK SMILES CCCCCC(=O)[O-]
REMARK SMILES IDX 4 1 5 2 6 3 7 4 8 5 3 6 2 7 1 8
REMARK H PARENT
REMARK Flexibility Score: inf
ROOT
ATOM      1  C   UNL     1      61.526  33.343  60.445  1.00  0.00     0.006 C 
ENDROOT
BRANCH   1   2
ATOM      2  C   UNL     1      62.369  32.097  60.749  1.00  0.00     0.053 C 
BRANCH   2   3
ATOM      3  C   UNL     1      61.648  31.144  61.652  1.00  0.00     0.041 C 
ATOM      4  O   UNL     1      62.188  30.058  61.991  1.00  0.00    -0.550 OA
ATOM      5  O   UNL     1      60.389  31.469  62.143  1.00  0.00    -0.550 OA
ENDBRANCH   2   3
ENDBRANCH   1   2
BRANCH   1   6
ATOM      6  C   UNL     1      62.302  34.645  60.704  1.00  0.00     0.000 C 
BRANCH   6   7
ATOM      7  C   UNL     1      63.773  34.392  61.069  1.00  0.00    -0.003 C 
ATOM      8  C   UNL     1      64.399  35.551  61.845  1.00  0.00     0.004 C 
ENDBRANCH   6   7
ENDBRANCH   1   6
TORSDOF 4
ENDMDL
MODEL 3
REMARK VINA RESULT:    -2.938     13.260     13.920
REMARK INTER + INTRA:          -3.724
REMARK INTER:                  -3.654
REMARK INTRA:                  -0.071
REMARK UNBOUND:                -0.099
REMARK SMILES CCCCCC(=O)[O-]
REMARK SMILES IDX 4 1 5 2 6 3 7 4 8 5 3 6 2 7 1 8
REMARK H PARENT
REMARK Flexibility Score: inf
ROOT
ATOM      1  C   UNL     1      62.143  33.092  60.694  1.00  0.00     0.006 C 
ENDROOT
BRANCH   1   2
ATOM      2  C   UNL     1      61.978  34.600  60.458  1.00  0.00     0.053 C 
BRANCH   2   3
ATOM      3  C   UNL     1      62.988  35.396  61.225  1.00  0.00     0.041 C 
ATOM      4  O   UNL     1      62.724  36.572  61.590  1.00  0.00    -0.550 OA
ATOM      5  O   UNL     1      64.210  34.829  61.562  1.00  0.00    -0.550 OA
ENDBRANCH   2   3
ENDBRANCH   1   2
BRANCH   1   6
ATOM      6  C   UNL     1      60.790  32.369  60.790  1.00  0.00     0.000 C 
BRANCH   6   7
ATOM      7  C   UNL     1      60.792  31.250  61.844  1.00  0.00    -0.003 C 
ATOM      8  C   UNL     1      62.081  30.428  61.832  1.00  0.00     0.004 C 
ENDBRANCH   6   7
ENDBRANCH   1   6
TORSDOF 4
ENDMDL
MODEL 4
REMARK VINA RESULT:    -2.901      0.947      1.613
REMARK INTER + INTRA:          -3.678
REMARK INTER:                  -3.598
REMARK INTRA:                  -0.080
REMARK UNBOUND:                -0.099
REMARK SMILES CCCCCC(=O)[O-]
REMARK SMILES IDX 4 1 5 2 6 3 7 4 8 5 3 6 2 7 1 8
REMARK H PARENT
REMARK Flexibility Score: inf
ROOT
ATOM      1  C   UNL     1      55.887  28.464  50.542  1.00  0.00     0.006 C 
ENDROOT
BRANCH   1   2
ATOM      2  C   UNL     1      57.320  28.046  50.186  1.00  0.00     0.053 C 
BRANCH   2   3
ATOM      3  C   UNL     1      58.227  29.231  50.048  1.00  0.00     0.041 C 
ATOM      4  O   UNL     1      58.588  29.875  51.068  1.00  0.00    -0.550 OA
ATOM      5  O   UNL     1      58.694  29.607  48.795  1.00  0.00    -0.550 OA
ENDBRANCH   2   3
ENDBRANCH   1   2
BRANCH   1   6
ATOM      6  C   UNL     1      54.846  27.450  50.040  1.00  0.00     0.000 C 
BRANCH   6   7
ATOM      7  C   UNL     1      53.492  28.104  49.721  1.00  0.00    -0.003 C 
ATOM      8  C   UNL     1      53.416  29.561  50.177  1.00  0.00     0.004 C 
ENDBRANCH   6   7
ENDBRANCH   1   6
TORSDOF 4
ENDMDL
MODEL 5
REMARK VINA RESULT:    -2.867      1.550      2.169
REMARK INTER + INTRA:          -3.637
REMARK INTER:                  -3.539
REMARK INTRA:                  -0.098
REMARK UNBOUND:                -0.099
REMARK SMILES CCCCCC(=O)[O-]
REMARK SMILES IDX 4 1 5 2 6 3 7 4 8 5 3 6 2 7 1 8
REMARK H PARENT
REMARK Flexibility Score: inf
ROOT
ATOM      1  C   UNL     1      57.020  27.962  50.382  1.00  0.00     0.006 C 
ENDROOT
BRANCH   1   2
ATOM      2  C   UNL     1      58.188  28.734  49.753  1.00  0.00     0.053 C 
BRANCH   2   3
ATOM      3  C   UNL     1      59.292  27.818  49.322  1.00  0.00     0.041 C 
ATOM      4  O   UNL     1      60.415  28.287  48.999  1.00  0.00    -0.550 OA
ATOM      5  O   UNL     1      59.089  26.444  49.305  1.00  0.00    -0.550 OA
ENDBRANCH   2   3
ENDBRANCH   1   2
BRANCH   1   6
ATOM      6  C   UNL     1      55.745  28.815  50.476  1.00  0.00     0.000 C 
BRANCH   6   7
ATOM      7  C   UNL     1      54.482  28.035  50.077  1.00  0.00    -0.003 C 
ATOM      8  C   UNL     1      54.779  26.588  49.686  1.00  0.00     0.004 C 
ENDBRANCH   6   7
ENDBRANCH   1   6
TORSDOF 4
ENDMDL
MODEL 6
REMARK VINA RESULT:    -2.845     13.441     14.539
REMARK INTER + INTRA:          -3.609
REMARK INTER:                  -3.552
REMARK INTRA:                  -0.057
REMARK UNBOUND:                -0.099
REMARK SMILES CCCCCC(=O)[O-]
REMARK SMILES IDX 4 1 5 2 6 3 7 4 8 5 3 6 2 7 1 8
REMARK H PARENT
REMARK Flexibility Score: inf
ROOT
ATOM      1  C   UNL     1      62.557  34.355  60.626  1.00  0.00     0.006 C 
ENDROOT
BRANCH   1   2
ATOM      2  C   UNL     1      63.855  34.771  61.331  1.00  0.00     0.053 C 
BRANCH   2   3
ATOM      3  C   UNL     1      63.841  36.220  61.710  1.00  0.00     0.041 C 
ATOM      4  O   UNL     1      64.906  36.795  62.058  1.00  0.00    -0.550 OA
ATOM      5  O   UNL     1      62.656  36.943  61.653  1.00  0.00    -0.550 OA
ENDBRANCH   2   3
ENDBRANCH   1   2
BRANCH   1   6
ATOM      6  C   UNL     1      62.365  32.829  60.618  1.00  0.00     0.000 C 
BRANCH   6   7
ATOM      7  C   UNL     1      60.897  32.419  60.814  1.00  0.00    -0.003 C 
ATOM      8  C   UNL     1      60.734  31.248  61.784  1.00  0.00     0.004 C 
ENDBRANCH   6   7
ENDBRANCH   1   6
TORSDOF 4
ENDMDL
MODEL 7
REMARK VINA RESULT:    -2.843      2.704      4.165
REMARK INTER + INTRA:          -3.607
REMARK INTER:                  -3.468
REMARK INTRA:                  -0.138
REMARK UNBOUND:                -0.099
REMARK SMILES CCCCCC(=O)[O-]
REMARK SMILES IDX 4 1 5 2 6 3 7 4 8 5 3 6 2 7 1 8
REMARK H PARENT
REMARK Flexibility Score: inf
ROOT
ATOM      1  C   UNL     1      57.205  28.381  50.585  1.00  0.00     0.006 C 
ENDROOT
BRANCH   1   2
ATOM      2  C   UNL     1      55.719  28.748  50.461  1.00  0.00     0.053 C 
BRANCH   2   3
ATOM      3  C   UNL     1      54.906  27.602  49.943  1.00  0.00     0.041 C 
ATOM      4  O   UNL     1      53.700  27.773  49.623  1.00  0.00    -0.550 OA
ATOM      5  O   UNL     1      55.488  26.350  49.786  1.00  0.00    -0.550 OA
ENDBRANCH   2   3
ENDBRANCH   1   2
BRANCH   1   6
ATOM      6  C   UNL     1      58.103  29.317  49.759  1.00  0.00     0.000 C 
BRANCH   6   7
ATOM      7  C   UNL     1      59.244  28.567  49.053  1.00  0.00    -0.003 C 
ATOM      8  C   UNL     1      59.293  27.083  49.417  1.00  0.00     0.004 C 
ENDBRANCH   6   7
ENDBRANCH   1   6
TORSDOF 4
ENDMDL
MODEL 8
REMARK VINA RESULT:    -2.788     13.560     14.827
REMARK INTER + INTRA:          -3.539
REMARK INTER:                  -3.460
REMARK INTRA:                  -0.079
REMARK UNBOUND:                -0.099
REMARK SMILES CCCCCC(=O)[O-]
REMARK SMILES IDX 4 1 5 2 6 3 7 4 8 5 3 6 2 7 1 8
REMARK H PARENT
REMARK Flexibility Score: inf
ROOT
ATOM      1  C   UNL     1      63.690  33.741  61.035  1.00  0.00     0.006 C 
ENDROOT
BRANCH   1   2
ATOM      2  C   UNL     1      63.283  32.451  60.310  1.00  0.00     0.053 C 
BRANCH   2   3
ATOM      3  C   UNL     1      63.913  31.242  60.932  1.00  0.00     0.041 C 
ATOM      4  O   UNL     1      63.301  30.595  61.823  1.00  0.00    -0.550 OA
ATOM      5  O   UNL     1      65.164  30.814  60.507  1.00  0.00    -0.550 OA
ENDBRANCH   2   3
ENDBRANCH   1   2
BRANCH   1   6
ATOM      6  C   UNL     1      62.688  34.882  60.794  1.00  0.00     0.000 C 
BRANCH   6   7
ATOM      7  C   UNL     1      63.116  36.195  61.468  1.00  0.00    -0.003 C 
ATOM      8  C   UNL     1      64.557  36.158  61.977  1.00  0.00     0.004 C 
ENDBRANCH   6   7
ENDBRANCH   1   6
TORSDOF 4
ENDMDL
MODEL 9
REMARK VINA RESULT:    -2.655      2.281      2.917
REMARK INTER + INTRA:          -3.375
REMARK INTER:                  -3.326
REMARK INTRA:                  -0.049
REMARK UNBOUND:                -0.099
REMARK SMILES CCCCCC(=O)[O-]
REMARK SMILES IDX 4 1 5 2 6 3 7 4 8 5 3 6 2 7 1 8
REMARK H PARENT
REMARK Flexibility Score: inf
ROOT
ATOM      1  C   UNL     1      56.678  27.654  50.394  1.00  0.00     0.006 C 
ENDROOT
BRANCH   1   2
ATOM      2  C   UNL     1      57.254  26.256  50.134  1.00  0.00     0.053 C 
BRANCH   2   3
ATOM      3  C   UNL     1      58.708  26.311  49.777  1.00  0.00     0.041 C 
ATOM      4  O   UNL     1      59.181  27.327  49.202  1.00  0.00    -0.550 OA
ATOM      5  O   UNL     1      59.545  25.253  50.104  1.00  0.00    -0.550 OA
ENDBRANCH   2   3
ENDBRANCH   1   2
BRANCH   1   6
ATOM      6  C   UNL     1      55.164  27.716  50.129  1.00  0.00     0.000 C 
BRANCH   6   7
ATOM      7  C   UNL     1      54.572  29.105  50.414  1.00  0.00    -0.003 C 
ATOM      8  C   UNL     1      53.086  29.198  50.068  1.00  0.00     0.004 C 
ENDBRANCH   6   7
ENDBRANCH   1   6
TORSDOF 4
ENDMDL
