MODEL 1
REMARK VINA RESULT:    -7.116      0.000      0.000
REMARK INTER + INTRA:          -8.561
REMARK INTER:                  -8.364
REMARK INTRA:                  -0.197
REMARK UNBOUND:                -0.197
REMARK SMILES O=c1c(O)c(-c2ccc(O)c(O)c2)oc2cc(O)ccc12
REMARK SMILES IDX 5 1 3 2 2 3 1 4 21 5 15 6 14 7 16 8 17 9 19 10 20 11 6 12
REMARK SMILES IDX 7 13 8 14 9 15 13 16 11 17 10 18 12 20 4 22 18 24
REMARK H PARENT 10 19 12 21 4 23 18 25
REMARK Flexibility Score: inf
ROOT
ATOM      1  C   UNL     1      27.662  13.098  65.516  1.00  0.00     0.180 A 
ATOM      2  C   UNL     1      27.157  13.232  66.826  1.00  0.00     0.208 A 
ATOM      3  C   UNL     1      26.074  14.096  67.047  1.00  0.00     0.235 A 
ATOM      4  O   UNL     1      25.611  14.242  68.212  1.00  0.00    -0.285 OA
ATOM      5  C   UNL     1      25.508  14.786  65.963  1.00  0.00     0.069 A 
ATOM      6  C   UNL     1      26.056  14.578  64.679  1.00  0.00     0.142 A 
ATOM      7  O   UNL     1      27.088  13.759  64.514  1.00  0.00    -0.452 OA
ATOM      8  C   UNL     1      25.513  15.241  63.572  1.00  0.00     0.094 A 
ATOM      9  C   UNL     1      24.428  16.111  63.733  1.00  0.00     0.119 A 
ATOM     10  C   UNL     1      23.885  16.320  65.005  1.00  0.00     0.047 A 
ATOM     11  C   UNL     1      24.418  15.662  66.117  1.00  0.00     0.020 A 
ENDROOT
BRANCH   1  12
ATOM     12  C   UNL     1      28.814  12.221  65.203  1.00  0.00     0.025 A 
ATOM     13  C   UNL     1      30.098  12.495  65.701  1.00  0.00     0.016 A 
ATOM     14  C   UNL     1      31.172  11.667  65.373  1.00  0.00     0.051 A 
ATOM     15  C   UNL     1      30.993  10.561  64.536  1.00  0.00     0.157 A 
ATOM     16  C   UNL     1      28.636  11.124  64.345  1.00  0.00     0.062 A 
ATOM     17  C   UNL     1      29.708  10.288  64.011  1.00  0.00     0.158 A 
BRANCH  15  18
ATOM     18  O   UNL     1      32.109   9.770  64.250  1.00  0.00    -0.504 OA
ATOM     19  H   UNL     1      32.989  10.134  63.916  1.00  0.00     0.293 HD
ENDBRANCH  15  18
BRANCH  17  20
ATOM     20  O   UNL     1      29.453   9.209  63.163  1.00  0.00    -0.504 OA
ATOM     21  H   UNL     1      29.122   9.303  62.214  1.00  0.00     0.293 HD
ENDBRANCH  17  20
ENDBRANCH   1  12
BRANCH   2  22
ATOM     22  O   UNL     1      27.710  12.495  67.877  1.00  0.00    -0.502 OA
ATOM     23  H   UNL     1      27.207  12.323  68.740  1.00  0.00     0.293 HD
ENDBRANCH   2  22
BRANCH   9  24
ATOM     24  O   UNL     1      23.882  16.775  62.636  1.00  0.00    -0.508 OA
ATOM     25  H   UNL     1      24.114  16.508  61.687  1.00  0.00     0.293 HD
ENDBRANCH   9  24
TORSDOF 5
ENDMDL
MODEL 2
REMARK VINA RESULT:    -6.712      1.666      2.221
REMARK INTER + INTRA:          -8.087
REMARK INTER:                  -7.785
REMARK INTRA:                  -0.302
REMARK UNBOUND:                -0.197
REMARK SMILES O=c1c(O)c(-c2ccc(O)c(O)c2)oc2cc(O)ccc12
REMARK SMILES IDX 5 1 3 2 2 3 1 4 21 5 15 6 14 7 16 8 17 9 19 10 20 11 6 12
REMARK SMILES IDX 7 13 8 14 9 15 13 16 11 17 10 18 12 20 4 22 18 24
REMARK H PARENT 10 19 12 21 4 23 18 25
REMARK Flexibility Score: inf
ROOT
ATOM      1  C   UNL     1      28.926  11.907  65.792  1.00  0.00     0.180 A 
ATOM      2  C   UNL     1      28.575  11.476  67.088  1.00  0.00     0.208 A 
ATOM      3  C   UNL     1      27.643  12.225  67.822  1.00  0.00     0.235 A 
ATOM      4  O   UNL     1      27.321  11.865  68.988  1.00  0.00    -0.285 OA
ATOM      5  C   UNL     1      27.067  13.368  67.244  1.00  0.00     0.069 A 
ATOM      6  C   UNL     1      27.453  13.720  65.932  1.00  0.00     0.142 A 
ATOM      7  O   UNL     1      28.347  12.989  65.276  1.00  0.00    -0.452 OA
ATOM      8  C   UNL     1      26.895  14.847  65.319  1.00  0.00     0.094 A 
ATOM      9  C   UNL     1      25.955  15.630  66.001  1.00  0.00     0.119 A 
ATOM     10  C   UNL     1      25.573  15.284  67.301  1.00  0.00     0.047 A 
ATOM     11  C   UNL     1      26.123  14.159  67.923  1.00  0.00     0.020 A 
ENDROOT
BRANCH   1  12
ATOM     12  C   UNL     1      29.915  11.183  64.962  1.00  0.00     0.025 A 
ATOM     13  C   UNL     1      31.296  11.350  65.158  1.00  0.00     0.016 A 
ATOM     14  C   UNL     1      32.209  10.674  64.347  1.00  0.00     0.051 A 
ATOM     15  C   UNL     1      31.768   9.832  63.322  1.00  0.00     0.157 A 
ATOM     16  C   UNL     1      29.470  10.355  63.920  1.00  0.00     0.062 A 
ATOM     17  C   UNL     1      30.379   9.673  63.102  1.00  0.00     0.158 A 
BRANCH  15  18
ATOM     18  O   UNL     1      32.733   9.181  62.549  1.00  0.00    -0.504 OA
ATOM     19  H   UNL     1      33.013   8.221  62.685  1.00  0.00     0.293 HD
ENDBRANCH  15  18
BRANCH  17  20
ATOM     20  O   UNL     1      29.863   8.857  62.093  1.00  0.00    -0.504 OA
ATOM     21  H   UNL     1      29.591   7.894  62.230  1.00  0.00     0.293 HD
ENDBRANCH  17  20
ENDBRANCH   1  12
BRANCH   2  22
ATOM     22  O   UNL     1      29.128  10.307  67.619  1.00  0.00    -0.502 OA
ATOM     23  H   UNL     1      29.182   9.445  67.089  1.00  0.00     0.293 HD
ENDBRANCH   2  22
BRANCH   9  24
ATOM     24  O   UNL     1      25.395  16.754  65.397  1.00  0.00    -0.508 OA
ATOM     25  H   UNL     1      24.404  16.953  65.466  1.00  0.00     0.293 HD
ENDBRANCH   9  24
TORSDOF 5
ENDMDL
MODEL 3
REMARK VINA RESULT:    -6.653     10.452     11.970
REMARK INTER + INTRA:          -8.017
REMARK INTER:                  -7.696
REMARK INTRA:                  -0.321
REMARK UNBOUND:                -0.197
REMARK SMILES O=c1c(O)c(-c2ccc(O)c(O)c2)oc2cc(O)ccc12
REMARK SMILES IDX 5 1 3 2 2 3 1 4 21 5 15 6 14 7 16 8 17 9 19 10 20 11 6 12
REMARK SMILES IDX 7 13 8 14 9 15 13 16 11 17 10 18 12 20 4 22 18 24
REMARK H PARENT 10 19 12 21 4 23 18 25
REMARK Flexibility Score: inf
ROOT
ATOM      1  C   UNL     1      37.992  14.761  62.729  1.00  0.00     0.180 A 
ATOM      2  C   UNL     1      38.471  13.735  61.887  1.00  0.00     0.208 A 
ATOM      3  C   UNL     1      38.338  13.883  60.498  1.00  0.00     0.235 A 
ATOM      4  O   UNL     1      38.749  12.974  59.725  1.00  0.00    -0.285 OA
ATOM      5  C   UNL     1      37.754  15.049  59.980  1.00  0.00     0.069 A 
ATOM      6  C   UNL     1      37.321  16.040  60.888  1.00  0.00     0.142 A 
ATOM      7  O   UNL     1      37.457  15.857  62.197  1.00  0.00    -0.452 OA
ATOM      8  C   UNL     1      36.742  17.221  60.411  1.00  0.00     0.094 A 
ATOM      9  C   UNL     1      36.588  17.425  59.033  1.00  0.00     0.119 A 
ATOM     10  C   UNL     1      37.014  16.444  58.132  1.00  0.00     0.047 A 
ATOM     11  C   UNL     1      37.595  15.261  58.599  1.00  0.00     0.020 A 
ENDROOT
BRANCH   1  12
ATOM     12  C   UNL     1      38.078  14.672  64.204  1.00  0.00     0.025 A 
ATOM     13  C   UNL     1      37.023  14.148  64.969  1.00  0.00     0.016 A 
ATOM     14  C   UNL     1      37.119  14.097  66.360  1.00  0.00     0.051 A 
ATOM     15  C   UNL     1      38.256  14.577  67.016  1.00  0.00     0.157 A 
ATOM     16  C   UNL     1      39.212  15.175  64.862  1.00  0.00     0.062 A 
ATOM     17  C   UNL     1      39.316  15.127  66.258  1.00  0.00     0.158 A 
BRANCH  15  18
ATOM     18  O   UNL     1      38.291  14.492  68.410  1.00  0.00    -0.504 OA
ATOM     19  H   UNL     1      38.434  13.634  68.922  1.00  0.00     0.293 HD
ENDBRANCH  15  18
BRANCH  17  20
ATOM     20  O   UNL     1      40.479  15.634  66.842  1.00  0.00    -0.504 OA
ATOM     21  H   UNL     1      41.078  15.104  67.459  1.00  0.00     0.293 HD
ENDBRANCH  17  20
ENDBRANCH   1  12
BRANCH   2  22
ATOM     22  O   UNL     1      39.093  12.607  62.429  1.00  0.00    -0.502 OA
ATOM     23  H   UNL     1      39.568  11.922  61.854  1.00  0.00     0.293 HD
ENDBRANCH   2  22
BRANCH   9  24
ATOM     24  O   UNL     1      36.012  18.598  58.550  1.00  0.00    -0.508 OA
ATOM     25  H   UNL     1      36.580  19.380  58.246  1.00  0.00     0.293 HD
ENDBRANCH   9  24
TORSDOF 5
ENDMDL
MODEL 4
REMARK VINA RESULT:    -6.576      9.031     11.716
REMARK INTER + INTRA:          -7.927
REMARK INTER:                  -7.615
REMARK INTRA:                  -0.312
REMARK UNBOUND:                -0.197
REMARK SMILES O=c1c(O)c(-c2ccc(O)c(O)c2)oc2cc(O)ccc12
REMARK SMILES IDX 5 1 3 2 2 3 1 4 21 5 15 6 14 7 16 8 17 9 19 10 20 11 6 12
REMARK SMILES IDX 7 13 8 14 9 15 13 16 11 17 10 18 12 20 4 22 18 24
REMARK H PARENT 10 19 12 21 4 23 18 25
REMARK Flexibility Score: inf
ROOT
ATOM      1  C   UNL     1      36.984  14.997  62.445  1.00  0.00     0.180 A 
ATOM      2  C   UNL     1      35.893  14.391  63.103  1.00  0.00     0.208 A 
ATOM      3  C   UNL     1      35.999  14.118  64.476  1.00  0.00     0.235 A 
ATOM      4  O   UNL     1      35.040  13.566  65.084  1.00  0.00    -0.285 OA
ATOM      5  C   UNL     1      37.170  14.473  65.162  1.00  0.00     0.069 A 
ATOM      6  C   UNL     1      38.207  15.098  64.437  1.00  0.00     0.142 A 
ATOM      7  O   UNL     1      38.072  15.330  63.136  1.00  0.00    -0.452 OA
ATOM      8  C   UNL     1      39.387  15.474  65.088  1.00  0.00     0.094 A 
ATOM      9  C   UNL     1      39.546  15.232  66.459  1.00  0.00     0.119 A 
ATOM     10  C   UNL     1      38.520  14.610  67.179  1.00  0.00     0.047 A 
ATOM     11  C   UNL     1      37.337  14.232  66.538  1.00  0.00     0.020 A 
ENDROOT
BRANCH   1  12
ATOM     12  C   UNL     1      36.959  15.300  60.996  1.00  0.00     0.025 A 
ATOM     13  C   UNL     1      37.243  14.314  60.038  1.00  0.00     0.016 A 
ATOM     14  C   UNL     1      37.236  14.630  58.679  1.00  0.00     0.051 A 
ATOM     15  C   UNL     1      36.960  15.931  58.248  1.00  0.00     0.157 A 
ATOM     16  C   UNL     1      36.703  16.612  60.568  1.00  0.00     0.062 A 
ATOM     17  C   UNL     1      36.693  16.938  59.206  1.00  0.00     0.158 A 
BRANCH  15  18
ATOM     18  O   UNL     1      36.965  16.180  56.874  1.00  0.00    -0.504 OA
ATOM     19  H   UNL     1      36.888  17.100  56.465  1.00  0.00     0.293 HD
ENDBRANCH  15  18
BRANCH  17  20
ATOM     20  O   UNL     1      36.418  18.261  58.854  1.00  0.00    -0.504 OA
ATOM     21  H   UNL     1      35.913  18.530  58.023  1.00  0.00     0.293 HD
ENDBRANCH  17  20
ENDBRANCH   1  12
BRANCH   2  22
ATOM     22  O   UNL     1      34.721  14.095  62.403  1.00  0.00    -0.502 OA
ATOM     23  H   UNL     1      34.292  14.752  61.763  1.00  0.00     0.293 HD
ENDBRANCH   2  22
BRANCH   9  24
ATOM     24  O   UNL     1      40.718  15.603  67.114  1.00  0.00    -0.508 OA
ATOM     25  H   UNL     1      41.132  16.518  66.981  1.00  0.00     0.293 HD
ENDBRANCH   9  24
TORSDOF 5
ENDMDL
MODEL 5
REMARK VINA RESULT:    -6.531      2.596      4.933
REMARK INTER + INTRA:          -7.874
REMARK INTER:                  -7.640
REMARK INTRA:                  -0.234
REMARK UNBOUND:                -0.197
REMARK SMILES O=c1c(O)c(-c2ccc(O)c(O)c2)oc2cc(O)ccc12
REMARK SMILES IDX 5 1 3 2 2 3 1 4 21 5 15 6 14 7 16 8 17 9 19 10 20 11 6 12
REMARK SMILES IDX 7 13 8 14 9 15 13 16 11 17 10 18 12 20 4 22 18 24
REMARK H PARENT 10 19 12 21 4 23 18 25
REMARK Flexibility Score: inf
ROOT
ATOM      1  C   UNL     1      30.843  10.644  64.382  1.00  0.00     0.180 A 
ATOM      2  C   UNL     1      31.367  10.419  65.672  1.00  0.00     0.208 A 
ATOM      3  C   UNL     1      30.704  10.975  66.777  1.00  0.00     0.235 A 
ATOM      4  O   UNL     1      31.160  10.796  67.941  1.00  0.00    -0.285 OA
ATOM      5  C   UNL     1      29.532  11.720  66.577  1.00  0.00     0.069 A 
ATOM      6  C   UNL     1      29.059  11.880  65.256  1.00  0.00     0.142 A 
ATOM      7  O   UNL     1      29.721  11.345  64.236  1.00  0.00    -0.452 OA
ATOM      8  C   UNL     1      27.889  12.608  65.016  1.00  0.00     0.094 A 
ATOM      9  C   UNL     1      27.183  13.182  66.082  1.00  0.00     0.119 A 
ATOM     10  C   UNL     1      27.651  13.027  67.390  1.00  0.00     0.047 A 
ATOM     11  C   UNL     1      28.818  12.299  67.641  1.00  0.00     0.020 A 
ENDROOT
BRANCH   1  12
ATOM     12  C   UNL     1      31.493  10.108  63.164  1.00  0.00     0.025 A 
ATOM     13  C   UNL     1      30.953   9.014  62.469  1.00  0.00     0.016 A 
ATOM     14  C   UNL     1      31.597   8.511  61.338  1.00  0.00     0.051 A 
ATOM     15  C   UNL     1      32.792   9.077  60.885  1.00  0.00     0.157 A 
ATOM     16  C   UNL     1      32.704  10.663  62.725  1.00  0.00     0.062 A 
ATOM     17  C   UNL     1      33.357  10.166  61.590  1.00  0.00     0.158 A 
BRANCH  15  18
ATOM     18  O   UNL     1      33.384   8.530  59.743  1.00  0.00    -0.504 OA
ATOM     19  H   UNL     1      32.872   8.253  58.919  1.00  0.00     0.293 HD
ENDBRANCH  15  18
BRANCH  17  20
ATOM     20  O   UNL     1      34.551  10.777  61.204  1.00  0.00    -0.504 OA
ATOM     21  H   UNL     1      34.642  11.763  61.004  1.00  0.00     0.293 HD
ENDBRANCH  17  20
ENDBRANCH   1  12
BRANCH   2  22
ATOM     22  O   UNL     1      32.508   9.632  65.845  1.00  0.00    -0.502 OA
ATOM     23  H   UNL     1      32.923   9.105  65.085  1.00  0.00     0.293 HD
ENDBRANCH   2  22
BRANCH   9  24
ATOM     24  O   UNL     1      26.017  13.909  65.851  1.00  0.00    -0.508 OA
ATOM     25  H   UNL     1      26.039  14.910  65.699  1.00  0.00     0.293 HD
ENDBRANCH   9  24
TORSDOF 5
ENDMDL
MODEL 6
REMARK VINA RESULT:    -6.527      4.851      8.070
REMARK INTER + INTRA:          -7.869
REMARK INTER:                  -7.552
REMARK INTRA:                  -0.317
REMARK UNBOUND:                -0.197
REMARK SMILES O=c1c(O)c(-c2ccc(O)c(O)c2)oc2cc(O)ccc12
REMARK SMILES IDX 5 1 3 2 2 3 1 4 21 5 15 6 14 7 16 8 17 9 19 10 20 11 6 12
REMARK SMILES IDX 7 13 8 14 9 15 13 16 11 17 10 18 12 20 4 22 18 24
REMARK H PARENT 10 19 12 21 4 23 18 25
REMARK Flexibility Score: inf
ROOT
ATOM      1  C   UNL     1      33.040  11.317  65.281  1.00  0.00     0.180 A 
ATOM      2  C   UNL     1      33.984  10.495  65.933  1.00  0.00     0.208 A 
ATOM      3  C   UNL     1      35.277  10.994  66.152  1.00  0.00     0.235 A 
ATOM      4  O   UNL     1      36.142  10.273  66.723  1.00  0.00    -0.285 OA
ATOM      5  C   UNL     1      35.594  12.298  65.740  1.00  0.00     0.069 A 
ATOM      6  C   UNL     1      34.586  13.065  65.117  1.00  0.00     0.142 A 
ATOM      7  O   UNL     1      33.377  12.552  64.919  1.00  0.00    -0.452 OA
ATOM      8  C   UNL     1      34.860  14.372  64.700  1.00  0.00     0.094 A 
ATOM      9  C   UNL     1      36.133  14.924  64.898  1.00  0.00     0.119 A 
ATOM     10  C   UNL     1      37.133  14.165  65.513  1.00  0.00     0.047 A 
ATOM     11  C   UNL     1      36.869  12.858  65.934  1.00  0.00     0.020 A 
ENDROOT
BRANCH   1  12
ATOM     12  C   UNL     1      31.662  10.858  64.997  1.00  0.00     0.025 A 
ATOM     13  C   UNL     1      30.627  11.028  65.931  1.00  0.00     0.016 A 
ATOM     14  C   UNL     1      29.341  10.566  65.649  1.00  0.00     0.051 A 
ATOM     15  C   UNL     1      29.062   9.916  64.442  1.00  0.00     0.157 A 
ATOM     16  C   UNL     1      31.390  10.187  63.795  1.00  0.00     0.062 A 
ATOM     17  C   UNL     1      30.102   9.720  63.503  1.00  0.00     0.158 A 
BRANCH  15  18
ATOM     18  O   UNL     1      27.754   9.482  64.220  1.00  0.00    -0.504 OA
ATOM     19  H   UNL     1      27.508   8.718  63.608  1.00  0.00     0.293 HD
ENDBRANCH  15  18
BRANCH  17  20
ATOM     20  O   UNL     1      29.904   9.074  62.282  1.00  0.00    -0.504 OA
ATOM     21  H   UNL     1      29.095   8.509  62.066  1.00  0.00     0.293 HD
ENDBRANCH  17  20
ENDBRANCH   1  12
BRANCH   2  22
ATOM     22  O   UNL     1      33.626   9.219  66.376  1.00  0.00    -0.502 OA
ATOM     23  H   UNL     1      33.077   8.584  65.809  1.00  0.00     0.293 HD
ENDBRANCH   2  22
BRANCH   9  24
ATOM     24  O   UNL     1      36.414  16.225  64.485  1.00  0.00    -0.508 OA
ATOM     25  H   UNL     1      37.019  16.832  65.025  1.00  0.00     0.293 HD
ENDBRANCH   9  24
TORSDOF 5
ENDMDL
MODEL 7
REMARK VINA RESULT:    -6.413      4.110      5.944
REMARK INTER + INTRA:          -7.735
REMARK INTER:                  -7.420
REMARK INTRA:                  -0.315
REMARK UNBOUND:                -0.197
REMARK SMILES O=c1c(O)c(-c2ccc(O)c(O)c2)oc2cc(O)ccc12
REMARK SMILES IDX 5 1 3 2 2 3 1 4 21 5 15 6 14 7 16 8 17 9 19 10 20 11 6 12
REMARK SMILES IDX 7 13 8 14 9 15 13 16 11 17 10 18 12 20 4 22 18 24
REMARK H PARENT 10 19 12 21 4 23 18 25
REMARK Flexibility Score: inf
ROOT
ATOM      1  C   UNL     1      31.342  10.794  63.740  1.00  0.00     0.180 A 
ATOM      2  C   UNL     1      30.014  10.319  63.770  1.00  0.00     0.208 A 
ATOM      3  C   UNL     1      29.182  10.706  64.832  1.00  0.00     0.235 A 
ATOM      4  O   UNL     1      27.993  10.285  64.886  1.00  0.00    -0.285 OA
ATOM      5  C   UNL     1      29.679  11.569  65.820  1.00  0.00     0.069 A 
ATOM      6  C   UNL     1      31.012  12.021  65.705  1.00  0.00     0.142 A 
ATOM      7  O   UNL     1      31.770  11.622  64.690  1.00  0.00    -0.452 OA
ATOM      8  C   UNL     1      31.541  12.889  66.666  1.00  0.00     0.094 A 
ATOM      9  C   UNL     1      30.754  13.313  67.745  1.00  0.00     0.119 A 
ATOM     10  C   UNL     1      29.434  12.865  67.862  1.00  0.00     0.047 A 
ATOM     11  C   UNL     1      28.895  11.999  66.906  1.00  0.00     0.020 A 
ENDROOT
BRANCH   1  12
ATOM     12  C   UNL     1      32.288  10.417  62.666  1.00  0.00     0.025 A 
ATOM     13  C   UNL     1      32.425  11.197  61.505  1.00  0.00     0.016 A 
ATOM     14  C   UNL     1      33.307  10.808  60.496  1.00  0.00     0.051 A 
ATOM     15  C   UNL     1      34.057   9.634  60.614  1.00  0.00     0.157 A 
ATOM     16  C   UNL     1      33.024   9.227  62.777  1.00  0.00     0.062 A 
ATOM     17  C   UNL     1      33.911   8.830  61.769  1.00  0.00     0.158 A 
BRANCH  15  18
ATOM     18  O   UNL     1      34.924   9.304  59.570  1.00  0.00    -0.504 OA
ATOM     19  H   UNL     1      35.871   9.645  59.492  1.00  0.00     0.293 HD
ENDBRANCH  15  18
BRANCH  17  20
ATOM     20  O   UNL     1      34.618   7.640  61.956  1.00  0.00    -0.504 OA
ATOM     21  H   UNL     1      35.620   7.558  61.857  1.00  0.00     0.293 HD
ENDBRANCH  17  20
ENDBRANCH   1  12
BRANCH   2  22
ATOM     22  O   UNL     1      29.532   9.500  62.746  1.00  0.00    -0.502 OA
ATOM     23  H   UNL     1      29.928   9.511  61.813  1.00  0.00     0.293 HD
ENDBRANCH   2  22
BRANCH   9  24
ATOM     24  O   UNL     1      31.274  14.178  68.706  1.00  0.00    -0.508 OA
ATOM     25  H   UNL     1      32.241  14.122  69.000  1.00  0.00     0.293 HD
ENDBRANCH   9  24
TORSDOF 5
ENDMDL
MODEL 8
REMARK VINA RESULT:    -6.346      2.953      7.643
REMARK INTER + INTRA:          -7.656
REMARK INTER:                  -7.363
REMARK INTRA:                  -0.293
REMARK UNBOUND:                -0.197
REMARK SMILES O=c1c(O)c(-c2ccc(O)c(O)c2)oc2cc(O)ccc12
REMARK SMILES IDX 5 1 3 2 2 3 1 4 21 5 15 6 14 7 16 8 17 9 19 10 20 11 6 12
REMARK SMILES IDX 7 13 8 14 9 15 13 16 11 17 10 18 12 20 4 22 18 24
REMARK H PARENT 10 19 12 21 4 23 18 25
REMARK Flexibility Score: inf
ROOT
ATOM      1  C   UNL     1      30.538  10.852  64.115  1.00  0.00     0.180 A 
ATOM      2  C   UNL     1      30.098   9.856  63.219  1.00  0.00     0.208 A 
ATOM      3  C   UNL     1      30.920   9.511  62.136  1.00  0.00     0.235 A 
ATOM      4  O   UNL     1      30.543   8.630  61.314  1.00  0.00    -0.285 OA
ATOM      5  C   UNL     1      32.162  10.146  61.982  1.00  0.00     0.069 A 
ATOM      6  C   UNL     1      32.541  11.115  62.935  1.00  0.00     0.142 A 
ATOM      7  O   UNL     1      31.729  11.420  63.942  1.00  0.00    -0.452 OA
ATOM      8  C   UNL     1      33.775  11.764  62.821  1.00  0.00     0.094 A 
ATOM      9  C   UNL     1      34.640  11.455  61.763  1.00  0.00     0.119 A 
ATOM     10  C   UNL     1      34.266  10.497  60.815  1.00  0.00     0.047 A 
ATOM     11  C   UNL     1      33.035   9.842  60.921  1.00  0.00     0.020 A 
ENDROOT
BRANCH   1  12
ATOM     12  C   UNL     1      29.721  11.286  65.272  1.00  0.00     0.025 A 
ATOM     13  C   UNL     1      29.688  10.543  66.464  1.00  0.00     0.016 A 
ATOM     14  C   UNL     1      28.893  10.959  67.532  1.00  0.00     0.051 A 
ATOM     15  C   UNL     1      28.107  12.112  67.431  1.00  0.00     0.157 A 
ATOM     16  C   UNL     1      28.917  12.430  65.161  1.00  0.00     0.062 A 
ATOM     17  C   UNL     1      28.115  12.856  66.228  1.00  0.00     0.158 A 
BRANCH  15  18
ATOM     18  O   UNL     1      27.336  12.476  68.538  1.00  0.00    -0.504 OA
ATOM     19  H   UNL     1      26.806  11.824  69.097  1.00  0.00     0.293 HD
ENDBRANCH  15  18
BRANCH  17  20
ATOM     20  O   UNL     1      27.352  14.011  66.049  1.00  0.00    -0.504 OA
ATOM     21  H   UNL     1      27.730  14.947  66.070  1.00  0.00     0.293 HD
ENDBRANCH  17  20
ENDBRANCH   1  12
BRANCH   2  22
ATOM     22  O   UNL     1      28.878   9.207  63.426  1.00  0.00    -0.502 OA
ATOM     23  H   UNL     1      28.086   9.334  62.807  1.00  0.00     0.293 HD
ENDBRANCH   2  22
BRANCH   9  24
ATOM     24  O   UNL     1      35.871  12.097  61.642  1.00  0.00    -0.508 OA
ATOM     25  H   UNL     1      35.938  13.057  61.327  1.00  0.00     0.293 HD
ENDBRANCH   9  24
TORSDOF 5
ENDMDL
MODEL 9
REMARK VINA RESULT:    -6.256      5.745      9.168
REMARK INTER + INTRA:          -7.551
REMARK INTER:                  -7.332
REMARK INTRA:                  -0.218
REMARK UNBOUND:                -0.197
REMARK SMILES O=c1c(O)c(-c2ccc(O)c(O)c2)oc2cc(O)ccc12
REMARK SMILES IDX 5 1 3 2 2 3 1 4 21 5 15 6 14 7 16 8 17 9 19 10 20 11 6 12
REMARK SMILES IDX 7 13 8 14 9 15 13 16 11 17 10 18 12 20 4 22 18 24
REMARK H PARENT 10 19 12 21 4 23 18 25
REMARK Flexibility Score: inf
ROOT
ATOM      1  C   UNL     1      34.559   9.788  61.101  1.00  0.00     0.180 A 
ATOM      2  C   UNL     1      35.110  10.519  62.174  1.00  0.00     0.208 A 
ATOM      3  C   UNL     1      34.278  10.881  63.244  1.00  0.00     0.235 A 
ATOM      4  O   UNL     1      34.746  11.544  64.210  1.00  0.00    -0.285 OA
ATOM      5  C   UNL     1      32.930  10.491  63.233  1.00  0.00     0.069 A 
ATOM      6  C   UNL     1      32.460   9.740  62.134  1.00  0.00     0.142 A 
ATOM      7  O   UNL     1      33.278   9.426  61.135  1.00  0.00    -0.452 OA
ATOM      8  C   UNL     1      31.124   9.325  62.090  1.00  0.00     0.094 A 
ATOM      9  C   UNL     1      30.249   9.652  63.134  1.00  0.00     0.119 A 
ATOM     10  C   UNL     1      30.712  10.398  64.222  1.00  0.00     0.047 A 
ATOM     11  C   UNL     1      32.044  10.816  64.276  1.00  0.00     0.020 A 
ENDROOT
BRANCH   1  12
ATOM     12  C   UNL     1      35.366   9.385  59.926  1.00  0.00     0.025 A 
ATOM     13  C   UNL     1      35.852  10.334  59.012  1.00  0.00     0.016 A 
ATOM     14  C   UNL     1      36.590   9.928  57.900  1.00  0.00     0.051 A 
ATOM     15  C   UNL     1      36.847   8.573  57.670  1.00  0.00     0.157 A 
ATOM     16  C   UNL     1      35.604   8.024  59.685  1.00  0.00     0.062 A 
ATOM     17  C   UNL     1      36.344   7.606  58.572  1.00  0.00     0.158 A 
BRANCH  15  18
ATOM     18  O   UNL     1      37.596   8.232  56.540  1.00  0.00    -0.504 OA
ATOM     19  H   UNL     1      37.291   8.391  55.591  1.00  0.00     0.293 HD
ENDBRANCH  15  18
BRANCH  17  20
ATOM     20  O   UNL     1      36.552   6.236  58.404  1.00  0.00    -0.504 OA
ATOM     21  H   UNL     1      37.444   5.825  58.168  1.00  0.00     0.293 HD
ENDBRANCH  17  20
ENDBRANCH   1  12
BRANCH   2  22
ATOM     22  O   UNL     1      36.468  10.851  62.180  1.00  0.00    -0.502 OA
ATOM     23  H   UNL     1      37.180  10.225  61.825  1.00  0.00     0.293 HD
ENDBRANCH   2  22
BRANCH   9  24
ATOM     24  O   UNL     1      28.917   9.243  63.098  1.00  0.00    -0.508 OA
ATOM     25  H   UNL     1      28.446   8.901  63.927  1.00  0.00     0.293 HD
ENDBRANCH   9  24
TORSDOF 5
ENDMDL
