MODEL 1
REMARK VINA RESULT:    -2.639      0.000      0.000
REMARK INTER + INTRA:          -3.921
REMARK INTER:                  -3.719
REMARK INTRA:                  -0.202
REMARK UNBOUND:                -0.202
REMARK SMILES CCCCCCCCC(=O)[O-]
REMARK SMILES IDX 6 1 7 2 8 3 9 4 10 5 11 6 5 7 4 8 3 9 2 10 1 11
REMARK H PARENT
REMARK Flexibility Score: inf
ROOT
ATOM      1  C   UNL     1      -6.508  28.535 -17.572  1.00  0.00     0.000 C 
ENDROOT
BRANCH   1   2
ATOM      2  C   UNL     1      -7.549  28.885 -16.494  1.00  0.00     0.006 C 
BRANCH   2   3
ATOM      3  C   UNL     1      -8.707  29.719 -17.058  1.00  0.00     0.053 C 
BRANCH   3   4
ATOM      4  C   UNL     1      -9.080  30.844 -16.140  1.00  0.00     0.041 C 
ATOM      5  O   UNL     1      -9.405  30.608 -14.946  1.00  0.00    -0.550 OA
ATOM      6  O   UNL     1      -9.043  32.155 -16.597  1.00  0.00    -0.550 OA
ENDBRANCH   3   4
ENDBRANCH   2   3
ENDBRANCH   1   2
BRANCH   1   7
ATOM      7  C   UNL     1      -6.964  28.932 -18.986  1.00  0.00     0.000 C 
BRANCH   7   8
ATOM      8  C   UNL     1      -6.361  28.032 -20.077  1.00  0.00    -0.000 C 
BRANCH   8   9
ATOM      9  C   UNL     1      -6.119  28.784 -21.396  1.00  0.00    -0.000 C 
BRANCH   9  10
ATOM     10  C   UNL     1      -6.240  27.875 -22.627  1.00  0.00    -0.003 C 
ATOM     11  C   UNL     1      -4.876  27.335 -23.048  1.00  0.00     0.004 C 
ENDBRANCH   9  10
ENDBRANCH   8   9
ENDBRANCH   7   8
ENDBRANCH   1   7
TORSDOF 7
ENDMDL
MODEL 2
REMARK VINA RESULT:    -2.504      0.669      1.287
REMARK INTER + INTRA:          -3.731
REMARK INTER:                  -3.469
REMARK INTRA:                  -0.262
REMARK UNBOUND:                -0.202
REMARK SMILES CCCCCCCCC(=O)[O-]
REMARK SMILES IDX 6 1 7 2 8 3 9 4 10 5 11 6 5 7 4 8 3 9 2 10 1 11
REMARK H PARENT
REMARK Flexibility Score: inf
ROOT
ATOM      1  C   UNL     1      -7.371  28.876 -17.578  1.00  0.00     0.000 C 
ENDROOT
BRANCH   1   2
ATOM      2  C   UNL     1      -8.545  29.729 -18.088  1.00  0.00     0.006 C 
BRANCH   2   3
ATOM      3  C   UNL     1      -9.623  29.931 -17.015  1.00  0.00     0.053 C 
BRANCH   3   4
ATOM      4  C   UNL     1      -9.152  30.837 -15.918  1.00  0.00     0.041 C 
ATOM      5  O   UNL     1      -8.989  32.067 -16.136  1.00  0.00    -0.550 OA
ATOM      6  O   UNL     1      -8.918  30.327 -14.647  1.00  0.00    -0.550 OA
ENDBRANCH   3   4
ENDBRANCH   2   3
ENDBRANCH   1   2
BRANCH   1   7
ATOM      7  C   UNL     1      -6.322  28.600 -18.668  1.00  0.00     0.000 C 
BRANCH   7   8
ATOM      8  C   UNL     1      -6.947  28.447 -20.065  1.00  0.00    -0.000 C 
BRANCH   8   9
ATOM      9  C   UNL     1      -5.951  28.756 -21.195  1.00  0.00    -0.000 C 
BRANCH   9  10
ATOM     10  C   UNL     1      -6.193  27.902 -22.448  1.00  0.00    -0.003 C 
ATOM     11  C   UNL     1      -4.875  27.535 -23.125  1.00  0.00     0.004 C 
ENDBRANCH   9  10
ENDBRANCH   8   9
ENDBRANCH   7   8
ENDBRANCH   1   7
TORSDOF 7
ENDMDL
MODEL 3
REMARK VINA RESULT:    -1.896      3.621      6.357
REMARK INTER + INTRA:          -2.874
REMARK INTER:                  -2.594
REMARK INTRA:                  -0.280
REMARK UNBOUND:                -0.202
REMARK SMILES CCCCCCCCC(=O)[O-]
REMARK SMILES IDX 6 1 7 2 8 3 9 4 10 5 11 6 5 7 4 8 3 9 2 10 1 11
REMARK H PARENT
REMARK Flexibility Score: inf
ROOT
ATOM      1  C   UNL     1      -7.135  28.905 -18.544  1.00  0.00     0.000 C 
ENDROOT
BRANCH   1   2
ATOM      2  C   UNL     1      -6.284  28.228 -19.633  1.00  0.00     0.006 C 
BRANCH   2   3
ATOM      3  C   UNL     1      -6.282  29.024 -20.945  1.00  0.00     0.053 C 
BRANCH   3   4
ATOM      4  C   UNL     1      -6.005  28.146 -22.127  1.00  0.00     0.041 C 
ATOM      5  O   UNL     1      -4.881  28.180 -22.694  1.00  0.00    -0.550 OA
ATOM      6  O   UNL     1      -6.980  27.269 -22.586  1.00  0.00    -0.550 OA
ENDBRANCH   3   4
ENDBRANCH   2   3
ENDBRANCH   1   2
BRANCH   1   7
ATOM      7  C   UNL     1      -6.723  28.484 -17.124  1.00  0.00     0.000 C 
BRANCH   7   8
ATOM      8  C   UNL     1      -7.711  28.974 -16.052  1.00  0.00    -0.000 C 
BRANCH   8   9
ATOM      9  C   UNL     1      -8.877  29.780 -16.648  1.00  0.00    -0.000 C 
BRANCH   9  10
ATOM     10  C   UNL     1      -9.337  30.923 -15.731  1.00  0.00    -0.003 C 
ATOM     11  C   UNL     1      -8.971  32.282 -16.322  1.00  0.00     0.004 C 
ENDBRANCH   9  10
ENDBRANCH   8   9
ENDBRANCH   7   8
ENDBRANCH   1   7
TORSDOF 7
ENDMDL
