MODEL 1
REMARK VINA RESULT:    -2.753      0.000      0.000
REMARK INTER + INTRA:          -3.651
REMARK INTER:                  -3.397
REMARK INTRA:                  -0.254
REMARK UNBOUND:                -0.254
REMARK SMILES CCCCCC(=O)[O-]
REMARK SMILES IDX 4 1 5 2 6 3 7 4 8 5 3 6 2 7 1 8
REMARK H PARENT
REMARK Flexibility Score: inf
ROOT
ATOM      1  C   UNL     1      88.140  29.345  29.188  1.00  0.00     0.006 C 
ENDROOT
BRANCH   1   2
ATOM      2  C   UNL     1      86.822  28.852  28.561  1.00  0.00     0.053 C 
BRANCH   2   3
ATOM      3  C   UNL     1      86.823  27.375  28.312  1.00  0.00     0.041 C 
ATOM      4  O   UNL     1      86.820  26.568  29.278  1.00  0.00    -0.550 OA
ATOM      5  O   UNL     1      86.784  26.886  27.011  1.00  0.00    -0.550 OA
ENDBRANCH   2   3
ENDBRANCH   1   2
BRANCH   1   6
ATOM      6  C   UNL     1      89.402  28.902  28.422  1.00  0.00     0.000 C 
BRANCH   6   7
ATOM      7  C   UNL     1      89.575  29.535  27.031  1.00  0.00    -0.003 C 
ATOM      8  C   UNL     1      90.003  28.527  25.965  1.00  0.00     0.004 C 
ENDBRANCH   6   7
ENDBRANCH   1   6
TORSDOF 4
ENDMDL
MODEL 2
REMARK VINA RESULT:    -2.701      1.392      2.139
REMARK INTER + INTRA:          -3.586
REMARK INTER:                  -3.372
REMARK INTRA:                  -0.215
REMARK UNBOUND:                -0.254
REMARK SMILES CCCCCC(=O)[O-]
REMARK SMILES IDX 4 1 5 2 6 3 7 4 8 5 3 6 2 7 1 8
REMARK H PARENT
REMARK Flexibility Score: inf
ROOT
ATOM      1  C   UNL     1      87.120  28.362  27.090  1.00  0.00     0.006 C 
ENDROOT
BRANCH   1   2
ATOM      2  C   UNL     1      86.629  26.908  27.211  1.00  0.00     0.053 C 
BRANCH   2   3
ATOM      3  C   UNL     1      86.432  26.485  28.635  1.00  0.00     0.041 C 
ATOM      4  O   UNL     1      87.188  26.930  29.538  1.00  0.00    -0.550 OA
ATOM      5  O   UNL     1      85.387  25.634  28.974  1.00  0.00    -0.550 OA
ENDBRANCH   2   3
ENDBRANCH   1   2
BRANCH   1   6
ATOM      6  C   UNL     1      88.602  28.491  26.685  1.00  0.00     0.000 C 
BRANCH   6   7
ATOM      7  C   UNL     1      89.554  28.909  27.819  1.00  0.00    -0.003 C 
ATOM      8  C   UNL     1      88.942  29.942  28.764  1.00  0.00     0.004 C 
ENDBRANCH   6   7
ENDBRANCH   1   6
TORSDOF 4
ENDMDL
MODEL 3
REMARK VINA RESULT:    -2.698      2.516      2.768
REMARK INTER + INTRA:          -3.583
REMARK INTER:                  -3.397
REMARK INTRA:                  -0.186
REMARK UNBOUND:                -0.254
REMARK SMILES CCCCCC(=O)[O-]
REMARK SMILES IDX 4 1 5 2 6 3 7 4 8 5 3 6 2 7 1 8
REMARK H PARENT
REMARK Flexibility Score: inf
ROOT
ATOM      1  C   UNL     1      89.055  28.876  28.582  1.00  0.00     0.006 C 
ENDROOT
BRANCH   1   2
ATOM      2  C   UNL     1      88.808  30.384  28.773  1.00  0.00     0.053 C 
BRANCH   2   3
ATOM      3  C   UNL     1      87.370  30.759  28.580  1.00  0.00     0.041 C 
ATOM      4  O   UNL     1      86.574  30.745  29.555  1.00  0.00    -0.550 OA
ATOM      5  O   UNL     1      86.916  31.165  27.331  1.00  0.00    -0.550 OA
ENDBRANCH   2   3
ENDBRANCH   1   2
BRANCH   1   6
ATOM      6  C   UNL     1      89.958  28.538  27.379  1.00  0.00     0.000 C 
BRANCH   6   7
ATOM      7  C   UNL     1      89.430  29.010  26.014  1.00  0.00    -0.003 C 
ATOM      8  C   UNL     1      90.319  30.070  25.363  1.00  0.00     0.004 C 
ENDBRANCH   6   7
ENDBRANCH   1   6
TORSDOF 4
ENDMDL
MODEL 4
REMARK VINA RESULT:    -2.629      2.580      3.523
REMARK INTER + INTRA:          -3.497
REMARK INTER:                  -3.235
REMARK INTRA:                  -0.262
REMARK UNBOUND:                -0.254
REMARK SMILES CCCCCC(=O)[O-]
REMARK SMILES IDX 4 1 5 2 6 3 7 4 8 5 3 6 2 7 1 8
REMARK H PARENT
REMARK Flexibility Score: inf
ROOT
ATOM      1  C   UNL     1      88.704  28.589  28.439  1.00  0.00     0.006 C 
ENDROOT
BRANCH   1   2
ATOM      2  C   UNL     1      88.726  30.080  28.824  1.00  0.00     0.053 C 
BRANCH   2   3
ATOM      3  C   UNL     1      87.436  30.773  28.509  1.00  0.00     0.041 C 
ATOM      4  O   UNL     1      87.115  31.002  27.313  1.00  0.00    -0.550 OA
ATOM      5  O   UNL     1      86.565  31.127  29.532  1.00  0.00    -0.550 OA
ENDBRANCH   2   3
ENDBRANCH   1   2
BRANCH   1   6
ATOM      6  C   UNL     1      87.554  27.793  29.086  1.00  0.00     0.000 C 
BRANCH   6   7
ATOM      7  C   UNL     1      86.672  27.006  28.101  1.00  0.00    -0.003 C 
ATOM      8  C   UNL     1      86.841  27.461  26.652  1.00  0.00     0.004 C 
ENDBRANCH   6   7
ENDBRANCH   1   6
TORSDOF 4
ENDMDL
MODEL 5
REMARK VINA RESULT:    -2.626      1.103      1.785
REMARK INTER + INTRA:          -3.493
REMARK INTER:                  -3.309
REMARK INTRA:                  -0.184
REMARK UNBOUND:                -0.254
REMARK SMILES CCCCCC(=O)[O-]
REMARK SMILES IDX 4 1 5 2 6 3 7 4 8 5 3 6 2 7 1 8
REMARK H PARENT
REMARK Flexibility Score: inf
ROOT
ATOM      1  C   UNL     1      87.104  28.417  28.680  1.00  0.00     0.006 C 
ENDROOT
BRANCH   1   2
ATOM      2  C   UNL     1      86.978  26.979  29.214  1.00  0.00     0.053 C 
BRANCH   2   3
ATOM      3  C   UNL     1      86.332  26.055  28.227  1.00  0.00     0.041 C 
ATOM      4  O   UNL     1      86.397  26.299  26.993  1.00  0.00    -0.550 OA
ATOM      5  O   UNL     1      85.693  24.901  28.664  1.00  0.00    -0.550 OA
ENDBRANCH   2   3
ENDBRANCH   1   2
BRANCH   1   6
ATOM      6  C   UNL     1      88.445  29.097  29.021  1.00  0.00     0.000 C 
BRANCH   6   7
ATOM      7  C   UNL     1      89.584  28.830  28.023  1.00  0.00    -0.003 C 
ATOM      8  C   UNL     1      89.095  28.675  26.583  1.00  0.00     0.004 C 
ENDBRANCH   6   7
ENDBRANCH   1   6
TORSDOF 4
ENDMDL
MODEL 6
REMARK VINA RESULT:    -2.609      2.503      3.951
REMARK INTER + INTRA:          -3.473
REMARK INTER:                  -3.300
REMARK INTRA:                  -0.174
REMARK UNBOUND:                -0.254
REMARK SMILES CCCCCC(=O)[O-]
REMARK SMILES IDX 4 1 5 2 6 3 7 4 8 5 3 6 2 7 1 8
REMARK H PARENT
REMARK Flexibility Score: inf
ROOT
ATOM      1  C   UNL     1      89.192  29.312  28.666  1.00  0.00     0.006 C 
ENDROOT
BRANCH   1   2
ATOM      2  C   UNL     1      89.593  28.860  27.249  1.00  0.00     0.053 C 
BRANCH   2   3
ATOM      3  C   UNL     1      89.465  29.959  26.239  1.00  0.00     0.041 C 
ATOM      4  O   UNL     1      90.462  30.309  25.553  1.00  0.00    -0.550 OA
ATOM      5  O   UNL     1      88.235  30.569  26.021  1.00  0.00    -0.550 OA
ENDBRANCH   2   3
ENDBRANCH   1   2
BRANCH   1   6
ATOM      6  C   UNL     1      87.848  28.735  29.151  1.00  0.00     0.000 C 
BRANCH   6   7
ATOM      7  C   UNL     1      87.201  27.707  28.207  1.00  0.00    -0.003 C 
ATOM      8  C   UNL     1      86.498  26.571  28.950  1.00  0.00     0.004 C 
ENDBRANCH   6   7
ENDBRANCH   1   6
TORSDOF 4
ENDMDL
MODEL 7
REMARK VINA RESULT:    -2.584      2.454      2.976
REMARK INTER + INTRA:          -3.442
REMARK INTER:                  -3.168
REMARK INTRA:                  -0.274
REMARK UNBOUND:                -0.254
REMARK SMILES CCCCCC(=O)[O-]
REMARK SMILES IDX 4 1 5 2 6 3 7 4 8 5 3 6 2 7 1 8
REMARK H PARENT
REMARK Flexibility Score: inf
ROOT
ATOM      1  C   UNL     1      87.363  30.097  29.133  1.00  0.00     0.006 C 
ENDROOT
BRANCH   1   2
ATOM      2  C   UNL     1      86.471  31.078  28.349  1.00  0.00     0.053 C 
BRANCH   2   3
ATOM      3  C   UNL     1      86.532  30.851  26.869  1.00  0.00     0.041 C 
ATOM      4  O   UNL     1      86.892  31.780  26.099  1.00  0.00    -0.550 OA
ATOM      5  O   UNL     1      86.233  29.600  26.341  1.00  0.00    -0.550 OA
ENDBRANCH   2   3
ENDBRANCH   1   2
BRANCH   1   6
ATOM      6  C   UNL     1      88.857  30.176  28.762  1.00  0.00     0.000 C 
BRANCH   6   7
ATOM      7  C   UNL     1      89.481  28.854  28.284  1.00  0.00    -0.003 C 
ATOM      8  C   UNL     1      89.701  28.809  26.773  1.00  0.00     0.004 C 
ENDBRANCH   6   7
ENDBRANCH   1   6
TORSDOF 4
ENDMDL
MODEL 8
REMARK VINA RESULT:    -2.555      1.362      2.278
REMARK INTER + INTRA:          -3.407
REMARK INTER:                  -3.299
REMARK INTRA:                  -0.108
REMARK UNBOUND:                -0.254
REMARK SMILES CCCCCC(=O)[O-]
REMARK SMILES IDX 4 1 5 2 6 3 7 4 8 5 3 6 2 7 1 8
REMARK H PARENT
REMARK Flexibility Score: inf
ROOT
ATOM      1  C   UNL     1      89.517  29.544  27.384  1.00  0.00     0.006 C 
ENDROOT
BRANCH   1   2
ATOM      2  C   UNL     1      89.090  28.901  28.717  1.00  0.00     0.053 C 
BRANCH   2   3
ATOM      3  C   UNL     1      87.674  28.413  28.691  1.00  0.00     0.041 C 
ATOM      4  O   UNL     1      86.804  29.029  28.021  1.00  0.00    -0.550 OA
ATOM      5  O   UNL     1      87.321  27.254  29.372  1.00  0.00    -0.550 OA
ENDBRANCH   2   3
ENDBRANCH   1   2
BRANCH   1   6
ATOM      6  C   UNL     1      89.897  28.526  26.291  1.00  0.00     0.000 C 
BRANCH   6   7
ATOM      7  C   UNL     1      90.153  29.128  24.899  1.00  0.00    -0.003 C 
ATOM      8  C   UNL     1      90.689  30.558  24.955  1.00  0.00     0.004 C 
ENDBRANCH   6   7
ENDBRANCH   1   6
TORSDOF 4
ENDMDL
MODEL 9
REMARK VINA RESULT:    -2.551      2.101      3.598
REMARK INTER + INTRA:          -3.401
REMARK INTER:                  -3.164
REMARK INTRA:                  -0.237
REMARK UNBOUND:                -0.254
REMARK SMILES CCCCCC(=O)[O-]
REMARK SMILES IDX 4 1 5 2 6 3 7 4 8 5 3 6 2 7 1 8
REMARK H PARENT
REMARK Flexibility Score: inf
ROOT
ATOM      1  C   UNL     1      88.982  29.703  28.706  1.00  0.00     0.006 C 
ENDROOT
BRANCH   1   2
ATOM      2  C   UNL     1      89.787  28.745  27.809  1.00  0.00     0.053 C 
BRANCH   2   3
ATOM      3  C   UNL     1      89.579  29.015  26.350  1.00  0.00     0.041 C 
ATOM      4  O   UNL     1      88.744  28.339  25.693  1.00  0.00    -0.550 OA
ATOM      5  O   UNL     1      90.275  30.041  25.722  1.00  0.00    -0.550 OA
ENDBRANCH   2   3
ENDBRANCH   1   2
BRANCH   1   6
ATOM      6  C   UNL     1      87.587  29.174  29.094  1.00  0.00     0.000 C 
BRANCH   6   7
ATOM      7  C   UNL     1      87.472  27.643  29.182  1.00  0.00    -0.003 C 
ATOM      8  C   UNL     1      86.518  27.054  28.143  1.00  0.00     0.004 C 
ENDBRANCH   6   7
ENDBRANCH   1   6
TORSDOF 4
ENDMDL
