MODEL 1
REMARK VINA RESULT:    -3.063      0.000      0.000
REMARK INTER + INTRA:          -4.098
REMARK INTER:                  -3.959
REMARK INTRA:                  -0.139
REMARK UNBOUND:                -0.139
REMARK SMILES CCCCCCC(=O)[O-]
REMARK SMILES IDX 5 1 6 2 7 3 8 4 9 5 4 6 3 7 2 8 1 9
REMARK H PARENT
REMARK Flexibility Score: inf
ROOT
ATOM      1  C   UNL     1      53.079  54.597  47.485  1.00  0.00     0.006 C 
ENDROOT
BRANCH   1   2
ATOM      2  C   UNL     1      53.144  55.346  46.146  1.00  0.00     0.053 C 
BRANCH   2   3
ATOM      3  C   UNL     1      52.135  56.451  46.073  1.00  0.00     0.041 C 
ATOM      4  O   UNL     1      51.196  56.399  45.236  1.00  0.00    -0.550 OA
ATOM      5  O   UNL     1      52.214  57.523  46.953  1.00  0.00    -0.550 OA
ENDBRANCH   2   3
ENDBRANCH   1   2
BRANCH   1   6
ATOM      6  C   UNL     1      53.273  53.070  47.374  1.00  0.00     0.000 C 
BRANCH   6   7
ATOM      7  C   UNL     1      52.700  52.255  48.549  1.00  0.00    -0.000 C 
BRANCH   7   8
ATOM      8  C   UNL     1      52.324  53.127  49.755  1.00  0.00    -0.003 C 
ATOM      9  C   UNL     1      51.964  52.268  50.963  1.00  0.00     0.004 C 
ENDBRANCH   7   8
ENDBRANCH   6   7
ENDBRANCH   1   6
TORSDOF 5
ENDMDL
MODEL 2
REMARK VINA RESULT:    -2.890      2.142      3.300
REMARK INTER + INTRA:          -3.874
REMARK INTER:                  -3.547
REMARK INTRA:                  -0.327
REMARK UNBOUND:                -0.139
REMARK SMILES CCCCCCC(=O)[O-]
REMARK SMILES IDX 5 1 6 2 7 3 8 4 9 5 4 6 3 7 2 8 1 9
REMARK H PARENT
REMARK Flexibility Score: inf
ROOT
ATOM      1  C   UNL     1      53.581  51.702  49.073  1.00  0.00     0.006 C 
ENDROOT
BRANCH   1   2
ATOM      2  C   UNL     1      52.700  52.319  47.976  1.00  0.00     0.053 C 
BRANCH   2   3
ATOM      3  C   UNL     1      53.307  53.563  47.405  1.00  0.00     0.041 C 
ATOM      4  O   UNL     1      52.839  54.693  47.706  1.00  0.00    -0.550 OA
ATOM      5  O   UNL     1      54.411  53.476  46.566  1.00  0.00    -0.550 OA
ENDBRANCH   2   3
ENDBRANCH   1   2
BRANCH   1   6
ATOM      6  C   UNL     1      52.814  51.254  50.335  1.00  0.00     0.000 C 
BRANCH   6   7
ATOM      7  C   UNL     1      51.914  52.332  50.966  1.00  0.00    -0.000 C 
BRANCH   7   8
ATOM      8  C   UNL     1      52.706  53.387  51.753  1.00  0.00    -0.003 C 
ATOM      9  C   UNL     1      52.347  54.797  51.296  1.00  0.00     0.004 C 
ENDBRANCH   7   8
ENDBRANCH   6   7
ENDBRANCH   1   6
TORSDOF 5
ENDMDL
MODEL 3
REMARK VINA RESULT:    -2.886      3.013      4.991
REMARK INTER + INTRA:          -3.869
REMARK INTER:                  -3.735
REMARK INTRA:                  -0.133
REMARK UNBOUND:                -0.139
REMARK SMILES CCCCCCC(=O)[O-]
REMARK SMILES IDX 5 1 6 2 7 3 8 4 9 5 4 6 3 7 2 8 1 9
REMARK H PARENT
REMARK Flexibility Score: inf
ROOT
ATOM      1  C   UNL     1      53.066  54.109  48.340  1.00  0.00     0.006 C 
ENDROOT
BRANCH   1   2
ATOM      2  C   UNL     1      52.346  52.858  48.864  1.00  0.00     0.053 C 
BRANCH   2   3
ATOM      3  C   UNL     1      52.120  52.920  50.344  1.00  0.00     0.041 C 
ATOM      4  O   UNL     1      51.904  51.865  50.997  1.00  0.00    -0.550 OA
ATOM      5  O   UNL     1      52.181  54.140  51.005  1.00  0.00    -0.550 OA
ENDBRANCH   2   3
ENDBRANCH   1   2
BRANCH   1   6
ATOM      6  C   UNL     1      53.526  54.016  46.871  1.00  0.00     0.000 C 
BRANCH   6   7
ATOM      7  C   UNL     1      53.561  55.356  46.113  1.00  0.00    -0.000 C 
BRANCH   7   8
ATOM      8  C   UNL     1      52.198  56.063  46.085  1.00  0.00    -0.003 C 
ATOM      9  C   UNL     1      51.760  56.355  44.654  1.00  0.00     0.004 C 
ENDBRANCH   7   8
ENDBRANCH   6   7
ENDBRANCH   1   6
TORSDOF 5
ENDMDL
MODEL 4
REMARK VINA RESULT:    -2.866      3.054      5.003
REMARK INTER + INTRA:          -3.844
REMARK INTER:                  -3.604
REMARK INTRA:                  -0.240
REMARK UNBOUND:                -0.139
REMARK SMILES CCCCCCC(=O)[O-]
REMARK SMILES IDX 5 1 6 2 7 3 8 4 9 5 4 6 3 7 2 8 1 9
REMARK H PARENT
REMARK Flexibility Score: inf
ROOT
ATOM      1  C   UNL     1      52.842  51.337  50.624  1.00  0.00     0.006 C 
ENDROOT
BRANCH   1   2
ATOM      2  C   UNL     1      51.797  52.393  51.012  1.00  0.00     0.053 C 
BRANCH   2   3
ATOM      3  C   UNL     1      52.413  53.550  51.738  1.00  0.00     0.041 C 
ATOM      4  O   UNL     1      53.053  53.360  52.807  1.00  0.00    -0.550 OA
ATOM      5  O   UNL     1      52.309  54.833  51.216  1.00  0.00    -0.550 OA
ENDBRANCH   2   3
ENDBRANCH   1   2
BRANCH   1   6
ATOM      6  C   UNL     1      53.547  51.597  49.276  1.00  0.00     0.000 C 
BRANCH   6   7
ATOM      7  C   UNL     1      52.708  52.369  48.241  1.00  0.00    -0.000 C 
BRANCH   7   8
ATOM      8  C   UNL     1      53.565  53.210  47.284  1.00  0.00    -0.003 C 
ATOM      9  C   UNL     1      53.076  54.654  47.233  1.00  0.00     0.004 C 
ENDBRANCH   7   8
ENDBRANCH   6   7
ENDBRANCH   1   6
TORSDOF 5
ENDMDL
MODEL 5
REMARK VINA RESULT:    -2.762     14.090     15.619
REMARK INTER + INTRA:          -3.709
REMARK INTER:                  -3.523
REMARK INTRA:                  -0.186
REMARK UNBOUND:                -0.139
REMARK SMILES CCCCCCC(=O)[O-]
REMARK SMILES IDX 5 1 6 2 7 3 8 4 9 5 4 6 3 7 2 8 1 9
REMARK H PARENT
REMARK Flexibility Score: inf
ROOT
ATOM      1  C   UNL     1      50.127  49.461  61.205  1.00  0.00     0.006 C 
ENDROOT
BRANCH   1   2
ATOM      2  C   UNL     1      51.300  48.486  61.023  1.00  0.00     0.053 C 
BRANCH   2   3
ATOM      3  C   UNL     1      51.040  47.167  61.684  1.00  0.00     0.041 C 
ATOM      4  O   UNL     1      51.045  47.076  62.940  1.00  0.00    -0.550 OA
ATOM      5  O   UNL     1      50.759  46.047  60.913  1.00  0.00    -0.550 OA
ENDBRANCH   2   3
ENDBRANCH   1   2
BRANCH   1   6
ATOM      6  C   UNL     1      50.327  50.501  62.327  1.00  0.00     0.000 C 
BRANCH   6   7
ATOM      7  C   UNL     1      50.463  51.958  61.847  1.00  0.00    -0.000 C 
BRANCH   7   8
ATOM      8  C   UNL     1      51.772  52.217  61.087  1.00  0.00    -0.003 C 
ATOM      9  C   UNL     1      51.729  53.557  60.359  1.00  0.00     0.004 C 
ENDBRANCH   7   8
ENDBRANCH   6   7
ENDBRANCH   1   6
TORSDOF 5
ENDMDL
MODEL 6
REMARK VINA RESULT:    -2.704      2.900      3.796
REMARK INTER + INTRA:          -3.634
REMARK INTER:                  -3.298
REMARK INTRA:                  -0.336
REMARK UNBOUND:                -0.139
REMARK SMILES CCCCCCC(=O)[O-]
REMARK SMILES IDX 5 1 6 2 7 3 8 4 9 5 4 6 3 7 2 8 1 9
REMARK H PARENT
REMARK Flexibility Score: inf
ROOT
ATOM      1  C   UNL     1      52.931  54.077  49.612  1.00  0.00     0.006 C 
ENDROOT
BRANCH   1   2
ATOM      2  C   UNL     1      52.497  53.280  48.373  1.00  0.00     0.053 C 
BRANCH   2   3
ATOM      3  C   UNL     1      53.669  52.706  47.637  1.00  0.00     0.041 C 
ATOM      4  O   UNL     1      54.168  53.323  46.660  1.00  0.00    -0.550 OA
ATOM      5  O   UNL     1      54.230  51.506  48.054  1.00  0.00    -0.550 OA
ENDBRANCH   2   3
ENDBRANCH   1   2
BRANCH   1   6
ATOM      6  C   UNL     1      52.292  53.603  50.935  1.00  0.00     0.000 C 
BRANCH   6   7
ATOM      7  C   UNL     1      51.956  52.102  50.994  1.00  0.00    -0.000 C 
BRANCH   7   8
ATOM      8  C   UNL     1      53.160  51.234  51.386  1.00  0.00    -0.003 C 
ATOM      9  C   UNL     1      52.953  49.784  50.962  1.00  0.00     0.004 C 
ENDBRANCH   7   8
ENDBRANCH   6   7
ENDBRANCH   1   6
TORSDOF 5
ENDMDL
MODEL 7
REMARK VINA RESULT:    -2.690     13.552     14.948
REMARK INTER + INTRA:          -3.616
REMARK INTER:                  -3.364
REMARK INTRA:                  -0.252
REMARK UNBOUND:                -0.139
REMARK SMILES CCCCCCC(=O)[O-]
REMARK SMILES IDX 5 1 6 2 7 3 8 4 9 5 4 6 3 7 2 8 1 9
REMARK H PARENT
REMARK Flexibility Score: inf
ROOT
ATOM      1  C   UNL     1      50.608  50.655  62.565  1.00  0.00     0.006 C 
ENDROOT
BRANCH   1   2
ATOM      2  C   UNL     1      50.024  49.869  61.381  1.00  0.00     0.053 C 
BRANCH   2   3
ATOM      3  C   UNL     1      50.933  48.762  60.941  1.00  0.00     0.041 C 
ATOM      4  O   UNL     1      51.928  49.010  60.211  1.00  0.00    -0.550 OA
ATOM      5  O   UNL     1      50.697  47.461  61.366  1.00  0.00    -0.550 OA
ENDBRANCH   2   3
ENDBRANCH   1   2
BRANCH   1   6
ATOM      6  C   UNL     1      50.819  52.159  62.294  1.00  0.00     0.000 C 
BRANCH   6   7
ATOM      7  C   UNL     1      51.760  52.483  61.120  1.00  0.00    -0.000 C 
BRANCH   7   8
ATOM      8  C   UNL     1      51.448  53.832  60.457  1.00  0.00    -0.003 C 
ATOM      9  C   UNL     1      50.392  54.601  61.246  1.00  0.00     0.004 C 
ENDBRANCH   7   8
ENDBRANCH   6   7
ENDBRANCH   1   6
TORSDOF 5
ENDMDL
MODEL 8
REMARK VINA RESULT:    -2.680     13.406     14.528
REMARK INTER + INTRA:          -3.603
REMARK INTER:                  -3.446
REMARK INTRA:                  -0.157
REMARK UNBOUND:                -0.139
REMARK SMILES CCCCCCC(=O)[O-]
REMARK SMILES IDX 5 1 6 2 7 3 8 4 9 5 4 6 3 7 2 8 1 9
REMARK H PARENT
REMARK Flexibility Score: inf
ROOT
ATOM      1  C   UNL     1      51.378  53.628  60.667  1.00  0.00     0.006 C 
ENDROOT
BRANCH   1   2
ATOM      2  C   UNL     1      50.607  52.936  61.801  1.00  0.00     0.053 C 
BRANCH   2   3
ATOM      3  C   UNL     1      50.930  51.476  61.889  1.00  0.00     0.041 C 
ATOM      4  O   UNL     1      51.985  51.093  62.460  1.00  0.00    -0.550 OA
ATOM      5  O   UNL     1      50.048  50.538  61.368  1.00  0.00    -0.550 OA
ENDBRANCH   2   3
ENDBRANCH   1   2
BRANCH   1   6
ATOM      6  C   UNL     1      50.953  55.087  60.400  1.00  0.00     0.000 C 
BRANCH   6   7
ATOM      7  C   UNL     1      49.718  55.559  61.189  1.00  0.00    -0.000 C 
BRANCH   7   8
ATOM      8  C   UNL     1      49.203  56.932  60.730  1.00  0.00    -0.003 C 
ATOM      9  C   UNL     1      49.225  57.046  59.209  1.00  0.00     0.004 C 
ENDBRANCH   7   8
ENDBRANCH   6   7
ENDBRANCH   1   6
TORSDOF 5
ENDMDL
MODEL 9
REMARK VINA RESULT:    -2.619      4.620      6.303
REMARK INTER + INTRA:          -3.524
REMARK INTER:                  -3.254
REMARK INTRA:                  -0.270
REMARK UNBOUND:                -0.139
REMARK SMILES CCCCCCC(=O)[O-]
REMARK SMILES IDX 5 1 6 2 7 3 8 4 9 5 4 6 3 7 2 8 1 9
REMARK H PARENT
REMARK Flexibility Score: inf
ROOT
ATOM      1  C   UNL     1      53.017  51.515  51.404  1.00  0.00     0.006 C 
ENDROOT
BRANCH   1   2
ATOM      2  C   UNL     1      52.784  50.043  51.034  1.00  0.00     0.053 C 
BRANCH   2   3
ATOM      3  C   UNL     1      53.994  49.426  50.402  1.00  0.00     0.041 C 
ATOM      4  O   UNL     1      54.431  48.319  50.816  1.00  0.00    -0.550 OA
ATOM      5  O   UNL     1      54.617  50.057  49.334  1.00  0.00    -0.550 OA
ENDBRANCH   2   3
ENDBRANCH   1   2
BRANCH   1   6
ATOM      6  C   UNL     1      51.955  52.490  50.853  1.00  0.00     0.000 C 
BRANCH   6   7
ATOM      7  C   UNL     1      52.409  53.334  49.648  1.00  0.00    -0.000 C 
BRANCH   7   8
ATOM      8  C   UNL     1      52.438  52.536  48.336  1.00  0.00    -0.003 C 
ATOM      9  C   UNL     1      53.444  53.129  47.355  1.00  0.00     0.004 C 
ENDBRANCH   7   8
ENDBRANCH   6   7
ENDBRANCH   1   6
TORSDOF 5
ENDMDL
