MODEL 1
REMARK VINA RESULT:    -5.628      0.000      0.000
REMARK INTER + INTRA:          -5.793
REMARK INTER:                  -5.793
REMARK INTRA:                   0.000
REMARK UNBOUND:                 0.000
REMARK SMILES Cc1ccccc1O
REMARK SMILES IDX 1 1 2 2 3 3 4 4 5 5 6 6 7 7 8 8
REMARK H PARENT 8 9
REMARK Flexibility Score: inf
ROOT
ATOM      1  C   UNL     1     -11.101  -0.654 -10.019  1.00  0.00     0.048 C 
ATOM      2  C   UNL     1     -12.476  -0.043  -9.999  1.00  0.00    -0.009 A 
ATOM      3  C   UNL     1     -13.558  -0.753 -10.548  1.00  0.00     0.007 A 
ATOM      4  C   UNL     1     -14.843  -0.203 -10.540  1.00  0.00     0.001 A 
ATOM      5  C   UNL     1     -15.060   1.057  -9.983  1.00  0.00     0.004 A 
ATOM      6  C   UNL     1     -13.995   1.773  -9.434  1.00  0.00     0.046 A 
ATOM      7  C   UNL     1     -12.702   1.234  -9.436  1.00  0.00     0.118 A 
ENDROOT
BRANCH   7   8
ATOM      8  O   UNL     1     -11.670   1.989  -8.874  1.00  0.00    -0.508 OA
ATOM      9  H   UNL     1     -11.808   2.608  -8.085  1.00  0.00     0.293 HD
ENDBRANCH   7   8
TORSDOF 1
ENDMDL
MODEL 2
REMARK VINA RESULT:    -5.460      1.035      2.312
REMARK INTER + INTRA:          -5.620
REMARK INTER:                  -5.620
REMARK INTRA:                   0.000
REMARK UNBOUND:                 0.000
REMARK SMILES Cc1ccccc1O
REMARK SMILES IDX 1 1 2 2 3 3 4 4 5 5 6 6 7 7 8 8
REMARK H PARENT 8 9
REMARK Flexibility Score: inf
ROOT
ATOM      1  C   UNL     1     -12.617   2.937  -8.859  1.00  0.00     0.048 C 
ATOM      2  C   UNL     1     -13.137   1.651  -9.442  1.00  0.00    -0.009 A 
ATOM      3  C   UNL     1     -14.474   1.575  -9.871  1.00  0.00     0.007 A 
ATOM      4  C   UNL     1     -14.977   0.390 -10.414  1.00  0.00     0.001 A 
ATOM      5  C   UNL     1     -14.152  -0.728 -10.537  1.00  0.00     0.004 A 
ATOM      6  C   UNL     1     -12.823  -0.667 -10.116  1.00  0.00     0.046 A 
ATOM      7  C   UNL     1     -12.306   0.515  -9.568  1.00  0.00     0.118 A 
ENDROOT
BRANCH   7   8
ATOM      8  O   UNL     1     -10.969   0.527  -9.163  1.00  0.00    -0.508 OA
ATOM      9  H   UNL     1     -10.411   1.371  -9.129  1.00  0.00     0.293 HD
ENDBRANCH   7   8
TORSDOF 1
ENDMDL
MODEL 3
REMARK VINA RESULT:    -5.302      1.971      2.861
REMARK INTER + INTRA:          -5.457
REMARK INTER:                  -5.457
REMARK INTRA:                   0.000
REMARK UNBOUND:                 0.000
REMARK SMILES Cc1ccccc1O
REMARK SMILES IDX 1 1 2 2 3 3 4 4 5 5 6 6 7 7 8 8
REMARK H PARENT 8 9
REMARK Flexibility Score: inf
ROOT
ATOM      1  C   UNL     1     -11.517   3.705  -8.308  1.00  0.00     0.048 C 
ATOM      2  C   UNL     1     -12.639   2.819  -8.777  1.00  0.00    -0.009 A 
ATOM      3  C   UNL     1     -12.342   1.570  -9.351  1.00  0.00     0.007 A 
ATOM      4  C   UNL     1     -13.369   0.732  -9.793  1.00  0.00     0.001 A 
ATOM      5  C   UNL     1     -14.700   1.131  -9.666  1.00  0.00     0.004 A 
ATOM      6  C   UNL     1     -15.009   2.368  -9.099  1.00  0.00     0.046 A 
ATOM      7  C   UNL     1     -13.989   3.219  -8.652  1.00  0.00     0.118 A 
ENDROOT
BRANCH   7   8
ATOM      8  O   UNL     1     -14.349   4.445  -8.090  1.00  0.00    -0.508 OA
ATOM      9  H   UNL     1     -13.786   4.919  -7.394  1.00  0.00     0.293 HD
ENDBRANCH   7   8
TORSDOF 1
ENDMDL
MODEL 4
REMARK VINA RESULT:    -5.178      1.530      2.561
REMARK INTER + INTRA:          -5.330
REMARK INTER:                  -5.330
REMARK INTRA:                   0.000
REMARK UNBOUND:                 0.000
REMARK SMILES Cc1ccccc1O
REMARK SMILES IDX 1 1 2 2 3 3 4 4 5 5 6 6 7 7 8 8
REMARK H PARENT 8 9
REMARK Flexibility Score: inf
ROOT
ATOM      1  C   UNL     1     -12.237   3.050  -8.742  1.00  0.00     0.048 C 
ATOM      2  C   UNL     1     -12.879   1.822  -9.327  1.00  0.00    -0.009 A 
ATOM      3  C   UNL     1     -12.080   0.717  -9.671  1.00  0.00     0.007 A 
ATOM      4  C   UNL     1     -12.657  -0.433 -10.215  1.00  0.00     0.001 A 
ATOM      5  C   UNL     1     -14.035  -0.493 -10.420  1.00  0.00     0.004 A 
ATOM      6  C   UNL     1     -14.842   0.595 -10.083  1.00  0.00     0.046 A 
ATOM      7  C   UNL     1     -14.276   1.755  -9.537  1.00  0.00     0.118 A 
ENDROOT
BRANCH   7   8
ATOM      8  O   UNL     1     -15.125   2.817  -9.216  1.00  0.00    -0.508 OA
ATOM      9  H   UNL     1     -14.856   3.787  -9.321  1.00  0.00     0.293 HD
ENDBRANCH   7   8
TORSDOF 1
ENDMDL
MODEL 5
REMARK VINA RESULT:    -4.915      1.217      1.902
REMARK INTER + INTRA:          -5.059
REMARK INTER:                  -5.059
REMARK INTRA:                   0.000
REMARK UNBOUND:                 0.000
REMARK SMILES Cc1ccccc1O
REMARK SMILES IDX 1 1 2 2 3 3 4 4 5 5 6 6 7 7 8 8
REMARK H PARENT 8 9
REMARK Flexibility Score: inf
ROOT
ATOM      1  C   UNL     1     -13.587  -1.402 -10.442  1.00  0.00     0.048 C 
ATOM      2  C   UNL     1     -13.701   0.034 -10.006  1.00  0.00    -0.009 A 
ATOM      3  C   UNL     1     -14.961   0.658  -9.996  1.00  0.00     0.007 A 
ATOM      4  C   UNL     1     -15.089   1.990  -9.595  1.00  0.00     0.001 A 
ATOM      5  C   UNL     1     -13.962   2.712  -9.199  1.00  0.00     0.004 A 
ATOM      6  C   UNL     1     -12.705   2.105  -9.204  1.00  0.00     0.046 A 
ATOM      7  C   UNL     1     -12.563   0.770  -9.605  1.00  0.00     0.118 A 
ENDROOT
BRANCH   7   8
ATOM      8  O   UNL     1     -11.284   0.208  -9.591  1.00  0.00    -0.508 OA
ATOM      9  H   UNL     1     -10.999  -0.495  -8.920  1.00  0.00     0.293 HD
ENDBRANCH   7   8
TORSDOF 1
ENDMDL
MODEL 6
REMARK VINA RESULT:    -4.803      1.702      2.410
REMARK INTER + INTRA:          -4.944
REMARK INTER:                  -4.944
REMARK INTRA:                   0.000
REMARK UNBOUND:                 0.000
REMARK SMILES Cc1ccccc1O
REMARK SMILES IDX 1 1 2 2 3 3 4 4 5 5 6 6 7 7 8 8
REMARK H PARENT 8 9
REMARK Flexibility Score: inf
ROOT
ATOM      1  C   UNL     1     -11.319  -0.344  -9.719  1.00  0.00     0.048 C 
ATOM      2  C   UNL     1     -12.638   0.380  -9.703  1.00  0.00    -0.009 A 
ATOM      3  C   UNL     1     -12.682   1.733  -9.323  1.00  0.00     0.007 A 
ATOM      4  C   UNL     1     -13.896   2.423  -9.302  1.00  0.00     0.001 A 
ATOM      5  C   UNL     1     -15.078   1.772  -9.660  1.00  0.00     0.004 A 
ATOM      6  C   UNL     1     -15.049   0.429 -10.039  1.00  0.00     0.046 A 
ATOM      7  C   UNL     1     -13.838  -0.275 -10.065  1.00  0.00     0.118 A 
ENDROOT
BRANCH   7   8
ATOM      8  O   UNL     1     -13.862  -1.617 -10.452  1.00  0.00    -0.508 OA
ATOM      9  H   UNL     1     -13.590  -1.927 -11.377  1.00  0.00     0.293 HD
ENDBRANCH   7   8
TORSDOF 1
ENDMDL
MODEL 7
REMARK VINA RESULT:    -4.744      1.556      3.051
REMARK INTER + INTRA:          -4.882
REMARK INTER:                  -4.882
REMARK INTRA:                   0.000
REMARK UNBOUND:                 0.000
REMARK SMILES Cc1ccccc1O
REMARK SMILES IDX 1 1 2 2 3 3 4 4 5 5 6 6 7 7 8 8
REMARK H PARENT 8 9
REMARK Flexibility Score: inf
ROOT
ATOM      1  C   UNL     1     -14.494   0.209 -10.023  1.00  0.00     0.048 C 
ATOM      2  C   UNL     1     -13.887   1.468  -9.463  1.00  0.00    -0.009 A 
ATOM      3  C   UNL     1     -14.726   2.527  -9.073  1.00  0.00     0.007 A 
ATOM      4  C   UNL     1     -14.183   3.704  -8.551  1.00  0.00     0.001 A 
ATOM      5  C   UNL     1     -12.801   3.835  -8.411  1.00  0.00     0.004 A 
ATOM      6  C   UNL     1     -11.957   2.791  -8.794  1.00  0.00     0.046 A 
ATOM      7  C   UNL     1     -12.488   1.606  -9.320  1.00  0.00     0.118 A 
ENDROOT
BRANCH   7   8
ATOM      8  O   UNL     1     -11.602   0.590  -9.687  1.00  0.00    -0.508 OA
ATOM      9  H   UNL     1     -10.848   0.275  -9.090  1.00  0.00     0.293 HD
ENDBRANCH   7   8
TORSDOF 1
ENDMDL
MODEL 8
REMARK VINA RESULT:    -4.433      6.888      8.160
REMARK INTER + INTRA:          -4.563
REMARK INTER:                  -4.563
REMARK INTRA:                   0.000
REMARK UNBOUND:                 0.000
REMARK SMILES Cc1ccccc1O
REMARK SMILES IDX 1 1 2 2 3 3 4 4 5 5 6 6 7 7 8 8
REMARK H PARENT 8 9
REMARK Flexibility Score: inf
ROOT
ATOM      1  C   UNL     1     -10.606  -3.899  -7.612  1.00  0.00     0.048 C 
ATOM      2  C   UNL     1     -10.867  -5.305  -7.144  1.00  0.00    -0.009 A 
ATOM      3  C   UNL     1     -11.453  -5.519  -5.883  1.00  0.00     0.007 A 
ATOM      4  C   UNL     1     -11.703  -6.816  -5.429  1.00  0.00     0.001 A 
ATOM      5  C   UNL     1     -11.372  -7.912  -6.227  1.00  0.00     0.004 A 
ATOM      6  C   UNL     1     -10.790  -7.715  -7.480  1.00  0.00     0.046 A 
ATOM      7  C   UNL     1     -10.533  -6.419  -7.948  1.00  0.00     0.118 A 
ENDROOT
BRANCH   7   8
ATOM      8  O   UNL     1      -9.950  -6.274  -9.209  1.00  0.00    -0.508 OA
ATOM      9  H   UNL     1      -8.995  -5.967  -9.341  1.00  0.00     0.293 HD
ENDBRANCH   7   8
TORSDOF 1
ENDMDL
MODEL 9
REMARK VINA RESULT:    -4.413     16.940     17.800
REMARK INTER + INTRA:          -4.542
REMARK INTER:                  -4.542
REMARK INTRA:                   0.000
REMARK UNBOUND:                 0.000
REMARK SMILES Cc1ccccc1O
REMARK SMILES IDX 1 1 2 2 3 3 4 4 5 5 6 6 7 7 8 8
REMARK H PARENT 8 9
REMARK Flexibility Score: inf
ROOT
ATOM      1  C   UNL     1     -11.569   3.514   9.114  1.00  0.00     0.048 C 
ATOM      2  C   UNL     1     -11.005   4.251   7.929  1.00  0.00    -0.009 A 
ATOM      3  C   UNL     1     -10.183   5.373   8.138  1.00  0.00     0.007 A 
ATOM      4  C   UNL     1      -9.650   6.071   7.051  1.00  0.00     0.001 A 
ATOM      5  C   UNL     1      -9.930   5.657   5.749  1.00  0.00     0.004 A 
ATOM      6  C   UNL     1     -10.744   4.545   5.527  1.00  0.00     0.046 A 
ATOM      7  C   UNL     1     -11.286   3.836   6.608  1.00  0.00     0.118 A 
ENDROOT
BRANCH   7   8
ATOM      8  O   UNL     1     -12.093   2.729   6.334  1.00  0.00    -0.508 OA
ATOM      9  H   UNL     1     -13.077   2.808   6.109  1.00  0.00     0.293 HD
ENDBRANCH   7   8
TORSDOF 1
ENDMDL
