MODEL 1
REMARK VINA RESULT:    -6.478      0.000      0.000
REMARK INTER + INTRA:          -7.919
REMARK INTER:                  -7.804
REMARK INTRA:                  -0.115
REMARK UNBOUND:                -0.115
REMARK SMILES O=c1c(O)c(-c2ccc(O)c(O)c2)oc2cc(O)cc(O)c12
REMARK SMILES IDX 5 1 3 2 2 3 1 4 22 5 20 6 19 7 17 8 16 9 15 10 14 11 6 12
REMARK SMILES IDX 7 13 8 14 9 15 13 16 11 17 10 18 12 20 4 22 21 24 18 26
REMARK H PARENT 10 19 12 21 4 23 21 25 18 27
REMARK Flexibility Score: inf
ROOT
ATOM      1  C   UNL     1      20.730   0.374 -17.550  1.00  0.00     0.180 A 
ATOM      2  C   UNL     1      19.494   0.340 -16.882  1.00  0.00     0.208 A 
ATOM      3  C   UNL     1      19.438   0.725 -15.533  1.00  0.00     0.238 A 
ATOM      4  O   UNL     1      18.338   0.641 -14.926  1.00  0.00    -0.285 OA
ATOM      5  C   UNL     1      20.614   1.156 -14.874  1.00  0.00     0.111 A 
ATOM      6  C   UNL     1      20.666   1.607 -13.521  1.00  0.00     0.134 A 
ATOM      7  C   UNL     1      21.906   1.885 -12.932  1.00  0.00     0.093 A 
ATOM      8  C   UNL     1      23.089   1.790 -13.665  1.00  0.00     0.123 A 
ATOM      9  C   UNL     1      23.044   1.408 -15.007  1.00  0.00     0.094 A 
ATOM     10  C   UNL     1      21.825   1.089 -15.612  1.00  0.00     0.146 A 
ATOM     11  O   UNL     1      21.827   0.719 -16.887  1.00  0.00    -0.452 OA
ENDROOT
BRANCH   1  12
ATOM     12  C   UNL     1      20.864   0.006 -18.979  1.00  0.00     0.025 A 
ATOM     13  C   UNL     1      20.528  -1.280 -19.437  1.00  0.00     0.016 A 
ATOM     14  C   UNL     1      20.640  -1.598 -20.794  1.00  0.00     0.051 A 
ATOM     15  C   UNL     1      21.075  -0.633 -21.711  1.00  0.00     0.157 A 
ATOM     16  C   UNL     1      21.280   0.975 -19.906  1.00  0.00     0.062 A 
ATOM     17  C   UNL     1      21.393   0.656 -21.268  1.00  0.00     0.158 A 
BRANCH  15  18
ATOM     18  O   UNL     1      21.188  -0.947 -23.065  1.00  0.00    -0.504 OA
ATOM     19  H   UNL     1      21.746  -0.382 -23.695  1.00  0.00     0.293 HD
ENDBRANCH  15  18
BRANCH  17  20
ATOM     20  O   UNL     1      21.819   1.617 -22.184  1.00  0.00    -0.504 OA
ATOM     21  H   UNL     1      22.763   1.983 -22.166  1.00  0.00     0.293 HD
ENDBRANCH  17  20
ENDBRANCH   1  12
BRANCH   2  22
ATOM     22  O   UNL     1      18.348  -0.109 -17.545  1.00  0.00    -0.502 OA
ATOM     23  H   UNL     1      18.260  -0.087 -18.555  1.00  0.00     0.293 HD
ENDBRANCH   2  22
BRANCH   6  24
ATOM     24  O   UNL     1      19.536   1.824 -12.726  1.00  0.00    -0.507 OA
ATOM     25  H   UNL     1      18.624   2.069 -13.080  1.00  0.00     0.293 HD
ENDBRANCH   6  24
BRANCH   8  26
ATOM     26  O   UNL     1      24.303   2.089 -13.052  1.00  0.00    -0.508 OA
ATOM     27  H   UNL     1      24.864   2.881 -13.344  1.00  0.00     0.293 HD
ENDBRANCH   8  26
TORSDOF 6
ENDMDL
MODEL 2
REMARK VINA RESULT:    -6.314      3.512      5.094
REMARK INTER + INTRA:          -7.720
REMARK INTER:                  -7.515
REMARK INTRA:                  -0.206
REMARK UNBOUND:                -0.115
REMARK SMILES O=c1c(O)c(-c2ccc(O)c(O)c2)oc2cc(O)cc(O)c12
REMARK SMILES IDX 5 1 3 2 2 3 1 4 22 5 20 6 19 7 17 8 16 9 15 10 14 11 6 12
REMARK SMILES IDX 7 13 8 14 9 15 13 16 11 17 10 18 12 20 4 22 21 24 18 26
REMARK H PARENT 10 19 12 21 4 23 21 25 18 27
REMARK Flexibility Score: inf
ROOT
ATOM      1  C   UNL     1      18.544  -1.070 -16.703  1.00  0.00     0.180 A 
ATOM      2  C   UNL     1      17.933  -0.193 -15.790  1.00  0.00     0.208 A 
ATOM      3  C   UNL     1      17.200  -0.728 -14.718  1.00  0.00     0.238 A 
ATOM      4  O   UNL     1      16.611   0.063 -13.936  1.00  0.00    -0.285 OA
ATOM      5  C   UNL     1      17.101  -2.131 -14.563  1.00  0.00     0.111 A 
ATOM      6  C   UNL     1      16.418  -2.781 -13.492  1.00  0.00     0.134 A 
ATOM      7  C   UNL     1      16.272  -4.174 -13.510  1.00  0.00     0.093 A 
ATOM      8  C   UNL     1      16.840  -4.945 -14.524  1.00  0.00     0.123 A 
ATOM      9  C   UNL     1      17.561  -4.324 -15.545  1.00  0.00     0.094 A 
ATOM     10  C   UNL     1      17.693  -2.932 -15.573  1.00  0.00     0.146 A 
ATOM     11  O   UNL     1      18.377  -2.381 -16.568  1.00  0.00    -0.452 OA
ENDROOT
BRANCH   1  12
ATOM     12  C   UNL     1      19.353  -0.583 -17.843  1.00  0.00     0.025 A 
ATOM     13  C   UNL     1      18.892  -0.693 -19.167  1.00  0.00     0.016 A 
ATOM     14  C   UNL     1      19.662  -0.204 -20.226  1.00  0.00     0.051 A 
ATOM     15  C   UNL     1      20.894   0.414 -19.977  1.00  0.00     0.157 A 
ATOM     16  C   UNL     1      20.580   0.056 -17.598  1.00  0.00     0.062 A 
ATOM     17  C   UNL     1      21.353   0.547 -18.661  1.00  0.00     0.158 A 
BRANCH  15  18
ATOM     18  O   UNL     1      21.665   0.902 -21.031  1.00  0.00    -0.504 OA
ATOM     19  H   UNL     1      22.191   0.281 -21.635  1.00  0.00     0.293 HD
ENDBRANCH  15  18
BRANCH  17  20
ATOM     20  O   UNL     1      22.577   1.168 -18.415  1.00  0.00    -0.504 OA
ATOM     21  H   UNL     1      23.338   1.121 -19.081  1.00  0.00     0.293 HD
ENDBRANCH  17  20
ENDBRANCH   1  12
BRANCH   2  22
ATOM     22  O   UNL     1      18.025   1.189 -15.974  1.00  0.00    -0.502 OA
ATOM     23  H   UNL     1      18.092   1.839 -15.199  1.00  0.00     0.293 HD
ENDBRANCH   2  22
BRANCH   6  24
ATOM     24  O   UNL     1      15.892  -2.114 -12.381  1.00  0.00    -0.507 OA
ATOM     25  H   UNL     1      15.889  -2.479 -11.441  1.00  0.00     0.293 HD
ENDBRANCH   6  24
BRANCH   8  26
ATOM     26  O   UNL     1      16.688  -6.329 -14.503  1.00  0.00    -0.508 OA
ATOM     27  H   UNL     1      17.371  -6.944 -14.930  1.00  0.00     0.293 HD
ENDBRANCH   8  26
TORSDOF 6
ENDMDL
MODEL 3
REMARK VINA RESULT:    -6.302      1.200      2.935
REMARK INTER + INTRA:          -7.707
REMARK INTER:                  -7.574
REMARK INTRA:                  -0.133
REMARK UNBOUND:                -0.115
REMARK SMILES O=c1c(O)c(-c2ccc(O)c(O)c2)oc2cc(O)cc(O)c12
REMARK SMILES IDX 5 1 3 2 2 3 1 4 22 5 20 6 19 7 17 8 16 9 15 10 14 11 6 12
REMARK SMILES IDX 7 13 8 14 9 15 13 16 11 17 10 18 12 20 4 22 21 24 18 26
REMARK H PARENT 10 19 12 21 4 23 21 25 18 27
REMARK Flexibility Score: inf
ROOT
ATOM      1  C   UNL     1      20.921   0.557 -17.510  1.00  0.00     0.180 A 
ATOM      2  C   UNL     1      22.074   0.926 -16.797  1.00  0.00     0.208 A 
ATOM      3  C   UNL     1      21.951   1.299 -15.449  1.00  0.00     0.238 A 
ATOM      4  O   UNL     1      22.980   1.680 -14.831  1.00  0.00    -0.285 OA
ATOM      5  C   UNL     1      20.680   1.284 -14.827  1.00  0.00     0.111 A 
ATOM      6  C   UNL     1      20.445   1.605 -13.456  1.00  0.00     0.134 A 
ATOM      7  C   UNL     1      19.129   1.683 -12.981  1.00  0.00     0.093 A 
ATOM      8  C   UNL     1      18.046   1.390 -13.809  1.00  0.00     0.123 A 
ATOM      9  C   UNL     1      18.268   1.017 -15.135  1.00  0.00     0.094 A 
ATOM     10  C   UNL     1      19.567   0.965 -15.648  1.00  0.00     0.146 A 
ATOM     11  O   UNL     1      19.734   0.617 -16.918  1.00  0.00    -0.452 OA
ENDROOT
BRANCH   1  12
ATOM     12  C   UNL     1      20.974   0.127 -18.927  1.00  0.00     0.025 A 
ATOM     13  C   UNL     1      20.561  -1.159 -19.317  1.00  0.00     0.016 A 
ATOM     14  C   UNL     1      20.597  -1.534 -20.663  1.00  0.00     0.051 A 
ATOM     15  C   UNL     1      21.032  -0.627 -21.638  1.00  0.00     0.157 A 
ATOM     16  C   UNL     1      21.389   1.040 -19.911  1.00  0.00     0.062 A 
ATOM     17  C   UNL     1      21.425   0.664 -21.262  1.00  0.00     0.158 A 
BRANCH  15  18
ATOM     18  O   UNL     1      21.070  -0.997 -22.981  1.00  0.00    -0.504 OA
ATOM     19  H   UNL     1      20.265  -0.882 -23.586  1.00  0.00     0.293 HD
ENDBRANCH  15  18
BRANCH  17  20
ATOM     20  O   UNL     1      21.851   1.567 -22.234  1.00  0.00    -0.504 OA
ATOM     21  H   UNL     1      21.205   2.202 -22.687  1.00  0.00     0.293 HD
ENDBRANCH  17  20
ENDBRANCH   1  12
BRANCH   2  22
ATOM     22  O   UNL     1      23.317   0.955 -17.436  1.00  0.00    -0.502 OA
ATOM     23  H   UNL     1      24.177   0.695 -16.967  1.00  0.00     0.293 HD
ENDBRANCH   2  22
BRANCH   6  24
ATOM     24  O   UNL     1      21.460   1.826 -12.521  1.00  0.00    -0.507 OA
ATOM     25  H   UNL     1      21.309   1.969 -11.534  1.00  0.00     0.293 HD
ENDBRANCH   6  24
BRANCH   8  26
ATOM     26  O   UNL     1      16.751   1.464 -13.299  1.00  0.00    -0.508 OA
ATOM     27  H   UNL     1      16.336   0.689 -12.794  1.00  0.00     0.293 HD
ENDBRANCH   8  26
TORSDOF 6
ENDMDL
MODEL 4
REMARK VINA RESULT:    -6.127      3.642      5.230
REMARK INTER + INTRA:          -7.496
REMARK INTER:                  -7.263
REMARK INTRA:                  -0.233
REMARK UNBOUND:                -0.115
REMARK SMILES O=c1c(O)c(-c2ccc(O)c(O)c2)oc2cc(O)cc(O)c12
REMARK SMILES IDX 5 1 3 2 2 3 1 4 22 5 20 6 19 7 17 8 16 9 15 10 14 11 6 12
REMARK SMILES IDX 7 13 8 14 9 15 13 16 11 17 10 18 12 20 4 22 21 24 18 26
REMARK H PARENT 10 19 12 21 4 23 21 25 18 27
REMARK Flexibility Score: inf
ROOT
ATOM      1  C   UNL     1      18.367  -0.987 -16.369  1.00  0.00     0.180 A 
ATOM      2  C   UNL     1      17.726  -0.107 -15.479  1.00  0.00     0.208 A 
ATOM      3  C   UNL     1      16.975  -0.638 -14.418  1.00  0.00     0.238 A 
ATOM      4  O   UNL     1      16.360   0.154 -13.657  1.00  0.00    -0.285 OA
ATOM      5  C   UNL     1      16.888  -2.041 -14.250  1.00  0.00     0.111 A 
ATOM      6  C   UNL     1      16.188  -2.687 -13.187  1.00  0.00     0.134 A 
ATOM      7  C   UNL     1      16.059  -4.082 -13.193  1.00  0.00     0.093 A 
ATOM      8  C   UNL     1      16.657  -4.857 -14.186  1.00  0.00     0.123 A 
ATOM      9  C   UNL     1      17.394  -4.238 -15.198  1.00  0.00     0.094 A 
ATOM     10  C   UNL     1      17.511  -2.846 -15.238  1.00  0.00     0.146 A 
ATOM     11  O   UNL     1      18.211  -2.297 -16.223  1.00  0.00    -0.452 OA
ENDROOT
BRANCH   1  12
ATOM     12  C   UNL     1      19.195  -0.502 -17.496  1.00  0.00     0.025 A 
ATOM     13  C   UNL     1      20.430   0.133 -17.276  1.00  0.00     0.016 A 
ATOM     14  C   UNL     1      21.207   0.561 -18.357  1.00  0.00     0.051 A 
ATOM     15  C   UNL     1      20.768   0.348 -19.670  1.00  0.00     0.157 A 
ATOM     16  C   UNL     1      18.771  -0.732 -18.815  1.00  0.00     0.062 A 
ATOM     17  C   UNL     1      19.550  -0.303 -19.900  1.00  0.00     0.158 A 
BRANCH  15  18
ATOM     18  O   UNL     1      21.540   0.774 -20.750  1.00  0.00    -0.504 OA
ATOM     19  H   UNL     1      21.243   0.621 -21.706  1.00  0.00     0.293 HD
ENDBRANCH  15  18
BRANCH  17  20
ATOM     20  O   UNL     1      19.119  -0.520 -21.208  1.00  0.00    -0.504 OA
ATOM     21  H   UNL     1      19.386  -1.349 -21.723  1.00  0.00     0.293 HD
ENDBRANCH  17  20
ENDBRANCH   1  12
BRANCH   2  22
ATOM     22  O   UNL     1      17.807   1.274 -15.676  1.00  0.00    -0.502 OA
ATOM     23  H   UNL     1      16.993   1.844 -15.877  1.00  0.00     0.293 HD
ENDBRANCH   2  22
BRANCH   6  24
ATOM     24  O   UNL     1      15.630  -2.014 -12.096  1.00  0.00    -0.507 OA
ATOM     25  H   UNL     1      14.672  -2.104 -11.795  1.00  0.00     0.293 HD
ENDBRANCH   6  24
BRANCH   8  26
ATOM     26  O   UNL     1      16.521  -6.243 -14.153  1.00  0.00    -0.508 OA
ATOM     27  H   UNL     1      17.083  -6.816 -13.535  1.00  0.00     0.293 HD
ENDBRANCH   8  26
TORSDOF 6
ENDMDL
MODEL 5
REMARK VINA RESULT:    -6.075      9.085     10.411
REMARK INTER + INTRA:          -7.433
REMARK INTER:                  -7.114
REMARK INTRA:                  -0.319
REMARK UNBOUND:                -0.115
REMARK SMILES O=c1c(O)c(-c2ccc(O)c(O)c2)oc2cc(O)cc(O)c12
REMARK SMILES IDX 5 1 3 2 2 3 1 4 22 5 20 6 19 7 17 8 16 9 15 10 14 11 6 12
REMARK SMILES IDX 7 13 8 14 9 15 13 16 11 17 10 18 12 20 4 22 21 24 18 26
REMARK H PARENT 10 19 12 21 4 23 21 25 18 27
REMARK Flexibility Score: inf
ROOT
ATOM      1  C   UNL     1      18.918  -1.716  -8.046  1.00  0.00     0.180 A 
ATOM      2  C   UNL     1      18.856  -2.424  -6.832  1.00  0.00     0.208 A 
ATOM      3  C   UNL     1      20.049  -2.875  -6.245  1.00  0.00     0.238 A 
ATOM      4  O   UNL     1      19.983  -3.554  -5.188  1.00  0.00    -0.285 OA
ATOM      5  C   UNL     1      21.290  -2.599  -6.869  1.00  0.00     0.111 A 
ATOM      6  C   UNL     1      22.562  -2.973  -6.342  1.00  0.00     0.134 A 
ATOM      7  C   UNL     1      23.715  -2.764  -7.108  1.00  0.00     0.093 A 
ATOM      8  C   UNL     1      23.650  -2.136  -8.352  1.00  0.00     0.123 A 
ATOM      9  C   UNL     1      22.417  -1.712  -8.851  1.00  0.00     0.094 A 
ATOM     10  C   UNL     1      21.244  -1.940  -8.125  1.00  0.00     0.146 A 
ATOM     11  O   UNL     1      20.090  -1.531  -8.640  1.00  0.00    -0.452 OA
ENDROOT
BRANCH   1  12
ATOM     12  C   UNL     1      17.706  -1.188  -8.713  1.00  0.00     0.025 A 
ATOM     13  C   UNL     1      17.285   0.140  -8.521  1.00  0.00     0.016 A 
ATOM     14  C   UNL     1      16.152   0.624  -9.180  1.00  0.00     0.051 A 
ATOM     15  C   UNL     1      15.432  -0.206 -10.049  1.00  0.00     0.157 A 
ATOM     16  C   UNL     1      16.992  -2.009  -9.601  1.00  0.00     0.062 A 
ATOM     17  C   UNL     1      15.854  -1.524 -10.262  1.00  0.00     0.158 A 
BRANCH  15  18
ATOM     18  O   UNL     1      14.300   0.273 -10.707  1.00  0.00    -0.504 OA
ATOM     19  H   UNL     1      13.616   0.852 -10.232  1.00  0.00     0.293 HD
ENDBRANCH  15  18
BRANCH  17  20
ATOM     20  O   UNL     1      15.139  -2.346 -11.132  1.00  0.00    -0.504 OA
ATOM     21  H   UNL     1      15.325  -2.352 -12.127  1.00  0.00     0.293 HD
ENDBRANCH  17  20
ENDBRANCH   1  12
BRANCH   2  22
ATOM     22  O   UNL     1      17.619  -2.704  -6.244  1.00  0.00    -0.502 OA
ATOM     23  H   UNL     1      16.765  -2.785  -6.784  1.00  0.00     0.293 HD
ENDBRANCH   2  22
BRANCH   6  24
ATOM     24  O   UNL     1      22.750  -3.524  -5.071  1.00  0.00    -0.507 OA
ATOM     25  H   UNL     1      23.395  -4.269  -4.858  1.00  0.00     0.293 HD
ENDBRANCH   6  24
BRANCH   8  26
ATOM     26  O   UNL     1      24.819  -1.930  -9.081  1.00  0.00    -0.508 OA
ATOM     27  H   UNL     1      25.733  -2.052  -8.662  1.00  0.00     0.293 HD
ENDBRANCH   8  26
TORSDOF 6
ENDMDL
MODEL 6
REMARK VINA RESULT:    -6.022      2.787      6.958
REMARK INTER + INTRA:          -7.369
REMARK INTER:                  -7.052
REMARK INTRA:                  -0.317
REMARK UNBOUND:                -0.115
REMARK SMILES O=c1c(O)c(-c2ccc(O)c(O)c2)oc2cc(O)cc(O)c12
REMARK SMILES IDX 5 1 3 2 2 3 1 4 22 5 20 6 19 7 17 8 16 9 15 10 14 11 6 12
REMARK SMILES IDX 7 13 8 14 9 15 13 16 11 17 10 18 12 20 4 22 21 24 18 26
REMARK H PARENT 10 19 12 21 4 23 21 25 18 27
REMARK Flexibility Score: inf
ROOT
ATOM      1  C   UNL     1      18.398  -0.296 -16.117  1.00  0.00     0.180 A 
ATOM      2  C   UNL     1      19.482   0.449 -15.620  1.00  0.00     0.208 A 
ATOM      3  C   UNL     1      20.519   0.809 -16.495  1.00  0.00     0.238 A 
ATOM      4  O   UNL     1      21.512   1.429 -16.032  1.00  0.00    -0.285 OA
ATOM      5  C   UNL     1      20.453   0.434 -17.859  1.00  0.00     0.111 A 
ATOM      6  C   UNL     1      21.428   0.779 -18.842  1.00  0.00     0.134 A 
ATOM      7  C   UNL     1      21.327   0.244 -20.132  1.00  0.00     0.093 A 
ATOM      8  C   UNL     1      20.253  -0.571 -20.492  1.00  0.00     0.123 A 
ATOM      9  C   UNL     1      19.262  -0.866 -19.555  1.00  0.00     0.094 A 
ATOM     10  C   UNL     1      19.354  -0.376 -18.249  1.00  0.00     0.146 A 
ATOM     11  O   UNL     1      18.397  -0.689 -17.385  1.00  0.00    -0.452 OA
ENDROOT
BRANCH   1  12
ATOM     12  C   UNL     1      17.255  -0.691 -15.262  1.00  0.00     0.025 A 
ATOM     13  C   UNL     1      17.229  -1.935 -14.606  1.00  0.00     0.016 A 
ATOM     14  C   UNL     1      16.151  -2.277 -13.784  1.00  0.00     0.051 A 
ATOM     15  C   UNL     1      15.094  -1.378 -13.595  1.00  0.00     0.157 A 
ATOM     16  C   UNL     1      16.203   0.214 -15.052  1.00  0.00     0.062 A 
ATOM     17  C   UNL     1      15.121  -0.128 -14.227  1.00  0.00     0.158 A 
BRANCH  15  18
ATOM     18  O   UNL     1      14.017  -1.716 -12.777  1.00  0.00    -0.504 OA
ATOM     19  H   UNL     1      13.060  -1.652 -13.107  1.00  0.00     0.293 HD
ENDBRANCH  15  18
BRANCH  17  20
ATOM     20  O   UNL     1      14.070   0.767 -14.032  1.00  0.00    -0.504 OA
ATOM     21  H   UNL     1      14.208   1.768 -14.105  1.00  0.00     0.293 HD
ENDBRANCH  17  20
ENDBRANCH   1  12
BRANCH   2  22
ATOM     22  O   UNL     1      19.538   0.790 -14.266  1.00  0.00    -0.502 OA
ATOM     23  H   UNL     1      18.724   0.760 -13.662  1.00  0.00     0.293 HD
ENDBRANCH   2  22
BRANCH   6  24
ATOM     24  O   UNL     1      22.491   1.658 -18.613  1.00  0.00    -0.507 OA
ATOM     25  H   UNL     1      22.778   1.986 -17.704  1.00  0.00     0.293 HD
ENDBRANCH   6  24
BRANCH   8  26
ATOM     26  O   UNL     1      20.176  -1.074 -21.789  1.00  0.00    -0.508 OA
ATOM     27  H   UNL     1      19.591  -0.639 -22.492  1.00  0.00     0.293 HD
ENDBRANCH   8  26
TORSDOF 6
ENDMDL
MODEL 7
REMARK VINA RESULT:    -5.983     12.316     14.779
REMARK INTER + INTRA:          -7.323
REMARK INTER:                  -6.994
REMARK INTRA:                  -0.329
REMARK UNBOUND:                -0.115
REMARK SMILES O=c1c(O)c(-c2ccc(O)c(O)c2)oc2cc(O)cc(O)c12
REMARK SMILES IDX 5 1 3 2 2 3 1 4 22 5 20 6 19 7 17 8 16 9 15 10 14 11 6 12
REMARK SMILES IDX 7 13 8 14 9 15 13 16 11 17 10 18 12 20 4 22 21 24 18 26
REMARK H PARENT 10 19 12 21 4 23 21 25 18 27
REMARK Flexibility Score: inf
ROOT
ATOM      1  C   UNL     1      11.352  -6.396 -10.871  1.00  0.00     0.180 A 
ATOM      2  C   UNL     1      11.106  -6.612  -9.504  1.00  0.00     0.208 A 
ATOM      3  C   UNL     1       9.938  -7.291  -9.122  1.00  0.00     0.238 A 
ATOM      4  O   UNL     1       9.696  -7.434  -7.895  1.00  0.00    -0.285 OA
ATOM      5  C   UNL     1       9.039  -7.760 -10.111  1.00  0.00     0.111 A 
ATOM      6  C   UNL     1       7.846  -8.494  -9.838  1.00  0.00     0.134 A 
ATOM      7  C   UNL     1       6.966  -8.793 -10.885  1.00  0.00     0.093 A 
ATOM      8  C   UNL     1       7.265  -8.442 -12.202  1.00  0.00     0.123 A 
ATOM      9  C   UNL     1       8.458  -7.775 -12.487  1.00  0.00     0.094 A 
ATOM     10  C   UNL     1       9.340  -7.432 -11.458  1.00  0.00     0.146 A 
ATOM     11  O   UNL     1      10.458  -6.788 -11.771  1.00  0.00    -0.452 OA
ENDROOT
BRANCH   1  12
ATOM     12  C   UNL     1      12.573  -5.709 -11.353  1.00  0.00     0.025 A 
ATOM     13  C   UNL     1      13.735  -6.430 -11.682  1.00  0.00     0.016 A 
ATOM     14  C   UNL     1      14.868  -5.763 -12.157  1.00  0.00     0.051 A 
ATOM     15  C   UNL     1      14.851  -4.372 -12.324  1.00  0.00     0.157 A 
ATOM     16  C   UNL     1      12.555  -4.318 -11.542  1.00  0.00     0.062 A 
ATOM     17  C   UNL     1      13.691  -3.648 -12.019  1.00  0.00     0.158 A 
BRANCH  15  18
ATOM     18  O   UNL     1      15.979  -3.704 -12.797  1.00  0.00    -0.504 OA
ATOM     19  H   UNL     1      15.928  -3.071 -13.588  1.00  0.00     0.293 HD
ENDBRANCH  15  18
BRANCH  17  20
ATOM     20  O   UNL     1      13.675  -2.265 -12.192  1.00  0.00    -0.504 OA
ATOM     21  H   UNL     1      13.423  -1.846 -13.079  1.00  0.00     0.293 HD
ENDBRANCH  17  20
ENDBRANCH   1  12
BRANCH   2  22
ATOM     22  O   UNL     1      11.995  -6.123  -8.544  1.00  0.00    -0.502 OA
ATOM     23  H   UNL     1      12.948  -6.457  -8.463  1.00  0.00     0.293 HD
ENDBRANCH   2  22
BRANCH   6  24
ATOM     24  O   UNL     1       7.496  -8.974  -8.573  1.00  0.00    -0.507 OA
ATOM     25  H   UNL     1       8.124  -9.455  -7.948  1.00  0.00     0.293 HD
ENDBRANCH   6  24
BRANCH   8  26
ATOM     26  O   UNL     1       6.373  -8.769 -13.220  1.00  0.00    -0.508 OA
ATOM     27  H   UNL     1       5.373  -8.794 -13.060  1.00  0.00     0.293 HD
ENDBRANCH   8  26
TORSDOF 6
ENDMDL
MODEL 8
REMARK VINA RESULT:    -5.806      8.417     11.075
REMARK INTER + INTRA:          -7.109
REMARK INTER:                  -6.879
REMARK INTRA:                  -0.230
REMARK UNBOUND:                -0.115
REMARK SMILES O=c1c(O)c(-c2ccc(O)c(O)c2)oc2cc(O)cc(O)c12
REMARK SMILES IDX 5 1 3 2 2 3 1 4 22 5 20 6 19 7 17 8 16 9 15 10 14 11 6 12
REMARK SMILES IDX 7 13 8 14 9 15 13 16 11 17 10 18 12 20 4 22 21 24 18 26
REMARK H PARENT 10 19 12 21 4 23 21 25 18 27
REMARK Flexibility Score: inf
ROOT
ATOM      1  C   UNL     1      17.840  -2.049  -9.192  1.00  0.00     0.180 A 
ATOM      2  C   UNL     1      17.019  -0.912  -9.088  1.00  0.00     0.208 A 
ATOM      3  C   UNL     1      15.957  -0.754  -9.993  1.00  0.00     0.238 A 
ATOM      4  O   UNL     1      15.260   0.292  -9.929  1.00  0.00    -0.285 OA
ATOM      5  C   UNL     1      15.719  -1.741 -10.979  1.00  0.00     0.111 A 
ATOM      6  C   UNL     1      14.648  -1.703 -11.921  1.00  0.00     0.134 A 
ATOM      7  C   UNL     1      14.585  -2.667 -12.936  1.00  0.00     0.093 A 
ATOM      8  C   UNL     1      15.517  -3.703 -13.003  1.00  0.00     0.123 A 
ATOM      9  C   UNL     1      16.534  -3.784 -12.051  1.00  0.00     0.094 A 
ATOM     10  C   UNL     1      16.643  -2.816 -11.048  1.00  0.00     0.146 A 
ATOM     11  O   UNL     1      17.632  -2.923 -10.169  1.00  0.00    -0.452 OA
ENDROOT
BRANCH   1  12
ATOM     12  C   UNL     1      18.963  -2.298  -8.259  1.00  0.00     0.025 A 
ATOM     13  C   UNL     1      20.300  -2.139  -8.666  1.00  0.00     0.016 A 
ATOM     14  C   UNL     1      21.344  -2.355  -7.761  1.00  0.00     0.051 A 
ATOM     15  C   UNL     1      21.067  -2.719  -6.438  1.00  0.00     0.157 A 
ATOM     16  C   UNL     1      18.691  -2.642  -6.925  1.00  0.00     0.062 A 
ATOM     17  C   UNL     1      19.738  -2.860  -6.017  1.00  0.00     0.158 A 
BRANCH  15  18
ATOM     18  O   UNL     1      22.105  -2.937  -5.533  1.00  0.00    -0.504 OA
ATOM     19  H   UNL     1      21.947  -3.404  -4.648  1.00  0.00     0.293 HD
ENDBRANCH  15  18
BRANCH  17  20
ATOM     20  O   UNL     1      19.465  -3.216  -4.697  1.00  0.00    -0.504 OA
ATOM     21  H   UNL     1      19.986  -3.946  -4.227  1.00  0.00     0.293 HD
ENDBRANCH  17  20
ENDBRANCH   1  12
BRANCH   2  22
ATOM     22  O   UNL     1      17.285   0.061  -8.121  1.00  0.00    -0.502 OA
ATOM     23  H   UNL     1      17.504  -0.173  -7.159  1.00  0.00     0.293 HD
ENDBRANCH   2  22
BRANCH   6  24
ATOM     24  O   UNL     1      13.612  -0.764 -11.889  1.00  0.00    -0.507 OA
ATOM     25  H   UNL     1      13.638   0.135 -12.345  1.00  0.00     0.293 HD
ENDBRANCH   6  24
BRANCH   8  26
ATOM     26  O   UNL     1      15.415  -4.653 -14.017  1.00  0.00    -0.508 OA
ATOM     27  H   UNL     1      15.090  -4.406 -14.944  1.00  0.00     0.293 HD
ENDBRANCH   8  26
TORSDOF 6
ENDMDL
MODEL 9
REMARK VINA RESULT:    -5.803     11.896     13.591
REMARK INTER + INTRA:          -7.105
REMARK INTER:                  -6.779
REMARK INTRA:                  -0.326
REMARK UNBOUND:                -0.115
REMARK SMILES O=c1c(O)c(-c2ccc(O)c(O)c2)oc2cc(O)cc(O)c12
REMARK SMILES IDX 5 1 3 2 2 3 1 4 22 5 20 6 19 7 17 8 16 9 15 10 14 11 6 12
REMARK SMILES IDX 7 13 8 14 9 15 13 16 11 17 10 18 12 20 4 22 21 24 18 26
REMARK H PARENT 10 19 12 21 4 23 21 25 18 27
REMARK Flexibility Score: inf
ROOT
ATOM      1  C   UNL     1      10.445   7.758 -19.274  1.00  0.00     0.180 A 
ATOM      2  C   UNL     1      11.606   8.307 -18.703  1.00  0.00     0.208 A 
ATOM      3  C   UNL     1      12.639   7.447 -18.299  1.00  0.00     0.238 A 
ATOM      4  O   UNL     1      13.653   7.940 -17.739  1.00  0.00    -0.285 OA
ATOM      5  C   UNL     1      12.507   6.049 -18.486  1.00  0.00     0.111 A 
ATOM      6  C   UNL     1      13.507   5.089 -18.151  1.00  0.00     0.134 A 
ATOM      7  C   UNL     1      13.217   3.723 -18.258  1.00  0.00     0.093 A 
ATOM      8  C   UNL     1      11.987   3.284 -18.748  1.00  0.00     0.123 A 
ATOM      9  C   UNL     1      11.023   4.217 -19.135  1.00  0.00     0.094 A 
ATOM     10  C   UNL     1      11.271   5.586 -19.006  1.00  0.00     0.146 A 
ATOM     11  O   UNL     1      10.323   6.439 -19.375  1.00  0.00    -0.452 OA
ENDROOT
BRANCH   1  12
ATOM     12  C   UNL     1       9.324   8.602 -19.747  1.00  0.00     0.025 A 
ATOM     13  C   UNL     1       9.337   9.187 -21.025  1.00  0.00     0.016 A 
ATOM     14  C   UNL     1       8.256   9.960 -21.459  1.00  0.00     0.051 A 
ATOM     15  C   UNL     1       7.144  10.148 -20.629  1.00  0.00     0.157 A 
ATOM     16  C   UNL     1       8.197   8.776 -18.927  1.00  0.00     0.062 A 
ATOM     17  C   UNL     1       7.112   9.552 -19.362  1.00  0.00     0.158 A 
BRANCH  15  18
ATOM     18  O   UNL     1       6.065  10.919 -21.058  1.00  0.00    -0.504 OA
ATOM     19  H   UNL     1       5.673  11.652 -20.477  1.00  0.00     0.293 HD
ENDBRANCH  15  18
BRANCH  17  20
ATOM     20  O   UNL     1       6.001   9.736 -18.540  1.00  0.00    -0.504 OA
ATOM     21  H   UNL     1       5.634  10.659 -18.344  1.00  0.00     0.293 HD
ENDBRANCH  17  20
ENDBRANCH   1  12
BRANCH   2  22
ATOM     22  O   UNL     1      11.708   9.687 -18.507  1.00  0.00    -0.502 OA
ATOM     23  H   UNL     1      12.103  10.308 -19.204  1.00  0.00     0.293 HD
ENDBRANCH   2  22
BRANCH   6  24
ATOM     24  O   UNL     1      14.801   5.420 -17.738  1.00  0.00    -0.507 OA
ATOM     25  H   UNL     1      15.098   6.346 -17.468  1.00  0.00     0.293 HD
ENDBRANCH   6  24
BRANCH   8  26
ATOM     26  O   UNL     1      11.737   1.918 -18.856  1.00  0.00    -0.508 OA
ATOM     27  H   UNL     1      12.397   1.230 -18.512  1.00  0.00     0.293 HD
ENDBRANCH   8  26
TORSDOF 6
ENDMDL
