MODEL 1
REMARK VINA RESULT:    -6.411      0.000      0.000
REMARK INTER + INTRA:          -6.598
REMARK INTER:                  -6.598
REMARK INTRA:                   0.000
REMARK UNBOUND:                 0.000
REMARK SMILES O=c1ccc2ccc(O)cc2o1
REMARK SMILES IDX 6 1 7 2 8 3 10 4 11 5 5 6 4 7 3 8 2 9 1 10 12 11 9 12
REMARK H PARENT 9 13
REMARK Flexibility Score: inf
ROOT
ATOM      1  C   UNL     1      55.191  17.154   1.947  1.00  0.00     0.016 A 
ATOM      2  C   UNL     1      56.100  16.954   0.904  1.00  0.00     0.047 A 
ATOM      3  C   UNL     1      55.676  17.030  -0.429  1.00  0.00     0.119 A 
ATOM      4  C   UNL     1      54.333  17.308  -0.720  1.00  0.00     0.094 A 
ATOM      5  C   UNL     1      53.415  17.510   0.317  1.00  0.00     0.142 A 
ATOM      6  C   UNL     1      53.847  17.432   1.660  1.00  0.00     0.018 A 
ATOM      7  C   UNL     1      52.908  17.639   2.675  1.00  0.00     0.019 A 
ATOM      8  C   UNL     1      51.583  17.913   2.336  1.00  0.00     0.094 A 
ATOM      9  C   UNL     1      51.228  17.974   0.985  1.00  0.00     0.336 A 
ATOM     10  O   UNL     1      50.037  18.221   0.659  1.00  0.00    -0.246 OA
ATOM     11  O   UNL     1      52.141  17.775   0.038  1.00  0.00    -0.423 OA
ENDROOT
BRANCH   3  12
ATOM     12  O   UNL     1      56.596  16.828  -1.454  1.00  0.00    -0.508 OA
ATOM     13  H   UNL     1      56.651  15.948  -1.952  1.00  0.00     0.293 HD
ENDBRANCH   3  12
TORSDOF 1
ENDMDL
MODEL 2
REMARK VINA RESULT:    -6.280      2.504      3.244
REMARK INTER + INTRA:          -6.463
REMARK INTER:                  -6.463
REMARK INTRA:                   0.000
REMARK UNBOUND:                 0.000
REMARK SMILES O=c1ccc2ccc(O)cc2o1
REMARK SMILES IDX 6 1 7 2 8 3 10 4 11 5 5 6 4 7 3 8 2 9 1 10 12 11 9 12
REMARK H PARENT 9 13
REMARK Flexibility Score: inf
ROOT
ATOM      1  C   UNL     1      53.648  15.042  -1.413  1.00  0.00     0.016 A 
ATOM      2  C   UNL     1      54.256  14.226  -0.455  1.00  0.00     0.047 A 
ATOM      3  C   UNL     1      54.079  14.485   0.910  1.00  0.00     0.119 A 
ATOM      4  C   UNL     1      53.288  15.569   1.319  1.00  0.00     0.094 A 
ATOM      5  C   UNL     1      52.676  16.391   0.366  1.00  0.00     0.142 A 
ATOM      6  C   UNL     1      52.858  16.126  -1.009  1.00  0.00     0.018 A 
ATOM      7  C   UNL     1      52.234  16.965  -1.938  1.00  0.00     0.019 A 
ATOM      8  C   UNL     1      51.457  18.031  -1.483  1.00  0.00     0.094 A 
ATOM      9  C   UNL     1      51.322  18.233  -0.106  1.00  0.00     0.336 A 
ATOM     10  O   UNL     1      50.625  19.189   0.324  1.00  0.00    -0.246 OA
ATOM     11  O   UNL     1      51.926  17.419   0.757  1.00  0.00    -0.423 OA
ENDROOT
BRANCH   3  12
ATOM     12  O   UNL     1      54.691  13.660   1.851  1.00  0.00    -0.508 OA
ATOM     13  H   UNL     1      55.433  13.021   1.592  1.00  0.00     0.293 HD
ENDBRANCH   3  12
TORSDOF 1
ENDMDL
MODEL 3
REMARK VINA RESULT:    -6.265      2.083      4.988
REMARK INTER + INTRA:          -6.448
REMARK INTER:                  -6.448
REMARK INTRA:                   0.000
REMARK UNBOUND:                 0.000
REMARK SMILES O=c1ccc2ccc(O)cc2o1
REMARK SMILES IDX 6 1 7 2 8 3 10 4 11 5 5 6 4 7 3 8 2 9 1 10 12 11 9 12
REMARK H PARENT 9 13
REMARK Flexibility Score: inf
ROOT
ATOM      1  C   UNL     1      54.601  17.666   1.818  1.00  0.00     0.016 A 
ATOM      2  C   UNL     1      53.279  17.252   1.999  1.00  0.00     0.047 A 
ATOM      3  C   UNL     1      52.888  15.954   1.648  1.00  0.00     0.119 A 
ATOM      4  C   UNL     1      53.829  15.063   1.110  1.00  0.00     0.094 A 
ATOM      5  C   UNL     1      55.155  15.468   0.925  1.00  0.00     0.142 A 
ATOM      6  C   UNL     1      55.544  16.779   1.280  1.00  0.00     0.018 A 
ATOM      7  C   UNL     1      56.876  17.155   1.084  1.00  0.00     0.019 A 
ATOM      8  C   UNL     1      57.775  16.234   0.546  1.00  0.00     0.094 A 
ATOM      9  C   UNL     1      57.319  14.954   0.217  1.00  0.00     0.336 A 
ATOM     10  O   UNL     1      58.115  14.108  -0.270  1.00  0.00    -0.246 OA
ATOM     11  O   UNL     1      56.045  14.620   0.414  1.00  0.00    -0.423 OA
ENDROOT
BRANCH   3  12
ATOM     12  O   UNL     1      51.566  15.559   1.837  1.00  0.00    -0.508 OA
ATOM     13  H   UNL     1      51.199  15.362   2.761  1.00  0.00     0.293 HD
ENDBRANCH   3  12
TORSDOF 1
ENDMDL
MODEL 4
REMARK VINA RESULT:    -6.212      2.699      5.037
REMARK INTER + INTRA:          -6.393
REMARK INTER:                  -6.393
REMARK INTRA:                   0.000
REMARK UNBOUND:                 0.000
REMARK SMILES O=c1ccc2ccc(O)cc2o1
REMARK SMILES IDX 6 1 7 2 8 3 10 4 11 5 5 6 4 7 3 8 2 9 1 10 12 11 9 12
REMARK H PARENT 9 13
REMARK Flexibility Score: inf
ROOT
ATOM      1  C   UNL     1      53.097  15.193  -1.077  1.00  0.00     0.016 A 
ATOM      2  C   UNL     1      52.896  16.560  -1.287  1.00  0.00     0.047 A 
ATOM      3  C   UNL     1      53.921  17.476  -1.017  1.00  0.00     0.119 A 
ATOM      4  C   UNL     1      55.156  17.020  -0.533  1.00  0.00     0.094 A 
ATOM      5  C   UNL     1      55.366  15.653  -0.320  1.00  0.00     0.142 A 
ATOM      6  C   UNL     1      54.329  14.733  -0.593  1.00  0.00     0.018 A 
ATOM      7  C   UNL     1      54.568  13.374  -0.371  1.00  0.00     0.019 A 
ATOM      8  C   UNL     1      55.813  12.968   0.111  1.00  0.00     0.094 A 
ATOM      9  C   UNL     1      56.792  13.935   0.360  1.00  0.00     0.336 A 
ATOM     10  O   UNL     1      57.922  13.588   0.795  1.00  0.00    -0.246 OA
ATOM     11  O   UNL     1      56.539  15.223   0.139  1.00  0.00    -0.423 OA
ENDROOT
BRANCH   3  12
ATOM     12  O   UNL     1      53.703  18.834  -1.233  1.00  0.00    -0.508 OA
ATOM     13  H   UNL     1      52.787  19.192  -1.479  1.00  0.00     0.293 HD
ENDBRANCH   3  12
TORSDOF 1
ENDMDL
MODEL 5
REMARK VINA RESULT:    -5.741      3.498      4.763
REMARK INTER + INTRA:          -5.909
REMARK INTER:                  -5.909
REMARK INTRA:                   0.000
REMARK UNBOUND:                 0.000
REMARK SMILES O=c1ccc2ccc(O)cc2o1
REMARK SMILES IDX 6 1 7 2 8 3 10 4 11 5 5 6 4 7 3 8 2 9 1 10 12 11 9 12
REMARK H PARENT 9 13
REMARK Flexibility Score: inf
ROOT
ATOM      1  C   UNL     1      58.127  13.722   0.172  1.00  0.00     0.016 A 
ATOM      2  C   UNL     1      57.665  12.425  -0.069  1.00  0.00     0.047 A 
ATOM      3  C   UNL     1      56.290  12.160  -0.118  1.00  0.00     0.119 A 
ATOM      4  C   UNL     1      55.371  13.201   0.077  1.00  0.00     0.094 A 
ATOM      5  C   UNL     1      55.824  14.503   0.320  1.00  0.00     0.142 A 
ATOM      6  C   UNL     1      57.211  14.765   0.368  1.00  0.00     0.018 A 
ATOM      7  C   UNL     1      57.634  16.075   0.612  1.00  0.00     0.019 A 
ATOM      8  C   UNL     1      56.682  17.077   0.800  1.00  0.00     0.094 A 
ATOM      9  C   UNL     1      55.325  16.744   0.739  1.00  0.00     0.336 A 
ATOM     10  O   UNL     1      54.451  17.635   0.905  1.00  0.00    -0.246 OA
ATOM     11  O   UNL     1      54.949  15.489   0.504  1.00  0.00    -0.423 OA
ENDROOT
BRANCH   3  12
ATOM     12  O   UNL     1      55.849  10.862  -0.360  1.00  0.00    -0.508 OA
ATOM     13  H   UNL     1      56.192  10.324  -1.148  1.00  0.00     0.293 HD
ENDBRANCH   3  12
TORSDOF 1
ENDMDL
MODEL 6
REMARK VINA RESULT:    -5.729      2.592      4.221
REMARK INTER + INTRA:          -5.896
REMARK INTER:                  -5.896
REMARK INTRA:                   0.000
REMARK UNBOUND:                 0.000
REMARK SMILES O=c1ccc2ccc(O)cc2o1
REMARK SMILES IDX 6 1 7 2 8 3 10 4 11 5 5 6 4 7 3 8 2 9 1 10 12 11 9 12
REMARK H PARENT 9 13
REMARK Flexibility Score: inf
ROOT
ATOM      1  C   UNL     1      51.971  17.458   0.811  1.00  0.00     0.016 A 
ATOM      2  C   UNL     1      51.448  18.177  -0.268  1.00  0.00     0.047 A 
ATOM      3  C   UNL     1      51.715  17.776  -1.583  1.00  0.00     0.119 A 
ATOM      4  C   UNL     1      52.513  16.647  -1.821  1.00  0.00     0.094 A 
ATOM      5  C   UNL     1      53.041  15.921  -0.747  1.00  0.00     0.142 A 
ATOM      6  C   UNL     1      52.769  16.330   0.578  1.00  0.00     0.018 A 
ATOM      7  C   UNL     1      53.310  15.585   1.629  1.00  0.00     0.019 A 
ATOM      8  C   UNL     1      54.098  14.470   1.344  1.00  0.00     0.094 A 
ATOM      9  C   UNL     1      54.326  14.124   0.008  1.00  0.00     0.336 A 
ATOM     10  O   UNL     1      55.034  13.121  -0.271  1.00  0.00    -0.246 OA
ATOM     11  O   UNL     1      53.798  14.850  -0.975  1.00  0.00    -0.423 OA
ENDROOT
BRANCH   3  12
ATOM     12  O   UNL     1      51.184  18.504  -2.644  1.00  0.00    -0.508 OA
ATOM     13  H   UNL     1      51.353  18.237  -3.607  1.00  0.00     0.293 HD
ENDBRANCH   3  12
TORSDOF 1
ENDMDL
MODEL 7
REMARK VINA RESULT:    -5.711      2.499      4.674
REMARK INTER + INTRA:          -5.878
REMARK INTER:                  -5.878
REMARK INTRA:                   0.000
REMARK UNBOUND:                 0.000
REMARK SMILES O=c1ccc2ccc(O)cc2o1
REMARK SMILES IDX 6 1 7 2 8 3 10 4 11 5 5 6 4 7 3 8 2 9 1 10 12 11 9 12
REMARK H PARENT 9 13
REMARK Flexibility Score: inf
ROOT
ATOM      1  C   UNL     1      52.156  17.132  -1.931  1.00  0.00     0.016 A 
ATOM      2  C   UNL     1      51.454  18.208  -1.380  1.00  0.00     0.047 A 
ATOM      3  C   UNL     1      51.426  18.399   0.007  1.00  0.00     0.119 A 
ATOM      4  C   UNL     1      52.104  17.506   0.850  1.00  0.00     0.094 A 
ATOM      5  C   UNL     1      52.809  16.425   0.307  1.00  0.00     0.142 A 
ATOM      6  C   UNL     1      52.835  16.237  -1.093  1.00  0.00     0.018 A 
ATOM      7  C   UNL     1      53.547  15.149  -1.605  1.00  0.00     0.019 A 
ATOM      8  C   UNL     1      54.206  14.287  -0.728  1.00  0.00     0.094 A 
ATOM      9  C   UNL     1      54.137  14.536   0.646  1.00  0.00     0.336 A 
ATOM     10  O   UNL     1      54.725  13.771   1.454  1.00  0.00    -0.246 OA
ATOM     11  O   UNL     1      53.452  15.580   1.109  1.00  0.00    -0.423 OA
ENDROOT
BRANCH   3  12
ATOM     12  O   UNL     1      50.723  19.478   0.537  1.00  0.00    -0.508 OA
ATOM     13  H   UNL     1      50.792  19.725   1.518  1.00  0.00     0.293 HD
ENDBRANCH   3  12
TORSDOF 1
ENDMDL
MODEL 8
REMARK VINA RESULT:    -5.593      1.730      4.757
REMARK INTER + INTRA:          -5.757
REMARK INTER:                  -5.757
REMARK INTRA:                   0.000
REMARK UNBOUND:                 0.000
REMARK SMILES O=c1ccc2ccc(O)cc2o1
REMARK SMILES IDX 6 1 7 2 8 3 10 4 11 5 5 6 4 7 3 8 2 9 1 10 12 11 9 12
REMARK H PARENT 9 13
REMARK Flexibility Score: inf
ROOT
ATOM      1  C   UNL     1      51.019  18.280   0.130  1.00  0.00     0.016 A 
ATOM      2  C   UNL     1      50.479  18.616   1.375  1.00  0.00     0.047 A 
ATOM      3  C   UNL     1      51.150  18.269   2.554  1.00  0.00     0.119 A 
ATOM      4  C   UNL     1      52.371  17.582   2.488  1.00  0.00     0.094 A 
ATOM      5  C   UNL     1      52.919  17.241   1.246  1.00  0.00     0.142 A 
ATOM      6  C   UNL     1      52.239  17.593   0.059  1.00  0.00     0.018 A 
ATOM      7  C   UNL     1      52.811  17.240  -1.167  1.00  0.00     0.019 A 
ATOM      8  C   UNL     1      54.027  16.556  -1.183  1.00  0.00     0.094 A 
ATOM      9  C   UNL     1      54.644  16.241   0.033  1.00  0.00     0.336 A 
ATOM     10  O   UNL     1      55.741  15.624   0.039  1.00  0.00    -0.246 OA
ATOM     11  O   UNL     1      54.078  16.589   1.186  1.00  0.00    -0.423 OA
ENDROOT
BRANCH   3  12
ATOM     12  O   UNL     1      50.597  18.613   3.785  1.00  0.00    -0.508 OA
ATOM     13  H   UNL     1      51.048  19.279   4.401  1.00  0.00     0.293 HD
ENDBRANCH   3  12
TORSDOF 1
ENDMDL
MODEL 9
REMARK VINA RESULT:    -5.590      1.473      2.236
REMARK INTER + INTRA:          -5.754
REMARK INTER:                  -5.754
REMARK INTRA:                   0.000
REMARK UNBOUND:                 0.000
REMARK SMILES O=c1ccc2ccc(O)cc2o1
REMARK SMILES IDX 6 1 7 2 8 3 10 4 11 5 5 6 4 7 3 8 2 9 1 10 12 11 9 12
REMARK H PARENT 9 13
REMARK Flexibility Score: inf
ROOT
ATOM      1  C   UNL     1      53.930  17.063  -0.708  1.00  0.00     0.016 A 
ATOM      2  C   UNL     1      55.240  16.658  -0.439  1.00  0.00     0.047 A 
ATOM      3  C   UNL     1      55.717  16.631   0.878  1.00  0.00     0.119 A 
ATOM      4  C   UNL     1      54.876  17.013   1.934  1.00  0.00     0.094 A 
ATOM      5  C   UNL     1      53.562  17.421   1.674  1.00  0.00     0.142 A 
ATOM      6  C   UNL     1      53.086  17.447   0.344  1.00  0.00     0.018 A 
ATOM      7  C   UNL     1      51.770  17.858   0.116  1.00  0.00     0.019 A 
ATOM      8  C   UNL     1      50.971  18.229   1.197  1.00  0.00     0.094 A 
ATOM      9  C   UNL     1      51.510  18.178   2.487  1.00  0.00     0.336 A 
ATOM     10  O   UNL     1      50.805  18.509   3.477  1.00  0.00    -0.246 OA
ATOM     11  O   UNL     1      52.767  17.782   2.678  1.00  0.00    -0.423 OA
ENDROOT
BRANCH   3  12
ATOM     12  O   UNL     1      57.025  16.224   1.127  1.00  0.00    -0.508 OA
ATOM     13  H   UNL     1      57.808  16.858   1.017  1.00  0.00     0.293 HD
ENDBRANCH   3  12
TORSDOF 1
ENDMDL
