MODEL 1
REMARK VINA RESULT:    -5.358      0.000      0.000
REMARK INTER + INTRA:          -6.426
REMARK INTER:                  -6.297
REMARK INTRA:                  -0.128
REMARK UNBOUND:                -0.128
REMARK SMILES O=C([O-])C=Cc1ccc(O)c(O)c1
REMARK SMILES IDX 6 1 13 2 7 3 11 4 8 5 9 6 5 7 4 8 2 9 1 10 3 11 12 12 10 14
REMARK H PARENT 12 13 10 15
REMARK Flexibility Score: inf
ROOT
ATOM      1  C   UNL     1      50.858  33.338   2.890  1.00  0.00    -0.022 A 
ATOM      2  C   UNL     1      50.035  33.829   1.865  1.00  0.00     0.058 A 
ATOM      3  C   UNL     1      51.967  32.544   2.548  1.00  0.00     0.012 A 
ATOM      4  C   UNL     1      50.287  33.518   0.523  1.00  0.00     0.157 A 
ATOM      5  C   UNL     1      52.225  32.229   1.212  1.00  0.00     0.051 A 
ATOM      6  C   UNL     1      51.396  32.705   0.191  1.00  0.00     0.157 A 
ENDROOT
BRANCH   1   7
ATOM      7  C   UNL     1      50.545  33.711   4.293  1.00  0.00     0.010 C 
ATOM      8  C   UNL     1      49.754  32.986   5.096  1.00  0.00     0.025 C 
BRANCH   8   9
ATOM      9  C   UNL     1      49.455  33.393   6.480  1.00  0.00     0.064 C 
ATOM     10  O   UNL     1      48.864  32.617   7.277  1.00  0.00    -0.545 OA
ATOM     11  O   UNL     1      49.831  34.658   6.914  1.00  0.00    -0.545 OA
ENDBRANCH   8   9
ENDBRANCH   1   7
BRANCH   4  12
ATOM     12  O   UNL     1      49.418  34.036  -0.441  1.00  0.00    -0.504 OA
ATOM     13  H   UNL     1      49.491  33.843  -1.430  1.00  0.00     0.293 HD
ENDBRANCH   4  12
BRANCH   6  14
ATOM     14  O   UNL     1      51.708  32.351  -1.122  1.00  0.00    -0.504 OA
ATOM     15  H   UNL     1      51.171  31.697  -1.674  1.00  0.00     0.293 HD
ENDBRANCH   6  14
TORSDOF 4
ENDMDL
MODEL 2
REMARK VINA RESULT:    -5.172     15.351     16.486
REMARK INTER + INTRA:          -6.208
REMARK INTER:                  -6.071
REMARK INTRA:                  -0.137
REMARK UNBOUND:                -0.128
REMARK SMILES O=C([O-])C=Cc1ccc(O)c(O)c1
REMARK SMILES IDX 6 1 13 2 7 3 11 4 8 5 9 6 5 7 4 8 2 9 1 10 3 11 12 12 10 14
REMARK H PARENT 12 13 10 15
REMARK Flexibility Score: inf
ROOT
ATOM      1  C   UNL     1      51.699  46.555  11.700  1.00  0.00    -0.022 A 
ATOM      2  C   UNL     1      52.694  46.171  10.787  1.00  0.00     0.058 A 
ATOM      3  C   UNL     1      51.889  46.280  13.066  1.00  0.00     0.012 A 
ATOM      4  C   UNL     1      53.848  45.501  11.213  1.00  0.00     0.157 A 
ATOM      5  C   UNL     1      53.037  45.612  13.498  1.00  0.00     0.051 A 
ATOM      6  C   UNL     1      54.021  45.216  12.587  1.00  0.00     0.157 A 
ENDROOT
BRANCH   1   7
ATOM      7  C   UNL     1      50.504  47.271  11.188  1.00  0.00     0.010 C 
ATOM      8  C   UNL     1      49.318  47.282  11.814  1.00  0.00     0.025 C 
BRANCH   8   9
ATOM      9  C   UNL     1      48.150  47.995  11.269  1.00  0.00     0.064 C 
ATOM     10  O   UNL     1      48.252  49.167  10.817  1.00  0.00    -0.545 OA
ATOM     11  O   UNL     1      46.913  47.364  11.256  1.00  0.00    -0.545 OA
ENDBRANCH   8   9
ENDBRANCH   1   7
BRANCH   4  12
ATOM     12  O   UNL     1      54.789  45.143  10.244  1.00  0.00    -0.504 OA
ATOM     13  H   UNL     1      54.775  45.478   9.292  1.00  0.00     0.293 HD
ENDBRANCH   4  12
BRANCH   6  14
ATOM     14  O   UNL     1      55.143  44.549  13.085  1.00  0.00    -0.504 OA
ATOM     15  H   UNL     1      56.068  44.951  13.124  1.00  0.00     0.293 HD
ENDBRANCH   6  14
TORSDOF 4
ENDMDL
MODEL 3
REMARK VINA RESULT:    -5.121     14.299     16.463
REMARK INTER + INTRA:          -6.148
REMARK INTER:                  -6.011
REMARK INTRA:                  -0.137
REMARK UNBOUND:                -0.128
REMARK SMILES O=C([O-])C=Cc1ccc(O)c(O)c1
REMARK SMILES IDX 6 1 13 2 7 3 11 4 8 5 9 6 5 7 4 8 2 9 1 10 3 11 12 12 10 14
REMARK H PARENT 12 13 10 15
REMARK Flexibility Score: inf
ROOT
ATOM      1  C   UNL     1      52.499  46.454  11.609  1.00  0.00    -0.022 A 
ATOM      2  C   UNL     1      53.366  45.992  12.612  1.00  0.00     0.058 A 
ATOM      3  C   UNL     1      52.483  45.792  10.368  1.00  0.00     0.012 A 
ATOM      4  C   UNL     1      54.224  44.909  12.384  1.00  0.00     0.157 A 
ATOM      5  C   UNL     1      53.336  44.711  10.133  1.00  0.00     0.051 A 
ATOM      6  C   UNL     1      54.211  44.261  11.127  1.00  0.00     0.157 A 
ENDROOT
BRANCH   1   7
ATOM      7  C   UNL     1      51.606  47.600  11.914  1.00  0.00     0.010 C 
ATOM      8  C   UNL     1      50.890  48.253  10.988  1.00  0.00     0.025 C 
BRANCH   8   9
ATOM      9  C   UNL     1      50.023  49.394  11.327  1.00  0.00     0.064 C 
ATOM     10  O   UNL     1      48.791  49.238  11.538  1.00  0.00    -0.545 OA
ATOM     11  O   UNL     1      50.573  50.666  11.413  1.00  0.00    -0.545 OA
ENDBRANCH   8   9
ENDBRANCH   1   7
BRANCH   4  12
ATOM     12  O   UNL     1      55.065  44.512  13.427  1.00  0.00    -0.504 OA
ATOM     13  H   UNL     1      55.750  43.774  13.351  1.00  0.00     0.293 HD
ENDBRANCH   4  12
BRANCH   6  14
ATOM     14  O   UNL     1      55.040  43.178  10.826  1.00  0.00    -0.504 OA
ATOM     15  H   UNL     1      55.410  42.989   9.906  1.00  0.00     0.293 HD
ENDBRANCH   6  14
TORSDOF 4
ENDMDL
MODEL 4
REMARK VINA RESULT:    -5.026      3.356      7.899
REMARK INTER + INTRA:          -6.035
REMARK INTER:                  -5.907
REMARK INTRA:                  -0.129
REMARK UNBOUND:                -0.128
REMARK SMILES O=C([O-])C=Cc1ccc(O)c(O)c1
REMARK SMILES IDX 6 1 13 2 7 3 11 4 8 5 9 6 5 7 4 8 2 9 1 10 3 11 12 12 10 14
REMARK H PARENT 12 13 10 15
REMARK Flexibility Score: inf
ROOT
ATOM      1  C   UNL     1      49.369  33.946   8.297  1.00  0.00    -0.022 A 
ATOM      2  C   UNL     1      48.185  33.339   8.744  1.00  0.00     0.058 A 
ATOM      3  C   UNL     1      49.896  35.026   9.027  1.00  0.00     0.012 A 
ATOM      4  C   UNL     1      47.515  33.810   9.881  1.00  0.00     0.157 A 
ATOM      5  C   UNL     1      49.234  35.501  10.161  1.00  0.00     0.051 A 
ATOM      6  C   UNL     1      48.045  34.907  10.598  1.00  0.00     0.157 A 
ENDROOT
BRANCH   1   7
ATOM      7  C   UNL     1      50.037  33.395   7.091  1.00  0.00     0.010 C 
ATOM      8  C   UNL     1      49.750  33.780   5.840  1.00  0.00     0.025 C 
BRANCH   8   9
ATOM      9  C   UNL     1      50.427  33.202   4.666  1.00  0.00     0.064 C 
ATOM     10  O   UNL     1      51.181  32.199   4.775  1.00  0.00    -0.545 OA
ATOM     11  O   UNL     1      50.232  33.776   3.416  1.00  0.00    -0.545 OA
ENDBRANCH   8   9
ENDBRANCH   1   7
BRANCH   4  12
ATOM     12  O   UNL     1      46.337  33.161  10.259  1.00  0.00    -0.504 OA
ATOM     13  H   UNL     1      46.169  32.174  10.130  1.00  0.00     0.293 HD
ENDBRANCH   4  12
BRANCH   6  14
ATOM     14  O   UNL     1      47.433  35.433  11.737  1.00  0.00    -0.504 OA
ATOM     15  H   UNL     1      46.788  36.209  11.724  1.00  0.00     0.293 HD
ENDBRANCH   6  14
TORSDOF 4
ENDMDL
MODEL 5
REMARK VINA RESULT:    -5.015      0.951      2.153
REMARK INTER + INTRA:          -6.022
REMARK INTER:                  -5.891
REMARK INTRA:                  -0.131
REMARK UNBOUND:                -0.128
REMARK SMILES O=C([O-])C=Cc1ccc(O)c(O)c1
REMARK SMILES IDX 6 1 13 2 7 3 11 4 8 5 9 6 5 7 4 8 2 9 1 10 3 11 12 12 10 14
REMARK H PARENT 12 13 10 15
REMARK Flexibility Score: inf
ROOT
ATOM      1  C   UNL     1      50.507  33.443   2.726  1.00  0.00    -0.022 A 
ATOM      2  C   UNL     1      51.764  32.824   2.649  1.00  0.00     0.058 A 
ATOM      3  C   UNL     1      49.800  33.694   1.536  1.00  0.00     0.012 A 
ATOM      4  C   UNL     1      52.327  32.481   1.413  1.00  0.00     0.157 A 
ATOM      5  C   UNL     1      50.355  33.355   0.300  1.00  0.00     0.051 A 
ATOM      6  C   UNL     1      51.614  32.752   0.222  1.00  0.00     0.157 A 
ENDROOT
BRANCH   1   7
ATOM      7  C   UNL     1      49.959  33.774   4.065  1.00  0.00     0.010 C 
ATOM      8  C   UNL     1      50.117  32.997   5.147  1.00  0.00     0.025 C 
BRANCH   8   9
ATOM      9  C   UNL     1      49.549  33.352   6.458  1.00  0.00     0.064 C 
ATOM     10  O   UNL     1      49.632  34.526   6.910  1.00  0.00    -0.545 OA
ATOM     11  O   UNL     1      48.912  32.376   7.212  1.00  0.00    -0.545 OA
ENDBRANCH   8   9
ENDBRANCH   1   7
BRANCH   4  12
ATOM     12  O   UNL     1      53.587  31.875   1.416  1.00  0.00    -0.504 OA
ATOM     13  H   UNL     1      54.029  31.488   0.595  1.00  0.00     0.293 HD
ENDBRANCH   4  12
BRANCH   6  14
ATOM     14  O   UNL     1      52.113  32.442  -1.045  1.00  0.00    -0.504 OA
ATOM     15  H   UNL     1      52.955  32.840  -1.433  1.00  0.00     0.293 HD
ENDBRANCH   6  14
TORSDOF 4
ENDMDL
MODEL 6
REMARK VINA RESULT:    -4.856      1.672      2.196
REMARK INTER + INTRA:          -5.836
REMARK INTER:                  -5.706
REMARK INTRA:                  -0.130
REMARK UNBOUND:                -0.128
REMARK SMILES O=C([O-])C=Cc1ccc(O)c(O)c1
REMARK SMILES IDX 6 1 13 2 7 3 11 4 8 5 9 6 5 7 4 8 2 9 1 10 3 11 12 12 10 14
REMARK H PARENT 12 13 10 15
REMARK Flexibility Score: inf
ROOT
ATOM      1  C   UNL     1      51.323  33.200   1.011  1.00  0.00    -0.022 A 
ATOM      2  C   UNL     1      50.174  33.476   0.254  1.00  0.00     0.058 A 
ATOM      3  C   UNL     1      52.579  33.249   0.381  1.00  0.00     0.012 A 
ATOM      4  C   UNL     1      50.261  33.770  -1.112  1.00  0.00     0.157 A 
ATOM      5  C   UNL     1      52.674  33.542  -0.982  1.00  0.00     0.051 A 
ATOM      6  C   UNL     1      51.528  33.802  -1.740  1.00  0.00     0.157 A 
ENDROOT
BRANCH   1   7
ATOM      7  C   UNL     1      51.167  32.904   2.458  1.00  0.00     0.010 C 
ATOM      8  C   UNL     1      50.433  33.651   3.295  1.00  0.00     0.025 C 
BRANCH   8   9
ATOM      9  C   UNL     1      50.310  33.333   4.728  1.00  0.00     0.064 C 
ATOM     10  O   UNL     1      49.463  33.917   5.456  1.00  0.00    -0.545 OA
ATOM     11  O   UNL     1      51.144  32.375   5.287  1.00  0.00    -0.545 OA
ENDBRANCH   8   9
ENDBRANCH   1   7
BRANCH   4  12
ATOM     12  O   UNL     1      49.072  34.025  -1.801  1.00  0.00    -0.504 OA
ATOM     13  H   UNL     1      48.153  33.830  -1.433  1.00  0.00     0.293 HD
ENDBRANCH   4  12
BRANCH   6  14
ATOM     14  O   UNL     1      51.692  34.084  -3.097  1.00  0.00    -0.504 OA
ATOM     15  H   UNL     1      52.492  34.565  -3.481  1.00  0.00     0.293 HD
ENDBRANCH   6  14
TORSDOF 4
ENDMDL
MODEL 7
REMARK VINA RESULT:    -3.980     17.945     18.553
REMARK INTER + INTRA:          -4.807
REMARK INTER:                  -4.669
REMARK INTRA:                  -0.137
REMARK UNBOUND:                -0.128
REMARK SMILES O=C([O-])C=Cc1ccc(O)c(O)c1
REMARK SMILES IDX 6 1 13 2 7 3 11 4 8 5 9 6 5 7 4 8 2 9 1 10 3 11 12 12 10 14
REMARK H PARENT 12 13 10 15
REMARK Flexibility Score: inf
ROOT
ATOM      1  C   UNL     1      49.779  51.226   1.233  1.00  0.00    -0.022 A 
ATOM      2  C   UNL     1      50.626  51.613   0.183  1.00  0.00     0.058 A 
ATOM      3  C   UNL     1      50.334  50.995   2.504  1.00  0.00     0.012 A 
ATOM      4  C   UNL     1      52.007  51.745   0.379  1.00  0.00     0.157 A 
ATOM      5  C   UNL     1      51.710  51.125   2.707  1.00  0.00     0.051 A 
ATOM      6  C   UNL     1      52.557  51.495   1.657  1.00  0.00     0.157 A 
ENDROOT
BRANCH   1   7
ATOM      7  C   UNL     1      48.323  51.113   0.965  1.00  0.00     0.010 C 
ATOM      8  C   UNL     1      47.385  51.151   1.922  1.00  0.00     0.025 C 
BRANCH   8   9
ATOM      9  C   UNL     1      45.949  51.024   1.619  1.00  0.00     0.064 C 
ATOM     10  O   UNL     1      45.489  49.998   1.051  1.00  0.00    -0.545 OA
ATOM     11  O   UNL     1      45.086  52.056   1.964  1.00  0.00    -0.545 OA
ENDBRANCH   8   9
ENDBRANCH   1   7
BRANCH   4  12
ATOM     12  O   UNL     1      52.788  52.125  -0.716  1.00  0.00    -0.504 OA
ATOM     13  H   UNL     1      53.044  53.079  -0.923  1.00  0.00     0.293 HD
ENDBRANCH   4  12
BRANCH   6  14
ATOM     14  O   UNL     1      53.923  51.603   1.927  1.00  0.00    -0.504 OA
ATOM     15  H   UNL     1      54.301  51.956   2.793  1.00  0.00     0.293 HD
ENDBRANCH   6  14
TORSDOF 4
ENDMDL
MODEL 8
REMARK VINA RESULT:    -3.601      2.453      7.114
REMARK INTER + INTRA:          -4.361
REMARK INTER:                  -4.222
REMARK INTRA:                  -0.138
REMARK UNBOUND:                -0.128
REMARK SMILES O=C([O-])C=Cc1ccc(O)c(O)c1
REMARK SMILES IDX 6 1 13 2 7 3 11 4 8 5 9 6 5 7 4 8 2 9 1 10 3 11 12 12 10 14
REMARK H PARENT 12 13 10 15
REMARK Flexibility Score: inf
ROOT
ATOM      1  C   UNL     1      49.485  33.382   6.827  1.00  0.00    -0.022 A 
ATOM      2  C   UNL     1      48.706  32.501   7.594  1.00  0.00     0.058 A 
ATOM      3  C   UNL     1      49.960  34.563   7.424  1.00  0.00     0.012 A 
ATOM      4  C   UNL     1      48.378  32.796   8.924  1.00  0.00     0.157 A 
ATOM      5  C   UNL     1      49.638  34.864   8.750  1.00  0.00     0.051 A 
ATOM      6  C   UNL     1      48.849  33.994   9.509  1.00  0.00     0.157 A 
ENDROOT
BRANCH   1   7
ATOM      7  C   UNL     1      49.806  33.010   5.427  1.00  0.00     0.010 C 
ATOM      8  C   UNL     1      50.503  33.791   4.590  1.00  0.00     0.025 C 
BRANCH   8   9
ATOM      9  C   UNL     1      50.793  33.393   3.202  1.00  0.00     0.064 C 
ATOM     10  O   UNL     1      51.686  32.543   2.939  1.00  0.00    -0.545 OA
ATOM     11  O   UNL     1      50.072  33.966   2.163  1.00  0.00    -0.545 OA
ENDBRANCH   8   9
ENDBRANCH   1   7
BRANCH   4  12
ATOM     12  O   UNL     1      47.591  31.875   9.621  1.00  0.00    -0.504 OA
ATOM     13  H   UNL     1      47.842  31.481  10.516  1.00  0.00     0.293 HD
ENDBRANCH   4  12
BRANCH   6  14
ATOM     14  O   UNL     1      48.560  34.356  10.827  1.00  0.00    -0.504 OA
ATOM     15  H   UNL     1      49.261  34.588  11.515  1.00  0.00     0.293 HD
ENDBRANCH   6  14
TORSDOF 4
ENDMDL
