MODEL 1
REMARK VINA RESULT:    -4.392      0.000      0.000
REMARK INTER + INTRA:          -6.178
REMARK INTER:                  -5.933
REMARK INTRA:                  -0.245
REMARK UNBOUND:                -0.245
REMARK SMILES CCCCCCCC(=O)[O-]
REMARK SMILES IDX 5 1 6 2 7 3 8 4 9 5 10 6 4 7 3 8 2 9 1 10
REMARK H PARENT
REMARK Flexibility Score: inf
ROOT
ATOM      1  C   UNL     1      39.544  63.402   8.690  1.00  0.00     0.000 C 
ENDROOT
BRANCH   1   2
ATOM      2  C   UNL     1      38.999  64.774   8.250  1.00  0.00     0.006 C 
BRANCH   2   3
ATOM      3  C   UNL     1      39.196  65.043   6.753  1.00  0.00     0.053 C 
BRANCH   3   4
ATOM      4  C   UNL     1      38.167  66.007   6.256  1.00  0.00     0.041 C 
ATOM      5  O   UNL     1      37.211  66.354   6.999  1.00  0.00    -0.550 OA
ATOM      6  O   UNL     1      38.289  66.564   4.989  1.00  0.00    -0.550 OA
ENDBRANCH   3   4
ENDBRANCH   2   3
ENDBRANCH   1   2
BRANCH   1   7
ATOM      7  C   UNL     1      40.929  63.037   8.126  1.00  0.00     0.000 C 
BRANCH   7   8
ATOM      8  C   UNL     1      41.256  61.541   8.262  1.00  0.00    -0.000 C 
BRANCH   8   9
ATOM      9  C   UNL     1      40.002  60.655   8.191  1.00  0.00    -0.003 C 
ATOM     10  C   UNL     1      40.321  59.164   8.314  1.00  0.00     0.004 C 
ENDBRANCH   8   9
ENDBRANCH   7   8
ENDBRANCH   1   7
TORSDOF 6
ENDMDL
MODEL 2
REMARK VINA RESULT:    -4.230      1.118      2.194
REMARK INTER + INTRA:          -5.960
REMARK INTER:                  -5.726
REMARK INTRA:                  -0.233
REMARK UNBOUND:                -0.245
REMARK SMILES CCCCCCCC(=O)[O-]
REMARK SMILES IDX 5 1 6 2 7 3 8 4 9 5 10 6 4 7 3 8 2 9 1 10
REMARK H PARENT
REMARK Flexibility Score: inf
ROOT
ATOM      1  C   UNL     1      39.955  64.341   6.631  1.00  0.00     0.000 C 
ENDROOT
BRANCH   1   2
ATOM      2  C   UNL     1      39.451  65.505   5.757  1.00  0.00     0.006 C 
BRANCH   2   3
ATOM      3  C   UNL     1      38.046  65.982   6.148  1.00  0.00     0.053 C 
BRANCH   3   4
ATOM      4  C   UNL     1      37.644  67.159   5.318  1.00  0.00     0.041 C 
ATOM      5  O   UNL     1      38.046  67.262   4.128  1.00  0.00    -0.550 OA
ATOM      6  O   UNL     1      36.784  68.117   5.839  1.00  0.00    -0.550 OA
ENDBRANCH   3   4
ENDBRANCH   2   3
ENDBRANCH   1   2
BRANCH   1   7
ATOM      7  C   UNL     1      39.301  64.238   8.022  1.00  0.00     0.000 C 
BRANCH   7   8
ATOM      8  C   UNL     1      40.089  63.338   8.989  1.00  0.00    -0.000 C 
BRANCH   8   9
ATOM      9  C   UNL     1      40.937  62.286   8.255  1.00  0.00    -0.003 C 
ATOM     10  C   UNL     1      40.437  60.858   8.483  1.00  0.00     0.004 C 
ENDBRANCH   8   9
ENDBRANCH   7   8
ENDBRANCH   1   7
TORSDOF 6
ENDMDL
MODEL 3
REMARK VINA RESULT:    -4.225      2.963      5.295
REMARK INTER + INTRA:          -5.953
REMARK INTER:                  -5.755
REMARK INTRA:                  -0.198
REMARK UNBOUND:                -0.245
REMARK SMILES CCCCCCCC(=O)[O-]
REMARK SMILES IDX 5 1 6 2 7 3 8 4 9 5 10 6 4 7 3 8 2 9 1 10
REMARK H PARENT
REMARK Flexibility Score: inf
ROOT
ATOM      1  C   UNL     1      39.324  63.690   8.710  1.00  0.00     0.000 C 
ENDROOT
BRANCH   1   2
ATOM      2  C   UNL     1      40.818  63.316   8.696  1.00  0.00     0.006 C 
BRANCH   2   3
ATOM      3  C   UNL     1      41.157  62.244   7.653  1.00  0.00     0.053 C 
BRANCH   3   4
ATOM      4  C   UNL     1      40.211  61.090   7.762  1.00  0.00     0.041 C 
ATOM      5  O   UNL     1      40.256  60.326   8.762  1.00  0.00    -0.550 OA
ATOM      6  O   UNL     1      39.244  60.889   6.785  1.00  0.00    -0.550 OA
ENDBRANCH   3   4
ENDBRANCH   2   3
ENDBRANCH   1   2
BRANCH   1   7
ATOM      7  C   UNL     1      39.000  65.106   8.200  1.00  0.00     0.000 C 
BRANCH   7   8
ATOM      8  C   UNL     1      38.673  65.142   6.697  1.00  0.00    -0.000 C 
BRANCH   8   9
ATOM      9  C   UNL     1      37.587  66.174   6.356  1.00  0.00    -0.003 C 
ATOM     10  C   UNL     1      37.850  66.896   5.033  1.00  0.00     0.004 C 
ENDBRANCH   8   9
ENDBRANCH   7   8
ENDBRANCH   1   7
TORSDOF 6
ENDMDL
MODEL 4
REMARK VINA RESULT:    -4.154      0.905      1.645
REMARK INTER + INTRA:          -5.856
REMARK INTER:                  -5.634
REMARK INTRA:                  -0.222
REMARK UNBOUND:                -0.245
REMARK SMILES CCCCCCCC(=O)[O-]
REMARK SMILES IDX 5 1 6 2 7 3 8 4 9 5 10 6 4 7 3 8 2 9 1 10
REMARK H PARENT
REMARK Flexibility Score: inf
ROOT
ATOM      1  C   UNL     1      40.852  63.142   8.424  1.00  0.00     0.000 C 
ENDROOT
BRANCH   1   2
ATOM      2  C   UNL     1      39.447  63.427   7.860  1.00  0.00     0.006 C 
BRANCH   2   3
ATOM      3  C   UNL     1      39.002  64.879   8.069  1.00  0.00     0.053 C 
BRANCH   3   4
ATOM      4  C   UNL     1      38.607  65.498   6.766  1.00  0.00     0.041 C 
ATOM      5  O   UNL     1      39.412  65.502   5.796  1.00  0.00    -0.550 OA
ATOM      6  O   UNL     1      37.332  66.025   6.603  1.00  0.00    -0.550 OA
ENDBRANCH   3   4
ENDBRANCH   2   3
ENDBRANCH   1   2
BRANCH   1   7
ATOM      7  C   UNL     1      41.337  61.690   8.265  1.00  0.00     0.000 C 
BRANCH   7   8
ATOM      8  C   UNL     1      40.183  60.674   8.211  1.00  0.00    -0.000 C 
BRANCH   8   9
ATOM      9  C   UNL     1      40.660  59.229   8.427  1.00  0.00    -0.003 C 
ATOM     10  C   UNL     1      42.062  58.978   7.870  1.00  0.00     0.004 C 
ENDBRANCH   8   9
ENDBRANCH   7   8
ENDBRANCH   1   7
TORSDOF 6
ENDMDL
MODEL 5
REMARK VINA RESULT:    -4.140      3.126      5.233
REMARK INTER + INTRA:          -5.837
REMARK INTER:                  -5.571
REMARK INTRA:                  -0.266
REMARK UNBOUND:                -0.245
REMARK SMILES CCCCCCCC(=O)[O-]
REMARK SMILES IDX 5 1 6 2 7 3 8 4 9 5 10 6 4 7 3 8 2 9 1 10
REMARK H PARENT
REMARK Flexibility Score: inf
ROOT
ATOM      1  C   UNL     1      40.891  63.307   8.413  1.00  0.00     0.000 C 
ENDROOT
BRANCH   1   2
ATOM      2  C   UNL     1      41.279  61.831   8.210  1.00  0.00     0.006 C 
BRANCH   2   3
ATOM      3  C   UNL     1      40.111  60.866   8.453  1.00  0.00     0.053 C 
BRANCH   3   4
ATOM      4  C   UNL     1      39.723  60.184   7.179  1.00  0.00     0.041 C 
ATOM      5  O   UNL     1      39.620  58.930   7.137  1.00  0.00    -0.550 OA
ATOM      6  O   UNL     1      39.426  60.937   6.050  1.00  0.00    -0.550 OA
ENDBRANCH   3   4
ENDBRANCH   2   3
ENDBRANCH   1   2
BRANCH   1   7
ATOM      7  C   UNL     1      39.387  63.564   8.622  1.00  0.00     0.000 C 
BRANCH   7   8
ATOM      8  C   UNL     1      38.972  65.005   8.278  1.00  0.00    -0.000 C 
BRANCH   8   9
ATOM      9  C   UNL     1      38.648  65.183   6.786  1.00  0.00    -0.003 C 
ATOM     10  C   UNL     1      37.513  66.179   6.541  1.00  0.00     0.004 C 
ENDBRANCH   8   9
ENDBRANCH   7   8
ENDBRANCH   1   7
TORSDOF 6
ENDMDL
MODEL 6
REMARK VINA RESULT:    -4.106      4.114      6.064
REMARK INTER + INTRA:          -5.792
REMARK INTER:                  -5.575
REMARK INTRA:                  -0.217
REMARK UNBOUND:                -0.245
REMARK SMILES CCCCCCCC(=O)[O-]
REMARK SMILES IDX 5 1 6 2 7 3 8 4 9 5 10 6 4 7 3 8 2 9 1 10
REMARK H PARENT
REMARK Flexibility Score: inf
ROOT
ATOM      1  C   UNL     1      41.305  61.684   8.356  1.00  0.00     0.000 C 
ENDROOT
BRANCH   1   2
ATOM      2  C   UNL     1      40.118  60.704   8.362  1.00  0.00     0.006 C 
BRANCH   2   3
ATOM      3  C   UNL     1      40.386  59.435   7.541  1.00  0.00     0.053 C 
BRANCH   3   4
ATOM      4  C   UNL     1      39.830  58.235   8.238  1.00  0.00     0.041 C 
ATOM      5  O   UNL     1      40.566  57.540   8.989  1.00  0.00    -0.550 OA
ATOM      6  O   UNL     1      38.487  57.910   8.101  1.00  0.00    -0.550 OA
ENDBRANCH   3   4
ENDBRANCH   2   3
ENDBRANCH   1   2
BRANCH   1   7
ATOM      7  C   UNL     1      40.921  63.175   8.326  1.00  0.00     0.000 C 
BRANCH   7   8
ATOM      8  C   UNL     1      39.439  63.419   8.659  1.00  0.00    -0.000 C 
BRANCH   8   9
ATOM      9  C   UNL     1      38.998  64.861   8.359  1.00  0.00    -0.003 C 
ATOM     10  C   UNL     1      38.767  65.112   6.868  1.00  0.00     0.004 C 
ENDBRANCH   8   9
ENDBRANCH   7   8
ENDBRANCH   1   7
TORSDOF 6
ENDMDL
MODEL 7
REMARK VINA RESULT:    -4.082      4.261      6.297
REMARK INTER + INTRA:          -5.759
REMARK INTER:                  -5.623
REMARK INTRA:                  -0.137
REMARK UNBOUND:                -0.245
REMARK SMILES CCCCCCCC(=O)[O-]
REMARK SMILES IDX 5 1 6 2 7 3 8 4 9 5 10 6 4 7 3 8 2 9 1 10
REMARK H PARENT
REMARK Flexibility Score: inf
ROOT
ATOM      1  C   UNL     1      39.786  62.323   8.049  1.00  0.00     0.000 C 
ENDROOT
BRANCH   1   2
ATOM      2  C   UNL     1      40.801  61.208   8.364  1.00  0.00     0.006 C 
BRANCH   2   3
ATOM      3  C   UNL     1      40.165  59.812   8.395  1.00  0.00     0.053 C 
BRANCH   3   4
ATOM      4  C   UNL     1      41.222  58.756   8.341  1.00  0.00     0.041 C 
ATOM      5  O   UNL     1      42.329  58.993   7.789  1.00  0.00    -0.550 OA
ATOM      6  O   UNL     1      41.005  57.523   8.945  1.00  0.00    -0.550 OA
ENDBRANCH   3   4
ENDBRANCH   2   3
ENDBRANCH   1   2
BRANCH   1   7
ATOM      7  C   UNL     1      40.154  63.715   8.596  1.00  0.00     0.000 C 
BRANCH   7   8
ATOM      8  C   UNL     1      39.057  64.764   8.349  1.00  0.00    -0.000 C 
BRANCH   8   9
ATOM      9  C   UNL     1      38.886  65.097   6.858  1.00  0.00    -0.003 C 
ATOM     10  C   UNL     1      37.676  65.993   6.585  1.00  0.00     0.004 C 
ENDBRANCH   8   9
ENDBRANCH   7   8
ENDBRANCH   1   7
TORSDOF 6
ENDMDL
MODEL 8
REMARK VINA RESULT:    -4.058      4.766      6.561
REMARK INTER + INTRA:          -5.727
REMARK INTER:                  -5.485
REMARK INTRA:                  -0.242
REMARK UNBOUND:                -0.245
REMARK SMILES CCCCCCCC(=O)[O-]
REMARK SMILES IDX 5 1 6 2 7 3 8 4 9 5 10 6 4 7 3 8 2 9 1 10
REMARK H PARENT
REMARK Flexibility Score: inf
ROOT
ATOM      1  C   UNL     1      40.049  61.094   8.374  1.00  0.00     0.000 C 
ENDROOT
BRANCH   1   2
ATOM      2  C   UNL     1      40.342  59.586   8.258  1.00  0.00     0.006 C 
BRANCH   2   3
ATOM      3  C   UNL     1      41.811  59.285   7.936  1.00  0.00     0.053 C 
BRANCH   3   4
ATOM      4  C   UNL     1      42.036  57.809   7.853  1.00  0.00     0.041 C 
ATOM      5  O   UNL     1      41.268  57.015   8.458  1.00  0.00    -0.550 OA
ATOM      6  O   UNL     1      43.064  57.305   7.065  1.00  0.00    -0.550 OA
ENDBRANCH   3   4
ENDBRANCH   2   3
ENDBRANCH   1   2
BRANCH   1   7
ATOM      7  C   UNL     1      41.271  62.013   8.190  1.00  0.00     0.000 C 
BRANCH   7   8
ATOM      8  C   UNL     1      40.956  63.491   8.472  1.00  0.00    -0.000 C 
BRANCH   8   9
ATOM      9  C   UNL     1      39.466  63.730   8.767  1.00  0.00    -0.003 C 
ATOM     10  C   UNL     1      38.929  65.005   8.114  1.00  0.00     0.004 C 
ENDBRANCH   8   9
ENDBRANCH   7   8
ENDBRANCH   1   7
TORSDOF 6
ENDMDL
MODEL 9
REMARK VINA RESULT:    -4.040      1.280      2.239
REMARK INTER + INTRA:          -5.702
REMARK INTER:                  -5.475
REMARK INTRA:                  -0.227
REMARK UNBOUND:                -0.245
REMARK SMILES CCCCCCCC(=O)[O-]
REMARK SMILES IDX 5 1 6 2 7 3 8 4 9 5 10 6 4 7 3 8 2 9 1 10
REMARK H PARENT
REMARK Flexibility Score: inf
ROOT
ATOM      1  C   UNL     1      41.253  61.819   8.132  1.00  0.00     0.000 C 
ENDROOT
BRANCH   1   2
ATOM      2  C   UNL     1      40.947  63.293   8.457  1.00  0.00     0.006 C 
BRANCH   2   3
ATOM      3  C   UNL     1      39.454  63.630   8.359  1.00  0.00     0.053 C 
BRANCH   3   4
ATOM      4  C   UNL     1      39.231  64.739   7.381  1.00  0.00     0.041 C 
ATOM      5  O   UNL     1      38.273  65.541   7.538  1.00  0.00    -0.550 OA
ATOM      6  O   UNL     1      40.111  64.918   6.321  1.00  0.00    -0.550 OA
ENDBRANCH   3   4
ENDBRANCH   2   3
ENDBRANCH   1   2
BRANCH   1   7
ATOM      7  C   UNL     1      40.109  60.833   8.433  1.00  0.00     0.000 C 
BRANCH   7   8
ATOM      8  C   UNL     1      40.108  59.613   7.496  1.00  0.00    -0.000 C 
BRANCH   8   9
ATOM      9  C   UNL     1      39.749  58.310   8.228  1.00  0.00    -0.003 C 
ATOM     10  C   UNL     1      40.961  57.641   8.878  1.00  0.00     0.004 C 
ENDBRANCH   8   9
ENDBRANCH   7   8
ENDBRANCH   1   7
TORSDOF 6
ENDMDL
