MODEL 1
REMARK VINA RESULT:    -3.741      0.000      0.000
REMARK INTER + INTRA:          -4.262
REMARK INTER:                  -4.069
REMARK INTRA:                  -0.192
REMARK UNBOUND:                -0.192
REMARK SMILES CC1(C)CC[C@@]2(C(=O)[O-])CC[C@]3(C)C(=CC[C@@H]4[C@]5(C)CC[C@H](O)C(C)(C)[C@@H]5CC[C@]43C)[C@H]2C1
REMARK SMILES IDX 6 1 5 2 10 3 32 4 4 5 11 6 14 7 33 8 2 9 12 10 15 11 1 12
REMARK SMILES IDX 3 13 13 14 30 15 16 16 17 17 29 18 31 19 18 20 28 21 27 22
REMARK SMILES IDX 20 23 19 24 24 25 21 26 22 27 25 28 26 29 7 30 8 31 9 32
REMARK SMILES IDX 23 33
REMARK H PARENT 23 34
REMARK Flexibility Score: inf
ROOT
ATOM      1  C   UNL     1      52.041  15.456  87.839  1.00  0.00     0.017 C 
ATOM      2  C   UNL     1      51.452  16.179  86.581  1.00  0.00     0.014 C 
ATOM      3  C   UNL     1      50.876  14.741  88.557  1.00  0.00     0.014 C 
ATOM      4  C   UNL     1      53.111  14.375  87.435  1.00  0.00     0.028 C 
ATOM      5  C   UNL     1      52.461  16.252  85.430  1.00  0.00     0.007 C 
ATOM      6  C   UNL     1      51.289  14.096  89.880  1.00  0.00     0.013 C 
ATOM      7  C   UNL     1      53.326  13.266  88.480  1.00  0.00    -0.064 C 
ATOM      8  C   UNL     1      52.754  13.769  86.048  1.00  0.00     0.015 C 
ATOM      9  C   UNL     1      52.835  14.832  84.905  1.00  0.00    -0.035 C 
ATOM     10  C   UNL     1      52.605  13.216  89.843  1.00  0.00    -0.006 C 
ATOM     11  C   UNL     1      54.305  12.366  88.225  1.00  0.00    -0.027 C 
ATOM     12  C   UNL     1      54.268  14.871  84.328  1.00  0.00     0.011 C 
ATOM     13  C   UNL     1      51.871  14.423  83.771  1.00  0.00     0.011 C 
ATOM     14  C   UNL     1      53.600  13.895  90.843  1.00  0.00     0.017 C 
ATOM     15  C   UNL     1      52.305  11.668  90.202  1.00  0.00    -0.020 C 
ATOM     16  C   UNL     1      54.446  11.032  88.911  1.00  0.00     0.032 C 
ATOM     17  C   UNL     1      53.670  10.879  90.252  1.00  0.00     0.006 C 
ATOM     18  C   UNL     1      51.643  11.519  91.599  1.00  0.00     0.008 C 
ATOM     19  C   UNL     1      51.341  11.100  89.105  1.00  0.00     0.012 C 
ATOM     20  C   UNL     1      53.695   9.393  90.866  1.00  0.00    -0.025 C 
ATOM     21  C   UNL     1      51.462  10.068  92.036  1.00  0.00     0.005 C 
ATOM     22  C   UNL     1      52.794   9.285  92.178  1.00  0.00     0.003 C 
ATOM     23  C   UNL     1      53.282   8.312  89.817  1.00  0.00     0.010 C 
ATOM     24  C   UNL     1      55.186   9.122  91.256  1.00  0.00     0.012 C 
ATOM     25  C   UNL     1      52.547   7.796  92.723  1.00  0.00    -0.006 C 
ATOM     26  C   UNL     1      53.160   6.895  90.386  1.00  0.00     0.033 C 
ATOM     27  C   UNL     1      52.173   6.821  91.559  1.00  0.00     0.120 C 
ATOM     28  C   UNL     1      53.798   7.252  93.489  1.00  0.00     0.014 C 
ATOM     29  C   UNL     1      51.395   7.749  93.775  1.00  0.00     0.014 C 
ENDROOT
BRANCH   1  30
ATOM     30  C   UNL     1      52.640  16.536  88.734  1.00  0.00     0.048 C 
ATOM     31  O   UNL     1      53.855  16.856  88.645  1.00  0.00    -0.550 OA
ATOM     32  O   UNL     1      51.821  17.260  89.596  1.00  0.00    -0.550 OA
ENDBRANCH   1  30
BRANCH  27  33
ATOM     33  O   UNL     1      50.875   7.085  91.085  1.00  0.00    -0.393 OA
ATOM     34  H   UNL     1      50.278   6.388  91.461  1.00  0.00     0.210 HD
ENDBRANCH  27  33
TORSDOF 2
ENDMDL
