MODEL 1
REMARK VINA RESULT:    -2.432      0.000      0.000
REMARK INTER + INTRA:          -2.432
REMARK INTER:                  -2.432
REMARK INTRA:                   0.000
REMARK UNBOUND:                 0.000
REMARK SMILES CC(=O)[O-]
REMARK SMILES IDX 1 1 2 2 3 3 4 4
REMARK H PARENT
REMARK Flexibility Score: inf
ROOT
ATOM      1  C   UNL     1      19.463  52.460  82.394  1.00  0.00     0.063 C 
ATOM      2  C   UNL     1      18.049  52.932  82.407  1.00  0.00     0.038 C 
ATOM      3  O   UNL     1      17.544  53.385  83.467  1.00  0.00    -0.550 OA
ATOM      4  O   UNL     1      17.269  52.824  81.263  1.00  0.00    -0.550 OA
ENDROOT
TORSDOF 0
ENDMDL
MODEL 2
REMARK VINA RESULT:    -2.428      1.326      1.755
REMARK INTER + INTRA:          -2.428
REMARK INTER:                  -2.428
REMARK INTRA:                   0.000
REMARK UNBOUND:                 0.000
REMARK SMILES CC(=O)[O-]
REMARK SMILES IDX 1 1 2 2 3 3 4 4
REMARK H PARENT
REMARK Flexibility Score: inf
ROOT
ATOM      1  C   UNL     1      17.144  53.587  81.583  1.00  0.00     0.063 C 
ATOM      2  C   UNL     1      18.090  52.818  82.441  1.00  0.00     0.038 C 
ATOM      3  O   UNL     1      17.930  52.789  83.689  1.00  0.00    -0.550 OA
ATOM      4  O   UNL     1      19.181  52.175  81.869  1.00  0.00    -0.550 OA
ENDROOT
TORSDOF 0
ENDMDL
MODEL 3
REMARK VINA RESULT:    -2.416      1.386      1.986
REMARK INTER + INTRA:          -2.416
REMARK INTER:                  -2.416
REMARK INTRA:                   0.000
REMARK UNBOUND:                 0.000
REMARK SMILES CC(=O)[O-]
REMARK SMILES IDX 1 1 2 2 3 3 4 4
REMARK H PARENT
REMARK Flexibility Score: inf
ROOT
ATOM      1  C   UNL     1      17.671  53.205  83.515  1.00  0.00     0.063 C 
ATOM      2  C   UNL     1      18.090  52.772  82.151  1.00  0.00     0.038 C 
ATOM      3  O   UNL     1      17.314  52.932  81.172  1.00  0.00    -0.550 OA
ATOM      4  O   UNL     1      19.314  52.144  81.967  1.00  0.00    -0.550 OA
ENDROOT
TORSDOF 0
ENDMDL
MODEL 4
REMARK VINA RESULT:    -2.295     12.147     12.346
REMARK INTER + INTRA:          -2.295
REMARK INTER:                  -2.295
REMARK INTRA:                   0.000
REMARK UNBOUND:                 0.000
REMARK SMILES CC(=O)[O-]
REMARK SMILES IDX 1 1 2 2 3 3 4 4
REMARK H PARENT
REMARK Flexibility Score: inf
ROOT
ATOM      1  C   UNL     1      24.508  41.941  84.219  1.00  0.00     0.063 C 
ATOM      2  C   UNL     1      23.141  41.828  83.634  1.00  0.00     0.038 C 
ATOM      3  O   UNL     1      22.971  41.973  82.395  1.00  0.00    -0.550 OA
ATOM      4  O   UNL     1      22.046  41.614  84.461  1.00  0.00    -0.550 OA
ENDROOT
TORSDOF 0
ENDMDL
MODEL 5
REMARK VINA RESULT:    -2.274     12.296     12.529
REMARK INTER + INTRA:          -2.274
REMARK INTER:                  -2.274
REMARK INTRA:                   0.000
REMARK UNBOUND:                 0.000
REMARK SMILES CC(=O)[O-]
REMARK SMILES IDX 1 1 2 2 3 3 4 4
REMARK H PARENT
REMARK Flexibility Score: inf
ROOT
ATOM      1  C   UNL     1      24.680  42.039  84.243  1.00  0.00     0.063 C 
ATOM      2  C   UNL     1      23.245  41.675  84.068  1.00  0.00     0.038 C 
ATOM      3  O   UNL     1      22.356  42.278  84.724  1.00  0.00    -0.550 OA
ATOM      4  O   UNL     1      22.890  40.633  83.221  1.00  0.00    -0.550 OA
ENDROOT
TORSDOF 0
ENDMDL
MODEL 6
REMARK VINA RESULT:    -2.227     12.196     12.524
REMARK INTER + INTRA:          -2.227
REMARK INTER:                  -2.227
REMARK INTRA:                   0.000
REMARK UNBOUND:                 0.000
REMARK SMILES CC(=O)[O-]
REMARK SMILES IDX 1 1 2 2 3 3 4 4
REMARK H PARENT
REMARK Flexibility Score: inf
ROOT
ATOM      1  C   UNL     1      22.248  41.983  84.643  1.00  0.00     0.063 C 
ATOM      2  C   UNL     1      23.242  41.774  83.551  1.00  0.00     0.038 C 
ATOM      3  O   UNL     1      22.915  41.979  82.353  1.00  0.00    -0.550 OA
ATOM      4  O   UNL     1      24.514  41.303  83.848  1.00  0.00    -0.550 OA
ENDROOT
TORSDOF 0
ENDMDL
MODEL 7
REMARK VINA RESULT:    -2.222     12.208     12.496
REMARK INTER + INTRA:          -2.222
REMARK INTER:                  -2.222
REMARK INTRA:                   0.000
REMARK UNBOUND:                 0.000
REMARK SMILES CC(=O)[O-]
REMARK SMILES IDX 1 1 2 2 3 3 4 4
REMARK H PARENT
REMARK Flexibility Score: inf
ROOT
ATOM      1  C   UNL     1      23.217  41.184  83.439  1.00  0.00     0.063 C 
ATOM      2  C   UNL     1      23.710  42.107  84.500  1.00  0.00     0.038 C 
ATOM      3  O   UNL     1      24.946  42.283  84.660  1.00  0.00    -0.550 OA
ATOM      4  O   UNL     1      22.808  42.735  85.350  1.00  0.00    -0.550 OA
ENDROOT
TORSDOF 0
ENDMDL
MODEL 8
REMARK VINA RESULT:    -2.088     12.126     12.409
REMARK INTER + INTRA:          -2.088
REMARK INTER:                  -2.088
REMARK INTRA:                   0.000
REMARK UNBOUND:                 0.000
REMARK SMILES CC(=O)[O-]
REMARK SMILES IDX 1 1 2 2 3 3 4 4
REMARK H PARENT
REMARK Flexibility Score: inf
ROOT
ATOM      1  C   UNL     1      23.958  42.939  85.042  1.00  0.00     0.063 C 
ATOM      2  C   UNL     1      23.459  41.918  84.077  1.00  0.00     0.038 C 
ATOM      3  O   UNL     1      24.249  41.066  83.594  1.00  0.00    -0.550 OA
ATOM      4  O   UNL     1      22.131  41.938  83.668  1.00  0.00    -0.550 OA
ENDROOT
TORSDOF 0
ENDMDL
MODEL 9
REMARK VINA RESULT:    -1.812      5.037      5.482
REMARK INTER + INTRA:          -1.812
REMARK INTER:                  -1.812
REMARK INTRA:                   0.000
REMARK UNBOUND:                 0.000
REMARK SMILES CC(=O)[O-]
REMARK SMILES IDX 1 1 2 2 3 3 4 4
REMARK H PARENT
REMARK Flexibility Score: inf
ROOT
ATOM      1  C   UNL     1      13.696  55.123  80.876  1.00  0.00     0.063 C 
ATOM      2  C   UNL     1      13.310  53.723  80.537  1.00  0.00     0.038 C 
ATOM      3  O   UNL     1      14.191  52.889  80.204  1.00  0.00    -0.550 OA
ATOM      4  O   UNL     1      11.972  53.351  80.538  1.00  0.00    -0.550 OA
ENDROOT
TORSDOF 0
ENDMDL
