MODEL 1
REMARK VINA RESULT:    -4.589      0.000      0.000
REMARK INTER + INTRA:          -7.320
REMARK INTER:                  -6.466
REMARK INTRA:                  -0.853
REMARK UNBOUND:                -0.853
REMARK SMILES CCCCCCCCC(=O)[O-]
REMARK SMILES IDX 6 1 7 2 8 3 9 4 10 5 11 6 5 7 4 8 3 9 2 10 1 11
REMARK H PARENT
REMARK Flexibility Score: inf
ROOT
ATOM      1  C   UNL     1     -99.134 -61.477 -64.691  1.00  0.00     0.000 C 
ENDROOT
BRANCH   1   2
ATOM      2  C   UNL     1     -97.688 -61.848 -64.316  1.00  0.00     0.006 C 
BRANCH   2   3
ATOM      3  C   UNL     1     -96.675 -60.810 -64.816  1.00  0.00     0.053 C 
BRANCH   3   4
ATOM      4  C   UNL     1     -95.900 -61.314 -65.995  1.00  0.00     0.041 C 
ATOM      5  O   UNL     1     -96.232 -60.976 -67.161  1.00  0.00    -0.550 OA
ATOM      6  O   UNL     1     -94.791 -62.128 -65.804  1.00  0.00    -0.550 OA
ENDBRANCH   3   4
ENDBRANCH   2   3
ENDBRANCH   1   2
BRANCH   1   7
ATOM      7  C   UNL     1     -99.580 -62.109 -66.019  1.00  0.00     0.000 C 
BRANCH   7   8
ATOM      8  C   UNL     1     -99.771 -61.071 -67.135  1.00  0.00    -0.000 C 
BRANCH   8   9
ATOM      9  C   UNL     1     -99.878 -59.653 -66.552  1.00  0.00    -0.000 C 
BRANCH   9  10
ATOM     10  C   UNL     1     -99.078 -58.621 -67.362  1.00  0.00    -0.003 C 
ATOM     11  C   UNL     1     -97.997 -57.928 -66.532  1.00  0.00     0.004 C 
ENDBRANCH   9  10
ENDBRANCH   8   9
ENDBRANCH   7   8
ENDBRANCH   1   7
TORSDOF 7
ENDMDL
MODEL 2
REMARK VINA RESULT:    -4.559      2.014      3.485
REMARK INTER + INTRA:          -7.278
REMARK INTER:                  -6.410
REMARK INTRA:                  -0.868
REMARK UNBOUND:                -0.853
REMARK SMILES CCCCCCCCC(=O)[O-]
REMARK SMILES IDX 6 1 7 2 8 3 9 4 10 5 11 6 5 7 4 8 3 9 2 10 1 11
REMARK H PARENT
REMARK Flexibility Score: inf
ROOT
ATOM      1  C   UNL     1     -98.098 -61.709 -64.106  1.00  0.00     0.000 C 
ENDROOT
BRANCH   1   2
ATOM      2  C   UNL     1     -99.471 -61.467 -64.756  1.00  0.00     0.006 C 
BRANCH   2   3
ATOM      3  C   UNL     1     -99.814 -62.536 -65.802  1.00  0.00     0.053 C 
BRANCH   3   4
ATOM      4  C   UNL     1    -100.106 -61.930 -67.140  1.00  0.00     0.041 C 
ATOM      5  O   UNL     1     -99.366 -62.188 -68.126  1.00  0.00    -0.550 OA
ATOM      6  O   UNL     1    -101.213 -61.108 -67.308  1.00  0.00    -0.550 OA
ENDBRANCH   3   4
ENDBRANCH   2   3
ENDBRANCH   1   2
BRANCH   1   7
ATOM      7  C   UNL     1     -97.047 -60.676 -64.542  1.00  0.00     0.000 C 
BRANCH   7   8
ATOM      8  C   UNL     1     -96.359 -61.051 -65.863  1.00  0.00    -0.000 C 
BRANCH   8   9
ATOM      9  C   UNL     1     -96.800 -60.112 -66.997  1.00  0.00    -0.000 C 
BRANCH   9  10
ATOM     10  C   UNL     1     -97.443 -58.818 -66.475  1.00  0.00    -0.003 C 
ATOM     11  C   UNL     1     -98.793 -58.522 -67.130  1.00  0.00     0.004 C 
ENDBRANCH   9  10
ENDBRANCH   8   9
ENDBRANCH   7   8
ENDBRANCH   1   7
TORSDOF 7
ENDMDL
MODEL 3
REMARK VINA RESULT:    -4.548      1.741      3.158
REMARK INTER + INTRA:          -7.263
REMARK INTER:                  -6.433
REMARK INTRA:                  -0.830
REMARK UNBOUND:                -0.853
REMARK SMILES CCCCCCCCC(=O)[O-]
REMARK SMILES IDX 6 1 7 2 8 3 9 4 10 5 11 6 5 7 4 8 3 9 2 10 1 11
REMARK H PARENT
REMARK Flexibility Score: inf
ROOT
ATOM      1  C   UNL     1     -97.275 -59.693 -67.470  1.00  0.00     0.000 C 
ENDROOT
BRANCH   1   2
ATOM      2  C   UNL     1     -96.515 -60.560 -66.450  1.00  0.00     0.006 C 
BRANCH   2   3
ATOM      3  C   UNL     1     -96.954 -60.277 -65.008  1.00  0.00     0.053 C 
BRANCH   3   4
ATOM      4  C   UNL     1     -97.314 -61.535 -64.280  1.00  0.00     0.041 C 
ATOM      5  O   UNL     1     -96.447 -62.430 -64.098  1.00  0.00    -0.550 OA
ATOM      6  O   UNL     1     -98.596 -61.706 -63.773  1.00  0.00    -0.550 OA
ENDBRANCH   3   4
ENDBRANCH   2   3
ENDBRANCH   1   2
BRANCH   1   7
ATOM      7  C   UNL     1     -98.202 -58.668 -66.799  1.00  0.00     0.000 C 
BRANCH   7   8
ATOM      8  C   UNL     1     -99.670 -58.833 -67.220  1.00  0.00    -0.000 C 
BRANCH   8   9
ATOM      9  C   UNL     1    -100.383 -59.864 -66.331  1.00  0.00    -0.000 C 
BRANCH   9  10
ATOM     10  C   UNL     1    -100.878 -61.084 -67.124  1.00  0.00    -0.003 C 
ATOM     11  C   UNL     1     -99.937 -62.284 -67.010  1.00  0.00     0.004 C 
ENDBRANCH   9  10
ENDBRANCH   8   9
ENDBRANCH   7   8
ENDBRANCH   1   7
TORSDOF 7
ENDMDL
MODEL 4
REMARK VINA RESULT:    -4.496      2.242      3.383
REMARK INTER + INTRA:          -7.189
REMARK INTER:                  -6.408
REMARK INTRA:                  -0.781
REMARK UNBOUND:                -0.853
REMARK SMILES CCCCCCCCC(=O)[O-]
REMARK SMILES IDX 6 1 7 2 8 3 9 4 10 5 11 6 5 7 4 8 3 9 2 10 1 11
REMARK H PARENT
REMARK Flexibility Score: inf
ROOT
ATOM      1  C   UNL     1     -97.357 -61.717 -64.869  1.00  0.00     0.000 C 
ENDROOT
BRANCH   1   2
ATOM      2  C   UNL     1     -96.955 -60.281 -65.250  1.00  0.00     0.006 C 
BRANCH   2   3
ATOM      3  C   UNL     1     -97.344 -59.935 -66.693  1.00  0.00     0.053 C 
BRANCH   3   4
ATOM      4  C   UNL     1     -97.994 -58.589 -66.785  1.00  0.00     0.041 C 
ATOM      5  O   UNL     1     -97.421 -57.575 -66.305  1.00  0.00    -0.550 OA
ATOM      6  O   UNL     1     -99.216 -58.447 -67.430  1.00  0.00    -0.550 OA
ENDBRANCH   3   4
ENDBRANCH   2   3
ENDBRANCH   1   2
BRANCH   1   7
ATOM      7  C   UNL     1     -98.626 -61.765 -64.004  1.00  0.00     0.000 C 
BRANCH   7   8
ATOM      8  C   UNL     1     -99.854 -62.260 -64.782  1.00  0.00    -0.000 C 
BRANCH   8   9
ATOM      9  C   UNL     1    -100.700 -61.078 -65.283  1.00  0.00    -0.000 C 
BRANCH   9  10
ATOM     10  C   UNL     1    -101.044 -61.189 -66.776  1.00  0.00    -0.003 C 
ATOM     11  C   UNL     1    -100.244 -62.281 -67.488  1.00  0.00     0.004 C 
ENDBRANCH   9  10
ENDBRANCH   8   9
ENDBRANCH   7   8
ENDBRANCH   1   7
TORSDOF 7
ENDMDL
MODEL 5
REMARK VINA RESULT:    -4.491      1.262      1.603
REMARK INTER + INTRA:          -7.183
REMARK INTER:                  -6.563
REMARK INTRA:                  -0.620
REMARK UNBOUND:                -0.853
REMARK SMILES CCCCCCCCC(=O)[O-]
REMARK SMILES IDX 6 1 7 2 8 3 9 4 10 5 11 6 5 7 4 8 3 9 2 10 1 11
REMARK H PARENT
REMARK Flexibility Score: inf
ROOT
ATOM      1  C   UNL     1     -97.501 -61.096 -64.531  1.00  0.00     0.000 C 
ENDROOT
BRANCH   1   2
ATOM      2  C   UNL     1     -96.200 -61.764 -65.010  1.00  0.00     0.006 C 
BRANCH   2   3
ATOM      3  C   UNL     1     -95.525 -60.974 -66.138  1.00  0.00     0.053 C 
BRANCH   3   4
ATOM      4  C   UNL     1     -94.170 -61.523 -66.467  1.00  0.00     0.041 C 
ATOM      5  O   UNL     1     -93.187 -60.746 -66.595  1.00  0.00    -0.550 OA
ATOM      6  O   UNL     1     -93.986 -62.893 -66.597  1.00  0.00    -0.550 OA
ENDBRANCH   3   4
ENDBRANCH   2   3
ENDBRANCH   1   2
BRANCH   1   7
ATOM      7  C   UNL     1     -98.758 -61.779 -65.094  1.00  0.00     0.000 C 
BRANCH   7   8
ATOM      8  C   UNL     1     -99.685 -60.800 -65.829  1.00  0.00    -0.000 C 
BRANCH   8   9
ATOM      9  C   UNL     1     -98.990 -60.211 -67.067  1.00  0.00    -0.000 C 
BRANCH   9  10
ATOM     10  C   UNL     1     -99.098 -58.680 -67.132  1.00  0.00    -0.003 C 
ATOM     11  C   UNL     1     -97.854 -57.976 -66.588  1.00  0.00     0.004 C 
ENDBRANCH   9  10
ENDBRANCH   8   9
ENDBRANCH   7   8
ENDBRANCH   1   7
TORSDOF 7
ENDMDL
MODEL 6
REMARK VINA RESULT:    -4.465      2.541      4.004
REMARK INTER + INTRA:          -7.146
REMARK INTER:                  -6.295
REMARK INTRA:                  -0.852
REMARK UNBOUND:                -0.853
REMARK SMILES CCCCCCCCC(=O)[O-]
REMARK SMILES IDX 6 1 7 2 8 3 9 4 10 5 11 6 5 7 4 8 3 9 2 10 1 11
REMARK H PARENT
REMARK Flexibility Score: inf
ROOT
ATOM      1  C   UNL     1     -99.002 -61.678 -64.415  1.00  0.00     0.000 C 
ENDROOT
BRANCH   1   2
ATOM      2  C   UNL     1     -99.909 -62.369 -65.448  1.00  0.00     0.006 C 
BRANCH   2   3
ATOM      3  C   UNL     1    -100.154 -61.492 -66.683  1.00  0.00     0.053 C 
BRANCH   3   4
ATOM      4  C   UNL     1    -100.640 -60.126 -66.305  1.00  0.00     0.041 C 
ATOM      5  O   UNL     1    -100.017 -59.103 -66.695  1.00  0.00    -0.550 OA
ATOM      6  O   UNL     1    -101.798 -59.980 -65.552  1.00  0.00    -0.550 OA
ENDBRANCH   3   4
ENDBRANCH   2   3
ENDBRANCH   1   2
BRANCH   1   7
ATOM      7  C   UNL     1     -97.521 -61.690 -64.828  1.00  0.00     0.000 C 
BRANCH   7   8
ATOM      8  C   UNL     1     -96.899 -60.286 -64.843  1.00  0.00    -0.000 C 
BRANCH   8   9
ATOM      9  C   UNL     1     -96.646 -59.815 -66.284  1.00  0.00    -0.000 C 
BRANCH   9  10
ATOM     10  C   UNL     1     -96.272 -60.970 -67.226  1.00  0.00    -0.003 C 
ATOM     11  C   UNL     1     -97.045 -60.932 -68.544  1.00  0.00     0.004 C 
ENDBRANCH   9  10
ENDBRANCH   8   9
ENDBRANCH   7   8
ENDBRANCH   1   7
TORSDOF 7
ENDMDL
MODEL 7
REMARK VINA RESULT:    -4.436      2.647      4.293
REMARK INTER + INTRA:          -7.104
REMARK INTER:                  -6.475
REMARK INTRA:                  -0.629
REMARK UNBOUND:                -0.853
REMARK SMILES CCCCCCCCC(=O)[O-]
REMARK SMILES IDX 6 1 7 2 8 3 9 4 10 5 11 6 5 7 4 8 3 9 2 10 1 11
REMARK H PARENT
REMARK Flexibility Score: inf
ROOT
ATOM      1  C   UNL     1     -99.776 -62.497 -64.996  1.00  0.00     0.000 C 
ENDROOT
BRANCH   1   2
ATOM      2  C   UNL     1     -99.583 -62.144 -66.481  1.00  0.00     0.006 C 
BRANCH   2   3
ATOM      3  C   UNL     1    -100.757 -61.329 -67.040  1.00  0.00     0.053 C 
BRANCH   3   4
ATOM      4  C   UNL     1    -100.766 -59.931 -66.503  1.00  0.00     0.041 C 
ATOM      5  O   UNL     1     -99.965 -59.073 -66.958  1.00  0.00    -0.550 OA
ATOM      6  O   UNL     1    -101.683 -59.565 -65.525  1.00  0.00    -0.550 OA
ENDBRANCH   3   4
ENDBRANCH   2   3
ENDBRANCH   1   2
BRANCH   1   7
ATOM      7  C   UNL     1     -98.746 -61.809 -64.086  1.00  0.00     0.000 C 
BRANCH   7   8
ATOM      8  C   UNL     1     -97.636 -61.102 -64.878  1.00  0.00    -0.000 C 
BRANCH   8   9
ATOM      9  C   UNL     1     -96.288 -61.815 -64.687  1.00  0.00    -0.000 C 
BRANCH   9  10
ATOM     10  C   UNL     1     -95.393 -61.729 -65.934  1.00  0.00    -0.003 C 
ATOM     11  C   UNL     1     -96.004 -60.870 -67.041  1.00  0.00     0.004 C 
ENDBRANCH   9  10
ENDBRANCH   8   9
ENDBRANCH   7   8
ENDBRANCH   1   7
TORSDOF 7
ENDMDL
MODEL 8
REMARK VINA RESULT:    -4.342      2.664      4.703
REMARK INTER + INTRA:          -6.972
REMARK INTER:                  -6.300
REMARK INTRA:                  -0.671
REMARK UNBOUND:                -0.853
REMARK SMILES CCCCCCCCC(=O)[O-]
REMARK SMILES IDX 6 1 7 2 8 3 9 4 10 5 11 6 5 7 4 8 3 9 2 10 1 11
REMARK H PARENT
REMARK Flexibility Score: inf
ROOT
ATOM      1  C   UNL     1     -98.422 -58.849 -67.489  1.00  0.00     0.000 C 
ENDROOT
BRANCH   1   2
ATOM      2  C   UNL     1     -99.893 -59.096 -67.109  1.00  0.00     0.006 C 
BRANCH   2   3
ATOM      3  C   UNL     1    -100.133 -60.533 -66.628  1.00  0.00     0.053 C 
BRANCH   3   4
ATOM      4  C   UNL     1    -101.048 -60.575 -65.442  1.00  0.00     0.041 C 
ATOM      5  O   UNL     1    -102.139 -59.947 -65.462  1.00  0.00    -0.550 OA
ATOM      6  O   UNL     1    -100.712 -61.335 -64.329  1.00  0.00    -0.550 OA
ENDBRANCH   3   4
ENDBRANCH   2   3
ENDBRANCH   1   2
BRANCH   1   7
ATOM      7  C   UNL     1     -97.642 -58.119 -66.384  1.00  0.00     0.000 C 
BRANCH   7   8
ATOM      8  C   UNL     1     -96.826 -59.077 -65.504  1.00  0.00    -0.000 C 
BRANCH   8   9
ATOM      9  C   UNL     1     -96.225 -60.215 -66.343  1.00  0.00    -0.000 C 
BRANCH   9  10
ATOM     10  C   UNL     1     -96.085 -61.523 -65.549  1.00  0.00    -0.003 C 
ATOM     11  C   UNL     1     -97.144 -61.668 -64.456  1.00  0.00     0.004 C 
ENDBRANCH   9  10
ENDBRANCH   8   9
ENDBRANCH   7   8
ENDBRANCH   1   7
TORSDOF 7
ENDMDL
MODEL 9
REMARK VINA RESULT:    -4.318      1.148      2.963
REMARK INTER + INTRA:          -6.939
REMARK INTER:                  -6.278
REMARK INTRA:                  -0.661
REMARK UNBOUND:                -0.853
REMARK SMILES CCCCCCCCC(=O)[O-]
REMARK SMILES IDX 6 1 7 2 8 3 9 4 10 5 11 6 5 7 4 8 3 9 2 10 1 11
REMARK H PARENT
REMARK Flexibility Score: inf
ROOT
ATOM      1  C   UNL     1     -97.980 -58.391 -66.889  1.00  0.00     0.000 C 
ENDROOT
BRANCH   1   2
ATOM      2  C   UNL     1     -97.370 -59.387 -65.887  1.00  0.00     0.006 C 
BRANCH   2   3
ATOM      3  C   UNL     1     -96.299 -60.275 -66.532  1.00  0.00     0.053 C 
BRANCH   3   4
ATOM      4  C   UNL     1     -95.899 -61.404 -65.632  1.00  0.00     0.041 C 
ATOM      5  O   UNL     1     -94.892 -62.107 -65.908  1.00  0.00    -0.550 OA
ATOM      6  O   UNL     1     -96.618 -61.659 -64.471  1.00  0.00    -0.550 OA
ENDBRANCH   3   4
ENDBRANCH   2   3
ENDBRANCH   1   2
BRANCH   1   7
ATOM      7  C   UNL     1     -99.367 -58.827 -67.385  1.00  0.00     0.000 C 
BRANCH   7   8
ATOM      8  C   UNL     1    -100.136 -59.654 -66.343  1.00  0.00    -0.000 C 
BRANCH   8   9
ATOM      9  C   UNL     1    -100.555 -61.014 -66.923  1.00  0.00    -0.000 C 
BRANCH   9  10
ATOM     10  C   UNL     1     -99.762 -62.183 -66.318  1.00  0.00    -0.003 C 
ATOM     11  C   UNL     1    -100.013 -62.355 -64.820  1.00  0.00     0.004 C 
ENDBRANCH   9  10
ENDBRANCH   8   9
ENDBRANCH   7   8
ENDBRANCH   1   7
TORSDOF 7
ENDMDL
