MODEL 1
REMARK VINA RESULT:    -3.863      0.000      0.000
REMARK INTER + INTRA:          -7.348
REMARK INTER:                  -5.895
REMARK INTRA:                  -1.453
REMARK UNBOUND:                -1.453
REMARK SMILES CCCCCCCCCC=CC(=O)[O-]
REMARK SMILES IDX 7 1 8 2 9 3 10 4 11 5 12 6 13 7 14 8 6 9 5 10 4 11 3 12 2 13
REMARK SMILES IDX 1 14
REMARK H PARENT
REMARK Flexibility Score: inf
ROOT
ATOM      1  C   UNL     1      -8.056   2.806   1.636  1.00  0.00     0.000 C 
ENDROOT
BRANCH   1   2
ATOM      2  C   UNL     1      -7.223   4.057   1.320  1.00  0.00     0.004 C 
BRANCH   2   3
ATOM      3  C   UNL     1      -7.710   4.726   0.027  1.00  0.00     0.027 C 
BRANCH   3   4
ATOM      4  C   UNL     1      -8.689   3.850  -0.702  1.00  0.00    -0.025 C 
ATOM      5  C   UNL     1      -9.199   4.206  -1.885  1.00  0.00     0.020 C 
BRANCH   5   6
ATOM      6  C   UNL     1     -10.147   3.352  -2.616  1.00  0.00     0.064 C 
ATOM      7  O   UNL     1     -11.273   3.810  -2.940  1.00  0.00    -0.545 OA
ATOM      8  O   UNL     1      -9.819   2.044  -2.953  1.00  0.00    -0.545 OA
ENDBRANCH   5   6
ENDBRANCH   3   4
ENDBRANCH   2   3
ENDBRANCH   1   2
BRANCH   1   9
ATOM      9  C   UNL     1      -8.769   2.896   2.995  1.00  0.00     0.000 C 
BRANCH   9  10
ATOM     10  C   UNL     1      -8.588   4.270   3.667  1.00  0.00     0.000 C 
BRANCH  10  11
ATOM     11  C   UNL     1      -9.891   5.090   3.664  1.00  0.00    -0.000 C 
BRANCH  11  12
ATOM     12  C   UNL     1     -11.037   4.409   2.883  1.00  0.00    -0.000 C 
BRANCH  12  13
ATOM     13  C   UNL     1     -11.380   5.115   1.559  1.00  0.00    -0.003 C 
ATOM     14  C   UNL     1     -10.704   6.478   1.421  1.00  0.00     0.004 C 
ENDBRANCH  12  13
ENDBRANCH  11  12
ENDBRANCH  10  11
ENDBRANCH   9  10
ENDBRANCH   1   9
TORSDOF 9
ENDMDL
MODEL 2
REMARK VINA RESULT:    -3.673      1.070      1.851
REMARK INTER + INTRA:          -7.058
REMARK INTER:                  -5.645
REMARK INTRA:                  -1.413
REMARK UNBOUND:                -1.453
REMARK SMILES CCCCCCCCCC=CC(=O)[O-]
REMARK SMILES IDX 7 1 8 2 9 3 10 4 11 5 12 6 13 7 14 8 6 9 5 10 4 11 3 12 2 13
REMARK SMILES IDX 1 14
REMARK H PARENT
REMARK Flexibility Score: inf
ROOT
ATOM      1  C   UNL     1      -7.331   4.163   1.139  1.00  0.00     0.000 C 
ENDROOT
BRANCH   1   2
ATOM      2  C   UNL     1      -7.597   4.583  -0.315  1.00  0.00     0.004 C 
BRANCH   2   3
ATOM      3  C   UNL     1      -9.103   4.637  -0.601  1.00  0.00     0.027 C 
BRANCH   3   4
ATOM      4  C   UNL     1      -9.467   3.759  -1.765  1.00  0.00    -0.025 C 
ATOM      5  C   UNL     1     -10.120   2.605  -1.592  1.00  0.00     0.020 C 
BRANCH   5   6
ATOM      6  C   UNL     1     -10.495   1.743  -2.723  1.00  0.00     0.064 C 
ATOM      7  O   UNL     1      -9.732   0.803  -3.066  1.00  0.00    -0.545 OA
ATOM      8  O   UNL     1     -11.678   1.952  -3.422  1.00  0.00    -0.545 OA
ENDBRANCH   5   6
ENDBRANCH   3   4
ENDBRANCH   2   3
ENDBRANCH   1   2
BRANCH   1   9
ATOM      9  C   UNL     1      -7.993   2.824   1.500  1.00  0.00     0.000 C 
BRANCH   9  10
ATOM     10  C   UNL     1      -8.942   2.938   2.707  1.00  0.00     0.000 C 
BRANCH  10  11
ATOM     11  C   UNL     1     -10.414   2.733   2.306  1.00  0.00    -0.000 C 
BRANCH  11  12
ATOM     12  C   UNL     1     -11.252   4.029   2.377  1.00  0.00    -0.000 C 
BRANCH  12  13
ATOM     13  C   UNL     1     -10.458   5.244   2.889  1.00  0.00    -0.003 C 
ATOM     14  C   UNL     1     -10.712   6.507   2.069  1.00  0.00     0.004 C 
ENDBRANCH  12  13
ENDBRANCH  11  12
ENDBRANCH  10  11
ENDBRANCH   9  10
ENDBRANCH   1   9
TORSDOF 9
ENDMDL
MODEL 3
REMARK VINA RESULT:    -3.425      1.808      3.354
REMARK INTER + INTRA:          -6.680
REMARK INTER:                  -5.484
REMARK INTRA:                  -1.196
REMARK UNBOUND:                -1.453
REMARK SMILES CCCCCCCCCC=CC(=O)[O-]
REMARK SMILES IDX 7 1 8 2 9 3 10 4 11 5 12 6 13 7 14 8 6 9 5 10 4 11 3 12 2 13
REMARK SMILES IDX 1 14
REMARK H PARENT
REMARK Flexibility Score: inf
ROOT
ATOM      1  C   UNL     1     -10.952   2.355   2.787  1.00  0.00     0.000 C 
ENDROOT
BRANCH   1   2
ATOM      2  C   UNL     1     -11.640   2.969   1.558  1.00  0.00     0.004 C 
BRANCH   2   3
ATOM      3  C   UNL     1     -12.040   1.880   0.555  1.00  0.00     0.027 C 
BRANCH   3   4
ATOM      4  C   UNL     1     -11.461   2.153  -0.804  1.00  0.00    -0.025 C 
ATOM      5  C   UNL     1     -10.947   1.173  -1.555  1.00  0.00     0.020 C 
BRANCH   5   6
ATOM      6  C   UNL     1     -10.389   1.425  -2.892  1.00  0.00     0.064 C 
ATOM      7  O   UNL     1      -9.660   0.554  -3.435  1.00  0.00    -0.545 OA
ATOM      8  O   UNL     1     -10.653   2.611  -3.566  1.00  0.00    -0.545 OA
ENDBRANCH   5   6
ENDBRANCH   3   4
ENDBRANCH   2   3
ENDBRANCH   1   2
BRANCH   1   9
ATOM      9  C   UNL     1      -9.597   3.012   3.097  1.00  0.00     0.000 C 
BRANCH   9  10
ATOM     10  C   UNL     1      -8.560   2.785   1.981  1.00  0.00     0.000 C 
BRANCH  10  11
ATOM     11  C   UNL     1      -7.637   4.003   1.796  1.00  0.00    -0.000 C 
BRANCH  11  12
ATOM     12  C   UNL     1      -7.249   4.256   0.321  1.00  0.00    -0.000 C 
BRANCH  12  13
ATOM     13  C   UNL     1      -8.430   4.117  -0.654  1.00  0.00    -0.003 C 
ATOM     14  C   UNL     1      -9.415   5.281  -0.564  1.00  0.00     0.004 C 
ENDBRANCH  12  13
ENDBRANCH  11  12
ENDBRANCH  10  11
ENDBRANCH   9  10
ENDBRANCH   1   9
TORSDOF 9
ENDMDL
MODEL 4
REMARK VINA RESULT:    -3.401     14.073     15.865
REMARK INTER + INTRA:          -6.643
REMARK INTER:                  -5.196
REMARK INTRA:                  -1.447
REMARK UNBOUND:                -1.453
REMARK SMILES CCCCCCCCCC=CC(=O)[O-]
REMARK SMILES IDX 7 1 8 2 9 3 10 4 11 5 12 6 13 7 14 8 6 9 5 10 4 11 3 12 2 13
REMARK SMILES IDX 1 14
REMARK H PARENT
REMARK Flexibility Score: inf
ROOT
ATOM      1  C   UNL     1     -10.281  -4.549  -9.287  1.00  0.00     0.000 C 
ENDROOT
BRANCH   1   2
ATOM      2  C   UNL     1      -9.522  -4.167 -10.568  1.00  0.00     0.004 C 
BRANCH   2   3
ATOM      3  C   UNL     1     -10.330  -4.549 -11.815  1.00  0.00     0.027 C 
BRANCH   3   4
ATOM      4  C   UNL     1      -9.508  -5.378 -12.761  1.00  0.00    -0.025 C 
ATOM      5  C   UNL     1      -8.256  -5.740 -12.466  1.00  0.00     0.020 C 
BRANCH   5   6
ATOM      6  C   UNL     1      -7.445  -6.563 -13.377  1.00  0.00     0.064 C 
ATOM      7  O   UNL     1      -6.340  -6.126 -13.790  1.00  0.00    -0.545 OA
ATOM      8  O   UNL     1      -7.882  -7.816 -13.790  1.00  0.00    -0.545 OA
ENDBRANCH   5   6
ENDBRANCH   3   4
ENDBRANCH   2   3
ENDBRANCH   1   2
BRANCH   1   9
ATOM      9  C   UNL     1     -11.726  -4.993  -9.565  1.00  0.00     0.000 C 
BRANCH   9  10
ATOM     10  C   UNL     1     -12.081  -6.321  -8.871  1.00  0.00     0.000 C 
BRANCH  10  11
ATOM     11  C   UNL     1     -10.910  -6.867  -8.034  1.00  0.00    -0.000 C 
BRANCH  11  12
ATOM     12  C   UNL     1     -10.384  -8.230  -8.537  1.00  0.00    -0.000 C 
BRANCH  12  13
ATOM     13  C   UNL     1      -9.520  -8.124  -9.805  1.00  0.00    -0.003 C 
ATOM     14  C   UNL     1     -10.226  -8.653 -11.051  1.00  0.00     0.004 C 
ENDBRANCH  12  13
ENDBRANCH  11  12
ENDBRANCH  10  11
ENDBRANCH   9  10
ENDBRANCH   1   9
TORSDOF 9
ENDMDL
MODEL 5
REMARK VINA RESULT:    -3.392     16.857     18.552
REMARK INTER + INTRA:          -6.630
REMARK INTER:                  -5.759
REMARK INTRA:                  -0.871
REMARK UNBOUND:                -1.453
REMARK SMILES CCCCCCCCCC=CC(=O)[O-]
REMARK SMILES IDX 7 1 8 2 9 3 10 4 11 5 12 6 13 7 14 8 6 9 5 10 4 11 3 12 2 13
REMARK SMILES IDX 1 14
REMARK H PARENT
REMARK Flexibility Score: inf
ROOT
ATOM      1  C   UNL     1       5.052  -7.861  -1.961  1.00  0.00     0.000 C 
ENDROOT
BRANCH   1   2
ATOM      2  C   UNL     1       6.520  -8.293  -2.095  1.00  0.00     0.004 C 
BRANCH   2   3
ATOM      3  C   UNL     1       7.460  -7.211  -1.550  1.00  0.00     0.027 C 
BRANCH   3   4
ATOM      4  C   UNL     1       6.900  -5.837  -1.783  1.00  0.00    -0.025 C 
ATOM      5  C   UNL     1       7.423  -5.014  -2.698  1.00  0.00     0.020 C 
BRANCH   5   6
ATOM      6  C   UNL     1       6.876  -3.672  -2.946  1.00  0.00     0.064 C 
ATOM      7  O   UNL     1       5.924  -3.250  -2.238  1.00  0.00    -0.545 OA
ATOM      8  O   UNL     1       7.391  -2.863  -3.951  1.00  0.00    -0.545 OA
ENDBRANCH   5   6
ENDBRANCH   3   4
ENDBRANCH   2   3
ENDBRANCH   1   2
BRANCH   1   9
ATOM      9  C   UNL     1       4.243  -8.788  -1.041  1.00  0.00     0.000 C 
BRANCH   9  10
ATOM     10  C   UNL     1       3.232  -8.021  -0.168  1.00  0.00     0.000 C 
BRANCH  10  11
ATOM     11  C   UNL     1       3.862  -6.780   0.490  1.00  0.00    -0.000 C 
BRANCH  11  12
ATOM     12  C   UNL     1       4.772  -7.122   1.690  1.00  0.00    -0.000 C 
BRANCH  12  13
ATOM     13  C   UNL     1       4.056  -7.026   3.048  1.00  0.00    -0.003 C 
ATOM     14  C   UNL     1       2.724  -6.284   2.966  1.00  0.00     0.004 C 
ENDBRANCH  12  13
ENDBRANCH  11  12
ENDBRANCH  10  11
ENDBRANCH   9  10
ENDBRANCH   1   9
TORSDOF 9
ENDMDL
MODEL 6
REMARK VINA RESULT:    -3.346     16.808     18.336
REMARK INTER + INTRA:          -6.560
REMARK INTER:                  -5.271
REMARK INTRA:                  -1.289
REMARK UNBOUND:                -1.453
REMARK SMILES CCCCCCCCCC=CC(=O)[O-]
REMARK SMILES IDX 7 1 8 2 9 3 10 4 11 5 12 6 13 7 14 8 6 9 5 10 4 11 3 12 2 13
REMARK SMILES IDX 1 14
REMARK H PARENT
REMARK Flexibility Score: inf
ROOT
ATOM      1  C   UNL     1       2.813  -8.018   0.072  1.00  0.00     0.000 C 
ENDROOT
BRANCH   1   2
ATOM      2  C   UNL     1       3.691  -9.173  -0.434  1.00  0.00     0.004 C 
BRANCH   2   3
ATOM      3  C   UNL     1       4.968  -8.639  -1.096  1.00  0.00     0.027 C 
BRANCH   3   4
ATOM      4  C   UNL     1       5.295  -7.256  -0.609  1.00  0.00    -0.025 C 
ATOM      5  C   UNL     1       5.986  -6.395  -1.364  1.00  0.00     0.020 C 
BRANCH   5   6
ATOM      6  C   UNL     1       6.300  -5.033  -0.905  1.00  0.00     0.064 C 
ATOM      7  O   UNL     1       6.882  -4.869   0.199  1.00  0.00    -0.545 OA
ATOM      8  O   UNL     1       5.963  -3.924  -1.671  1.00  0.00    -0.545 OA
ENDBRANCH   5   6
ENDBRANCH   3   4
ENDBRANCH   2   3
ENDBRANCH   1   2
BRANCH   1   9
ATOM      9  C   UNL     1       1.800  -8.467   1.137  1.00  0.00     0.000 C 
BRANCH   9  10
ATOM     10  C   UNL     1       2.140  -7.933   2.541  1.00  0.00     0.000 C 
BRANCH  10  11
ATOM     11  C   UNL     1       2.928  -6.612   2.480  1.00  0.00    -0.000 C 
BRANCH  11  12
ATOM     12  C   UNL     1       4.418  -6.772   2.858  1.00  0.00    -0.000 C 
BRANCH  12  13
ATOM     13  C   UNL     1       4.734  -8.111   3.547  1.00  0.00    -0.003 C 
ATOM     14  C   UNL     1       5.700  -8.979   2.742  1.00  0.00     0.004 C 
ENDBRANCH  12  13
ENDBRANCH  11  12
ENDBRANCH  10  11
ENDBRANCH   9  10
ENDBRANCH   1   9
TORSDOF 9
ENDMDL
MODEL 7
REMARK VINA RESULT:    -3.341     16.891     18.329
REMARK INTER + INTRA:          -6.551
REMARK INTER:                  -5.313
REMARK INTRA:                  -1.238
REMARK UNBOUND:                -1.453
REMARK SMILES CCCCCCCCCC=CC(=O)[O-]
REMARK SMILES IDX 7 1 8 2 9 3 10 4 11 5 12 6 13 7 14 8 6 9 5 10 4 11 3 12 2 13
REMARK SMILES IDX 1 14
REMARK H PARENT
REMARK Flexibility Score: inf
ROOT
ATOM      1  C   UNL     1       3.950  -6.688   2.915  1.00  0.00     0.000 C 
ENDROOT
BRANCH   1   2
ATOM      2  C   UNL     1       5.398  -7.198   2.954  1.00  0.00     0.004 C 
BRANCH   2   3
ATOM      3  C   UNL     1       6.344  -6.212   2.254  1.00  0.00     0.027 C 
BRANCH   3   4
ATOM      4  C   UNL     1       5.948  -6.006   0.820  1.00  0.00    -0.025 C 
ATOM      5  C   UNL     1       6.631  -5.181   0.019  1.00  0.00     0.020 C 
BRANCH   5   6
ATOM      6  C   UNL     1       6.263  -4.980  -1.391  1.00  0.00     0.064 C 
ATOM      7  O   UNL     1       6.128  -5.979  -2.145  1.00  0.00    -0.545 OA
ATOM      8  O   UNL     1       6.064  -3.705  -1.905  1.00  0.00    -0.545 OA
ENDBRANCH   5   6
ENDBRANCH   3   4
ENDBRANCH   2   3
ENDBRANCH   1   2
BRANCH   1   9
ATOM      9  C   UNL     1       2.921  -7.807   3.144  1.00  0.00     0.000 C 
BRANCH   9  10
ATOM     10  C   UNL     1       1.863  -7.876   2.027  1.00  0.00     0.000 C 
BRANCH  10  11
ATOM     11  C   UNL     1       2.309  -8.780   0.864  1.00  0.00    -0.000 C 
BRANCH  11  12
ATOM     12  C   UNL     1       3.081  -8.019  -0.238  1.00  0.00    -0.000 C 
BRANCH  12  13
ATOM     13  C   UNL     1       4.157  -8.871  -0.932  1.00  0.00    -0.003 C 
ATOM     14  C   UNL     1       5.133  -9.512   0.052  1.00  0.00     0.004 C 
ENDBRANCH  12  13
ENDBRANCH  11  12
ENDBRANCH  10  11
ENDBRANCH   9  10
ENDBRANCH   1   9
TORSDOF 9
ENDMDL
MODEL 8
REMARK VINA RESULT:    -3.309     16.721     18.422
REMARK INTER + INTRA:          -6.504
REMARK INTER:                  -5.513
REMARK INTRA:                  -0.990
REMARK UNBOUND:                -1.453
REMARK SMILES CCCCCCCCCC=CC(=O)[O-]
REMARK SMILES IDX 7 1 8 2 9 3 10 4 11 5 12 6 13 7 14 8 6 9 5 10 4 11 3 12 2 13
REMARK SMILES IDX 1 14
REMARK H PARENT
REMARK Flexibility Score: inf
ROOT
ATOM      1  C   UNL     1       4.243  -9.728  -0.028  1.00  0.00     0.000 C 
ENDROOT
BRANCH   1   2
ATOM      2  C   UNL     1       4.295  -8.641  -1.113  1.00  0.00     0.004 C 
BRANCH   2   3
ATOM      3  C   UNL     1       5.646  -8.661  -1.841  1.00  0.00     0.027 C 
BRANCH   3   4
ATOM      4  C   UNL     1       5.998  -7.300  -2.370  1.00  0.00    -0.025 C 
ATOM      5  C   UNL     1       6.290  -6.285  -1.550  1.00  0.00     0.020 C 
BRANCH   5   6
ATOM      6  C   UNL     1       6.650  -4.952  -2.055  1.00  0.00     0.064 C 
ATOM      7  O   UNL     1       6.009  -3.944  -1.657  1.00  0.00    -0.545 OA
ATOM      8  O   UNL     1       7.686  -4.786  -2.967  1.00  0.00    -0.545 OA
ENDBRANCH   5   6
ENDBRANCH   3   4
ENDBRANCH   2   3
ENDBRANCH   1   2
BRANCH   1   9
ATOM      9  C   UNL     1       2.855  -9.850   0.621  1.00  0.00     0.000 C 
BRANCH   9  10
ATOM     10  C   UNL     1       2.124  -8.498   0.715  1.00  0.00     0.000 C 
BRANCH  10  11
ATOM     11  C   UNL     1       1.855  -8.088   2.174  1.00  0.00    -0.000 C 
BRANCH  11  12
ATOM     12  C   UNL     1       2.577  -6.784   2.584  1.00  0.00    -0.000 C 
BRANCH  12  13
ATOM     13  C   UNL     1       4.025  -7.008   3.052  1.00  0.00    -0.003 C 
ATOM     14  C   UNL     1       5.057  -6.626   1.992  1.00  0.00     0.004 C 
ENDBRANCH  12  13
ENDBRANCH  11  12
ENDBRANCH  10  11
ENDBRANCH   9  10
ENDBRANCH   1   9
TORSDOF 9
ENDMDL
MODEL 9
REMARK VINA RESULT:    -3.229      1.135      3.063
REMARK INTER + INTRA:          -6.381
REMARK INTER:                  -5.028
REMARK INTRA:                  -1.353
REMARK UNBOUND:                -1.453
REMARK SMILES CCCCCCCCCC=CC(=O)[O-]
REMARK SMILES IDX 7 1 8 2 9 3 10 4 11 5 12 6 13 7 14 8 6 9 5 10 4 11 3 12 2 13
REMARK SMILES IDX 1 14
REMARK H PARENT
REMARK Flexibility Score: inf
ROOT
ATOM      1  C   UNL     1     -10.396   5.959   2.443  1.00  0.00     0.000 C 
ENDROOT
BRANCH   1   2
ATOM      2  C   UNL     1     -11.571   5.927   1.452  1.00  0.00     0.004 C 
BRANCH   2   3
ATOM      3  C   UNL     1     -11.739   4.526   0.849  1.00  0.00     0.027 C 
BRANCH   3   4
ATOM      4  C   UNL     1     -10.736   4.280  -0.241  1.00  0.00    -0.025 C 
ATOM      5  C   UNL     1     -10.724   3.137  -0.935  1.00  0.00     0.020 C 
BRANCH   5   6
ATOM      6  C   UNL     1      -9.757   2.889  -2.014  1.00  0.00     0.064 C 
ATOM      7  O   UNL     1      -9.845   1.835  -2.697  1.00  0.00    -0.545 OA
ATOM      8  O   UNL     1      -8.744   3.799  -2.292  1.00  0.00    -0.545 OA
ENDBRANCH   5   6
ENDBRANCH   3   4
ENDBRANCH   2   3
ENDBRANCH   1   2
BRANCH   1   9
ATOM      9  C   UNL     1     -10.601   5.010   3.635  1.00  0.00     0.000 C 
BRANCH   9  10
ATOM     10  C   UNL     1      -9.332   4.856   4.493  1.00  0.00     0.000 C 
BRANCH  10  11
ATOM     11  C   UNL     1      -8.205   4.134   3.733  1.00  0.00    -0.000 C 
BRANCH  11  12
ATOM     12  C   UNL     1      -8.700   2.915   2.922  1.00  0.00    -0.000 C 
BRANCH  12  13
ATOM     13  C   UNL     1      -8.001   2.762   1.560  1.00  0.00    -0.003 C 
ATOM     14  C   UNL     1      -7.343   4.054   1.081  1.00  0.00     0.004 C 
ENDBRANCH  12  13
ENDBRANCH  11  12
ENDBRANCH  10  11
ENDBRANCH   9  10
ENDBRANCH   1   9
TORSDOF 9
ENDMDL
