MODEL 1
REMARK VINA RESULT:    -4.573      0.000      0.000
REMARK INTER + INTRA:          -5.939
REMARK INTER:                  -5.509
REMARK INTRA:                  -0.431
REMARK UNBOUND:                -0.431
REMARK SMILES NC(=O)C[C@@H]([NH3+])C(=O)[O-]
REMARK SMILES IDX 4 1 5 2 6 3 7 7 8 8 9 9 2 10 3 11 1 12
REMARK H PARENT 6 4 6 5 6 6 1 13 1 14
REMARK Flexibility Score: inf
ROOT
ATOM      1  C   UNL     1     165.146 166.365 166.362  1.00  0.00     0.171 C 
ENDROOT
BRANCH   1   2
ATOM      2  C   UNL     1     166.209 165.746 165.428  1.00  0.00     0.237 C 
BRANCH   2   3
ATOM      3  N   UNL     1     166.297 164.289 165.593  1.00  0.00    -0.350 N 
ATOM      4  H   UNL     1     165.448 163.936 166.093  1.00  0.00     0.345 HD
ATOM      5  H   UNL     1     166.374 163.807 164.668  1.00  0.00     0.345 HD
ATOM      6  H   UNL     1     167.138 164.051 166.168  1.00  0.00     0.345 HD
ENDBRANCH   2   3
BRANCH   2   7
ATOM      7  C   UNL     1     165.960 166.117 163.989  1.00  0.00     0.100 C 
ATOM      8  O   UNL     1     166.538 165.481 163.067  1.00  0.00    -0.544 OA
ATOM      9  O   UNL     1     165.138 167.190 163.665  1.00  0.00    -0.544 OA
ENDBRANCH   2   7
ENDBRANCH   1   2
BRANCH   1  10
ATOM     10  C   UNL     1     163.882 165.555 166.443  1.00  0.00     0.223 C 
ATOM     11  O   UNL     1     163.705 164.764 167.407  1.00  0.00    -0.275 OA
ATOM     12  N   UNL     1     162.871 165.689 165.444  1.00  0.00    -0.369 N 
ATOM     13  H   UNL     1     161.990 165.132 165.509  1.00  0.00     0.159 HD
ATOM     14  H   UNL     1     162.997 166.345 164.642  1.00  0.00     0.159 HD
ENDBRANCH   1  10
TORSDOF 4
ENDMDL
MODEL 2
REMARK VINA RESULT:    -4.539     21.304     22.536
REMARK INTER + INTRA:          -5.898
REMARK INTER:                  -5.445
REMARK INTRA:                  -0.453
REMARK UNBOUND:                -0.431
REMARK SMILES NC(=O)C[C@@H]([NH3+])C(=O)[O-]
REMARK SMILES IDX 4 1 5 2 6 3 7 7 8 8 9 9 2 10 3 11 1 12
REMARK H PARENT 6 4 6 5 6 6 1 13 1 14
REMARK Flexibility Score: inf
ROOT
ATOM      1  C   UNL     1     149.787 148.606 166.300  1.00  0.00     0.171 C 
ENDROOT
BRANCH   1   2
ATOM      2  C   UNL     1     148.752 149.266 165.363  1.00  0.00     0.237 C 
BRANCH   2   3
ATOM      3  N   UNL     1     148.685 150.720 165.563  1.00  0.00    -0.350 N 
ATOM      4  H   UNL     1     149.305 150.998 166.359  1.00  0.00     0.345 HD
ATOM      5  H   UNL     1     148.982 151.235 164.703  1.00  0.00     0.345 HD
ATOM      6  H   UNL     1     147.704 150.996 165.801  1.00  0.00     0.345 HD
ENDBRANCH   2   3
BRANCH   2   7
ATOM      7  C   UNL     1     149.021 148.928 163.919  1.00  0.00     0.100 C 
ATOM      8  O   UNL     1     148.405 149.538 163.005  1.00  0.00    -0.544 OA
ATOM      9  O   UNL     1     149.906 147.910 163.583  1.00  0.00    -0.544 OA
ENDBRANCH   2   7
ENDBRANCH   1   2
BRANCH   1  10
ATOM     10  C   UNL     1     151.053 149.404 166.443  1.00  0.00     0.223 C 
ATOM     11  O   UNL     1     151.197 150.179 167.426  1.00  0.00    -0.275 OA
ATOM     12  N   UNL     1     152.102 149.276 165.484  1.00  0.00    -0.369 N 
ATOM     13  H   UNL     1     152.984 149.824 165.592  1.00  0.00     0.159 HD
ATOM     14  H   UNL     1     152.004 148.632 164.668  1.00  0.00     0.159 HD
ENDBRANCH   1  10
TORSDOF 4
ENDMDL
MODEL 3
REMARK VINA RESULT:    -4.523     17.038     18.138
REMARK INTER + INTRA:          -5.879
REMARK INTER:                  -5.593
REMARK INTRA:                  -0.286
REMARK UNBOUND:                -0.431
REMARK SMILES NC(=O)C[C@@H]([NH3+])C(=O)[O-]
REMARK SMILES IDX 4 1 5 2 6 3 7 7 8 8 9 9 2 10 3 11 1 12
REMARK H PARENT 6 4 6 5 6 6 1 13 1 14
REMARK Flexibility Score: inf
ROOT
ATOM      1  C   UNL     1     155.437 152.031 166.031  1.00  0.00     0.171 C 
ENDROOT
BRANCH   1   2
ATOM      2  C   UNL     1     153.930 151.783 165.804  1.00  0.00     0.237 C 
BRANCH   2   3
ATOM      3  N   UNL     1     153.684 150.497 165.138  1.00  0.00    -0.350 N 
ATOM      4  H   UNL     1     154.547 149.906 165.177  1.00  0.00     0.345 HD
ATOM      5  H   UNL     1     152.896 149.980 165.591  1.00  0.00     0.345 HD
ATOM      6  H   UNL     1     153.447 150.662 164.133  1.00  0.00     0.345 HD
ENDBRANCH   2   3
BRANCH   2   7
ATOM      7  C   UNL     1     153.155 151.886 167.092  1.00  0.00     0.100 C 
ATOM      8  O   UNL     1     153.374 152.841 167.884  1.00  0.00    -0.544 OA
ATOM      9  O   UNL     1     152.233 150.906 167.445  1.00  0.00    -0.544 OA
ENDBRANCH   2   7
ENDBRANCH   1   2
BRANCH   1  10
ATOM     10  C   UNL     1     156.318 151.155 165.184  1.00  0.00     0.223 C 
ATOM     11  O   UNL     1     156.317 151.291 163.932  1.00  0.00    -0.275 OA
ATOM     12  N   UNL     1     157.172 150.184 165.790  1.00  0.00    -0.369 N 
ATOM     13  H   UNL     1     157.790 149.585 165.199  1.00  0.00     0.159 HD
ATOM     14  H   UNL     1     157.192 150.064 166.827  1.00  0.00     0.159 HD
ENDBRANCH   1  10
TORSDOF 4
ENDMDL
MODEL 4
REMARK VINA RESULT:    -4.513      4.664      5.957
REMARK INTER + INTRA:          -5.868
REMARK INTER:                  -5.583
REMARK INTRA:                  -0.285
REMARK UNBOUND:                -0.431
REMARK SMILES NC(=O)C[C@@H]([NH3+])C(=O)[O-]
REMARK SMILES IDX 4 1 5 2 6 3 7 7 8 8 9 9 2 10 3 11 1 12
REMARK H PARENT 6 4 6 5 6 6 1 13 1 14
REMARK Flexibility Score: inf
ROOT
ATOM      1  C   UNL     1     159.567 162.932 165.926  1.00  0.00     0.171 C 
ENDROOT
BRANCH   1   2
ATOM      2  C   UNL     1     161.073 163.173 165.683  1.00  0.00     0.237 C 
BRANCH   2   3
ATOM      3  N   UNL     1     161.326 164.503 165.111  1.00  0.00    -0.350 N 
ATOM      4  H   UNL     1     160.445 165.067 165.121  1.00  0.00     0.345 HD
ATOM      5  H   UNL     1     162.064 165.012 165.648  1.00  0.00     0.345 HD
ATOM      6  H   UNL     1     161.639 164.403 164.118  1.00  0.00     0.345 HD
ENDBRANCH   2   3
BRANCH   2   7
ATOM      7  C   UNL     1     161.875 162.961 166.941  1.00  0.00     0.100 C 
ATOM      8  O   UNL     1     161.796 161.866 167.560  1.00  0.00    -0.544 OA
ATOM      9  O   UNL     1     162.664 163.981 167.460  1.00  0.00    -0.544 OA
ENDBRANCH   2   7
ENDBRANCH   1   2
BRANCH   1  10
ATOM     10  C   UNL     1     158.683 163.875 165.159  1.00  0.00     0.223 C 
ATOM     11  O   UNL     1     158.651 163.822 163.901  1.00  0.00    -0.275 OA
ATOM     12  N   UNL     1     157.862 164.819 165.847  1.00  0.00    -0.369 N 
ATOM     13  H   UNL     1     157.241 165.466 165.312  1.00  0.00     0.159 HD
ATOM     14  H   UNL     1     157.869 164.872 166.890  1.00  0.00     0.159 HD
ENDBRANCH   1  10
TORSDOF 4
ENDMDL
MODEL 5
REMARK VINA RESULT:    -4.498      1.029      3.772
REMARK INTER + INTRA:          -5.850
REMARK INTER:                  -5.454
REMARK INTRA:                  -0.396
REMARK UNBOUND:                -0.431
REMARK SMILES NC(=O)C[C@@H]([NH3+])C(=O)[O-]
REMARK SMILES IDX 4 1 5 2 6 3 7 7 8 8 9 9 2 10 3 11 1 12
REMARK H PARENT 6 4 6 5 6 6 1 13 1 14
REMARK Flexibility Score: inf
ROOT
ATOM      1  C   UNL     1     165.365 166.441 165.863  1.00  0.00     0.171 C 
ENDROOT
BRANCH   1   2
ATOM      2  C   UNL     1     163.823 166.371 165.828  1.00  0.00     0.237 C 
BRANCH   2   3
ATOM      3  N   UNL     1     163.297 166.591 164.473  1.00  0.00    -0.350 N 
ATOM      4  H   UNL     1     162.268 166.771 164.517  1.00  0.00     0.345 HD
ATOM      5  H   UNL     1     163.767 167.403 164.012  1.00  0.00     0.345 HD
ATOM      6  H   UNL     1     163.455 165.735 163.893  1.00  0.00     0.345 HD
ENDBRANCH   2   3
BRANCH   2   7
ATOM      7  C   UNL     1     163.317 165.073 166.403  1.00  0.00     0.100 C 
ATOM      8  O   UNL     1     162.500 164.371 165.750  1.00  0.00    -0.544 OA
ATOM      9  O   UNL     1     163.702 164.664 167.675  1.00  0.00    -0.544 OA
ENDBRANCH   2   7
ENDBRANCH   1   2
BRANCH   1  10
ATOM     10  C   UNL     1     166.026 165.418 164.981  1.00  0.00     0.223 C 
ATOM     11  O   UNL     1     165.989 165.553 163.729  1.00  0.00    -0.275 OA
ATOM     12  N   UNL     1     166.713 164.305 165.553  1.00  0.00    -0.369 N 
ATOM     13  H   UNL     1     167.180 163.602 164.937  1.00  0.00     0.159 HD
ATOM     14  H   UNL     1     166.761 164.182 166.588  1.00  0.00     0.159 HD
ENDBRANCH   1  10
TORSDOF 4
ENDMDL
MODEL 6
REMARK VINA RESULT:    -4.389     21.932     22.694
REMARK INTER + INTRA:          -5.718
REMARK INTER:                  -5.335
REMARK INTRA:                  -0.383
REMARK UNBOUND:                -0.431
REMARK SMILES NC(=O)C[C@@H]([NH3+])C(=O)[O-]
REMARK SMILES IDX 4 1 5 2 6 3 7 7 8 8 9 9 2 10 3 11 1 12
REMARK H PARENT 6 4 6 5 6 6 1 13 1 14
REMARK Flexibility Score: inf
ROOT
ATOM      1  C   UNL     1     149.610 166.293 147.957  1.00  0.00     0.171 C 
ENDROOT
BRANCH   1   2
ATOM      2  C   UNL     1     148.384 165.825 148.771  1.00  0.00     0.237 C 
BRANCH   2   3
ATOM      3  N   UNL     1     148.167 164.377 148.647  1.00  0.00    -0.350 N 
ATOM      4  H   UNL     1     148.077 164.117 147.637  1.00  0.00     0.345 HD
ATOM      5  H   UNL     1     148.957 163.838 149.069  1.00  0.00     0.345 HD
ATOM      6  H   UNL     1     147.279 164.113 149.132  1.00  0.00     0.345 HD
ENDBRANCH   2   3
BRANCH   2   7
ATOM      7  C   UNL     1     148.493 166.236 150.217  1.00  0.00     0.100 C 
ATOM      8  O   UNL     1     148.259 165.398 151.129  1.00  0.00    -0.544 OA
ATOM      9  O   UNL     1     148.799 167.548 150.560  1.00  0.00    -0.544 OA
ENDBRANCH   2   7
ENDBRANCH   1   2
BRANCH   1  10
ATOM     10  C   UNL     1     150.862 165.523 148.274  1.00  0.00     0.223 C 
ATOM     11  O   UNL     1     150.984 164.334 147.875  1.00  0.00    -0.275 OA
ATOM     12  N   UNL     1     151.923 166.136 149.006  1.00  0.00    -0.369 N 
ATOM     13  H   UNL     1     152.795 165.601 149.215  1.00  0.00     0.159 HD
ATOM     14  H   UNL     1     151.843 167.122 149.337  1.00  0.00     0.159 HD
ENDBRANCH   1  10
TORSDOF 4
ENDMDL
MODEL 7
REMARK VINA RESULT:    -4.378      2.596      3.758
REMARK INTER + INTRA:          -5.705
REMARK INTER:                  -5.335
REMARK INTRA:                  -0.370
REMARK UNBOUND:                -0.431
REMARK SMILES NC(=O)C[C@@H]([NH3+])C(=O)[O-]
REMARK SMILES IDX 4 1 5 2 6 3 7 7 8 8 9 9 2 10 3 11 1 12
REMARK H PARENT 6 4 6 5 6 6 1 13 1 14
REMARK Flexibility Score: inf
ROOT
ATOM      1  C   UNL     1     166.430 167.169 163.227  1.00  0.00     0.171 C 
ENDROOT
BRANCH   1   2
ATOM      2  C   UNL     1     165.929 167.160 161.766  1.00  0.00     0.237 C 
BRANCH   2   3
ATOM      3  N   UNL     1     166.643 166.169 160.951  1.00  0.00    -0.350 N 
ATOM      4  H   UNL     1     167.133 166.646 160.159  1.00  0.00     0.345 HD
ATOM      5  H   UNL     1     167.347 165.645 161.521  1.00  0.00     0.345 HD
ATOM      6  H   UNL     1     165.960 165.487 160.549  1.00  0.00     0.345 HD
ENDBRANCH   2   3
BRANCH   2   7
ATOM      7  C   UNL     1     164.438 166.950 161.696  1.00  0.00     0.100 C 
ATOM      8  O   UNL     1     163.699 167.374 162.624  1.00  0.00    -0.544 OA
ATOM      9  O   UNL     1     163.871 166.245 160.641  1.00  0.00    -0.544 OA
ENDBRANCH   2   7
ENDBRANCH   1   2
BRANCH   1  10
ATOM     10  C   UNL     1     166.214 165.861 163.936  1.00  0.00     0.223 C 
ATOM     11  O   UNL     1     166.850 164.837 163.569  1.00  0.00    -0.275 OA
ATOM     12  N   UNL     1     165.309 165.774 165.036  1.00  0.00    -0.369 N 
ATOM     13  H   UNL     1     165.170 164.866 165.533  1.00  0.00     0.159 HD
ATOM     14  H   UNL     1     164.780 166.614 165.359  1.00  0.00     0.159 HD
ENDBRANCH   1  10
TORSDOF 4
ENDMDL
MODEL 8
REMARK VINA RESULT:    -4.376      2.661      4.433
REMARK INTER + INTRA:          -5.702
REMARK INTER:                  -5.206
REMARK INTRA:                  -0.496
REMARK UNBOUND:                -0.431
REMARK SMILES NC(=O)C[C@@H]([NH3+])C(=O)[O-]
REMARK SMILES IDX 4 1 5 2 6 3 7 7 8 8 9 9 2 10 3 11 1 12
REMARK H PARENT 6 4 6 5 6 6 1 13 1 14
REMARK Flexibility Score: inf
ROOT
ATOM      1  C   UNL     1     166.325 167.812 162.857  1.00  0.00     0.171 C 
ENDROOT
BRANCH   1   2
ATOM      2  C   UNL     1     165.406 167.188 163.930  1.00  0.00     0.237 C 
BRANCH   2   3
ATOM      3  N   UNL     1     164.058 166.924 163.407  1.00  0.00    -0.350 N 
ATOM      4  H   UNL     1     164.022 165.966 162.987  1.00  0.00     0.345 HD
ATOM      5  H   UNL     1     163.339 166.993 164.163  1.00  0.00     0.345 HD
ATOM      6  H   UNL     1     163.830 167.618 162.659  1.00  0.00     0.345 HD
ENDBRANCH   2   3
BRANCH   2   7
ATOM      7  C   UNL     1     166.014 165.942 164.520  1.00  0.00     0.100 C 
ATOM      8  O   UNL     1     166.030 165.780 165.769  1.00  0.00    -0.544 OA
ATOM      9  O   UNL     1     166.609 164.988 163.702  1.00  0.00    -0.544 OA
ENDBRANCH   2   7
ENDBRANCH   1   2
BRANCH   1  10
ATOM     10  C   UNL     1     165.997 167.362 161.460  1.00  0.00     0.223 C 
ATOM     11  O   UNL     1     165.187 168.027 160.761  1.00  0.00    -0.275 OA
ATOM     12  N   UNL     1     166.612 166.196 160.912  1.00  0.00    -0.369 N 
ATOM     13  H   UNL     1     166.390 165.892 159.938  1.00  0.00     0.159 HD
ATOM     14  H   UNL     1     167.292 165.637 161.473  1.00  0.00     0.159 HD
ENDBRANCH   1  10
TORSDOF 4
ENDMDL
MODEL 9
REMARK VINA RESULT:    -4.300     21.084     22.074
REMARK INTER + INTRA:          -5.611
REMARK INTER:                  -5.372
REMARK INTRA:                  -0.239
REMARK UNBOUND:                -0.431
REMARK SMILES NC(=O)C[C@@H]([NH3+])C(=O)[O-]
REMARK SMILES IDX 4 1 5 2 6 3 7 7 8 8 9 9 2 10 3 11 1 12
REMARK H PARENT 6 4 6 5 6 6 1 13 1 14
REMARK Flexibility Score: inf
ROOT
ATOM      1  C   UNL     1     165.265 148.694 150.759  1.00  0.00     0.171 C 
ENDROOT
BRANCH   1   2
ATOM      2  C   UNL     1     166.481 148.781 151.706  1.00  0.00     0.237 C 
BRANCH   2   3
ATOM      3  N   UNL     1     167.124 150.101 151.648  1.00  0.00    -0.350 N 
ATOM      4  H   UNL     1     166.395 150.851 151.631  1.00  0.00     0.345 HD
ATOM      5  H   UNL     1     167.752 150.253 152.470  1.00  0.00     0.345 HD
ATOM      6  H   UNL     1     167.691 150.176 150.772  1.00  0.00     0.345 HD
ENDBRANCH   2   3
BRANCH   2   7
ATOM      7  C   UNL     1     166.103 148.423 153.121  1.00  0.00     0.100 C 
ATOM      8  O   UNL     1     166.988 148.032 153.928  1.00  0.00    -0.544 OA
ATOM      9  O   UNL     1     164.777 148.467 153.534  1.00  0.00    -0.544 OA
ENDBRANCH   2   7
ENDBRANCH   1   2
BRANCH   1  10
ATOM     10  C   UNL     1     165.507 149.337 149.421  1.00  0.00     0.223 C 
ATOM     11  O   UNL     1     165.585 150.590 149.333  1.00  0.00    -0.275 OA
ATOM     12  N   UNL     1     165.669 148.534 148.251  1.00  0.00    -0.369 N 
ATOM     13  H   UNL     1     165.847 148.983 147.326  1.00  0.00     0.159 HD
ATOM     14  H   UNL     1     165.615 147.493 148.307  1.00  0.00     0.159 HD
ENDBRANCH   1  10
TORSDOF 4
ENDMDL
