MODEL 1
REMARK VINA RESULT:    -6.977      0.000      0.000
REMARK INTER + INTRA:          -8.277
REMARK INTER:                  -8.405
REMARK INTRA:                   0.127
REMARK UNBOUND:                 0.127
REMARK SMILES O=c1c(O)c(-c2ccc(O)c(O)c2)oc2cc(O)cc(O)c12
REMARK SMILES IDX 5 1 3 2 2 3 1 4 22 5 20 6 19 7 17 8 16 9 15 10 14 11 6 12
REMARK SMILES IDX 7 13 8 14 9 15 13 16 11 17 10 18 12 20 4 22 21 24 18 26
REMARK H PARENT 10 19 12 21 4 23 21 25 18 27
REMARK Flexibility Score: inf
ROOT
ATOM      1  C   UNL     1       2.464  -8.099   6.727  1.00  0.00     0.180 A 
ATOM      2  C   UNL     1       3.659  -7.538   7.208  1.00  0.00     0.208 A 
ATOM      3  C   UNL     1       3.604  -6.645   8.290  1.00  0.00     0.238 A 
ATOM      4  O   UNL     1       4.684  -6.203   8.764  1.00  0.00    -0.285 OA
ATOM      5  C   UNL     1       2.351  -6.279   8.840  1.00  0.00     0.111 A 
ATOM      6  C   UNL     1       2.174  -5.348   9.909  1.00  0.00     0.134 A 
ATOM      7  C   UNL     1       0.894  -5.145  10.442  1.00  0.00     0.093 A 
ATOM      8  C   UNL     1      -0.220  -5.787   9.906  1.00  0.00     0.123 A 
ATOM      9  C   UNL     1      -0.065  -6.658   8.827  1.00  0.00     0.094 A 
ATOM     10  C   UNL     1       1.202  -6.911   8.297  1.00  0.00     0.146 A 
ATOM     11  O   UNL     1       1.307  -7.763   7.284  1.00  0.00    -0.452 OA
ENDROOT
BRANCH   1  12
ATOM     12  C   UNL     1       2.442  -9.060   5.600  1.00  0.00     0.025 A 
ATOM     13  C   UNL     1       1.636 -10.205   5.687  1.00  0.00     0.016 A 
ATOM     14  C   UNL     1       1.614 -11.136   4.645  1.00  0.00     0.051 A 
ATOM     15  C   UNL     1       2.407 -10.945   3.509  1.00  0.00     0.157 A 
ATOM     16  C   UNL     1       3.254  -8.879   4.466  1.00  0.00     0.062 A 
ATOM     17  C   UNL     1       3.235  -9.813   3.420  1.00  0.00     0.158 A 
BRANCH  15  18
ATOM     18  O   UNL     1       2.363 -11.889   2.485  1.00  0.00    -0.504 OA
ATOM     19  H   UNL     1       1.665 -11.855   1.750  1.00  0.00     0.293 HD
ENDBRANCH  15  18
BRANCH  17  20
ATOM     20  O   UNL     1       4.040  -9.623   2.298  1.00  0.00    -0.504 OA
ATOM     21  H   UNL     1       4.831 -10.224   2.103  1.00  0.00     0.293 HD
ENDBRANCH  17  20
ENDBRANCH   1  12
BRANCH   2  22
ATOM     22  O   UNL     1       4.878  -7.851   6.601  1.00  0.00    -0.502 OA
ATOM     23  H   UNL     1       5.070  -8.765   6.207  1.00  0.00     0.293 HD
ENDBRANCH   2  22
BRANCH   6  24
ATOM     24  O   UNL     1       3.206  -4.583  10.461  1.00  0.00    -0.507 OA
ATOM     25  H   UNL     1       4.170  -4.614  10.166  1.00  0.00     0.293 HD
ENDBRANCH   6  24
BRANCH   8  26
ATOM     26  O   UNL     1      -1.480  -5.549  10.452  1.00  0.00    -0.508 OA
ATOM     27  H   UNL     1      -2.237  -5.174   9.893  1.00  0.00     0.293 HD
ENDBRANCH   8  26
TORSDOF 6
ENDMDL
MODEL 2
REMARK VINA RESULT:    -6.643      1.399      7.415
REMARK INTER + INTRA:          -7.875
REMARK INTER:                  -8.076
REMARK INTRA:                   0.201
REMARK UNBOUND:                 0.127
REMARK SMILES O=c1c(O)c(-c2ccc(O)c(O)c2)oc2cc(O)cc(O)c12
REMARK SMILES IDX 5 1 3 2 2 3 1 4 22 5 20 6 19 7 17 8 16 9 15 10 14 11 6 12
REMARK SMILES IDX 7 13 8 14 9 15 13 16 11 17 10 18 12 20 4 22 21 24 18 26
REMARK H PARENT 10 19 12 21 4 23 21 25 18 27
REMARK Flexibility Score: inf
ROOT
ATOM      1  C   UNL     1       2.780  -8.406   6.318  1.00  0.00     0.180 A 
ATOM      2  C   UNL     1       1.943  -9.535   6.275  1.00  0.00     0.208 A 
ATOM      3  C   UNL     1       2.044 -10.415   5.187  1.00  0.00     0.238 A 
ATOM      4  O   UNL     1       1.345 -11.463   5.192  1.00  0.00    -0.285 OA
ATOM      5  C   UNL     1       2.939 -10.128   4.127  1.00  0.00     0.111 A 
ATOM      6  C   UNL     1       3.090 -10.928   2.953  1.00  0.00     0.134 A 
ATOM      7  C   UNL     1       4.084 -10.602   2.020  1.00  0.00     0.093 A 
ATOM      8  C   UNL     1       4.886  -9.475   2.185  1.00  0.00     0.123 A 
ATOM      9  C   UNL     1       4.709  -8.656   3.302  1.00  0.00     0.094 A 
ATOM     10  C   UNL     1       3.753  -8.974   4.269  1.00  0.00     0.146 A 
ATOM     11  O   UNL     1       3.633  -8.180   5.326  1.00  0.00    -0.452 OA
ENDROOT
BRANCH   1  12
ATOM     12  C   UNL     1       2.744  -7.440   7.440  1.00  0.00     0.025 A 
ATOM     13  C   UNL     1       3.944  -6.884   7.910  1.00  0.00     0.016 A 
ATOM     14  C   UNL     1       3.936  -5.986   8.980  1.00  0.00     0.051 A 
ATOM     15  C   UNL     1       2.734  -5.640   9.605  1.00  0.00     0.157 A 
ATOM     16  C   UNL     1       1.538  -7.108   8.083  1.00  0.00     0.062 A 
ATOM     17  C   UNL     1       1.529  -6.208   9.158  1.00  0.00     0.158 A 
BRANCH  15  18
ATOM     18  O   UNL     1       2.757  -4.740  10.669  1.00  0.00    -0.504 OA
ATOM     19  H   UNL     1       2.606  -3.746  10.536  1.00  0.00     0.293 HD
ENDBRANCH  15  18
BRANCH  17  20
ATOM     20  O   UNL     1       0.328  -5.880   9.786  1.00  0.00    -0.504 OA
ATOM     21  H   UNL     1       0.249  -5.077  10.397  1.00  0.00     0.293 HD
ENDBRANCH  17  20
ENDBRANCH   1  12
BRANCH   2  22
ATOM     22  O   UNL     1       1.013  -9.759   7.293  1.00  0.00    -0.502 OA
ATOM     23  H   UNL     1       0.353  -9.050   7.592  1.00  0.00     0.293 HD
ENDBRANCH   2  22
BRANCH   6  24
ATOM     24  O   UNL     1       2.283 -12.026   2.643  1.00  0.00    -0.507 OA
ATOM     25  H   UNL     1       2.135 -12.391   1.714  1.00  0.00     0.293 HD
ENDBRANCH   6  24
BRANCH   8  26
ATOM     26  O   UNL     1       5.852  -9.173   1.228  1.00  0.00    -0.508 OA
ATOM     27  H   UNL     1       6.634  -8.564   1.439  1.00  0.00     0.293 HD
ENDBRANCH   8  26
TORSDOF 6
ENDMDL
MODEL 3
REMARK VINA RESULT:    -6.235      9.726     11.562
REMARK INTER + INTRA:          -7.383
REMARK INTER:                  -7.111
REMARK INTRA:                  -0.272
REMARK UNBOUND:                 0.127
REMARK SMILES O=c1c(O)c(-c2ccc(O)c(O)c2)oc2cc(O)cc(O)c12
REMARK SMILES IDX 5 1 3 2 2 3 1 4 22 5 20 6 19 7 17 8 16 9 15 10 14 11 6 12
REMARK SMILES IDX 7 13 8 14 9 15 13 16 11 17 10 18 12 20 4 22 21 24 18 26
REMARK H PARENT 10 19 12 21 4 23 21 25 18 27
REMARK Flexibility Score: inf
ROOT
ATOM      1  C   UNL     1      -3.340   0.044  10.927  1.00  0.00     0.180 A 
ATOM      2  C   UNL     1      -4.610   0.572  10.640  1.00  0.00     0.208 A 
ATOM      3  C   UNL     1      -5.747  -0.208  10.903  1.00  0.00     0.238 A 
ATOM      4  O   UNL     1      -6.884   0.299  10.712  1.00  0.00    -0.285 OA
ATOM      5  C   UNL     1      -5.599  -1.527  11.396  1.00  0.00     0.111 A 
ATOM      6  C   UNL     1      -6.681  -2.423  11.656  1.00  0.00     0.134 A 
ATOM      7  C   UNL     1      -6.419  -3.668  12.244  1.00  0.00     0.093 A 
ATOM      8  C   UNL     1      -5.116  -4.074  12.523  1.00  0.00     0.123 A 
ATOM      9  C   UNL     1      -4.047  -3.228  12.223  1.00  0.00     0.094 A 
ATOM     10  C   UNL     1      -4.277  -1.965  11.671  1.00  0.00     0.146 A 
ATOM     11  O   UNL     1      -3.234  -1.184  11.421  1.00  0.00    -0.452 OA
ENDROOT
BRANCH   1  12
ATOM     12  C   UNL     1      -2.095   0.811  10.692  1.00  0.00     0.025 A 
ATOM     13  C   UNL     1      -1.739   1.836  11.582  1.00  0.00     0.016 A 
ATOM     14  C   UNL     1      -0.580   2.586  11.369  1.00  0.00     0.051 A 
ATOM     15  C   UNL     1       0.232   2.335  10.258  1.00  0.00     0.157 A 
ATOM     16  C   UNL     1      -1.289   0.573   9.565  1.00  0.00     0.062 A 
ATOM     17  C   UNL     1      -0.127   1.326   9.348  1.00  0.00     0.158 A 
BRANCH  15  18
ATOM     18  O   UNL     1       1.384   3.098  10.073  1.00  0.00    -0.504 OA
ATOM     19  H   UNL     1       1.745   3.313   9.150  1.00  0.00     0.293 HD
ENDBRANCH  15  18
BRANCH  17  20
ATOM     20  O   UNL     1       0.669   1.079   8.230  1.00  0.00    -0.504 OA
ATOM     21  H   UNL     1       0.695   0.169   7.786  1.00  0.00     0.293 HD
ENDBRANCH  17  20
ENDBRANCH   1  12
BRANCH   2  22
ATOM     22  O   UNL     1      -4.732   1.847  10.080  1.00  0.00    -0.502 OA
ATOM     23  H   UNL     1      -4.925   1.993   9.096  1.00  0.00     0.293 HD
ENDBRANCH   2  22
BRANCH   6  24
ATOM     24  O   UNL     1      -8.015  -2.156  11.335  1.00  0.00    -0.507 OA
ATOM     25  H   UNL     1      -8.480  -1.274  11.490  1.00  0.00     0.293 HD
ENDBRANCH   6  24
BRANCH   8  26
ATOM     26  O   UNL     1      -4.892  -5.325  13.093  1.00  0.00    -0.508 OA
ATOM     27  H   UNL     1      -4.236  -5.982  12.689  1.00  0.00     0.293 HD
ENDBRANCH   8  26
TORSDOF 6
ENDMDL
MODEL 4
REMARK VINA RESULT:    -6.128      9.801     11.425
REMARK INTER + INTRA:          -7.254
REMARK INTER:                  -6.965
REMARK INTRA:                  -0.288
REMARK UNBOUND:                 0.127
REMARK SMILES O=c1c(O)c(-c2ccc(O)c(O)c2)oc2cc(O)cc(O)c12
REMARK SMILES IDX 5 1 3 2 2 3 1 4 22 5 20 6 19 7 17 8 16 9 15 10 14 11 6 12
REMARK SMILES IDX 7 13 8 14 9 15 13 16 11 17 10 18 12 20 4 22 21 24 18 26
REMARK H PARENT 10 19 12 21 4 23 21 25 18 27
REMARK Flexibility Score: inf
ROOT
ATOM      1  C   UNL     1      -3.348  -0.230  11.615  1.00  0.00     0.180 A 
ATOM      2  C   UNL     1      -4.126   0.875  12.000  1.00  0.00     0.208 A 
ATOM      3  C   UNL     1      -3.608   2.167  11.821  1.00  0.00     0.238 A 
ATOM      4  O   UNL     1      -4.339   3.154  12.099  1.00  0.00    -0.285 OA
ATOM      5  C   UNL     1      -2.297   2.337  11.312  1.00  0.00     0.111 A 
ATOM      6  C   UNL     1      -1.654   3.600  11.131  1.00  0.00     0.134 A 
ATOM      7  C   UNL     1      -0.394   3.652  10.520  1.00  0.00     0.093 A 
ATOM      8  C   UNL     1       0.271   2.487  10.142  1.00  0.00     0.123 A 
ATOM      9  C   UNL     1      -0.325   1.245  10.364  1.00  0.00     0.094 A 
ATOM     10  C   UNL     1      -1.596   1.162  10.937  1.00  0.00     0.146 A 
ATOM     11  O   UNL     1      -2.135  -0.039  11.110  1.00  0.00    -0.452 OA
ENDROOT
BRANCH   1  12
ATOM     12  C   UNL     1      -3.831  -1.623  11.758  1.00  0.00     0.025 A 
ATOM     13  C   UNL     1      -3.298  -2.437  12.770  1.00  0.00     0.016 A 
ATOM     14  C   UNL     1      -3.723  -3.760  12.911  1.00  0.00     0.051 A 
ATOM     15  C   UNL     1      -4.675  -4.295  12.036  1.00  0.00     0.157 A 
ATOM     16  C   UNL     1      -4.772  -2.168  10.867  1.00  0.00     0.062 A 
ATOM     17  C   UNL     1      -5.199  -3.496  11.006  1.00  0.00     0.158 A 
BRANCH  15  18
ATOM     18  O   UNL     1      -5.082  -5.617  12.203  1.00  0.00    -0.504 OA
ATOM     19  H   UNL     1      -5.984  -5.948  11.879  1.00  0.00     0.293 HD
ENDBRANCH  15  18
BRANCH  17  20
ATOM     20  O   UNL     1      -6.137  -4.027  10.120  1.00  0.00    -0.504 OA
ATOM     21  H   UNL     1      -7.131  -3.902  10.262  1.00  0.00     0.293 HD
ENDBRANCH  17  20
ENDBRANCH   1  12
BRANCH   2  22
ATOM     22  O   UNL     1      -5.386   0.683  12.573  1.00  0.00    -0.502 OA
ATOM     23  H   UNL     1      -6.156   0.263  12.064  1.00  0.00     0.293 HD
ENDBRANCH   2  22
BRANCH   6  24
ATOM     24  O   UNL     1      -2.190   4.820  11.553  1.00  0.00    -0.507 OA
ATOM     25  H   UNL     1      -2.060   5.702  11.081  1.00  0.00     0.293 HD
ENDBRANCH   6  24
BRANCH   8  26
ATOM     26  O   UNL     1       1.530   2.576   9.551  1.00  0.00    -0.508 OA
ATOM     27  H   UNL     1       1.639   2.729   8.556  1.00  0.00     0.293 HD
ENDBRANCH   8  26
TORSDOF 6
ENDMDL
MODEL 5
REMARK VINA RESULT:    -6.106      9.692     12.322
REMARK INTER + INTRA:          -7.227
REMARK INTER:                  -6.949
REMARK INTRA:                  -0.278
REMARK UNBOUND:                 0.127
REMARK SMILES O=c1c(O)c(-c2ccc(O)c(O)c2)oc2cc(O)cc(O)c12
REMARK SMILES IDX 5 1 3 2 2 3 1 4 22 5 20 6 19 7 17 8 16 9 15 10 14 11 6 12
REMARK SMILES IDX 7 13 8 14 9 15 13 16 11 17 10 18 12 20 4 22 21 24 18 26
REMARK H PARENT 10 19 12 21 4 23 21 25 18 27
REMARK Flexibility Score: inf
ROOT
ATOM      1  C   UNL     1      -1.409   1.695  10.679  1.00  0.00     0.180 A 
ATOM      2  C   UNL     1      -0.565   0.696  10.165  1.00  0.00     0.208 A 
ATOM      3  C   UNL     1       0.683   1.065   9.638  1.00  0.00     0.238 A 
ATOM      4  O   UNL     1       1.464   0.158   9.247  1.00  0.00    -0.285 OA
ATOM      5  C   UNL     1       1.048   2.432   9.580  1.00  0.00     0.111 A 
ATOM      6  C   UNL     1       2.270   2.922   9.026  1.00  0.00     0.134 A 
ATOM      7  C   UNL     1       2.570   4.288   9.119  1.00  0.00     0.093 A 
ATOM      8  C   UNL     1       1.670   5.187   9.688  1.00  0.00     0.123 A 
ATOM      9  C   UNL     1       0.450   4.725  10.184  1.00  0.00     0.094 A 
ATOM     10  C   UNL     1       0.136   3.365  10.139  1.00  0.00     0.146 A 
ATOM     11  O   UNL     1      -1.026   2.965  10.642  1.00  0.00    -0.452 OA
ENDROOT
BRANCH   1  12
ATOM     12  C   UNL     1      -2.734   1.384  11.265  1.00  0.00     0.025 A 
ATOM     13  C   UNL     1      -2.806   0.846  12.559  1.00  0.00     0.016 A 
ATOM     14  C   UNL     1      -4.042   0.526  13.125  1.00  0.00     0.051 A 
ATOM     15  C   UNL     1      -5.224   0.724  12.402  1.00  0.00     0.157 A 
ATOM     16  C   UNL     1      -3.920   1.563  10.532  1.00  0.00     0.062 A 
ATOM     17  C   UNL     1      -5.162   1.241  11.097  1.00  0.00     0.158 A 
BRANCH  15  18
ATOM     18  O   UNL     1      -6.443   0.397  12.993  1.00  0.00    -0.504 OA
ATOM     19  H   UNL     1      -6.835  -0.536  12.937  1.00  0.00     0.293 HD
ENDBRANCH  15  18
BRANCH  17  20
ATOM     20  O   UNL     1      -6.334   1.427  10.364  1.00  0.00    -0.504 OA
ATOM     21  H   UNL     1      -6.928   0.650  10.105  1.00  0.00     0.293 HD
ENDBRANCH  17  20
ENDBRANCH   1  12
BRANCH   2  22
ATOM     22  O   UNL     1      -0.977  -0.639  10.160  1.00  0.00    -0.502 OA
ATOM     23  H   UNL     1      -1.576  -1.026  10.881  1.00  0.00     0.293 HD
ENDBRANCH   2  22
BRANCH   6  24
ATOM     24  O   UNL     1       3.202   2.126   8.355  1.00  0.00    -0.507 OA
ATOM     25  H   UNL     1       4.090   2.450   8.001  1.00  0.00     0.293 HD
ENDBRANCH   6  24
BRANCH   8  26
ATOM     26  O   UNL     1       1.995   6.540   9.750  1.00  0.00    -0.508 OA
ATOM     27  H   UNL     1       1.504   7.176  10.366  1.00  0.00     0.293 HD
ENDBRANCH   8  26
TORSDOF 6
ENDMDL
MODEL 6
REMARK VINA RESULT:    -6.046      9.436     11.364
REMARK INTER + INTRA:          -7.156
REMARK INTER:                  -7.226
REMARK INTRA:                   0.070
REMARK UNBOUND:                 0.127
REMARK SMILES O=c1c(O)c(-c2ccc(O)c(O)c2)oc2cc(O)cc(O)c12
REMARK SMILES IDX 5 1 3 2 2 3 1 4 22 5 20 6 19 7 17 8 16 9 15 10 14 11 6 12
REMARK SMILES IDX 7 13 8 14 9 15 13 16 11 17 10 18 12 20 4 22 21 24 18 26
REMARK H PARENT 10 19 12 21 4 23 21 25 18 27
REMARK Flexibility Score: inf
ROOT
ATOM      1  C   UNL     1      -2.365   0.446  10.536  1.00  0.00     0.180 A 
ATOM      2  C   UNL     1      -3.581   1.150  10.540  1.00  0.00     0.208 A 
ATOM      3  C   UNL     1      -4.749   0.488  10.952  1.00  0.00     0.238 A 
ATOM      4  O   UNL     1      -5.821   1.145  11.024  1.00  0.00    -0.285 OA
ATOM      5  C   UNL     1      -4.696  -0.883  11.302  1.00  0.00     0.111 A 
ATOM      6  C   UNL     1      -5.827  -1.664  11.693  1.00  0.00     0.134 A 
ATOM      7  C   UNL     1      -5.637  -2.986  12.120  1.00  0.00     0.093 A 
ATOM      8  C   UNL     1      -4.373  -3.572  12.111  1.00  0.00     0.123 A 
ATOM      9  C   UNL     1      -3.270  -2.834  11.680  1.00  0.00     0.094 A 
ATOM     10  C   UNL     1      -3.420  -1.503  11.284  1.00  0.00     0.146 A 
ATOM     11  O   UNL     1      -2.341  -0.830  10.901  1.00  0.00    -0.452 OA
ENDROOT
BRANCH   1  12
ATOM     12  C   UNL     1      -1.089   1.078  10.129  1.00  0.00     0.025 A 
ATOM     13  C   UNL     1      -0.182   0.354   9.339  1.00  0.00     0.016 A 
ATOM     14  C   UNL     1       1.036   0.923   8.960  1.00  0.00     0.051 A 
ATOM     15  C   UNL     1       1.375   2.214   9.376  1.00  0.00     0.157 A 
ATOM     16  C   UNL     1      -0.738   2.369  10.564  1.00  0.00     0.062 A 
ATOM     17  C   UNL     1       0.485   2.940  10.186  1.00  0.00     0.158 A 
BRANCH  15  18
ATOM     18  O   UNL     1       2.596   2.756   8.980  1.00  0.00    -0.504 OA
ATOM     19  H   UNL     1       3.469   2.499   9.426  1.00  0.00     0.293 HD
ENDBRANCH  15  18
BRANCH  17  20
ATOM     20  O   UNL     1       0.821   4.223  10.617  1.00  0.00    -0.504 OA
ATOM     21  H   UNL     1       1.781   4.486  10.802  1.00  0.00     0.293 HD
ENDBRANCH  17  20
ENDBRANCH   1  12
BRANCH   2  22
ATOM     22  O   UNL     1      -3.625   2.481  10.116  1.00  0.00    -0.502 OA
ATOM     23  H   UNL     1      -3.498   2.747   9.147  1.00  0.00     0.293 HD
ENDBRANCH   2  22
BRANCH   6  24
ATOM     24  O   UNL     1      -7.147  -1.207  11.655  1.00  0.00    -0.507 OA
ATOM     25  H   UNL     1      -7.888  -1.533  12.257  1.00  0.00     0.293 HD
ENDBRANCH   6  24
BRANCH   8  26
ATOM     26  O   UNL     1      -4.225  -4.893  12.527  1.00  0.00    -0.508 OA
ATOM     27  H   UNL     1      -4.475  -5.669  11.926  1.00  0.00     0.293 HD
ENDBRANCH   8  26
TORSDOF 6
ENDMDL
MODEL 7
REMARK VINA RESULT:    -5.955      9.149     10.975
REMARK INTER + INTRA:          -7.046
REMARK INTER:                  -6.790
REMARK INTRA:                  -0.256
REMARK UNBOUND:                 0.127
REMARK SMILES O=c1c(O)c(-c2ccc(O)c(O)c2)oc2cc(O)cc(O)c12
REMARK SMILES IDX 5 1 3 2 2 3 1 4 22 5 20 6 19 7 17 8 16 9 15 10 14 11 6 12
REMARK SMILES IDX 7 13 8 14 9 15 13 16 11 17 10 18 12 20 4 22 21 24 18 26
REMARK H PARENT 10 19 12 21 4 23 21 25 18 27
REMARK Flexibility Score: inf
ROOT
ATOM      1  C   UNL     1      -2.726  -0.242  11.022  1.00  0.00     0.180 A 
ATOM      2  C   UNL     1      -2.966   1.014  11.606  1.00  0.00     0.208 A 
ATOM      3  C   UNL     1      -2.053   2.055  11.379  1.00  0.00     0.238 A 
ATOM      4  O   UNL     1      -2.312   3.197  11.844  1.00  0.00    -0.285 OA
ATOM      5  C   UNL     1      -0.883   1.815  10.618  1.00  0.00     0.111 A 
ATOM      6  C   UNL     1       0.133   2.786  10.362  1.00  0.00     0.134 A 
ATOM      7  C   UNL     1       1.195   2.464   9.506  1.00  0.00     0.093 A 
ATOM      8  C   UNL     1       1.312   1.192   8.949  1.00  0.00     0.123 A 
ATOM      9  C   UNL     1       0.353   0.219   9.236  1.00  0.00     0.094 A 
ATOM     10  C   UNL     1      -0.737   0.520  10.056  1.00  0.00     0.146 A 
ATOM     11  O   UNL     1      -1.637  -0.429  10.286  1.00  0.00    -0.452 OA
ENDROOT
BRANCH   1  12
ATOM     12  C   UNL     1      -3.650  -1.385  11.202  1.00  0.00     0.025 A 
ATOM     13  C   UNL     1      -4.880  -1.391  10.526  1.00  0.00     0.016 A 
ATOM     14  C   UNL     1      -5.776  -2.449  10.697  1.00  0.00     0.051 A 
ATOM     15  C   UNL     1      -5.464  -3.509  11.556  1.00  0.00     0.157 A 
ATOM     16  C   UNL     1      -3.347  -2.441  12.081  1.00  0.00     0.062 A 
ATOM     17  C   UNL     1      -4.246  -3.503  12.255  1.00  0.00     0.158 A 
BRANCH  15  18
ATOM     18  O   UNL     1      -6.377  -4.552  11.704  1.00  0.00    -0.504 OA
ATOM     19  H   UNL     1      -6.210  -5.473  11.314  1.00  0.00     0.293 HD
ENDBRANCH  15  18
BRANCH  17  20
ATOM     20  O   UNL     1      -3.934  -4.548  13.124  1.00  0.00    -0.504 OA
ATOM     21  H   UNL     1      -3.875  -5.506  12.804  1.00  0.00     0.293 HD
ENDBRANCH  17  20
ENDBRANCH   1  12
BRANCH   2  22
ATOM     22  O   UNL     1      -4.086   1.209  12.418  1.00  0.00    -0.502 OA
ATOM     23  H   UNL     1      -4.013   1.520  13.380  1.00  0.00     0.293 HD
ENDBRANCH   2  22
BRANCH   6  24
ATOM     24  O   UNL     1       0.163   4.060  10.937  1.00  0.00    -0.507 OA
ATOM     25  H   UNL     1       0.926   4.429  11.484  1.00  0.00     0.293 HD
ENDBRANCH   6  24
BRANCH   8  26
ATOM     26  O   UNL     1       2.390   0.903   8.115  1.00  0.00    -0.508 OA
ATOM     27  H   UNL     1       3.292   1.347   8.242  1.00  0.00     0.293 HD
ENDBRANCH   8  26
TORSDOF 6
ENDMDL
MODEL 8
REMARK VINA RESULT:    -5.948     13.547     14.354
REMARK INTER + INTRA:          -7.037
REMARK INTER:                  -6.717
REMARK INTRA:                  -0.320
REMARK UNBOUND:                 0.127
REMARK SMILES O=c1c(O)c(-c2ccc(O)c(O)c2)oc2cc(O)cc(O)c12
REMARK SMILES IDX 5 1 3 2 2 3 1 4 22 5 20 6 19 7 17 8 16 9 15 10 14 11 6 12
REMARK SMILES IDX 7 13 8 14 9 15 13 16 11 17 10 18 12 20 4 22 21 24 18 26
REMARK H PARENT 10 19 12 21 4 23 21 25 18 27
REMARK Flexibility Score: inf
ROOT
ATOM      1  C   UNL     1     -10.528 -10.473   1.858  1.00  0.00     0.180 A 
ATOM      2  C   UNL     1     -10.484  -9.124   2.249  1.00  0.00     0.208 A 
ATOM      3  C   UNL     1     -10.704  -8.800   3.597  1.00  0.00     0.238 A 
ATOM      4  O   UNL     1     -10.589  -7.597   3.954  1.00  0.00    -0.285 OA
ATOM      5  C   UNL     1     -11.021  -9.820   4.526  1.00  0.00     0.111 A 
ATOM      6  C   UNL     1     -11.306  -9.599   5.908  1.00  0.00     0.134 A 
ATOM      7  C   UNL     1     -11.503 -10.698   6.756  1.00  0.00     0.093 A 
ATOM      8  C   UNL     1     -11.487 -12.001   6.263  1.00  0.00     0.123 A 
ATOM      9  C   UNL     1     -11.262 -12.225   4.903  1.00  0.00     0.094 A 
ATOM     10  C   UNL     1     -11.026 -11.153   4.039  1.00  0.00     0.146 A 
ATOM     11  O   UNL     1     -10.795 -11.412   2.757  1.00  0.00    -0.452 OA
ENDROOT
BRANCH   1  12
ATOM     12  C   UNL     1     -10.292 -10.897   0.458  1.00  0.00     0.025 A 
ATOM     13  C   UNL     1      -8.991 -11.228   0.048  1.00  0.00     0.016 A 
ATOM     14  C   UNL     1      -8.741 -11.610  -1.272  1.00  0.00     0.051 A 
ATOM     15  C   UNL     1      -9.782 -11.654  -2.205  1.00  0.00     0.157 A 
ATOM     16  C   UNL     1     -11.334 -10.921  -0.486  1.00  0.00     0.062 A 
ATOM     17  C   UNL     1     -11.084 -11.303  -1.812  1.00  0.00     0.158 A 
BRANCH  15  18
ATOM     18  O   UNL     1      -9.503 -12.042  -3.515  1.00  0.00    -0.504 OA
ATOM     19  H   UNL     1      -8.702 -12.620  -3.746  1.00  0.00     0.293 HD
ENDBRANCH  15  18
BRANCH  17  20
ATOM     20  O   UNL     1     -12.125 -11.329  -2.740  1.00  0.00    -0.504 OA
ATOM     21  H   UNL     1     -13.023 -10.905  -2.544  1.00  0.00     0.293 HD
ENDBRANCH  17  20
ENDBRANCH   1  12
BRANCH   2  22
ATOM     22  O   UNL     1     -10.246  -8.125   1.302  1.00  0.00    -0.502 OA
ATOM     23  H   UNL     1      -9.911  -8.330   0.367  1.00  0.00     0.293 HD
ENDBRANCH   2  22
BRANCH   6  24
ATOM     24  O   UNL     1     -11.434  -8.335   6.490  1.00  0.00    -0.507 OA
ATOM     25  H   UNL     1     -12.304  -7.836   6.601  1.00  0.00     0.293 HD
ENDBRANCH   6  24
BRANCH   8  26
ATOM     26  O   UNL     1     -11.702 -13.068   7.132  1.00  0.00    -0.508 OA
ATOM     27  H   UNL     1     -12.594 -13.547   7.173  1.00  0.00     0.293 HD
ENDBRANCH   8  26
TORSDOF 6
ENDMDL
MODEL 9
REMARK VINA RESULT:    -5.892      9.440     11.845
REMARK INTER + INTRA:          -6.971
REMARK INTER:                  -6.646
REMARK INTRA:                  -0.325
REMARK UNBOUND:                 0.127
REMARK SMILES O=c1c(O)c(-c2ccc(O)c(O)c2)oc2cc(O)cc(O)c12
REMARK SMILES IDX 5 1 3 2 2 3 1 4 22 5 20 6 19 7 17 8 16 9 15 10 14 11 6 12
REMARK SMILES IDX 7 13 8 14 9 15 13 16 11 17 10 18 12 20 4 22 21 24 18 26
REMARK H PARENT 10 19 12 21 4 23 21 25 18 27
REMARK Flexibility Score: inf
ROOT
ATOM      1  C   UNL     1      -4.968  -2.468  11.923  1.00  0.00     0.180 A 
ATOM      2  C   UNL     1      -4.500  -3.747  11.573  1.00  0.00     0.208 A 
ATOM      3  C   UNL     1      -5.394  -4.828  11.595  1.00  0.00     0.238 A 
ATOM      4  O   UNL     1      -4.987  -5.956  11.209  1.00  0.00    -0.285 OA
ATOM      5  C   UNL     1      -6.730  -4.630  12.020  1.00  0.00     0.111 A 
ATOM      6  C   UNL     1      -7.711  -5.664  12.124  1.00  0.00     0.134 A 
ATOM      7  C   UNL     1      -9.031  -5.331  12.456  1.00  0.00     0.093 A 
ATOM      8  C   UNL     1      -9.393  -4.017  12.747  1.00  0.00     0.123 A 
ATOM      9  C   UNL     1      -8.430  -3.008  12.701  1.00  0.00     0.094 A 
ATOM     10  C   UNL     1      -7.113  -3.301  12.338  1.00  0.00     0.146 A 
ATOM     11  O   UNL     1      -6.235  -2.307  12.286  1.00  0.00    -0.452 OA
ENDROOT
BRANCH   1  12
ATOM     12  C   UNL     1      -4.090  -1.276  11.909  1.00  0.00     0.025 A 
ATOM     13  C   UNL     1      -3.520  -0.825  13.110  1.00  0.00     0.016 A 
ATOM     14  C   UNL     1      -2.706   0.309  13.125  1.00  0.00     0.051 A 
ATOM     15  C   UNL     1      -2.459   1.019  11.945  1.00  0.00     0.157 A 
ATOM     16  C   UNL     1      -3.858  -0.549  10.728  1.00  0.00     0.062 A 
ATOM     17  C   UNL     1      -3.042   0.591  10.741  1.00  0.00     0.158 A 
BRANCH  15  18
ATOM     18  O   UNL     1      -1.640   2.146  11.990  1.00  0.00    -0.504 OA
ATOM     19  H   UNL     1      -0.839   2.254  11.379  1.00  0.00     0.293 HD
ENDBRANCH  15  18
BRANCH  17  20
ATOM     20  O   UNL     1      -2.814   1.302   9.563  1.00  0.00    -0.504 OA
ATOM     21  H   UNL     1      -3.167   2.241   9.433  1.00  0.00     0.293 HD
ENDBRANCH  17  20
ENDBRANCH   1  12
BRANCH   2  22
ATOM     22  O   UNL     1      -3.158  -3.935  11.230  1.00  0.00    -0.502 OA
ATOM     23  H   UNL     1      -2.562  -4.597  11.713  1.00  0.00     0.293 HD
ENDBRANCH   2  22
BRANCH   6  24
ATOM     24  O   UNL     1      -7.440  -7.023  11.941  1.00  0.00    -0.507 OA
ATOM     25  H   UNL     1      -6.670  -7.391  11.404  1.00  0.00     0.293 HD
ENDBRANCH   6  24
BRANCH   8  26
ATOM     26  O   UNL     1     -10.712  -3.727  13.088  1.00  0.00    -0.508 OA
ATOM     27  H   UNL     1     -10.984  -2.807  13.416  1.00  0.00     0.293 HD
ENDBRANCH   8  26
TORSDOF 6
ENDMDL
