MODEL 1
REMARK VINA RESULT:    -4.063      0.000      0.000
REMARK INTER + INTRA:          -4.548
REMARK INTER:                  -4.538
REMARK INTRA:                  -0.010
REMARK UNBOUND:                -0.010
REMARK SMILES CCCC(=O)[O-]
REMARK SMILES IDX 3 1 4 2 5 3 6 4 2 5 1 6
REMARK H PARENT
REMARK Flexibility Score: inf
ROOT
ATOM      1  C   UNL     1      17.925  21.523  43.256  1.00  0.00     0.052 C 
ENDROOT
BRANCH   1   2
ATOM      2  C   UNL     1      17.903  20.237  42.489  1.00  0.00     0.041 C 
ATOM      3  O   UNL     1      18.215  20.220  41.269  1.00  0.00    -0.550 OA
ATOM      4  O   UNL     1      17.505  19.062  43.114  1.00  0.00    -0.550 OA
ENDBRANCH   1   2
BRANCH   1   5
ATOM      5  C   UNL     1      18.830  22.565  42.588  1.00  0.00     0.003 C 
ATOM      6  C   UNL     1      18.951  23.846  43.415  1.00  0.00     0.004 C 
ENDBRANCH   1   5
TORSDOF 2
ENDMDL
MODEL 2
REMARK VINA RESULT:    -4.001      2.250      3.545
REMARK INTER + INTRA:          -4.478
REMARK INTER:                  -4.466
REMARK INTRA:                  -0.012
REMARK UNBOUND:                -0.010
REMARK SMILES CCCC(=O)[O-]
REMARK SMILES IDX 3 1 4 2 5 3 6 4 2 5 1 6
REMARK H PARENT
REMARK Flexibility Score: inf
ROOT
ATOM      1  C   UNL     1      17.984  21.789  43.386  1.00  0.00     0.052 C 
ENDROOT
BRANCH   1   2
ATOM      2  C   UNL     1      18.798  22.920  42.836  1.00  0.00     0.041 C 
ATOM      3  O   UNL     1      19.147  23.873  43.583  1.00  0.00    -0.550 OA
ATOM      4  O   UNL     1      19.142  22.938  41.491  1.00  0.00    -0.550 OA
ENDBRANCH   1   2
BRANCH   1   5
ATOM      5  C   UNL     1      17.775  20.683  42.344  1.00  0.00     0.003 C 
ATOM      6  C   UNL     1      17.633  19.301  42.984  1.00  0.00     0.004 C 
ENDBRANCH   1   5
TORSDOF 2
ENDMDL
MODEL 3
REMARK VINA RESULT:    -3.883      2.725      3.553
REMARK INTER + INTRA:          -4.347
REMARK INTER:                  -4.338
REMARK INTRA:                  -0.009
REMARK UNBOUND:                -0.010
REMARK SMILES CCCC(=O)[O-]
REMARK SMILES IDX 3 1 4 2 5 3 6 4 2 5 1 6
REMARK H PARENT
REMARK Flexibility Score: inf
ROOT
ATOM      1  C   UNL     1      18.661  21.915  42.172  1.00  0.00     0.052 C 
ENDROOT
BRANCH   1   2
ATOM      2  C   UNL     1      19.164  23.295  42.465  1.00  0.00     0.041 C 
ATOM      3  O   UNL     1      19.761  23.955  41.574  1.00  0.00    -0.550 OA
ATOM      4  O   UNL     1      19.001  23.839  43.732  1.00  0.00    -0.550 OA
ENDBRANCH   1   2
BRANCH   1   5
ATOM      5  C   UNL     1      17.910  21.319  43.369  1.00  0.00     0.003 C 
ATOM      6  C   UNL     1      17.342  19.932  43.068  1.00  0.00     0.004 C 
ENDBRANCH   1   5
TORSDOF 2
ENDMDL
MODEL 4
REMARK VINA RESULT:    -3.755      1.582      2.023
REMARK INTER + INTRA:          -4.204
REMARK INTER:                  -4.199
REMARK INTRA:                  -0.005
REMARK UNBOUND:                -0.010
REMARK SMILES CCCC(=O)[O-]
REMARK SMILES IDX 3 1 4 2 5 3 6 4 2 5 1 6
REMARK H PARENT
REMARK Flexibility Score: inf
ROOT
ATOM      1  C   UNL     1      18.392  21.055  41.173  1.00  0.00     0.052 C 
ENDROOT
BRANCH   1   2
ATOM      2  C   UNL     1      17.734  20.410  42.353  1.00  0.00     0.041 C 
ATOM      3  O   UNL     1      17.964  19.203  42.627  1.00  0.00    -0.550 OA
ATOM      4  O   UNL     1      16.840  21.134  43.131  1.00  0.00    -0.550 OA
ENDBRANCH   1   2
BRANCH   1   5
ATOM      5  C   UNL     1      19.101  22.359  41.561  1.00  0.00     0.003 C 
ATOM      6  C   UNL     1      20.267  22.687  40.629  1.00  0.00     0.004 C 
ENDBRANCH   1   5
TORSDOF 2
ENDMDL
MODEL 5
REMARK VINA RESULT:    -3.492      2.858      3.546
REMARK INTER + INTRA:          -3.910
REMARK INTER:                  -3.900
REMARK INTRA:                  -0.009
REMARK UNBOUND:                -0.010
REMARK SMILES CCCC(=O)[O-]
REMARK SMILES IDX 3 1 4 2 5 3 6 4 2 5 1 6
REMARK H PARENT
REMARK Flexibility Score: inf
ROOT
ATOM      1  C   UNL     1      19.719  23.664  41.622  1.00  0.00     0.052 C 
ENDROOT
BRANCH   1   2
ATOM      2  C   UNL     1      19.006  23.197  42.854  1.00  0.00     0.041 C 
ATOM      3  O   UNL     1      18.966  23.928  43.879  1.00  0.00    -0.550 OA
ATOM      4  O   UNL     1      18.416  21.941  42.882  1.00  0.00    -0.550 OA
ENDBRANCH   1   2
BRANCH   1   5
ATOM      5  C   UNL     1      20.076  22.494  40.697  1.00  0.00     0.003 C 
ATOM      6  C   UNL     1      21.321  22.778  39.855  1.00  0.00     0.004 C 
ENDBRANCH   1   5
TORSDOF 2
ENDMDL
MODEL 6
REMARK VINA RESULT:    -3.180     10.938     11.717
REMARK INTER + INTRA:          -3.561
REMARK INTER:                  -3.508
REMARK INTRA:                  -0.053
REMARK UNBOUND:                -0.010
REMARK SMILES CCCC(=O)[O-]
REMARK SMILES IDX 3 1 4 2 5 3 6 4 2 5 1 6
REMARK H PARENT
REMARK Flexibility Score: inf
ROOT
ATOM      1  C   UNL     1      20.068  19.616  31.472  1.00  0.00     0.052 C 
ENDROOT
BRANCH   1   2
ATOM      2  C   UNL     1      19.108  19.253  30.381  1.00  0.00     0.041 C 
ATOM      3  O   UNL     1      18.766  20.111  29.525  1.00  0.00    -0.550 OA
ATOM      4  O   UNL     1      18.565  17.976  30.330  1.00  0.00    -0.550 OA
ENDBRANCH   1   2
BRANCH   1   5
ATOM      5  C   UNL     1      19.679  18.969  32.807  1.00  0.00     0.003 C 
ATOM      6  C   UNL     1      18.596  19.757  33.543  1.00  0.00     0.004 C 
ENDBRANCH   1   5
TORSDOF 2
ENDMDL
MODEL 7
REMARK VINA RESULT:    -3.126     11.313     12.119
REMARK INTER + INTRA:          -3.501
REMARK INTER:                  -3.448
REMARK INTRA:                  -0.054
REMARK UNBOUND:                -0.010
REMARK SMILES CCCC(=O)[O-]
REMARK SMILES IDX 3 1 4 2 5 3 6 4 2 5 1 6
REMARK H PARENT
REMARK Flexibility Score: inf
ROOT
ATOM      1  C   UNL     1      13.280  14.077  35.597  1.00  0.00     0.052 C 
ENDROOT
BRANCH   1   2
ATOM      2  C   UNL     1      13.459  13.005  36.629  1.00  0.00     0.041 C 
ATOM      3  O   UNL     1      14.585  12.465  36.794  1.00  0.00    -0.550 OA
ATOM      4  O   UNL     1      12.374  12.581  37.385  1.00  0.00    -0.550 OA
ENDBRANCH   1   2
BRANCH   1   5
ATOM      5  C   UNL     1      12.469  13.576  34.396  1.00  0.00     0.003 C 
ATOM      6  C   UNL     1      13.274  12.632  33.502  1.00  0.00     0.004 C 
ENDBRANCH   1   5
TORSDOF 2
ENDMDL
MODEL 8
REMARK VINA RESULT:    -3.049     12.115     13.053
REMARK INTER + INTRA:          -3.415
REMARK INTER:                  -3.370
REMARK INTRA:                  -0.045
REMARK UNBOUND:                -0.010
REMARK SMILES CCCC(=O)[O-]
REMARK SMILES IDX 3 1 4 2 5 3 6 4 2 5 1 6
REMARK H PARENT
REMARK Flexibility Score: inf
ROOT
ATOM      1  C   UNL     1      12.555  13.416  34.067  1.00  0.00     0.052 C 
ENDROOT
BRANCH   1   2
ATOM      2  C   UNL     1      13.645  12.501  33.601  1.00  0.00     0.041 C 
ATOM      3  O   UNL     1      14.813  12.622  34.055  1.00  0.00    -0.550 OA
ATOM      4  O   UNL     1      13.377  11.535  32.639  1.00  0.00    -0.550 OA
ENDBRANCH   1   2
BRANCH   1   5
ATOM      5  C   UNL     1      12.725  13.793  35.544  1.00  0.00     0.003 C 
ATOM      6  C   UNL     1      12.149  12.735  36.485  1.00  0.00     0.004 C 
ENDBRANCH   1   5
TORSDOF 2
ENDMDL
MODEL 9
REMARK VINA RESULT:    -3.045     11.976     12.631
REMARK INTER + INTRA:          -3.411
REMARK INTER:                  -3.347
REMARK INTRA:                  -0.064
REMARK UNBOUND:                -0.010
REMARK SMILES CCCC(=O)[O-]
REMARK SMILES IDX 3 1 4 2 5 3 6 4 2 5 1 6
REMARK H PARENT
REMARK Flexibility Score: inf
ROOT
ATOM      1  C   UNL     1      12.783  13.275  33.961  1.00  0.00     0.052 C 
ENDROOT
BRANCH   1   2
ATOM      2  C   UNL     1      14.241  12.933  33.985  1.00  0.00     0.041 C 
ATOM      3  O   UNL     1      14.638  11.814  33.565  1.00  0.00    -0.550 OA
ATOM      4  O   UNL     1      15.158  13.839  34.503  1.00  0.00    -0.550 OA
ENDBRANCH   1   2
BRANCH   1   5
ATOM      5  C   UNL     1      12.317  13.867  35.297  1.00  0.00     0.003 C 
ATOM      6  C   UNL     1      12.219  12.811  36.399  1.00  0.00     0.004 C 
ENDBRANCH   1   5
TORSDOF 2
ENDMDL
