MODEL 1
REMARK VINA RESULT:    -4.887      0.000      0.000
REMARK INTER + INTRA:          -8.890
REMARK INTER:                  -8.315
REMARK INTRA:                  -0.575
REMARK UNBOUND:                -0.575
REMARK SMILES CCCCCCCCCCCCCC(=O)[O-]
REMARK SMILES IDX 8 1 9 2 10 3 11 4 12 5 13 6 14 7 15 8 16 9 7 10 6 11 5 12
REMARK SMILES IDX 4 13 3 14 2 15 1 16
REMARK H PARENT
REMARK Flexibility Score: inf
ROOT
ATOM      1  C   UNL     1       6.326 -15.139  -8.455  1.00  0.00     0.000 C 
ENDROOT
BRANCH   1   2
ATOM      2  C   UNL     1       7.666 -14.402  -8.608  1.00  0.00     0.000 C 
BRANCH   2   3
ATOM      3  C   UNL     1       7.740 -13.128  -7.749  1.00  0.00     0.000 C 
BRANCH   3   4
ATOM      4  C   UNL     1       9.162 -12.548  -7.675  1.00  0.00     0.000 C 
BRANCH   4   5
ATOM      5  C   UNL     1       9.190 -11.120  -7.101  1.00  0.00     0.006 C 
BRANCH   5   6
ATOM      6  C   UNL     1       9.864 -10.125  -8.056  1.00  0.00     0.053 C 
BRANCH   6   7
ATOM      7  C   UNL     1      11.357 -10.162  -7.939  1.00  0.00     0.041 C 
ATOM      8  O   UNL     1      12.031 -10.921  -8.684  1.00  0.00    -0.550 OA
ATOM      9  O   UNL     1      12.006  -9.337  -7.028  1.00  0.00    -0.550 OA
ENDBRANCH   6   7
ENDBRANCH   5   6
ENDBRANCH   4   5
ENDBRANCH   3   4
ENDBRANCH   2   3
ENDBRANCH   1   2
BRANCH   1  10
ATOM     10  C   UNL     1       5.187 -14.214  -7.999  1.00  0.00     0.000 C 
BRANCH  10  11
ATOM     11  C   UNL     1       4.306 -14.903  -6.951  1.00  0.00    -0.000 C 
BRANCH  11  12
ATOM     12  C   UNL     1       5.142 -15.800  -6.030  1.00  0.00    -0.000 C 
BRANCH  12  13
ATOM     13  C   UNL     1       4.261 -16.462  -4.959  1.00  0.00    -0.000 C 
BRANCH  13  14
ATOM     14  C   UNL     1       4.536 -17.969  -4.804  1.00  0.00    -0.000 C 
BRANCH  14  15
ATOM     15  C   UNL     1       3.352 -18.789  -4.261  1.00  0.00    -0.003 C 
ATOM     16  C   UNL     1       2.586 -18.071  -3.151  1.00  0.00     0.004 C 
ENDBRANCH  14  15
ENDBRANCH  13  14
ENDBRANCH  12  13
ENDBRANCH  11  12
ENDBRANCH  10  11
ENDBRANCH   1  10
TORSDOF 12
ENDMDL
MODEL 2
REMARK VINA RESULT:    -4.870      9.040     11.711
REMARK INTER + INTRA:          -8.861
REMARK INTER:                  -8.047
REMARK INTRA:                  -0.814
REMARK UNBOUND:                -0.575
REMARK SMILES CCCCCCCCCCCCCC(=O)[O-]
REMARK SMILES IDX 8 1 9 2 10 3 11 4 12 5 13 6 14 7 15 8 16 9 7 10 6 11 5 12
REMARK SMILES IDX 4 13 3 14 2 15 1 16
REMARK H PARENT
REMARK Flexibility Score: inf
ROOT
ATOM      1  C   UNL     1       4.539 -16.349   4.358  1.00  0.00     0.000 C 
ENDROOT
BRANCH   1   2
ATOM      2  C   UNL     1       5.790 -16.398   3.466  1.00  0.00     0.000 C 
BRANCH   2   3
ATOM      3  C   UNL     1       7.094 -16.435   4.280  1.00  0.00     0.000 C 
BRANCH   3   4
ATOM      4  C   UNL     1       7.001 -15.621   5.581  1.00  0.00     0.000 C 
BRANCH   4   5
ATOM      5  C   UNL     1       8.382 -15.250   6.149  1.00  0.00     0.006 C 
BRANCH   5   6
ATOM      6  C   UNL     1       8.309 -14.069   7.126  1.00  0.00     0.053 C 
BRANCH   6   7
ATOM      7  C   UNL     1       8.249 -12.754   6.410  1.00  0.00     0.041 C 
ATOM      8  O   UNL     1       9.310 -12.196   6.022  1.00  0.00    -0.550 OA
ATOM      9  O   UNL     1       7.022 -12.161   6.142  1.00  0.00    -0.550 OA
ENDBRANCH   6   7
ENDBRANCH   5   6
ENDBRANCH   4   5
ENDBRANCH   3   4
ENDBRANCH   2   3
ENDBRANCH   1   2
BRANCH   1  10
ATOM     10  C   UNL     1       3.499 -17.417   3.983  1.00  0.00     0.000 C 
BRANCH  10  11
ATOM     11  C   UNL     1       4.178 -18.667   3.411  1.00  0.00    -0.000 C 
BRANCH  11  12
ATOM     12  C   UNL     1       3.544 -19.078   2.076  1.00  0.00    -0.000 C 
BRANCH  12  13
ATOM     13  C   UNL     1       4.433 -18.666   0.894  1.00  0.00    -0.000 C 
BRANCH  13  14
ATOM     14  C   UNL     1       3.803 -17.563   0.025  1.00  0.00    -0.000 C 
BRANCH  14  15
ATOM     15  C   UNL     1       3.617 -17.934  -1.457  1.00  0.00    -0.003 C 
ATOM     16  C   UNL     1       2.192 -17.701  -1.958  1.00  0.00     0.004 C 
ENDBRANCH  14  15
ENDBRANCH  13  14
ENDBRANCH  12  13
ENDBRANCH  11  12
ENDBRANCH  10  11
ENDBRANCH   1  10
TORSDOF 12
ENDMDL
MODEL 3
REMARK VINA RESULT:    -4.855      3.514      5.891
REMARK INTER + INTRA:          -8.837
REMARK INTER:                  -8.152
REMARK INTRA:                  -0.685
REMARK UNBOUND:                -0.575
REMARK SMILES CCCCCCCCCCCCCC(=O)[O-]
REMARK SMILES IDX 8 1 9 2 10 3 11 4 12 5 13 6 14 7 15 8 16 9 7 10 6 11 5 12
REMARK SMILES IDX 4 13 3 14 2 15 1 16
REMARK H PARENT
REMARK Flexibility Score: inf
ROOT
ATOM      1  C   UNL     1       9.995  -9.506  -7.966  1.00  0.00     0.000 C 
ENDROOT
BRANCH   1   2
ATOM      2  C   UNL     1      11.471  -9.909  -8.116  1.00  0.00     0.000 C 
BRANCH   2   3
ATOM      3  C   UNL     1      12.323  -9.494  -6.905  1.00  0.00     0.000 C 
BRANCH   3   4
ATOM      4  C   UNL     1      11.467  -9.099  -5.690  1.00  0.00     0.000 C 
BRANCH   4   5
ATOM      5  C   UNL     1      12.206  -9.297  -4.355  1.00  0.00     0.006 C 
BRANCH   5   6
ATOM      6  C   UNL     1      12.548  -7.963  -3.677  1.00  0.00     0.053 C 
BRANCH   6   7
ATOM      7  C   UNL     1      13.759  -8.075  -2.802  1.00  0.00     0.041 C 
ATOM      8  O   UNL     1      13.938  -7.257  -1.861  1.00  0.00    -0.550 OA
ATOM      9  O   UNL     1      14.673  -9.102  -3.005  1.00  0.00    -0.550 OA
ENDBRANCH   6   7
ENDBRANCH   5   6
ENDBRANCH   4   5
ENDBRANCH   3   4
ENDBRANCH   2   3
ENDBRANCH   1   2
BRANCH   1  10
ATOM     10  C   UNL     1       9.056 -10.717  -7.865  1.00  0.00     0.000 C 
BRANCH  10  11
ATOM     11  C   UNL     1       9.839 -11.994  -7.538  1.00  0.00    -0.000 C 
BRANCH  11  12
ATOM     12  C   UNL     1       8.941 -13.034  -6.858  1.00  0.00    -0.000 C 
BRANCH  12  13
ATOM     13  C   UNL     1       7.567 -13.106  -7.541  1.00  0.00    -0.000 C 
BRANCH  13  14
ATOM     14  C   UNL     1       7.535 -14.092  -8.722  1.00  0.00    -0.000 C 
BRANCH  14  15
ATOM     15  C   UNL     1       6.388 -15.116  -8.678  1.00  0.00    -0.003 C 
ATOM     16  C   UNL     1       5.061 -14.511  -8.221  1.00  0.00     0.004 C 
ENDBRANCH  14  15
ENDBRANCH  13  14
ENDBRANCH  12  13
ENDBRANCH  11  12
ENDBRANCH  10  11
ENDBRANCH   1  10
TORSDOF 12
ENDMDL
MODEL 4
REMARK VINA RESULT:    -4.840     12.035     14.730
REMARK INTER + INTRA:          -8.810
REMARK INTER:                  -7.971
REMARK INTRA:                  -0.839
REMARK UNBOUND:                -0.575
REMARK SMILES CCCCCCCCCCCCCC(=O)[O-]
REMARK SMILES IDX 8 1 9 2 10 3 11 4 12 5 13 6 14 7 15 8 16 9 7 10 6 11 5 12
REMARK SMILES IDX 4 13 3 14 2 15 1 16
REMARK H PARENT
REMARK Flexibility Score: inf
ROOT
ATOM      1  C   UNL     1       9.503 -12.599   4.999  1.00  0.00     0.000 C 
ENDROOT
BRANCH   1   2
ATOM      2  C   UNL     1       8.779 -12.086   6.255  1.00  0.00     0.000 C 
BRANCH   2   3
ATOM      3  C   UNL     1       7.925 -13.173   6.928  1.00  0.00     0.000 C 
BRANCH   3   4
ATOM      4  C   UNL     1       8.652 -14.525   7.017  1.00  0.00     0.000 C 
BRANCH   4   5
ATOM      5  C   UNL     1       7.864 -15.667   6.351  1.00  0.00     0.006 C 
BRANCH   5   6
ATOM      6  C   UNL     1       6.892 -15.153   5.280  1.00  0.00     0.053 C 
BRANCH   6   7
ATOM      7  C   UNL     1       6.212 -16.276   4.558  1.00  0.00     0.041 C 
ATOM      8  O   UNL     1       6.895 -17.161   3.978  1.00  0.00    -0.550 OA
ATOM      9  O   UNL     1       4.825 -16.363   4.553  1.00  0.00    -0.550 OA
ENDBRANCH   6   7
ENDBRANCH   5   6
ENDBRANCH   4   5
ENDBRANCH   3   4
ENDBRANCH   2   3
ENDBRANCH   1   2
BRANCH   1  10
ATOM     10  C   UNL     1      11.002 -12.260   4.997  1.00  0.00     0.000 C 
BRANCH  10  11
ATOM     11  C   UNL     1      11.223 -10.747   5.119  1.00  0.00    -0.000 C 
BRANCH  11  12
ATOM     12  C   UNL     1      12.679 -10.429   5.479  1.00  0.00    -0.000 C 
BRANCH  12  13
ATOM     13  C   UNL     1      13.327  -9.535   4.412  1.00  0.00    -0.000 C 
BRANCH  13  14
ATOM     14  C   UNL     1      12.379  -8.441   3.889  1.00  0.00    -0.000 C 
BRANCH  14  15
ATOM     15  C   UNL     1      12.138  -8.467   2.369  1.00  0.00    -0.003 C 
ATOM     16  C   UNL     1      13.029  -9.471   1.640  1.00  0.00     0.004 C 
ENDBRANCH  14  15
ENDBRANCH  13  14
ENDBRANCH  12  13
ENDBRANCH  11  12
ENDBRANCH  10  11
ENDBRANCH   1  10
TORSDOF 12
ENDMDL
MODEL 5
REMARK VINA RESULT:    -4.837      4.348      8.317
REMARK INTER + INTRA:          -8.805
REMARK INTER:                  -7.748
REMARK INTRA:                  -1.058
REMARK UNBOUND:                -0.575
REMARK SMILES CCCCCCCCCCCCCC(=O)[O-]
REMARK SMILES IDX 8 1 9 2 10 3 11 4 12 5 13 6 14 7 15 8 16 9 7 10 6 11 5 12
REMARK SMILES IDX 4 13 3 14 2 15 1 16
REMARK H PARENT
REMARK Flexibility Score: inf
ROOT
ATOM      1  C   UNL     1       5.437 -16.939  -5.005  1.00  0.00     0.000 C 
ENDROOT
BRANCH   1   2
ATOM      2  C   UNL     1       3.918 -17.180  -5.016  1.00  0.00     0.000 C 
BRANCH   2   3
ATOM      3  C   UNL     1       3.557 -18.672  -4.927  1.00  0.00     0.000 C 
BRANCH   3   4
ATOM      4  C   UNL     1       3.111 -19.089  -3.516  1.00  0.00     0.000 C 
BRANCH   4   5
ATOM      5  C   UNL     1       2.236 -18.024  -2.832  1.00  0.00     0.006 C 
BRANCH   5   6
ATOM      6  C   UNL     1       2.772 -17.635  -1.447  1.00  0.00     0.053 C 
BRANCH   6   7
ATOM      7  C   UNL     1       3.523 -16.339  -1.484  1.00  0.00     0.041 C 
ATOM      8  O   UNL     1       2.913 -15.260  -1.707  1.00  0.00    -0.550 OA
ATOM      9  O   UNL     1       4.891 -16.319  -1.239  1.00  0.00    -0.550 OA
ENDBRANCH   6   7
ENDBRANCH   5   6
ENDBRANCH   4   5
ENDBRANCH   3   4
ENDBRANCH   2   3
ENDBRANCH   1   2
BRANCH   1  10
ATOM     10  C   UNL     1       5.867 -15.818  -5.964  1.00  0.00     0.000 C 
BRANCH  10  11
ATOM     11  C   UNL     1       4.652 -15.196  -6.662  1.00  0.00    -0.000 C 
BRANCH  11  12
ATOM     12  C   UNL     1       5.045 -14.578  -8.010  1.00  0.00    -0.000 C 
BRANCH  12  13
ATOM     13  C   UNL     1       6.230 -15.330  -8.634  1.00  0.00    -0.000 C 
BRANCH  13  14
ATOM     14  C   UNL     1       7.351 -14.389  -9.114  1.00  0.00    -0.000 C 
BRANCH  14  15
ATOM     15  C   UNL     1       8.340 -13.951  -8.020  1.00  0.00    -0.003 C 
ATOM     16  C   UNL     1       8.112 -12.516  -7.547  1.00  0.00     0.004 C 
ENDBRANCH  14  15
ENDBRANCH  13  14
ENDBRANCH  12  13
ENDBRANCH  11  12
ENDBRANCH  10  11
ENDBRANCH   1  10
TORSDOF 12
ENDMDL
MODEL 6
REMARK VINA RESULT:    -4.824     11.764     14.608
REMARK INTER + INTRA:          -8.784
REMARK INTER:                  -7.964
REMARK INTRA:                  -0.820
REMARK UNBOUND:                -0.575
REMARK SMILES CCCCCCCCCCCCCC(=O)[O-]
REMARK SMILES IDX 8 1 9 2 10 3 11 4 12 5 13 6 14 7 15 8 16 9 7 10 6 11 5 12
REMARK SMILES IDX 4 13 3 14 2 15 1 16
REMARK H PARENT
REMARK Flexibility Score: inf
ROOT
ATOM      1  C   UNL     1      10.696 -11.219   4.736  1.00  0.00     0.000 C 
ENDROOT
BRANCH   1   2
ATOM      2  C   UNL     1       9.952 -12.389   5.401  1.00  0.00     0.000 C 
BRANCH   2   3
ATOM      3  C   UNL     1       8.543 -11.998   5.878  1.00  0.00     0.000 C 
BRANCH   3   4
ATOM      4  C   UNL     1       8.018 -12.921   6.990  1.00  0.00     0.000 C 
BRANCH   4   5
ATOM      5  C   UNL     1       8.760 -14.268   7.041  1.00  0.00     0.006 C 
BRANCH   5   6
ATOM      6  C   UNL     1       7.815 -15.459   6.830  1.00  0.00     0.053 C 
BRANCH   6   7
ATOM      7  C   UNL     1       7.419 -15.609   5.393  1.00  0.00     0.041 C 
ATOM      8  O   UNL     1       6.214 -15.811   5.086  1.00  0.00    -0.550 OA
ATOM      9  O   UNL     1       8.374 -15.494   4.390  1.00  0.00    -0.550 OA
ENDBRANCH   6   7
ENDBRANCH   5   6
ENDBRANCH   4   5
ENDBRANCH   3   4
ENDBRANCH   2   3
ENDBRANCH   1   2
BRANCH   1  10
ATOM     10  C   UNL     1      12.153 -11.096   5.208  1.00  0.00     0.000 C 
BRANCH  10  11
ATOM     11  C   UNL     1      12.967 -10.217   4.251  1.00  0.00    -0.000 C 
BRANCH  11  12
ATOM     12  C   UNL     1      12.518  -8.753   4.327  1.00  0.00    -0.000 C 
BRANCH  12  13
ATOM     13  C   UNL     1      12.120  -8.226   2.940  1.00  0.00    -0.000 C 
BRANCH  13  14
ATOM     14  C   UNL     1      12.459  -9.209   1.805  1.00  0.00    -0.000 C 
BRANCH  14  15
ATOM     15  C   UNL     1      12.638  -8.560   0.421  1.00  0.00    -0.003 C 
ATOM     16  C   UNL     1      14.026  -8.795  -0.174  1.00  0.00     0.004 C 
ENDBRANCH  14  15
ENDBRANCH  13  14
ENDBRANCH  12  13
ENDBRANCH  11  12
ENDBRANCH  10  11
ENDBRANCH   1  10
TORSDOF 12
ENDMDL
MODEL 7
REMARK VINA RESULT:    -4.806      6.057      9.763
REMARK INTER + INTRA:          -8.752
REMARK INTER:                  -8.058
REMARK INTRA:                  -0.695
REMARK UNBOUND:                -0.575
REMARK SMILES CCCCCCCCCCCCCC(=O)[O-]
REMARK SMILES IDX 8 1 9 2 10 3 11 4 12 5 13 6 14 7 15 8 16 9 7 10 6 11 5 12
REMARK SMILES IDX 4 13 3 14 2 15 1 16
REMARK H PARENT
REMARK Flexibility Score: inf
ROOT
ATOM      1  C   UNL     1       2.778 -18.746  -3.434  1.00  0.00     0.000 C 
ENDROOT
BRANCH   1   2
ATOM      2  C   UNL     1       2.434 -17.546  -2.537  1.00  0.00     0.000 C 
BRANCH   2   3
ATOM      3  C   UNL     1       2.875 -17.754  -1.079  1.00  0.00     0.000 C 
BRANCH   3   4
ATOM      4  C   UNL     1       4.355 -18.154  -0.961  1.00  0.00     0.000 C 
BRANCH   4   5
ATOM      5  C   UNL     1       4.873 -18.092   0.487  1.00  0.00     0.006 C 
BRANCH   5   6
ATOM      6  C   UNL     1       3.864 -18.671   1.488  1.00  0.00     0.053 C 
BRANCH   6   7
ATOM      7  C   UNL     1       3.788 -17.853   2.741  1.00  0.00     0.041 C 
ATOM      8  O   UNL     1       4.172 -18.337   3.838  1.00  0.00    -0.550 OA
ATOM      9  O   UNL     1       3.323 -16.544   2.691  1.00  0.00    -0.550 OA
ENDBRANCH   6   7
ENDBRANCH   5   6
ENDBRANCH   4   5
ENDBRANCH   3   4
ENDBRANCH   2   3
ENDBRANCH   1   2
BRANCH   1  10
ATOM     10  C   UNL     1       3.698 -18.369  -4.605  1.00  0.00     0.000 C 
BRANCH  10  11
ATOM     11  C   UNL     1       4.119 -16.896  -4.521  1.00  0.00    -0.000 C 
BRANCH  11  12
ATOM     12  C   UNL     1       5.062 -16.525  -5.672  1.00  0.00    -0.000 C 
BRANCH  12  13
ATOM     13  C   UNL     1       4.888 -15.052  -6.072  1.00  0.00    -0.000 C 
BRANCH  13  14
ATOM     14  C   UNL     1       4.783 -14.852  -7.594  1.00  0.00    -0.000 C 
BRANCH  14  15
ATOM     15  C   UNL     1       6.112 -14.524  -8.296  1.00  0.00    -0.003 C 
ATOM     16  C   UNL     1       6.853 -15.767  -8.787  1.00  0.00     0.004 C 
ENDBRANCH  14  15
ENDBRANCH  13  14
ENDBRANCH  12  13
ENDBRANCH  11  12
ENDBRANCH  10  11
ENDBRANCH   1  10
TORSDOF 12
ENDMDL
MODEL 8
REMARK VINA RESULT:    -4.796     10.102     13.205
REMARK INTER + INTRA:          -8.736
REMARK INTER:                  -7.664
REMARK INTRA:                  -1.072
REMARK UNBOUND:                -0.575
REMARK SMILES CCCCCCCCCCCCCC(=O)[O-]
REMARK SMILES IDX 8 1 9 2 10 3 11 4 12 5 13 6 14 7 15 8 16 9 7 10 6 11 5 12
REMARK SMILES IDX 4 13 3 14 2 15 1 16
REMARK H PARENT
REMARK Flexibility Score: inf
ROOT
ATOM      1  C   UNL     1       6.124 -15.506   4.393  1.00  0.00     0.000 C 
ENDROOT
BRANCH   1   2
ATOM      2  C   UNL     1       5.108 -16.626   4.117  1.00  0.00     0.000 C 
BRANCH   2   3
ATOM      3  C   UNL     1       5.778 -17.929   3.650  1.00  0.00     0.000 C 
BRANCH   3   4
ATOM      4  C   UNL     1       4.798 -19.113   3.604  1.00  0.00     0.000 C 
BRANCH   4   5
ATOM      5  C   UNL     1       3.766 -18.985   2.471  1.00  0.00     0.006 C 
BRANCH   5   6
ATOM      6  C   UNL     1       4.428 -18.742   1.108  1.00  0.00     0.053 C 
BRANCH   6   7
ATOM      7  C   UNL     1       3.802 -17.592   0.380  1.00  0.00     0.041 C 
ATOM      8  O   UNL     1       4.054 -16.409   0.730  1.00  0.00    -0.550 OA
ATOM      9  O   UNL     1       2.964 -17.825  -0.704  1.00  0.00    -0.550 OA
ENDBRANCH   6   7
ENDBRANCH   5   6
ENDBRANCH   4   5
ENDBRANCH   3   4
ENDBRANCH   2   3
ENDBRANCH   1   2
BRANCH   1  10
ATOM     10  C   UNL     1       7.403 -16.019   5.074  1.00  0.00     0.000 C 
BRANCH  10  11
ATOM     11  C   UNL     1       7.400 -15.684   6.570  1.00  0.00    -0.000 C 
BRANCH  11  12
ATOM     12  C   UNL     1       8.725 -15.036   6.993  1.00  0.00    -0.000 C 
BRANCH  12  13
ATOM     13  C   UNL     1       9.386 -14.313   5.810  1.00  0.00    -0.000 C 
BRANCH  13  14
ATOM     14  C   UNL     1       9.302 -12.780   5.922  1.00  0.00    -0.000 C 
BRANCH  14  15
ATOM     15  C   UNL     1       7.982 -12.246   6.506  1.00  0.00    -0.003 C 
ATOM     16  C   UNL     1       6.923 -11.971   5.439  1.00  0.00     0.004 C 
ENDBRANCH  14  15
ENDBRANCH  13  14
ENDBRANCH  12  13
ENDBRANCH  11  12
ENDBRANCH  10  11
ENDBRANCH   1  10
TORSDOF 12
ENDMDL
MODEL 9
REMARK VINA RESULT:    -4.754      4.684      8.853
REMARK INTER + INTRA:          -8.664
REMARK INTER:                  -8.070
REMARK INTRA:                  -0.595
REMARK UNBOUND:                -0.575
REMARK SMILES CCCCCCCCCCCCCC(=O)[O-]
REMARK SMILES IDX 8 1 9 2 10 3 11 4 12 5 13 6 14 7 15 8 16 9 7 10 6 11 5 12
REMARK SMILES IDX 4 13 3 14 2 15 1 16
REMARK H PARENT
REMARK Flexibility Score: inf
ROOT
ATOM      1  C   UNL     1       6.467 -15.086  -8.411  1.00  0.00     0.000 C 
ENDROOT
BRANCH   1   2
ATOM      2  C   UNL     1       5.179 -14.327  -8.049  1.00  0.00     0.000 C 
BRANCH   2   3
ATOM      3  C   UNL     1       4.307 -15.095  -7.041  1.00  0.00     0.000 C 
BRANCH   3   4
ATOM      4  C   UNL     1       5.139 -15.941  -6.064  1.00  0.00     0.000 C 
BRANCH   4   5
ATOM      5  C   UNL     1       4.321 -16.422  -4.852  1.00  0.00     0.006 C 
BRANCH   5   6
ATOM      6  C   UNL     1       4.519 -17.919  -4.577  1.00  0.00     0.053 C 
BRANCH   6   7
ATOM      7  C   UNL     1       3.314 -18.532  -3.931  1.00  0.00     0.041 C 
ATOM      8  O   UNL     1       3.131 -19.776  -3.986  1.00  0.00    -0.550 OA
ATOM      9  O   UNL     1       2.410 -17.732  -3.243  1.00  0.00    -0.550 OA
ENDBRANCH   6   7
ENDBRANCH   5   6
ENDBRANCH   4   5
ENDBRANCH   3   4
ENDBRANCH   2   3
ENDBRANCH   1   2
BRANCH   1  10
ATOM     10  C   UNL     1       7.654 -14.147  -8.676  1.00  0.00     0.000 C 
BRANCH  10  11
ATOM     11  C   UNL     1       8.195 -13.562  -7.366  1.00  0.00    -0.000 C 
BRANCH  11  12
ATOM     12  C   UNL     1       9.304 -12.537  -7.635  1.00  0.00    -0.000 C 
BRANCH  12  13
ATOM     13  C   UNL     1       8.818 -11.110  -7.341  1.00  0.00    -0.000 C 
BRANCH  13  14
ATOM     14  C   UNL     1       9.660 -10.032  -8.047  1.00  0.00    -0.000 C 
BRANCH  14  15
ATOM     15  C   UNL     1      11.155 -10.369  -8.186  1.00  0.00    -0.003 C 
ATOM     16  C   UNL     1      12.044  -9.541  -7.260  1.00  0.00     0.004 C 
ENDBRANCH  14  15
ENDBRANCH  13  14
ENDBRANCH  12  13
ENDBRANCH  11  12
ENDBRANCH  10  11
ENDBRANCH   1  10
TORSDOF 12
ENDMDL
