MODEL 1
REMARK VINA RESULT:    -6.037      0.000      0.000
REMARK INTER + INTRA:          -6.485
REMARK INTER:                  -6.390
REMARK INTRA:                  -0.095
REMARK UNBOUND:                -0.095
REMARK SMILES C=C(C)[C@@H]1CC=C(C)C(=O)C1
REMARK SMILES IDX 8 1 7 2 6 3 5 4 4 5 11 6 9 7 10 8 2 9 1 10 3 11
REMARK H PARENT
REMARK Flexibility Score: inf
ROOT
ATOM      1  C   UNL     1      29.828  14.956  27.880  1.00  0.00     0.048 C 
ATOM      2  C   UNL     1      30.607  16.227  27.682  1.00  0.00    -0.012 C 
ATOM      3  C   UNL     1      31.443  16.655  28.645  1.00  0.00    -0.019 C 
ATOM      4  C   UNL     1      32.261  17.911  28.490  1.00  0.00     0.036 C 
ATOM      5  C   UNL     1      31.512  18.960  27.648  1.00  0.00     0.025 C 
ATOM      6  C   UNL     1      31.103  18.361  26.289  1.00  0.00     0.089 C 
ATOM      7  C   UNL     1      30.360  17.067  26.484  1.00  0.00     0.158 C 
ATOM      8  O   UNL     1      29.550  16.684  25.598  1.00  0.00    -0.295 OA
ENDROOT
BRANCH   5   9
ATOM      9  C   UNL     1      32.333  20.232  27.476  1.00  0.00    -0.077 C 
ATOM     10  C   UNL     1      33.675  20.214  27.545  1.00  0.00     0.008 C 
ATOM     11  C   UNL     1      31.642  21.547  27.220  1.00  0.00     0.039 C 
ENDBRANCH   5   9
TORSDOF 1
ENDMDL
MODEL 2
REMARK VINA RESULT:    -5.873      1.736      4.285
REMARK INTER + INTRA:          -6.311
REMARK INTER:                  -6.223
REMARK INTRA:                  -0.089
REMARK UNBOUND:                -0.095
REMARK SMILES C=C(C)[C@@H]1CC=C(C)C(=O)C1
REMARK SMILES IDX 8 1 7 2 6 3 5 4 4 5 11 6 9 7 10 8 2 9 1 10 3 11
REMARK H PARENT
REMARK Flexibility Score: inf
ROOT
ATOM      1  C   UNL     1      32.218  21.982  25.861  1.00  0.00     0.048 C 
ATOM      2  C   UNL     1      31.802  20.595  26.266  1.00  0.00    -0.012 C 
ATOM      3  C   UNL     1      31.526  20.330  27.556  1.00  0.00    -0.019 C 
ATOM      4  C   UNL     1      31.087  18.963  28.013  1.00  0.00     0.036 C 
ATOM      5  C   UNL     1      31.735  17.858  27.158  1.00  0.00     0.025 C 
ATOM      6  C   UNL     1      31.440  18.095  25.665  1.00  0.00     0.089 C 
ATOM      7  C   UNL     1      31.816  19.497  25.268  1.00  0.00     0.158 C 
ATOM      8  O   UNL     1      32.109  19.737  24.066  1.00  0.00    -0.295 OA
ENDROOT
BRANCH   5   9
ATOM      9  C   UNL     1      31.292  16.470  27.604  1.00  0.00    -0.077 C 
ATOM     10  C   UNL     1      32.096  15.681  28.337  1.00  0.00     0.008 C 
ATOM     11  C   UNL     1      29.927  15.957  27.227  1.00  0.00     0.039 C 
ENDBRANCH   5   9
TORSDOF 1
ENDMDL
MODEL 3
REMARK VINA RESULT:    -5.800      1.096      1.729
REMARK INTER + INTRA:          -6.234
REMARK INTER:                  -6.136
REMARK INTRA:                  -0.098
REMARK UNBOUND:                -0.095
REMARK SMILES C=C(C)[C@@H]1CC=C(C)C(=O)C1
REMARK SMILES IDX 8 1 7 2 6 3 5 4 4 5 11 6 9 7 10 8 2 9 1 10 3 11
REMARK H PARENT
REMARK Flexibility Score: inf
ROOT
ATOM      1  C   UNL     1      31.232  15.879  28.232  1.00  0.00     0.048 C 
ATOM      2  C   UNL     1      31.783  17.200  27.771  1.00  0.00    -0.012 C 
ATOM      3  C   UNL     1      32.668  17.860  28.539  1.00  0.00    -0.019 C 
ATOM      4  C   UNL     1      33.264  19.177  28.117  1.00  0.00     0.036 C 
ATOM      5  C   UNL     1      32.264  19.996  27.281  1.00  0.00     0.025 C 
ATOM      6  C   UNL     1      31.769  19.169  26.079  1.00  0.00     0.089 C 
ATOM      7  C   UNL     1      31.257  17.829  26.534  1.00  0.00     0.158 C 
ATOM      8  O   UNL     1      30.401  17.228  25.832  1.00  0.00    -0.295 OA
ENDROOT
BRANCH   5   9
ATOM      9  C   UNL     1      32.858  21.328  26.839  1.00  0.00    -0.077 C 
ATOM     10  C   UNL     1      32.246  22.098  25.923  1.00  0.00     0.008 C 
ATOM     11  C   UNL     1      34.157  21.808  27.432  1.00  0.00     0.039 C 
ENDBRANCH   5   9
TORSDOF 1
ENDMDL
MODEL 4
REMARK VINA RESULT:    -5.789      1.740      2.764
REMARK INTER + INTRA:          -6.223
REMARK INTER:                  -6.128
REMARK INTRA:                  -0.094
REMARK UNBOUND:                -0.095
REMARK SMILES C=C(C)[C@@H]1CC=C(C)C(=O)C1
REMARK SMILES IDX 8 1 7 2 6 3 5 4 4 5 11 6 9 7 10 8 2 9 1 10 3 11
REMARK H PARENT
REMARK Flexibility Score: inf
ROOT
ATOM      1  C   UNL     1      30.401  16.409  26.787  1.00  0.00     0.048 C 
ATOM      2  C   UNL     1      30.934  17.810  26.670  1.00  0.00    -0.012 C 
ATOM      3  C   UNL     1      31.373  18.262  25.482  1.00  0.00    -0.019 C 
ATOM      4  C   UNL     1      31.899  19.662  25.306  1.00  0.00     0.036 C 
ATOM      5  C   UNL     1      32.603  20.156  26.585  1.00  0.00     0.025 C 
ATOM      6  C   UNL     1      31.656  20.037  27.795  1.00  0.00     0.089 C 
ATOM      7  C   UNL     1      31.089  18.646  27.887  1.00  0.00     0.158 C 
ATOM      8  O   UNL     1      30.710  18.210  29.007  1.00  0.00    -0.295 OA
ENDROOT
BRANCH   5   9
ATOM      9  C   UNL     1      33.131  21.575  26.423  1.00  0.00    -0.077 C 
ATOM     10  C   UNL     1      32.493  22.477  25.658  1.00  0.00     0.008 C 
ATOM     11  C   UNL     1      34.393  21.995  27.131  1.00  0.00     0.039 C 
ENDBRANCH   5   9
TORSDOF 1
ENDMDL
MODEL 5
REMARK VINA RESULT:    -5.728      2.017      4.563
REMARK INTER + INTRA:          -6.158
REMARK INTER:                  -6.064
REMARK INTRA:                  -0.094
REMARK UNBOUND:                -0.095
REMARK SMILES C=C(C)[C@@H]1CC=C(C)C(=O)C1
REMARK SMILES IDX 8 1 7 2 6 3 5 4 4 5 11 6 9 7 10 8 2 9 1 10 3 11
REMARK H PARENT
REMARK Flexibility Score: inf
ROOT
ATOM      1  C   UNL     1      31.738  21.065  24.629  1.00  0.00     0.048 C 
ATOM      2  C   UNL     1      31.675  19.775  25.398  1.00  0.00    -0.012 C 
ATOM      3  C   UNL     1      31.405  18.625  24.755  1.00  0.00    -0.019 C 
ATOM      4  C   UNL     1      31.349  17.303  25.473  1.00  0.00     0.036 C 
ATOM      5  C   UNL     1      30.832  17.476  26.914  1.00  0.00     0.025 C 
ATOM      6  C   UNL     1      31.688  18.513  27.667  1.00  0.00     0.089 C 
ATOM      7  C   UNL     1      31.788  19.790  26.878  1.00  0.00     0.158 C 
ATOM      8  O   UNL     1      32.005  20.872  27.485  1.00  0.00    -0.295 OA
ENDROOT
BRANCH   5   9
ATOM      9  C   UNL     1      30.779  16.147  27.656  1.00  0.00    -0.077 C 
ATOM     10  C   UNL     1      31.843  15.679  28.331  1.00  0.00     0.008 C 
ATOM     11  C   UNL     1      29.516  15.327  27.645  1.00  0.00     0.039 C 
ENDBRANCH   5   9
TORSDOF 1
ENDMDL
MODEL 6
REMARK VINA RESULT:    -5.721      2.529      4.956
REMARK INTER + INTRA:          -6.150
REMARK INTER:                  -6.053
REMARK INTRA:                  -0.097
REMARK UNBOUND:                -0.095
REMARK SMILES C=C(C)[C@@H]1CC=C(C)C(=O)C1
REMARK SMILES IDX 8 1 7 2 6 3 5 4 4 5 11 6 9 7 10 8 2 9 1 10 3 11
REMARK H PARENT
REMARK Flexibility Score: inf
ROOT
ATOM      1  C   UNL     1      32.472  22.686  25.437  1.00  0.00     0.048 C 
ATOM      2  C   UNL     1      32.552  21.320  26.059  1.00  0.00    -0.012 C 
ATOM      3  C   UNL     1      31.685  20.362  25.683  1.00  0.00    -0.019 C 
ATOM      4  C   UNL     1      31.733  18.972  26.260  1.00  0.00     0.036 C 
ATOM      5  C   UNL     1      32.211  18.995  27.724  1.00  0.00     0.025 C 
ATOM      6  C   UNL     1      33.567  19.717  27.832  1.00  0.00     0.089 C 
ATOM      7  C   UNL     1      33.501  21.068  27.171  1.00  0.00     0.158 C 
ATOM      8  O   UNL     1      34.289  21.976  27.549  1.00  0.00    -0.295 OA
ENDROOT
BRANCH   5   9
ATOM      9  C   UNL     1      32.272  17.594  28.317  1.00  0.00    -0.077 C 
ATOM     10  C   UNL     1      33.249  17.236  29.168  1.00  0.00     0.008 C 
ATOM     11  C   UNL     1      31.223  16.574  27.955  1.00  0.00     0.039 C 
ENDBRANCH   5   9
TORSDOF 1
ENDMDL
MODEL 7
REMARK VINA RESULT:    -5.540      2.309      4.379
REMARK INTER + INTRA:          -5.959
REMARK INTER:                  -5.861
REMARK INTRA:                  -0.098
REMARK UNBOUND:                -0.095
REMARK SMILES C=C(C)[C@@H]1CC=C(C)C(=O)C1
REMARK SMILES IDX 8 1 7 2 6 3 5 4 4 5 11 6 9 7 10 8 2 9 1 10 3 11
REMARK H PARENT
REMARK Flexibility Score: inf
ROOT
ATOM      1  C   UNL     1      31.370  20.662  23.559  1.00  0.00     0.048 C 
ATOM      2  C   UNL     1      31.583  19.725  24.716  1.00  0.00    -0.012 C 
ATOM      3  C   UNL     1      31.194  18.441  24.617  1.00  0.00    -0.019 C 
ATOM      4  C   UNL     1      31.400  17.457  25.737  1.00  0.00     0.036 C 
ATOM      5  C   UNL     1      31.302  18.150  27.110  1.00  0.00     0.025 C 
ATOM      6  C   UNL     1      32.288  19.331  27.183  1.00  0.00     0.089 C 
ATOM      7  C   UNL     1      32.106  20.247  26.003  1.00  0.00     0.158 C 
ATOM      8  O   UNL     1      32.437  21.457  26.108  1.00  0.00    -0.295 OA
ENDROOT
BRANCH   5   9
ATOM      9  C   UNL     1      31.518  17.166  28.253  1.00  0.00    -0.077 C 
ATOM     10  C   UNL     1      32.135  17.537  29.388  1.00  0.00     0.008 C 
ATOM     11  C   UNL     1      31.035  15.744  28.126  1.00  0.00     0.039 C 
ENDBRANCH   5   9
TORSDOF 1
ENDMDL
MODEL 8
REMARK VINA RESULT:    -5.373      2.994      4.208
REMARK INTER + INTRA:          -5.782
REMARK INTER:                  -5.688
REMARK INTRA:                  -0.094
REMARK UNBOUND:                -0.095
REMARK SMILES C=C(C)[C@@H]1CC=C(C)C(=O)C1
REMARK SMILES IDX 8 1 7 2 6 3 5 4 4 5 11 6 9 7 10 8 2 9 1 10 3 11
REMARK H PARENT
REMARK Flexibility Score: inf
ROOT
ATOM      1  C   UNL     1      31.294  18.237  28.557  1.00  0.00     0.048 C 
ATOM      2  C   UNL     1      31.354  18.509  27.080  1.00  0.00    -0.012 C 
ATOM      3  C   UNL     1      30.916  17.581  26.211  1.00  0.00    -0.019 C 
ATOM      4  C   UNL     1      30.937  17.809  24.722  1.00  0.00     0.036 C 
ATOM      5  C   UNL     1      32.129  18.694  24.313  1.00  0.00     0.025 C 
ATOM      6  C   UNL     1      32.111  20.015  25.105  1.00  0.00     0.089 C 
ATOM      7  C   UNL     1      32.007  19.745  26.582  1.00  0.00     0.158 C 
ATOM      8  O   UNL     1      32.450  20.599  27.395  1.00  0.00    -0.295 OA
ENDROOT
BRANCH   5   9
ATOM      9  C   UNL     1      32.156  18.941  22.810  1.00  0.00    -0.077 C 
ATOM     10  C   UNL     1      31.421  19.916  22.248  1.00  0.00     0.008 C 
ATOM     11  C   UNL     1      33.020  18.086  21.920  1.00  0.00     0.039 C 
ENDBRANCH   5   9
TORSDOF 1
ENDMDL
MODEL 9
REMARK VINA RESULT:    -5.360      2.452      3.716
REMARK INTER + INTRA:          -5.768
REMARK INTER:                  -5.678
REMARK INTRA:                  -0.090
REMARK UNBOUND:                -0.095
REMARK SMILES C=C(C)[C@@H]1CC=C(C)C(=O)C1
REMARK SMILES IDX 8 1 7 2 6 3 5 4 4 5 11 6 9 7 10 8 2 9 1 10 3 11
REMARK H PARENT
REMARK Flexibility Score: inf
ROOT
ATOM      1  C   UNL     1      30.971  18.339  28.745  1.00  0.00     0.048 C 
ATOM      2  C   UNL     1      31.345  18.443  27.293  1.00  0.00    -0.012 C 
ATOM      3  C   UNL     1      31.913  19.570  26.827  1.00  0.00    -0.019 C 
ATOM      4  C   UNL     1      32.323  19.720  25.386  1.00  0.00     0.036 C 
ATOM      5  C   UNL     1      31.380  18.935  24.456  1.00  0.00     0.025 C 
ATOM      6  C   UNL     1      31.308  17.459  24.890  1.00  0.00     0.089 C 
ATOM      7  C   UNL     1      30.976  17.354  26.354  1.00  0.00     0.158 C 
ATOM      8  O   UNL     1      30.412  16.313  26.783  1.00  0.00    -0.295 OA
ENDROOT
BRANCH   5   9
ATOM      9  C   UNL     1      31.790  19.071  22.995  1.00  0.00    -0.077 C 
ATOM     10  C   UNL     1      31.416  20.131  22.258  1.00  0.00     0.008 C 
ATOM     11  C   UNL     1      32.634  18.005  22.346  1.00  0.00     0.039 C 
ENDBRANCH   5   9
TORSDOF 1
ENDMDL
