MODEL 1
REMARK VINA RESULT:    -5.688      0.000      0.000
REMARK INTER + INTRA:          -8.043
REMARK INTER:                  -7.683
REMARK INTRA:                  -0.360
REMARK UNBOUND:                -0.360
REMARK SMILES CC(=O)CCC=C(C)CCC=C(C)C
REMARK SMILES IDX 7 1 6 2 8 3 9 4 10 5 11 6 13 7 12 8 14 9 5 10 4 11 2 12 3 13
REMARK SMILES IDX 1 14
REMARK H PARENT
REMARK Flexibility Score: inf
ROOT
ATOM      1  C   UNL     1      18.493   4.018  18.393  1.00  0.00    -0.077 C 
ATOM      2  C   UNL     1      18.268   5.299  18.024  1.00  0.00    -0.028 C 
ATOM      3  C   UNL     1      17.838   2.920  17.592  1.00  0.00     0.039 C 
ENDROOT
BRANCH   1   4
ATOM      4  C   UNL     1      19.400   3.637  19.549  1.00  0.00     0.034 C 
BRANCH   4   5
ATOM      5  C   UNL     1      19.399   2.121  19.802  1.00  0.00     0.032 C 
BRANCH   5   6
ATOM      6  C   UNL     1      19.482   1.796  21.274  1.00  0.00    -0.028 C 
ATOM      7  C   UNL     1      19.528  -0.680  20.900  1.00  0.00     0.039 C 
ATOM      8  C   UNL     1      19.572   0.547  21.781  1.00  0.00    -0.080 C 
ATOM      9  C   UNL     1      19.700   0.385  23.273  1.00  0.00     0.039 C 
ENDBRANCH   5   6
ENDBRANCH   4   5
ENDBRANCH   1   4
BRANCH   2  10
ATOM     10  C   UNL     1      18.783   6.514  18.759  1.00  0.00     0.035 C 
BRANCH  10  11
ATOM     11  C   UNL     1      17.928   7.754  18.469  1.00  0.00     0.079 C 
BRANCH  11  12
ATOM     12  C   UNL     1      18.145   8.835  19.496  1.00  0.00     0.130 C 
ATOM     13  O   UNL     1      18.562   8.542  20.607  1.00  0.00    -0.300 OA
ATOM     14  C   UNL     1      17.837  10.265  19.169  1.00  0.00     0.087 C 
ENDBRANCH  11  12
ENDBRANCH  10  11
ENDBRANCH   2  10
TORSDOF 6
ENDMDL
MODEL 2
REMARK VINA RESULT:    -5.506      2.766      4.966
REMARK INTER + INTRA:          -7.797
REMARK INTER:                  -7.192
REMARK INTRA:                  -0.605
REMARK UNBOUND:                -0.360
REMARK SMILES CC(=O)CCC=C(C)CCC=C(C)C
REMARK SMILES IDX 7 1 6 2 8 3 9 4 10 5 11 6 13 7 12 8 14 9 5 10 4 11 2 12 3 13
REMARK SMILES IDX 1 14
REMARK H PARENT
REMARK Flexibility Score: inf
ROOT
ATOM      1  C   UNL     1      19.568  -0.040  21.268  1.00  0.00    -0.077 C 
ATOM      2  C   UNL     1      19.391   0.882  20.294  1.00  0.00    -0.028 C 
ATOM      3  C   UNL     1      19.689  -1.488  20.865  1.00  0.00     0.039 C 
ENDROOT
BRANCH   1   4
ATOM      4  C   UNL     1      19.685   0.322  22.738  1.00  0.00     0.034 C 
BRANCH   4   5
ATOM      5  C   UNL     1      18.547  -0.290  23.570  1.00  0.00     0.032 C 
BRANCH   5   6
ATOM      6  C   UNL     1      17.441   0.705  23.827  1.00  0.00    -0.028 C 
ATOM      7  C   UNL     1      16.015  -0.941  25.063  1.00  0.00     0.039 C 
ATOM      8  C   UNL     1      16.314   0.437  24.522  1.00  0.00    -0.080 C 
ATOM      9  C   UNL     1      15.323   1.551  24.739  1.00  0.00     0.039 C 
ENDBRANCH   5   6
ENDBRANCH   4   5
ENDBRANCH   1   4
BRANCH   2  10
ATOM     10  C   UNL     1      19.177   2.358  20.529  1.00  0.00     0.035 C 
BRANCH  10  11
ATOM     11  C   UNL     1      19.761   3.202  19.388  1.00  0.00     0.079 C 
BRANCH  11  12
ATOM     12  C   UNL     1      18.692   3.978  18.664  1.00  0.00     0.130 C 
ATOM     13  O   UNL     1      18.667   5.197  18.744  1.00  0.00    -0.300 OA
ATOM     14  C   UNL     1      17.649   3.263  17.860  1.00  0.00     0.087 C 
ENDBRANCH  11  12
ENDBRANCH  10  11
ENDBRANCH   2  10
TORSDOF 6
ENDMDL
MODEL 3
REMARK VINA RESULT:    -5.458      2.508      4.352
REMARK INTER + INTRA:          -7.733
REMARK INTER:                  -7.118
REMARK INTRA:                  -0.615
REMARK UNBOUND:                -0.360
REMARK SMILES CC(=O)CCC=C(C)CCC=C(C)C
REMARK SMILES IDX 7 1 6 2 8 3 9 4 10 5 11 6 13 7 12 8 14 9 5 10 4 11 2 12 3 13
REMARK SMILES IDX 1 14
REMARK H PARENT
REMARK Flexibility Score: inf
ROOT
ATOM      1  C   UNL     1      19.735   2.765  22.278  1.00  0.00    -0.077 C 
ATOM      2  C   UNL     1      19.776   3.172  20.989  1.00  0.00    -0.028 C 
ATOM      3  C   UNL     1      20.582   3.501  23.286  1.00  0.00     0.039 C 
ENDROOT
BRANCH   1   4
ATOM      4  C   UNL     1      18.849   1.629  22.759  1.00  0.00     0.034 C 
BRANCH   4   5
ATOM      5  C   UNL     1      19.648   0.335  22.978  1.00  0.00     0.032 C 
BRANCH   5   6
ATOM      6  C   UNL     1      19.705  -0.509  21.727  1.00  0.00    -0.028 C 
ATOM      7  C   UNL     1      20.250  -2.615  22.968  1.00  0.00     0.039 C 
ATOM      8  C   UNL     1      19.943  -1.839  21.709  1.00  0.00    -0.080 C 
ATOM      9  C   UNL     1      19.918  -2.554  20.383  1.00  0.00     0.039 C 
ENDBRANCH   5   6
ENDBRANCH   4   5
ENDBRANCH   1   4
BRANCH   2  10
ATOM     10  C   UNL     1      19.052   2.502  19.846  1.00  0.00     0.035 C 
BRANCH  10  11
ATOM     11  C   UNL     1      19.487   3.072  18.490  1.00  0.00     0.079 C 
BRANCH  11  12
ATOM     12  C   UNL     1      18.491   4.071  17.960  1.00  0.00     0.130 C 
ATOM     13  O   UNL     1      17.452   3.680  17.450  1.00  0.00    -0.300 OA
ATOM     14  C   UNL     1      18.776   5.540  18.039  1.00  0.00     0.087 C 
ENDBRANCH  11  12
ENDBRANCH  10  11
ENDBRANCH   2  10
TORSDOF 6
ENDMDL
MODEL 4
REMARK VINA RESULT:    -5.429      2.423      6.270
REMARK INTER + INTRA:          -7.694
REMARK INTER:                  -7.091
REMARK INTRA:                  -0.603
REMARK UNBOUND:                -0.360
REMARK SMILES CC(=O)CCC=C(C)CCC=C(C)C
REMARK SMILES IDX 7 1 6 2 8 3 9 4 10 5 11 6 13 7 12 8 14 9 5 10 4 11 2 12 3 13
REMARK SMILES IDX 1 14
REMARK H PARENT
REMARK Flexibility Score: inf
ROOT
ATOM      1  C   UNL     1      19.448   0.588  21.880  1.00  0.00    -0.077 C 
ATOM      2  C   UNL     1      19.627   0.382  23.205  1.00  0.00    -0.028 C 
ATOM      3  C   UNL     1      19.651  -0.576  20.944  1.00  0.00     0.039 C 
ENDROOT
BRANCH   1   4
ATOM      4  C   UNL     1      19.021   1.925  21.302  1.00  0.00     0.034 C 
BRANCH   4   5
ATOM      5  C   UNL     1      19.319   2.019  19.798  1.00  0.00     0.032 C 
BRANCH   5   6
ATOM      6  C   UNL     1      19.569   3.443  19.362  1.00  0.00    -0.028 C 
ATOM      7  C   UNL     1      17.695   3.445  17.701  1.00  0.00     0.039 C 
ATOM      8  C   UNL     1      18.830   4.107  18.446  1.00  0.00    -0.080 C 
ATOM      9  C   UNL     1      19.172   5.544  18.153  1.00  0.00     0.039 C 
ENDBRANCH   5   6
ENDBRANCH   4   5
ENDBRANCH   1   4
BRANCH   2  10
ATOM     10  C   UNL     1      19.539   1.451  24.267  1.00  0.00     0.035 C 
BRANCH  10  11
ATOM     11  C   UNL     1      20.930   1.918  24.715  1.00  0.00     0.079 C 
BRANCH  11  12
ATOM     12  C   UNL     1      21.231   3.314  24.236  1.00  0.00     0.130 C 
ATOM     13  O   UNL     1      20.344   3.989  23.735  1.00  0.00    -0.300 OA
ATOM     14  C   UNL     1      22.617   3.874  24.355  1.00  0.00     0.087 C 
ENDBRANCH  11  12
ENDBRANCH  10  11
ENDBRANCH   2  10
TORSDOF 6
ENDMDL
MODEL 5
REMARK VINA RESULT:    -5.403      3.979      7.810
REMARK INTER + INTRA:          -7.659
REMARK INTER:                  -7.055
REMARK INTRA:                  -0.604
REMARK UNBOUND:                -0.360
REMARK SMILES CC(=O)CCC=C(C)CCC=C(C)C
REMARK SMILES IDX 7 1 6 2 8 3 9 4 10 5 11 6 13 7 12 8 14 9 5 10 4 11 2 12 3 13
REMARK SMILES IDX 1 14
REMARK H PARENT
REMARK Flexibility Score: inf
ROOT
ATOM      1  C   UNL     1      19.748   2.159  22.811  1.00  0.00    -0.077 C 
ATOM      2  C   UNL     1      19.466   1.268  23.789  1.00  0.00    -0.028 C 
ATOM      3  C   UNL     1      20.141   3.558  23.214  1.00  0.00     0.039 C 
ENDROOT
BRANCH   1   4
ATOM      4  C   UNL     1      19.722   1.804  21.335  1.00  0.00     0.034 C 
BRANCH   4   5
ATOM      5  C   UNL     1      19.581   3.051  20.449  1.00  0.00     0.032 C 
BRANCH   5   6
ATOM      6  C   UNL     1      18.490   2.887  19.417  1.00  0.00    -0.028 C 
ATOM      7  C   UNL     1      19.201   4.893  18.098  1.00  0.00     0.039 C 
ATOM      8  C   UNL     1      18.326   3.686  18.340  1.00  0.00    -0.080 C 
ATOM      9  C   UNL     1      17.219   3.364  17.370  1.00  0.00     0.039 C 
ENDBRANCH   5   6
ENDBRANCH   4   5
ENDBRANCH   1   4
BRANCH   2  10
ATOM     10  C   UNL     1      18.986  -0.145  23.559  1.00  0.00     0.035 C 
BRANCH  10  11
ATOM     11  C   UNL     1      20.145  -1.149  23.601  1.00  0.00     0.079 C 
BRANCH  11  12
ATOM     12  C   UNL     1      20.009  -2.205  22.535  1.00  0.00     0.130 C 
ATOM     13  O   UNL     1      20.109  -3.385  22.833  1.00  0.00    -0.300 OA
ATOM     14  C   UNL     1      19.768  -1.814  21.108  1.00  0.00     0.087 C 
ENDBRANCH  11  12
ENDBRANCH  10  11
ENDBRANCH   2  10
TORSDOF 6
ENDMDL
MODEL 6
REMARK VINA RESULT:    -5.376      1.437      1.943
REMARK INTER + INTRA:          -7.622
REMARK INTER:                  -7.119
REMARK INTRA:                  -0.504
REMARK UNBOUND:                -0.360
REMARK SMILES CC(=O)CCC=C(C)CCC=C(C)C
REMARK SMILES IDX 7 1 6 2 8 3 9 4 10 5 11 6 13 7 12 8 14 9 5 10 4 11 2 12 3 13
REMARK SMILES IDX 1 14
REMARK H PARENT
REMARK Flexibility Score: inf
ROOT
ATOM      1  C   UNL     1      19.361   2.649  19.289  1.00  0.00    -0.077 C 
ATOM      2  C   UNL     1      19.240   3.770  18.541  1.00  0.00    -0.028 C 
ATOM      3  C   UNL     1      19.154   1.317  18.614  1.00  0.00     0.039 C 
ENDROOT
BRANCH   1   4
ATOM      4  C   UNL     1      19.730   2.673  20.761  1.00  0.00     0.034 C 
BRANCH   4   5
ATOM      5  C   UNL     1      18.785   1.800  21.602  1.00  0.00     0.032 C 
BRANCH   5   6
ATOM      6  C   UNL     1      19.397   1.426  22.930  1.00  0.00    -0.028 C 
ATOM      7  C   UNL     1      19.743  -0.970  22.290  1.00  0.00     0.039 C 
ATOM      8  C   UNL     1      19.860   0.196  23.243  1.00  0.00    -0.080 C 
ATOM      9  C   UNL     1      20.493  -0.010  24.595  1.00  0.00     0.039 C 
ENDBRANCH   5   6
ENDBRANCH   4   5
ENDBRANCH   1   4
BRANCH   2  10
ATOM     10  C   UNL     1      19.341   5.179  19.074  1.00  0.00     0.035 C 
BRANCH  10  11
ATOM     11  C   UNL     1      19.065   6.218  17.978  1.00  0.00     0.079 C 
BRANCH  11  12
ATOM     12  C   UNL     1      18.189   7.337  18.478  1.00  0.00     0.130 C 
ATOM     13  O   UNL     1      17.093   7.522  17.970  1.00  0.00    -0.300 OA
ATOM     14  C   UNL     1      18.660   8.234  19.582  1.00  0.00     0.087 C 
ENDBRANCH  11  12
ENDBRANCH  10  11
ENDBRANCH   2  10
TORSDOF 6
ENDMDL
MODEL 7
REMARK VINA RESULT:    -5.372      2.580      6.842
REMARK INTER + INTRA:          -7.617
REMARK INTER:                  -7.142
REMARK INTRA:                  -0.475
REMARK UNBOUND:                -0.360
REMARK SMILES CC(=O)CCC=C(C)CCC=C(C)C
REMARK SMILES IDX 7 1 6 2 8 3 9 4 10 5 11 6 13 7 12 8 14 9 5 10 4 11 2 12 3 13
REMARK SMILES IDX 1 14
REMARK H PARENT
REMARK Flexibility Score: inf
ROOT
ATOM      1  C   UNL     1      18.584   3.435  18.561  1.00  0.00    -0.077 C 
ATOM      2  C   UNL     1      18.567   2.631  19.648  1.00  0.00    -0.028 C 
ATOM      3  C   UNL     1      17.405   3.389  17.621  1.00  0.00     0.039 C 
ENDROOT
BRANCH   1   4
ATOM      4  C   UNL     1      19.715   4.404  18.267  1.00  0.00     0.034 C 
BRANCH   4   5
ATOM      5  C   UNL     1      19.190   5.798  17.888  1.00  0.00     0.032 C 
BRANCH   5   6
ATOM      6  C   UNL     1      19.069   6.700  19.092  1.00  0.00    -0.028 C 
ATOM      7  C   UNL     1      17.386   8.205  18.010  1.00  0.00     0.039 C 
ATOM      8  C   UNL     1      18.242   7.765  19.174  1.00  0.00    -0.080 C 
ATOM      9  C   UNL     1      18.195   8.540  20.465  1.00  0.00     0.039 C 
ENDBRANCH   5   6
ENDBRANCH   4   5
ENDBRANCH   1   4
BRANCH   2  10
ATOM     10  C   UNL     1      19.694   2.499  20.644  1.00  0.00     0.035 C 
BRANCH  10  11
ATOM     11  C   UNL     1      19.263   1.701  21.882  1.00  0.00     0.079 C 
BRANCH  11  12
ATOM     12  C   UNL     1      19.617   0.242  21.757  1.00  0.00     0.130 C 
ATOM     13  O   UNL     1      19.741  -0.259  20.649  1.00  0.00    -0.300 OA
ATOM     14  C   UNL     1      19.800  -0.602  22.982  1.00  0.00     0.087 C 
ENDBRANCH  11  12
ENDBRANCH  10  11
ENDBRANCH   2  10
TORSDOF 6
ENDMDL
MODEL 8
REMARK VINA RESULT:    -5.279      2.462      4.477
REMARK INTER + INTRA:          -7.490
REMARK INTER:                  -6.771
REMARK INTRA:                  -0.720
REMARK UNBOUND:                -0.360
REMARK SMILES CC(=O)CCC=C(C)CCC=C(C)C
REMARK SMILES IDX 7 1 6 2 8 3 9 4 10 5 11 6 13 7 12 8 14 9 5 10 4 11 2 12 3 13
REMARK SMILES IDX 1 14
REMARK H PARENT
REMARK Flexibility Score: inf
ROOT
ATOM      1  C   UNL     1      19.703   2.261  21.651  1.00  0.00    -0.077 C 
ATOM      2  C   UNL     1      19.595   2.940  20.486  1.00  0.00    -0.028 C 
ATOM      3  C   UNL     1      20.136   3.020  22.880  1.00  0.00     0.039 C 
ENDROOT
BRANCH   1   4
ATOM      4  C   UNL     1      19.373   0.785  21.782  1.00  0.00     0.034 C 
BRANCH   4   5
ATOM      5  C   UNL     1      19.467   0.305  23.238  1.00  0.00     0.032 C 
BRANCH   5   6
ATOM      6  C   UNL     1      18.186  -0.350  23.698  1.00  0.00    -0.028 C 
ATOM      7  C   UNL     1      17.320   1.726  24.800  1.00  0.00     0.039 C 
ATOM      8  C   UNL     1      17.200   0.282  24.371  1.00  0.00    -0.080 C 
ATOM      9  C   UNL     1      15.956  -0.494  24.718  1.00  0.00     0.039 C 
ENDBRANCH   5   6
ENDBRANCH   4   5
ENDBRANCH   1   4
BRANCH   2  10
ATOM     10  C   UNL     1      19.248   2.321  19.153  1.00  0.00     0.035 C 
BRANCH  10  11
ATOM     11  C   UNL     1      19.430   3.319  18.002  1.00  0.00     0.079 C 
BRANCH  11  12
ATOM     12  C   UNL     1      18.205   4.174  17.805  1.00  0.00     0.130 C 
ATOM     13  O   UNL     1      17.155   3.657  17.454  1.00  0.00    -0.300 OA
ATOM     14  C   UNL     1      18.271   5.655  18.021  1.00  0.00     0.087 C 
ENDBRANCH  11  12
ENDBRANCH  10  11
ENDBRANCH   2  10
TORSDOF 6
ENDMDL
MODEL 9
REMARK VINA RESULT:    -5.273      2.948      6.703
REMARK INTER + INTRA:          -7.483
REMARK INTER:                  -6.799
REMARK INTRA:                  -0.684
REMARK UNBOUND:                -0.360
REMARK SMILES CC(=O)CCC=C(C)CCC=C(C)C
REMARK SMILES IDX 7 1 6 2 8 3 9 4 10 5 11 6 13 7 12 8 14 9 5 10 4 11 2 12 3 13
REMARK SMILES IDX 1 14
REMARK H PARENT
REMARK Flexibility Score: inf
ROOT
ATOM      1  C   UNL     1      19.594  -0.046  21.762  1.00  0.00    -0.077 C 
ATOM      2  C   UNL     1      19.857  -0.492  23.012  1.00  0.00    -0.028 C 
ATOM      3  C   UNL     1      19.487  -1.061  20.652  1.00  0.00     0.039 C 
ENDROOT
BRANCH   1   4
ATOM      4  C   UNL     1      19.368   1.419  21.437  1.00  0.00     0.034 C 
BRANCH   4   5
ATOM      5  C   UNL     1      19.435   1.686  19.925  1.00  0.00     0.032 C 
BRANCH   5   6
ATOM      6  C   UNL     1      19.632   3.152  19.621  1.00  0.00    -0.028 C 
ATOM      7  C   UNL     1      17.756   3.237  17.965  1.00  0.00     0.039 C 
ATOM      8  C   UNL     1      18.868   3.869  18.769  1.00  0.00    -0.080 C 
ATOM      9  C   UNL     1      19.157   5.339  18.608  1.00  0.00     0.039 C 
ENDBRANCH   5   6
ENDBRANCH   4   5
ENDBRANCH   1   4
BRANCH   2  10
ATOM     10  C   UNL     1      20.071   0.392  24.218  1.00  0.00     0.035 C 
BRANCH  10  11
ATOM     11  C   UNL     1      18.828   0.431  25.117  1.00  0.00     0.079 C 
BRANCH  11  12
ATOM     12  C   UNL     1      17.897   1.552  24.733  1.00  0.00     0.130 C 
ATOM     13  O   UNL     1      16.818   1.296  24.219  1.00  0.00    -0.300 OA
ATOM     14  C   UNL     1      18.293   2.979  24.961  1.00  0.00     0.087 C 
ENDBRANCH  11  12
ENDBRANCH  10  11
ENDBRANCH   2  10
TORSDOF 6
ENDMDL
