MODEL 1
REMARK VINA RESULT:    -1.100      0.000      0.000
REMARK INTER + INTRA:          -1.243
REMARK INTER:                  -1.196
REMARK INTRA:                  -0.047
REMARK UNBOUND:                -0.047
REMARK SMILES COc1cc2ccc(=O)oc2cc1O
REMARK SMILES IDX 3 1 13 2 12 3 11 4 5 5 4 6 6 7 7 8 8 9 9 10 10 11 2 12 1 13
REMARK SMILES IDX 14 14
REMARK H PARENT 14 15
REMARK Flexibility Score: inf
ROOT
ATOM      1  C   UNL     1     -14.588  -2.002  21.662  1.00  0.00     0.161 A 
ATOM      2  C   UNL     1     -13.246  -2.392  21.484  1.00  0.00     0.161 A 
ATOM      3  C   UNL     1     -12.742  -2.620  20.197  1.00  0.00     0.098 A 
ATOM      4  C   UNL     1     -13.562  -2.461  19.079  1.00  0.00     0.142 A 
ATOM      5  C   UNL     1     -14.908  -2.071  19.246  1.00  0.00     0.022 A 
ATOM      6  C   UNL     1     -15.416  -1.843  20.532  1.00  0.00     0.062 A 
ATOM      7  C   UNL     1     -15.704  -1.921  18.106  1.00  0.00     0.019 A 
ATOM      8  C   UNL     1     -15.152  -2.160  16.848  1.00  0.00     0.094 A 
ATOM      9  C   UNL     1     -13.810  -2.544  16.759  1.00  0.00     0.336 A 
ATOM     10  O   UNL     1     -13.292  -2.764  15.633  1.00  0.00    -0.246 OA
ATOM     11  O   UNL     1     -13.074  -2.679  17.860  1.00  0.00    -0.423 OA
ENDROOT
BRANCH   1  12
ATOM     12  O   UNL     1     -15.060  -1.783  22.965  1.00  0.00    -0.493 OA
ATOM     13  C   UNL     1     -14.988  -0.538  23.652  1.00  0.00     0.278 C 
ENDBRANCH   1  12
BRANCH   2  14
ATOM     14  O   UNL     1     -12.395  -2.561  22.576  1.00  0.00    -0.504 OA
ATOM     15  H   UNL     1     -12.239  -3.466  23.004  1.00  0.00     0.293 HD
ENDBRANCH   2  14
TORSDOF 2
ENDMDL
MODEL 2
REMARK VINA RESULT:    -0.748      3.732      5.411
REMARK INTER + INTRA:          -0.860
REMARK INTER:                  -0.815
REMARK INTRA:                  -0.045
REMARK UNBOUND:                -0.047
REMARK SMILES COc1cc2ccc(=O)oc2cc1O
REMARK SMILES IDX 3 1 13 2 12 3 11 4 5 5 4 6 6 7 7 8 8 9 9 10 10 11 2 12 1 13
REMARK SMILES IDX 14 14
REMARK H PARENT 14 15
REMARK Flexibility Score: inf
ROOT
ATOM      1  C   UNL     1     -14.483  -4.217  15.799  1.00  0.00     0.161 A 
ATOM      2  C   UNL     1     -13.461  -3.609  16.555  1.00  0.00     0.161 A 
ATOM      3  C   UNL     1     -13.662  -2.345  17.125  1.00  0.00     0.098 A 
ATOM      4  C   UNL     1     -14.875  -1.676  16.952  1.00  0.00     0.142 A 
ATOM      5  C   UNL     1     -15.905  -2.277  16.196  1.00  0.00     0.022 A 
ATOM      6  C   UNL     1     -15.708  -3.540  15.624  1.00  0.00     0.062 A 
ATOM      7  C   UNL     1     -17.108  -1.581  16.040  1.00  0.00     0.019 A 
ATOM      8  C   UNL     1     -17.256  -0.326  16.629  1.00  0.00     0.094 A 
ATOM      9  C   UNL     1     -16.192   0.207  17.365  1.00  0.00     0.336 A 
ATOM     10  O   UNL     1     -16.304   1.339  17.904  1.00  0.00    -0.246 OA
ATOM     11  O   UNL     1     -15.057  -0.476  17.497  1.00  0.00    -0.423 OA
ENDROOT
BRANCH   1  12
ATOM     12  O   UNL     1     -14.248  -5.483  15.242  1.00  0.00    -0.493 OA
ATOM     13  C   UNL     1     -15.268  -6.407  14.876  1.00  0.00     0.278 C 
ENDBRANCH   1  12
BRANCH   2  14
ATOM     14  O   UNL     1     -12.236  -4.244  16.751  1.00  0.00    -0.504 OA
ATOM     15  H   UNL     1     -12.162  -5.246  16.881  1.00  0.00     0.293 HD
ENDBRANCH   2  14
TORSDOF 2
ENDMDL
MODEL 3
REMARK VINA RESULT:    -0.317      1.201      4.943
REMARK INTER + INTRA:          -0.392
REMARK INTER:                  -0.344
REMARK INTRA:                  -0.048
REMARK UNBOUND:                -0.047
REMARK SMILES COc1cc2ccc(=O)oc2cc1O
REMARK SMILES IDX 3 1 13 2 12 3 11 4 5 5 4 6 6 7 7 8 8 9 9 10 10 11 2 12 1 13
REMARK SMILES IDX 14 14
REMARK H PARENT 14 15
REMARK Flexibility Score: inf
ROOT
ATOM      1  C   UNL     1     -15.081  -2.426  16.877  1.00  0.00     0.161 A 
ATOM      2  C   UNL     1     -13.673  -2.460  16.847  1.00  0.00     0.161 A 
ATOM      3  C   UNL     1     -12.940  -2.428  18.040  1.00  0.00     0.098 A 
ATOM      4  C   UNL     1     -13.597  -2.365  19.271  1.00  0.00     0.142 A 
ATOM      5  C   UNL     1     -15.007  -2.330  19.312  1.00  0.00     0.022 A 
ATOM      6  C   UNL     1     -15.743  -2.361  18.120  1.00  0.00     0.062 A 
ATOM      7  C   UNL     1     -15.635  -2.266  20.560  1.00  0.00     0.019 A 
ATOM      8  C   UNL     1     -14.858  -2.237  21.718  1.00  0.00     0.094 A 
ATOM      9  C   UNL     1     -13.465  -2.275  21.600  1.00  0.00     0.336 A 
ATOM     10  O   UNL     1     -12.746  -2.250  22.633  1.00  0.00    -0.246 OA
ATOM     11  O   UNL     1     -12.893  -2.336  20.400  1.00  0.00    -0.423 OA
ENDROOT
BRANCH   1  12
ATOM     12  O   UNL     1     -15.784  -2.458  15.663  1.00  0.00    -0.493 OA
ATOM     13  C   UNL     1     -16.969  -1.716  15.394  1.00  0.00     0.278 C 
ENDBRANCH   1  12
BRANCH   2  14
ATOM     14  O   UNL     1     -12.980  -2.524  15.638  1.00  0.00    -0.504 OA
ATOM     15  H   UNL     1     -13.412  -2.861  14.786  1.00  0.00     0.293 HD
ENDBRANCH   2  14
TORSDOF 2
ENDMDL
MODEL 4
REMARK VINA RESULT:    -0.297      1.266      5.433
REMARK INTER + INTRA:          -0.370
REMARK INTER:                  -0.324
REMARK INTRA:                  -0.046
REMARK UNBOUND:                -0.047
REMARK SMILES COc1cc2ccc(=O)oc2cc1O
REMARK SMILES IDX 3 1 13 2 12 3 11 4 5 5 4 6 6 7 7 8 8 9 9 10 10 11 2 12 1 13
REMARK SMILES IDX 14 14
REMARK H PARENT 14 15
REMARK Flexibility Score: inf
ROOT
ATOM      1  C   UNL     1     -14.152  -2.431  17.059  1.00  0.00     0.161 A 
ATOM      2  C   UNL     1     -15.421  -1.870  17.302  1.00  0.00     0.161 A 
ATOM      3  C   UNL     1     -15.824  -1.578  18.611  1.00  0.00     0.098 A 
ATOM      4  C   UNL     1     -14.974  -1.838  19.688  1.00  0.00     0.142 A 
ATOM      5  C   UNL     1     -13.701  -2.401  19.455  1.00  0.00     0.022 A 
ATOM      6  C   UNL     1     -13.294  -2.695  18.147  1.00  0.00     0.062 A 
ATOM      7  C   UNL     1     -12.873  -2.651  20.554  1.00  0.00     0.019 A 
ATOM      8  C   UNL     1     -13.324  -2.341  21.837  1.00  0.00     0.094 A 
ATOM      9  C   UNL     1     -14.598  -1.785  21.991  1.00  0.00     0.336 A 
ATOM     10  O   UNL     1     -15.024  -1.498  23.140  1.00  0.00    -0.246 OA
ATOM     11  O   UNL     1     -15.366  -1.558  20.928  1.00  0.00    -0.423 OA
ENDROOT
BRANCH   1  12
ATOM     12  O   UNL     1     -13.779  -2.712  15.735  1.00  0.00    -0.493 OA
ATOM     13  C   UNL     1     -12.448  -2.640  15.238  1.00  0.00     0.278 C 
ENDBRANCH   1  12
BRANCH   2  14
ATOM     14  O   UNL     1     -16.299  -1.594  16.254  1.00  0.00    -0.504 OA
ATOM     15  H   UNL     1     -16.619  -0.655  16.051  1.00  0.00     0.293 HD
ENDBRANCH   2  14
TORSDOF 2
ENDMDL
MODEL 5
REMARK VINA RESULT:     0.375      1.516      2.422
REMARK INTER + INTRA:           0.361
REMARK INTER:                  -0.157
REMARK INTRA:                   0.518
REMARK UNBOUND:                -0.047
REMARK SMILES COc1cc2ccc(=O)oc2cc1O
REMARK SMILES IDX 3 1 13 2 12 3 11 4 5 5 4 6 6 7 7 8 8 9 9 10 10 11 2 12 1 13
REMARK SMILES IDX 14 14
REMARK H PARENT 14 15
REMARK Flexibility Score: inf
ROOT
ATOM      1  C   UNL     1     -13.583  -2.423  20.824  1.00  0.00     0.161 A 
ATOM      2  C   UNL     1     -14.958  -2.169  20.993  1.00  0.00     0.161 A 
ATOM      3  C   UNL     1     -15.793  -2.033  19.877  1.00  0.00     0.098 A 
ATOM      4  C   UNL     1     -15.272  -2.149  18.587  1.00  0.00     0.142 A 
ATOM      5  C   UNL     1     -13.896  -2.404  18.407  1.00  0.00     0.022 A 
ATOM      6  C   UNL     1     -13.057  -2.540  19.521  1.00  0.00     0.062 A 
ATOM      7  C   UNL     1     -13.405  -2.514  17.102  1.00  0.00     0.019 A 
ATOM      8  C   UNL     1     -14.280  -2.371  16.025  1.00  0.00     0.094 A 
ATOM      9  C   UNL     1     -15.632  -2.119  16.280  1.00  0.00     0.336 A 
ATOM     10  O   UNL     1     -16.439  -1.986  15.323  1.00  0.00    -0.246 OA
ATOM     11  O   UNL     1     -16.073  -2.018  17.532  1.00  0.00    -0.423 OA
ENDROOT
BRANCH   1  12
ATOM     12  O   UNL     1     -12.774  -2.554  21.964  1.00  0.00    -0.493 OA
ATOM     13  C   UNL     1     -12.884  -1.744  23.130  1.00  0.00     0.278 C 
ENDBRANCH   1  12
BRANCH   2  14
ATOM     14  O   UNL     1     -15.516  -2.046  22.266  1.00  0.00    -0.504 OA
ATOM     15  H   UNL     1     -16.339  -2.566  22.546  1.00  0.00     0.293 HD
ENDBRANCH   2  14
TORSDOF 2
ENDMDL
