MODEL 1
REMARK VINA RESULT:    -3.601      0.000      0.000
REMARK INTER + INTRA:          -5.657
REMARK INTER:                  -5.074
REMARK INTRA:                  -0.582
REMARK UNBOUND:                -0.582
REMARK SMILES CCCCCCCCC(=O)[O-]
REMARK SMILES IDX 6 1 7 2 8 3 9 4 10 5 11 6 5 7 4 8 3 9 2 10 1 11
REMARK H PARENT
REMARK Flexibility Score: inf
ROOT
ATOM      1  C   UNL     1     157.849 172.916 163.014  1.00  0.00     0.000 C 
ENDROOT
BRANCH   1   2
ATOM      2  C   UNL     1     158.553 173.951 162.118  1.00  0.00     0.006 C 
BRANCH   2   3
ATOM      3  C   UNL     1     157.602 174.997 161.511  1.00  0.00     0.053 C 
BRANCH   3   4
ATOM      4  C   UNL     1     156.672 174.407 160.494  1.00  0.00     0.041 C 
ATOM      5  O   UNL     1     155.462 174.213 160.781  1.00  0.00    -0.550 OA
ATOM      6  O   UNL     1     157.147 174.043 159.240  1.00  0.00    -0.550 OA
ENDBRANCH   3   4
ENDBRANCH   2   3
ENDBRANCH   1   2
BRANCH   1   7
ATOM      7  C   UNL     1     157.234 173.535 164.280  1.00  0.00     0.000 C 
BRANCH   7   8
ATOM      8  C   UNL     1     155.766 173.121 164.496  1.00  0.00    -0.000 C 
BRANCH   8   9
ATOM      9  C   UNL     1     155.257 172.029 163.538  1.00  0.00    -0.000 C 
BRANCH   9  10
ATOM     10  C   UNL     1     154.457 170.930 164.254  1.00  0.00    -0.003 C 
ATOM     11  C   UNL     1     154.465 171.141 165.765  1.00  0.00     0.004 C 
ENDBRANCH   9  10
ENDBRANCH   8   9
ENDBRANCH   7   8
ENDBRANCH   1   7
TORSDOF 7
ENDMDL
MODEL 2
REMARK VINA RESULT:    -3.578      3.001      3.988
REMARK INTER + INTRA:          -5.624
REMARK INTER:                  -5.028
REMARK INTRA:                  -0.596
REMARK UNBOUND:                -0.582
REMARK SMILES CCCCCCCCC(=O)[O-]
REMARK SMILES IDX 6 1 7 2 8 3 9 4 10 5 11 6 5 7 4 8 3 9 2 10 1 11
REMARK H PARENT
REMARK Flexibility Score: inf
ROOT
ATOM      1  C   UNL     1     155.330 172.038 163.638  1.00  0.00     0.000 C 
ENDROOT
BRANCH   1   2
ATOM      2  C   UNL     1     154.433 173.065 162.922  1.00  0.00     0.006 C 
BRANCH   2   3
ATOM      3  C   UNL     1     154.993 174.497 162.938  1.00  0.00     0.053 C 
BRANCH   3   4
ATOM      4  C   UNL     1     155.078 175.067 164.322  1.00  0.00     0.041 C 
ATOM      5  O   UNL     1     156.130 175.639 164.707  1.00  0.00    -0.550 OA
ATOM      6  O   UNL     1     154.005 174.940 165.197  1.00  0.00    -0.550 OA
ENDBRANCH   3   4
ENDBRANCH   2   3
ENDBRANCH   1   2
BRANCH   1   7
ATOM      7  C   UNL     1     154.532 171.017 164.466  1.00  0.00     0.000 C 
BRANCH   7   8
ATOM      8  C   UNL     1     154.212 171.519 165.887  1.00  0.00    -0.000 C 
BRANCH   8   9
ATOM      9  C   UNL     1     154.915 170.747 167.017  1.00  0.00    -0.000 C 
BRANCH   9  10
ATOM     10  C   UNL     1     155.785 171.647 167.906  1.00  0.00    -0.003 C 
ATOM     11  C   UNL     1     156.363 172.813 167.109  1.00  0.00     0.004 C 
ENDBRANCH   9  10
ENDBRANCH   8   9
ENDBRANCH   7   8
ENDBRANCH   1   7
TORSDOF 7
ENDMDL
MODEL 3
REMARK VINA RESULT:    -3.558      2.793      4.811
REMARK INTER + INTRA:          -5.597
REMARK INTER:                  -4.885
REMARK INTRA:                  -0.712
REMARK UNBOUND:                -0.582
REMARK SMILES CCCCCCCCC(=O)[O-]
REMARK SMILES IDX 6 1 7 2 8 3 9 4 10 5 11 6 5 7 4 8 3 9 2 10 1 11
REMARK H PARENT
REMARK Flexibility Score: inf
ROOT
ATOM      1  C   UNL     1     156.318 172.620 167.136  1.00  0.00     0.000 C 
ENDROOT
BRANCH   1   2
ATOM      2  C   UNL     1     154.851 172.422 166.713  1.00  0.00     0.006 C 
BRANCH   2   3
ATOM      3  C   UNL     1     154.572 171.061 166.053  1.00  0.00     0.053 C 
BRANCH   3   4
ATOM      4  C   UNL     1     154.205 171.188 164.606  1.00  0.00     0.041 C 
ATOM      5  O   UNL     1     154.604 170.331 163.774  1.00  0.00    -0.550 OA
ATOM      6  O   UNL     1     153.449 172.269 164.168  1.00  0.00    -0.550 OA
ENDBRANCH   3   4
ENDBRANCH   2   3
ENDBRANCH   1   2
BRANCH   1   7
ATOM      7  C   UNL     1     157.059 173.656 166.275  1.00  0.00     0.000 C 
BRANCH   7   8
ATOM      8  C   UNL     1     156.128 174.397 165.297  1.00  0.00    -0.000 C 
BRANCH   8   9
ATOM      9  C   UNL     1     156.591 174.382 163.829  1.00  0.00    -0.000 C 
BRANCH   9  10
ATOM     10  C   UNL     1     157.033 172.990 163.355  1.00  0.00    -0.003 C 
ATOM     11  C   UNL     1     158.482 173.006 162.878  1.00  0.00     0.004 C 
ENDBRANCH   9  10
ENDBRANCH   8   9
ENDBRANCH   7   8
ENDBRANCH   1   7
TORSDOF 7
ENDMDL
MODEL 4
REMARK VINA RESULT:    -3.529      2.499      4.743
REMARK INTER + INTRA:          -5.555
REMARK INTER:                  -5.090
REMARK INTRA:                  -0.465
REMARK UNBOUND:                -0.582
REMARK SMILES CCCCCCCCC(=O)[O-]
REMARK SMILES IDX 6 1 7 2 8 3 9 4 10 5 11 6 5 7 4 8 3 9 2 10 1 11
REMARK H PARENT
REMARK Flexibility Score: inf
ROOT
ATOM      1  C   UNL     1     156.806 173.073 163.768  1.00  0.00     0.000 C 
ENDROOT
BRANCH   1   2
ATOM      2  C   UNL     1     156.861 174.082 164.928  1.00  0.00     0.006 C 
BRANCH   2   3
ATOM      3  C   UNL     1     155.904 175.275 164.762  1.00  0.00     0.053 C 
BRANCH   3   4
ATOM      4  C   UNL     1     154.503 174.847 164.445  1.00  0.00     0.041 C 
ATOM      5  O   UNL     1     153.987 175.140 163.335  1.00  0.00    -0.550 OA
ATOM      6  O   UNL     1     153.754 174.151 165.387  1.00  0.00    -0.550 OA
ENDBRANCH   3   4
ENDBRANCH   2   3
ENDBRANCH   1   2
BRANCH   1   7
ATOM      7  C   UNL     1     158.100 173.039 162.937  1.00  0.00     0.000 C 
BRANCH   7   8
ATOM      8  C   UNL     1     158.143 174.131 161.853  1.00  0.00    -0.000 C 
BRANCH   8   9
ATOM      9  C   UNL     1     156.857 174.262 161.017  1.00  0.00    -0.000 C 
BRANCH   9  10
ATOM     10  C   UNL     1     157.078 175.001 159.689  1.00  0.00    -0.003 C 
ATOM     11  C   UNL     1     156.998 174.041 158.506  1.00  0.00     0.004 C 
ENDBRANCH   9  10
ENDBRANCH   8   9
ENDBRANCH   7   8
ENDBRANCH   1   7
TORSDOF 7
ENDMDL
MODEL 5
REMARK VINA RESULT:    -3.500      1.871      2.649
REMARK INTER + INTRA:          -5.515
REMARK INTER:                  -4.773
REMARK INTRA:                  -0.742
REMARK UNBOUND:                -0.582
REMARK SMILES CCCCCCCCC(=O)[O-]
REMARK SMILES IDX 6 1 7 2 8 3 9 4 10 5 11 6 5 7 4 8 3 9 2 10 1 11
REMARK H PARENT
REMARK Flexibility Score: inf
ROOT
ATOM      1  C   UNL     1     156.192 174.696 164.997  1.00  0.00     0.000 C 
ENDROOT
BRANCH   1   2
ATOM      2  C   UNL     1     156.025 174.229 163.540  1.00  0.00     0.006 C 
BRANCH   2   3
ATOM      3  C   UNL     1     157.043 173.160 163.109  1.00  0.00     0.053 C 
BRANCH   3   4
ATOM      4  C   UNL     1     158.185 173.735 162.327  1.00  0.00     0.041 C 
ATOM      5  O   UNL     1     159.368 173.577 162.726  1.00  0.00    -0.550 OA
ATOM      6  O   UNL     1     157.942 174.472 161.174  1.00  0.00    -0.550 OA
ENDBRANCH   3   4
ENDBRANCH   2   3
ENDBRANCH   1   2
BRANCH   1   7
ATOM      7  C   UNL     1     156.735 173.595 165.923  1.00  0.00     0.000 C 
BRANCH   7   8
ATOM      8  C   UNL     1     155.669 173.049 166.892  1.00  0.00    -0.000 C 
BRANCH   8   9
ATOM      9  C   UNL     1     155.127 171.654 166.533  1.00  0.00    -0.000 C 
BRANCH   9  10
ATOM     10  C   UNL     1     154.024 171.697 165.465  1.00  0.00    -0.003 C 
ATOM     11  C   UNL     1     154.421 170.893 164.231  1.00  0.00     0.004 C 
ENDBRANCH   9  10
ENDBRANCH   8   9
ENDBRANCH   7   8
ENDBRANCH   1   7
TORSDOF 7
ENDMDL
MODEL 6
REMARK VINA RESULT:    -3.492      2.508      3.103
REMARK INTER + INTRA:          -5.504
REMARK INTER:                  -4.881
REMARK INTRA:                  -0.622
REMARK UNBOUND:                -0.582
REMARK SMILES CCCCCCCCC(=O)[O-]
REMARK SMILES IDX 6 1 7 2 8 3 9 4 10 5 11 6 5 7 4 8 3 9 2 10 1 11
REMARK H PARENT
REMARK Flexibility Score: inf
ROOT
ATOM      1  C   UNL     1     157.707 173.680 164.181  1.00  0.00     0.000 C 
ENDROOT
BRANCH   1   2
ATOM      2  C   UNL     1     156.580 172.794 163.619  1.00  0.00     0.006 C 
BRANCH   2   3
ATOM      3  C   UNL     1     155.683 173.505 162.592  1.00  0.00     0.053 C 
BRANCH   3   4
ATOM      4  C   UNL     1     154.279 173.690 163.086  1.00  0.00     0.041 C 
ATOM      5  O   UNL     1     153.983 174.691 163.789  1.00  0.00    -0.550 OA
ATOM      6  O   UNL     1     153.305 172.743 162.794  1.00  0.00    -0.550 OA
ENDBRANCH   3   4
ENDBRANCH   2   3
ENDBRANCH   1   2
BRANCH   1   7
ATOM      7  C   UNL     1     157.564 173.954 165.687  1.00  0.00     0.000 C 
BRANCH   7   8
ATOM      8  C   UNL     1     156.261 173.385 166.277  1.00  0.00    -0.000 C 
BRANCH   8   9
ATOM      9  C   UNL     1     156.447 172.526 167.541  1.00  0.00    -0.000 C 
BRANCH   9  10
ATOM     10  C   UNL     1     155.630 171.226 167.507  1.00  0.00    -0.003 C 
ATOM     11  C   UNL     1     154.649 171.223 166.339  1.00  0.00     0.004 C 
ENDBRANCH   9  10
ENDBRANCH   8   9
ENDBRANCH   7   8
ENDBRANCH   1   7
TORSDOF 7
ENDMDL
MODEL 7
REMARK VINA RESULT:    -3.424      2.102      3.390
REMARK INTER + INTRA:          -5.408
REMARK INTER:                  -4.827
REMARK INTRA:                  -0.581
REMARK UNBOUND:                -0.582
REMARK SMILES CCCCCCCCC(=O)[O-]
REMARK SMILES IDX 6 1 7 2 8 3 9 4 10 5 11 6 5 7 4 8 3 9 2 10 1 11
REMARK H PARENT
REMARK Flexibility Score: inf
ROOT
ATOM      1  C   UNL     1     155.488 172.536 163.804  1.00  0.00     0.000 C 
ENDROOT
BRANCH   1   2
ATOM      2  C   UNL     1     156.038 173.675 164.681  1.00  0.00     0.006 C 
BRANCH   2   3
ATOM      3  C   UNL     1     157.569 173.817 164.628  1.00  0.00     0.053 C 
BRANCH   3   4
ATOM      4  C   UNL     1     158.085 173.961 163.228  1.00  0.00     0.041 C 
ATOM      5  O   UNL     1     158.717 173.017 162.686  1.00  0.00    -0.550 OA
ATOM      6  O   UNL     1     157.895 175.149 162.532  1.00  0.00    -0.550 OA
ENDBRANCH   3   4
ENDBRANCH   2   3
ENDBRANCH   1   2
BRANCH   1   7
ATOM      7  C   UNL     1     154.741 171.461 164.611  1.00  0.00     0.000 C 
BRANCH   7   8
ATOM      8  C   UNL     1     154.662 171.788 166.114  1.00  0.00    -0.000 C 
BRANCH   8   9
ATOM      9  C   UNL     1     154.776 170.569 167.046  1.00  0.00    -0.000 C 
BRANCH   9  10
ATOM     10  C   UNL     1     155.876 170.726 168.106  1.00  0.00    -0.003 C 
ATOM     11  C   UNL     1     156.540 172.096 168.010  1.00  0.00     0.004 C 
ENDBRANCH   9  10
ENDBRANCH   8   9
ENDBRANCH   7   8
ENDBRANCH   1   7
TORSDOF 7
ENDMDL
MODEL 8
REMARK VINA RESULT:    -3.385      1.662      2.538
REMARK INTER + INTRA:          -5.353
REMARK INTER:                  -4.555
REMARK INTRA:                  -0.798
REMARK UNBOUND:                -0.582
REMARK SMILES CCCCCCCCC(=O)[O-]
REMARK SMILES IDX 6 1 7 2 8 3 9 4 10 5 11 6 5 7 4 8 3 9 2 10 1 11
REMARK H PARENT
REMARK Flexibility Score: inf
ROOT
ATOM      1  C   UNL     1     156.532 174.621 165.300  1.00  0.00     0.000 C 
ENDROOT
BRANCH   1   2
ATOM      2  C   UNL     1     157.256 173.512 164.515  1.00  0.00     0.006 C 
BRANCH   2   3
ATOM      3  C   UNL     1     156.490 173.026 163.274  1.00  0.00     0.053 C 
BRANCH   3   4
ATOM      4  C   UNL     1     156.854 173.791 162.037  1.00  0.00     0.041 C 
ATOM      5  O   UNL     1     158.059 174.064 161.795  1.00  0.00    -0.550 OA
ATOM      6  O   UNL     1     155.862 174.228 161.167  1.00  0.00    -0.550 OA
ENDBRANCH   3   4
ENDBRANCH   2   3
ENDBRANCH   1   2
BRANCH   1   7
ATOM      7  C   UNL     1     155.004 174.578 165.131  1.00  0.00     0.000 C 
BRANCH   7   8
ATOM      8  C   UNL     1     154.294 173.850 166.288  1.00  0.00    -0.000 C 
BRANCH   8   9
ATOM      9  C   UNL     1     153.718 172.470 165.924  1.00  0.00    -0.000 C 
BRANCH   9  10
ATOM     10  C   UNL     1     154.698 171.320 166.201  1.00  0.00    -0.003 C 
ATOM     11  C   UNL     1     155.549 171.609 167.434  1.00  0.00     0.004 C 
ENDBRANCH   9  10
ENDBRANCH   8   9
ENDBRANCH   7   8
ENDBRANCH   1   7
TORSDOF 7
ENDMDL
MODEL 9
REMARK VINA RESULT:    -3.349      1.979      2.869
REMARK INTER + INTRA:          -5.301
REMARK INTER:                  -4.592
REMARK INTRA:                  -0.710
REMARK UNBOUND:                -0.582
REMARK SMILES CCCCCCCCC(=O)[O-]
REMARK SMILES IDX 6 1 7 2 8 3 9 4 10 5 11 6 5 7 4 8 3 9 2 10 1 11
REMARK H PARENT
REMARK Flexibility Score: inf
ROOT
ATOM      1  C   UNL     1     157.737 174.419 162.340  1.00  0.00     0.000 C 
ENDROOT
BRANCH   1   2
ATOM      2  C   UNL     1     156.566 174.047 161.413  1.00  0.00     0.006 C 
BRANCH   2   3
ATOM      3  C   UNL     1     155.259 173.732 162.159  1.00  0.00     0.053 C 
BRANCH   3   4
ATOM      4  C   UNL     1     154.529 174.969 162.589  1.00  0.00     0.041 C 
ATOM      5  O   UNL     1     154.035 175.043 163.744  1.00  0.00    -0.550 OA
ATOM      6  O   UNL     1     154.368 176.028 161.704  1.00  0.00    -0.550 OA
ENDBRANCH   3   4
ENDBRANCH   2   3
ENDBRANCH   1   2
BRANCH   1   7
ATOM      7  C   UNL     1     158.043 173.337 163.389  1.00  0.00     0.000 C 
BRANCH   7   8
ATOM      8  C   UNL     1     158.270 173.917 164.797  1.00  0.00    -0.000 C 
BRANCH   8   9
ATOM      9  C   UNL     1     156.986 174.312 165.547  1.00  0.00    -0.000 C 
BRANCH   9  10
ATOM     10  C   UNL     1     156.468 173.203 166.474  1.00  0.00    -0.003 C 
ATOM     11  C   UNL     1     155.305 172.451 165.834  1.00  0.00     0.004 C 
ENDBRANCH   9  10
ENDBRANCH   8   9
ENDBRANCH   7   8
ENDBRANCH   1   7
TORSDOF 7
ENDMDL
