MODEL 1
REMARK VINA RESULT:    -4.722      0.000      0.000
REMARK INTER + INTRA:          -5.124
REMARK INTER:                  -4.998
REMARK INTRA:                  -0.125
REMARK UNBOUND:                -0.125
REMARK SMILES C=C(C)[C@H]1CC=C(C)CC1
REMARK SMILES IDX 8 1 7 2 6 3 5 4 4 5 10 6 9 7 2 8 1 9 3 10
REMARK H PARENT
REMARK Flexibility Score: inf
ROOT
ATOM      1  C   UNL     1      -2.606  21.762  30.385  1.00  0.00     0.039 C 
ATOM      2  C   UNL     1      -1.848  20.519  30.007  1.00  0.00    -0.077 C 
ATOM      3  C   UNL     1      -2.516  19.495  29.432  1.00  0.00    -0.027 C 
ATOM      4  C   UNL     1      -1.858  18.187  29.068  1.00  0.00     0.035 C 
ATOM      5  C   UNL     1      -0.336  18.333  28.888  1.00  0.00     0.018 C 
ATOM      6  C   UNL     1       0.259  19.096  30.082  1.00  0.00     0.013 C 
ATOM      7  C   UNL     1      -0.340  20.505  30.159  1.00  0.00     0.031 C 
ENDROOT
BRANCH   5   8
ATOM      8  C   UNL     1       0.337  16.980  28.691  1.00  0.00    -0.077 C 
ATOM      9  C   UNL     1       0.091  15.950  29.519  1.00  0.00     0.008 C 
ATOM     10  C   UNL     1       1.304  16.776  27.554  1.00  0.00     0.039 C 
ENDBRANCH   5   8
TORSDOF 1
ENDMDL
MODEL 2
REMARK VINA RESULT:    -4.445      0.643      1.704
REMARK INTER + INTRA:          -4.831
REMARK INTER:                  -4.708
REMARK INTRA:                  -0.122
REMARK UNBOUND:                -0.125
REMARK SMILES C=C(C)[C@H]1CC=C(C)CC1
REMARK SMILES IDX 8 1 7 2 6 3 5 4 4 5 10 6 9 7 2 8 1 9 3 10
REMARK H PARENT
REMARK Flexibility Score: inf
ROOT
ATOM      1  C   UNL     1      -1.974  22.318  30.762  1.00  0.00     0.039 C 
ATOM      2  C   UNL     1      -1.490  21.002  30.217  1.00  0.00    -0.077 C 
ATOM      3  C   UNL     1      -0.169  20.723  30.257  1.00  0.00    -0.027 C 
ATOM      4  C   UNL     1       0.421  19.457  29.687  1.00  0.00     0.035 C 
ATOM      5  C   UNL     1      -0.618  18.326  29.586  1.00  0.00     0.018 C 
ATOM      6  C   UNL     1      -1.899  18.852  28.919  1.00  0.00     0.013 C 
ATOM      7  C   UNL     1      -2.511  19.977  29.764  1.00  0.00     0.031 C 
ENDROOT
BRANCH   5   8
ATOM      8  C   UNL     1      -0.058  17.114  28.852  1.00  0.00    -0.077 C 
ATOM      9  C   UNL     1      -0.058  15.893  29.416  1.00  0.00     0.008 C 
ATOM     10  C   UNL     1       0.516  17.269  27.468  1.00  0.00     0.039 C 
ENDBRANCH   5   8
TORSDOF 1
ENDMDL
MODEL 3
REMARK VINA RESULT:    -4.261      1.374      5.024
REMARK INTER + INTRA:          -4.635
REMARK INTER:                  -4.514
REMARK INTRA:                  -0.122
REMARK UNBOUND:                -0.125
REMARK SMILES C=C(C)[C@H]1CC=C(C)CC1
REMARK SMILES IDX 8 1 7 2 6 3 5 4 4 5 10 6 9 7 2 8 1 9 3 10
REMARK H PARENT
REMARK Flexibility Score: inf
ROOT
ATOM      1  C   UNL     1       2.807  14.316  27.468  1.00  0.00     0.039 C 
ATOM      2  C   UNL     1       1.923  15.419  27.981  1.00  0.00    -0.077 C 
ATOM      3  C   UNL     1       1.809  16.555  27.260  1.00  0.00    -0.027 C 
ATOM      4  C   UNL     1       0.992  17.739  27.716  1.00  0.00     0.035 C 
ATOM      5  C   UNL     1      -0.095  17.339  28.730  1.00  0.00     0.018 C 
ATOM      6  C   UNL     1       0.518  16.458  29.830  1.00  0.00     0.013 C 
ATOM      7  C   UNL     1       1.086  15.171  29.221  1.00  0.00     0.031 C 
ENDROOT
BRANCH   5   8
ATOM      8  C   UNL     1      -0.795  18.561  29.312  1.00  0.00    -0.077 C 
ATOM      9  C   UNL     1      -2.117  18.751  29.153  1.00  0.00     0.008 C 
ATOM     10  C   UNL     1      -0.006  19.589  30.081  1.00  0.00     0.039 C 
ENDBRANCH   5   8
TORSDOF 1
ENDMDL
MODEL 4
REMARK VINA RESULT:    -4.237      2.338      4.830
REMARK INTER + INTRA:          -4.611
REMARK INTER:                  -4.483
REMARK INTRA:                  -0.128
REMARK UNBOUND:                -0.125
REMARK SMILES C=C(C)[C@H]1CC=C(C)CC1
REMARK SMILES IDX 8 1 7 2 6 3 5 4 4 5 10 6 9 7 2 8 1 9 3 10
REMARK H PARENT
REMARK Flexibility Score: inf
ROOT
ATOM      1  C   UNL     1      -3.125  19.074  29.425  1.00  0.00     0.039 C 
ATOM      2  C   UNL     1      -2.133  20.120  29.852  1.00  0.00    -0.077 C 
ATOM      3  C   UNL     1      -0.820  19.804  29.882  1.00  0.00    -0.027 C 
ATOM      4  C   UNL     1       0.246  20.765  30.349  1.00  0.00     0.035 C 
ATOM      5  C   UNL     1      -0.207  22.232  30.241  1.00  0.00     0.018 C 
ATOM      6  C   UNL     1      -1.602  22.393  30.864  1.00  0.00     0.013 C 
ATOM      7  C   UNL     1      -2.621  21.532  30.108  1.00  0.00     0.031 C 
ENDROOT
BRANCH   5   8
ATOM      8  C   UNL     1       0.806  23.179  30.874  1.00  0.00    -0.077 C 
ATOM      9  C   UNL     1       0.726  24.509  30.695  1.00  0.00     0.008 C 
ATOM     10  C   UNL     1       1.928  22.630  31.716  1.00  0.00     0.039 C 
ENDBRANCH   5   8
TORSDOF 1
ENDMDL
MODEL 5
REMARK VINA RESULT:    -4.193     10.385     11.784
REMARK INTER + INTRA:          -4.564
REMARK INTER:                  -4.434
REMARK INTRA:                  -0.130
REMARK UNBOUND:                -0.125
REMARK SMILES C=C(C)[C@H]1CC=C(C)CC1
REMARK SMILES IDX 8 1 7 2 6 3 5 4 4 5 10 6 9 7 2 8 1 9 3 10
REMARK H PARENT
REMARK Flexibility Score: inf
ROOT
ATOM      1  C   UNL     1       8.191  23.030  28.323  1.00  0.00     0.039 C 
ATOM      2  C   UNL     1       9.266  21.979  28.321  1.00  0.00    -0.077 C 
ATOM      3  C   UNL     1       9.687  21.469  29.499  1.00  0.00    -0.027 C 
ATOM      4  C   UNL     1      10.797  20.452  29.604  1.00  0.00     0.035 C 
ATOM      5  C   UNL     1      10.994  19.669  28.294  1.00  0.00     0.018 C 
ATOM      6  C   UNL     1      11.062  20.645  27.109  1.00  0.00     0.013 C 
ATOM      7  C   UNL     1       9.749  21.429  26.993  1.00  0.00     0.031 C 
ENDROOT
BRANCH   5   8
ATOM      8  C   UNL     1      12.224  18.772  28.357  1.00  0.00    -0.077 C 
ATOM      9  C   UNL     1      13.082  18.833  29.390  1.00  0.00     0.008 C 
ATOM     10  C   UNL     1      12.502  17.794  27.245  1.00  0.00     0.039 C 
ENDBRANCH   5   8
TORSDOF 1
ENDMDL
MODEL 6
REMARK VINA RESULT:    -4.189      1.109      4.641
REMARK INTER + INTRA:          -4.560
REMARK INTER:                  -4.432
REMARK INTRA:                  -0.128
REMARK UNBOUND:                -0.125
REMARK SMILES C=C(C)[C@H]1CC=C(C)CC1
REMARK SMILES IDX 8 1 7 2 6 3 5 4 4 5 10 6 9 7 2 8 1 9 3 10
REMARK H PARENT
REMARK Flexibility Score: inf
ROOT
ATOM      1  C   UNL     1       0.912  15.962  29.205  1.00  0.00     0.039 C 
ATOM      2  C   UNL     1       0.411  17.338  29.549  1.00  0.00    -0.077 C 
ATOM      3  C   UNL     1       1.134  18.107  30.392  1.00  0.00    -0.027 C 
ATOM      4  C   UNL     1       0.689  19.477  30.840  1.00  0.00     0.035 C 
ATOM      5  C   UNL     1      -0.309  20.114  29.857  1.00  0.00     0.018 C 
ATOM      6  C   UNL     1      -1.418  19.106  29.515  1.00  0.00     0.013 C 
ATOM      7  C   UNL     1      -0.816  17.870  28.835  1.00  0.00     0.031 C 
ENDROOT
BRANCH   5   8
ATOM      8  C   UNL     1      -0.881  21.416  30.404  1.00  0.00    -0.077 C 
ATOM      9  C   UNL     1      -2.189  21.707  30.294  1.00  0.00     0.008 C 
ATOM     10  C   UNL     1       0.024  22.412  31.082  1.00  0.00     0.039 C 
ENDBRANCH   5   8
TORSDOF 1
ENDMDL
MODEL 7
REMARK VINA RESULT:    -4.187      1.616      4.890
REMARK INTER + INTRA:          -4.557
REMARK INTER:                  -4.428
REMARK INTRA:                  -0.129
REMARK UNBOUND:                -0.125
REMARK SMILES C=C(C)[C@H]1CC=C(C)CC1
REMARK SMILES IDX 8 1 7 2 6 3 5 4 4 5 10 6 9 7 2 8 1 9 3 10
REMARK H PARENT
REMARK Flexibility Score: inf
ROOT
ATOM      1  C   UNL     1       3.953  15.959  26.797  1.00  0.00     0.039 C 
ATOM      2  C   UNL     1       2.894  16.780  27.482  1.00  0.00    -0.077 C 
ATOM      3  C   UNL     1       1.595  16.519  27.223  1.00  0.00    -0.027 C 
ATOM      4  C   UNL     1       0.462  17.321  27.817  1.00  0.00     0.035 C 
ATOM      5  C   UNL     1       0.877  18.041  29.113  1.00  0.00     0.018 C 
ATOM      6  C   UNL     1       2.207  18.780  28.895  1.00  0.00     0.013 C 
ATOM      7  C   UNL     1       3.315  17.781  28.540  1.00  0.00     0.031 C 
ENDROOT
BRANCH   5   8
ATOM      8  C   UNL     1      -0.216  18.981  29.606  1.00  0.00    -0.077 C 
ATOM      9  C   UNL     1       0.072  20.053  30.364  1.00  0.00     0.008 C 
ATOM     10  C   UNL     1      -1.656  18.717  29.250  1.00  0.00     0.039 C 
ENDBRANCH   5   8
TORSDOF 1
ENDMDL
MODEL 8
REMARK VINA RESULT:    -4.097     15.359     17.840
REMARK INTER + INTRA:          -4.461
REMARK INTER:                  -4.333
REMARK INTRA:                  -0.129
REMARK UNBOUND:                -0.125
REMARK SMILES C=C(C)[C@H]1CC=C(C)CC1
REMARK SMILES IDX 8 1 7 2 6 3 5 4 4 5 10 6 9 7 2 8 1 9 3 10
REMARK H PARENT
REMARK Flexibility Score: inf
ROOT
ATOM      1  C   UNL     1       7.893  12.830  12.002  1.00  0.00     0.039 C 
ATOM      2  C   UNL     1       7.965  13.719  13.213  1.00  0.00    -0.077 C 
ATOM      3  C   UNL     1       8.268  13.171  14.410  1.00  0.00    -0.027 C 
ATOM      4  C   UNL     1       8.310  13.968  15.691  1.00  0.00     0.035 C 
ATOM      5  C   UNL     1       8.534  15.469  15.434  1.00  0.00     0.018 C 
ATOM      6  C   UNL     1       7.566  15.961  14.346  1.00  0.00     0.013 C 
ATOM      7  C   UNL     1       7.828  15.217  13.031  1.00  0.00     0.031 C 
ENDROOT
BRANCH   5   8
ATOM      8  C   UNL     1       8.401  16.283  16.716  1.00  0.00    -0.077 C 
ATOM      9  C   UNL     1       8.802  15.791  17.901  1.00  0.00     0.008 C 
ATOM     10  C   UNL     1       7.807  17.667  16.673  1.00  0.00     0.039 C 
ENDBRANCH   5   8
TORSDOF 1
ENDMDL
MODEL 9
REMARK VINA RESULT:    -3.994      9.534     11.506
REMARK INTER + INTRA:          -4.353
REMARK INTER:                  -4.228
REMARK INTRA:                  -0.124
REMARK UNBOUND:                -0.125
REMARK SMILES C=C(C)[C@H]1CC=C(C)CC1
REMARK SMILES IDX 8 1 7 2 6 3 5 4 4 5 10 6 9 7 2 8 1 9 3 10
REMARK H PARENT
REMARK Flexibility Score: inf
ROOT
ATOM      1  C   UNL     1      12.654  18.621  28.438  1.00  0.00     0.039 C 
ATOM      2  C   UNL     1      11.450  19.522  28.409  1.00  0.00    -0.077 C 
ATOM      3  C   UNL     1      11.131  20.152  27.257  1.00  0.00    -0.027 C 
ATOM      4  C   UNL     1       9.977  21.116  27.141  1.00  0.00     0.035 C 
ATOM      5  C   UNL     1       8.914  20.886  28.231  1.00  0.00     0.018 C 
ATOM      6  C   UNL     1       9.593  20.783  29.606  1.00  0.00     0.013 C 
ATOM      7  C   UNL     1      10.557  19.591  29.632  1.00  0.00     0.031 C 
ENDROOT
BRANCH   5   8
ATOM      8  C   UNL     1       7.845  21.971  28.210  1.00  0.00    -0.077 C 
ATOM      9  C   UNL     1       8.150  23.259  28.445  1.00  0.00     0.008 C 
ATOM     10  C   UNL     1       6.410  21.611  27.924  1.00  0.00     0.039 C 
ENDBRANCH   5   8
TORSDOF 1
ENDMDL
