MODEL 1
REMARK VINA RESULT:    -5.126      0.000      0.000
REMARK INTER + INTRA:          -5.928
REMARK INTER:                  -5.725
REMARK INTRA:                  -0.203
REMARK UNBOUND:                -0.203
REMARK SMILES O=C([O-])c1ccccc1C(=O)[O-]
REMARK SMILES IDX 4 1 9 2 5 3 8 4 6 5 7 6 2 7 1 8 3 9 10 10 11 11 12 12
REMARK H PARENT
REMARK Flexibility Score: inf
ROOT
ATOM      1  C   UNL     1      21.535  32.541   6.204  1.00  0.00     0.006 A 
ATOM      2  C   UNL     1      22.531  31.547   5.998  1.00  0.00     0.006 A 
ATOM      3  C   UNL     1      21.244  32.956   7.517  1.00  0.00     0.010 A 
ATOM      4  C   UNL     1      23.242  31.051   7.106  1.00  0.00     0.010 A 
ATOM      5  C   UNL     1      21.946  32.434   8.603  1.00  0.00     0.001 A 
ATOM      6  C   UNL     1      22.952  31.492   8.397  1.00  0.00     0.001 A 
ENDROOT
BRANCH   1   7
ATOM      7  C   UNL     1      20.839  33.219   5.086  1.00  0.00     0.072 C 
ATOM      8  O   UNL     1      19.661  32.889   4.781  1.00  0.00    -0.545 OA
ATOM      9  O   UNL     1      21.446  34.265   4.402  1.00  0.00    -0.545 OA
ENDBRANCH   1   7
BRANCH   2  10
ATOM     10  C   UNL     1      22.802  30.953   4.669  1.00  0.00     0.072 C 
ATOM     11  O   UNL     1      22.274  29.856   4.345  1.00  0.00    -0.545 OA
ATOM     12  O   UNL     1      23.586  31.625   3.738  1.00  0.00    -0.545 OA
ENDBRANCH   2  10
TORSDOF 2
ENDMDL
MODEL 2
REMARK VINA RESULT:    -5.104      0.074      2.862
REMARK INTER + INTRA:          -5.904
REMARK INTER:                  -5.708
REMARK INTRA:                  -0.196
REMARK UNBOUND:                -0.203
REMARK SMILES O=C([O-])c1ccccc1C(=O)[O-]
REMARK SMILES IDX 4 1 9 2 5 3 8 4 6 5 7 6 2 7 1 8 3 9 10 10 11 11 12 12
REMARK H PARENT
REMARK Flexibility Score: inf
ROOT
ATOM      1  C   UNL     1      22.544  31.549   5.958  1.00  0.00     0.006 A 
ATOM      2  C   UNL     1      21.548  32.533   6.210  1.00  0.00     0.006 A 
ATOM      3  C   UNL     1      23.285  31.033   7.037  1.00  0.00     0.010 A 
ATOM      4  C   UNL     1      21.288  32.918   7.538  1.00  0.00     0.010 A 
ATOM      5  C   UNL     1      23.025  31.446   8.344  1.00  0.00     0.001 A 
ATOM      6  C   UNL     1      22.020  32.377   8.595  1.00  0.00     0.001 A 
ENDROOT
BRANCH   1   7
ATOM      7  C   UNL     1      22.786  30.985   4.609  1.00  0.00     0.072 C 
ATOM      8  O   UNL     1      22.273  29.882   4.283  1.00  0.00    -0.545 OA
ATOM      9  O   UNL     1      23.525  31.691   3.668  1.00  0.00    -0.545 OA
ENDBRANCH   1   7
BRANCH   2  10
ATOM     10  C   UNL     1      20.821  33.229   5.123  1.00  0.00     0.072 C 
ATOM     11  O   UNL     1      19.629  32.917   4.858  1.00  0.00    -0.545 OA
ATOM     12  O   UNL     1      21.415  34.275   4.429  1.00  0.00    -0.545 OA
ENDBRANCH   2  10
TORSDOF 2
ENDMDL
MODEL 3
REMARK VINA RESULT:    -5.069      1.056      1.468
REMARK INTER + INTRA:          -5.864
REMARK INTER:                  -5.677
REMARK INTRA:                  -0.187
REMARK UNBOUND:                -0.203
REMARK SMILES O=C([O-])c1ccccc1C(=O)[O-]
REMARK SMILES IDX 4 1 9 2 5 3 8 4 6 5 7 6 2 7 1 8 3 9 10 10 11 11 12 12
REMARK H PARENT
REMARK Flexibility Score: inf
ROOT
ATOM      1  C   UNL     1      21.635  32.306   5.679  1.00  0.00     0.006 A 
ATOM      2  C   UNL     1      22.589  31.372   6.168  1.00  0.00     0.006 A 
ATOM      3  C   UNL     1      20.964  33.141   6.592  1.00  0.00     0.010 A 
ATOM      4  C   UNL     1      22.884  31.352   7.544  1.00  0.00     0.010 A 
ATOM      5  C   UNL     1      21.256  33.088   7.955  1.00  0.00     0.001 A 
ATOM      6  C   UNL     1      22.222  32.204   8.429  1.00  0.00     0.001 A 
ENDROOT
BRANCH   1   7
ATOM      7  C   UNL     1      21.367  32.492   4.234  1.00  0.00     0.072 C 
ATOM      8  O   UNL     1      20.273  32.112   3.738  1.00  0.00    -0.545 OA
ATOM      9  O   UNL     1      22.288  33.142   3.421  1.00  0.00    -0.545 OA
ENDBRANCH   1   7
BRANCH   2  10
ATOM     10  C   UNL     1      23.237  30.363   5.299  1.00  0.00     0.072 C 
ATOM     11  O   UNL     1      24.289  30.652   4.669  1.00  0.00    -0.545 OA
ATOM     12  O   UNL     1      22.734  29.070   5.216  1.00  0.00    -0.545 OA
ENDBRANCH   2  10
TORSDOF 2
ENDMDL
MODEL 4
REMARK VINA RESULT:    -5.051      1.059      3.059
REMARK INTER + INTRA:          -5.845
REMARK INTER:                  -5.685
REMARK INTRA:                  -0.160
REMARK UNBOUND:                -0.203
REMARK SMILES O=C([O-])c1ccccc1C(=O)[O-]
REMARK SMILES IDX 4 1 9 2 5 3 8 4 6 5 7 6 2 7 1 8 3 9 10 10 11 11 12 12
REMARK H PARENT
REMARK Flexibility Score: inf
ROOT
ATOM      1  C   UNL     1      22.571  31.389   6.223  1.00  0.00     0.006 A 
ATOM      2  C   UNL     1      21.617  32.319   5.726  1.00  0.00     0.006 A 
ATOM      3  C   UNL     1      22.874  31.388   7.598  1.00  0.00     0.010 A 
ATOM      4  C   UNL     1      20.955  33.169   6.631  1.00  0.00     0.010 A 
ATOM      5  C   UNL     1      22.221  32.255   8.473  1.00  0.00     0.001 A 
ATOM      6  C   UNL     1      21.255  33.136   7.993  1.00  0.00     0.001 A 
ENDROOT
BRANCH   1   7
ATOM      7  C   UNL     1      23.210  30.364   5.365  1.00  0.00     0.072 C 
ATOM      8  O   UNL     1      24.184  30.673   4.628  1.00  0.00    -0.545 OA
ATOM      9  O   UNL     1      22.789  29.041   5.408  1.00  0.00    -0.545 OA
ENDBRANCH   1   7
BRANCH   2  10
ATOM     10  C   UNL     1      21.342  32.484   4.280  1.00  0.00     0.072 C 
ATOM     11  O   UNL     1      20.261  32.062   3.789  1.00  0.00    -0.545 OA
ATOM     12  O   UNL     1      22.236  33.162   3.461  1.00  0.00    -0.545 OA
ENDBRANCH   2  10
TORSDOF 2
ENDMDL
MODEL 5
REMARK VINA RESULT:    -4.834      2.396      3.406
REMARK INTER + INTRA:          -5.602
REMARK INTER:                  -5.548
REMARK INTRA:                  -0.053
REMARK UNBOUND:                -0.203
REMARK SMILES O=C([O-])c1ccccc1C(=O)[O-]
REMARK SMILES IDX 4 1 9 2 5 3 8 4 6 5 7 6 2 7 1 8 3 9 10 10 11 11 12 12
REMARK H PARENT
REMARK Flexibility Score: inf
ROOT
ATOM      1  C   UNL     1      22.217  32.002   6.868  1.00  0.00     0.006 A 
ATOM      2  C   UNL     1      22.598  31.291   5.698  1.00  0.00     0.006 A 
ATOM      3  C   UNL     1      21.237  33.008   6.770  1.00  0.00     0.010 A 
ATOM      4  C   UNL     1      21.941  31.568   4.485  1.00  0.00     0.010 A 
ATOM      5  C   UNL     1      20.615  33.281   5.552  1.00  0.00     0.001 A 
ATOM      6  C   UNL     1      20.957  32.554   4.414  1.00  0.00     0.001 A 
ENDROOT
BRANCH   1   7
ATOM      7  C   UNL     1      22.755  31.678   8.210  1.00  0.00     0.072 C 
ATOM      8  O   UNL     1      21.988  31.253   9.115  1.00  0.00    -0.545 OA
ATOM      9  O   UNL     1      24.116  31.778   8.471  1.00  0.00    -0.545 OA
ENDBRANCH   1   7
BRANCH   2  10
ATOM     10  C   UNL     1      23.715  30.318   5.683  1.00  0.00     0.072 C 
ATOM     11  O   UNL     1      24.868  30.683   5.331  1.00  0.00    -0.545 OA
ATOM     12  O   UNL     1      23.525  29.012   6.118  1.00  0.00    -0.545 OA
ENDBRANCH   2  10
TORSDOF 2
ENDMDL
MODEL 6
REMARK VINA RESULT:    -4.818      1.373      2.992
REMARK INTER + INTRA:          -5.584
REMARK INTER:                  -5.388
REMARK INTRA:                  -0.196
REMARK UNBOUND:                -0.203
REMARK SMILES O=C([O-])c1ccccc1C(=O)[O-]
REMARK SMILES IDX 4 1 9 2 5 3 8 4 6 5 7 6 2 7 1 8 3 9 10 10 11 11 12 12
REMARK H PARENT
REMARK Flexibility Score: inf
ROOT
ATOM      1  C   UNL     1      22.745  31.173   6.383  1.00  0.00     0.006 A 
ATOM      2  C   UNL     1      21.910  32.001   5.583  1.00  0.00     0.006 A 
ATOM      3  C   UNL     1      22.783  31.379   7.775  1.00  0.00     0.010 A 
ATOM      4  C   UNL     1      21.098  32.963   6.211  1.00  0.00     0.010 A 
ATOM      5  C   UNL     1      21.985  32.355   8.374  1.00  0.00     0.001 A 
ATOM      6  C   UNL     1      21.135  33.137   7.595  1.00  0.00     0.001 A 
ENDROOT
BRANCH   1   7
ATOM      7  C   UNL     1      23.524  30.044   5.822  1.00  0.00     0.072 C 
ATOM      8  O   UNL     1      22.944  28.976   5.491  1.00  0.00    -0.545 OA
ATOM      9  O   UNL     1      24.890  30.171   5.595  1.00  0.00    -0.545 OA
ENDBRANCH   1   7
BRANCH   2  10
ATOM     10  C   UNL     1      21.915  31.946   4.103  1.00  0.00     0.072 C 
ATOM     11  O   UNL     1      21.054  31.258   3.493  1.00  0.00    -0.545 OA
ATOM     12  O   UNL     1      22.821  32.700   3.368  1.00  0.00    -0.545 OA
ENDBRANCH   2  10
TORSDOF 2
ENDMDL
MODEL 7
REMARK VINA RESULT:    -4.813      2.419      4.122
REMARK INTER + INTRA:          -5.578
REMARK INTER:                  -5.511
REMARK INTRA:                  -0.067
REMARK UNBOUND:                -0.203
REMARK SMILES O=C([O-])c1ccccc1C(=O)[O-]
REMARK SMILES IDX 4 1 9 2 5 3 8 4 6 5 7 6 2 7 1 8 3 9 10 10 11 11 12 12
REMARK H PARENT
REMARK Flexibility Score: inf
ROOT
ATOM      1  C   UNL     1      22.545  31.253   5.720  1.00  0.00     0.006 A 
ATOM      2  C   UNL     1      22.161  31.991   6.873  1.00  0.00     0.006 A 
ATOM      3  C   UNL     1      21.922  31.530   4.489  1.00  0.00     0.010 A 
ATOM      4  C   UNL     1      21.214  33.023   6.739  1.00  0.00     0.010 A 
ATOM      5  C   UNL     1      20.969  32.544   4.385  1.00  0.00     0.001 A 
ATOM      6  C   UNL     1      20.624  33.297   5.505  1.00  0.00     0.001 A 
ENDROOT
BRANCH   1   7
ATOM      7  C   UNL     1      23.633  30.247   5.742  1.00  0.00     0.072 C 
ATOM      8  O   UNL     1      23.366  29.028   5.914  1.00  0.00    -0.545 OA
ATOM      9  O   UNL     1      24.951  30.623   5.509  1.00  0.00    -0.545 OA
ENDBRANCH   1   7
BRANCH   2  10
ATOM     10  C   UNL     1      22.662  31.671   8.229  1.00  0.00     0.072 C 
ATOM     11  O   UNL     1      23.878  31.836   8.511  1.00  0.00    -0.545 OA
ATOM     12  O   UNL     1      21.790  31.249   9.226  1.00  0.00    -0.545 OA
ENDBRANCH   2  10
TORSDOF 2
ENDMDL
MODEL 8
REMARK VINA RESULT:    -4.803      1.702      3.029
REMARK INTER + INTRA:          -5.567
REMARK INTER:                  -5.352
REMARK INTRA:                  -0.215
REMARK UNBOUND:                -0.203
REMARK SMILES O=C([O-])c1ccccc1C(=O)[O-]
REMARK SMILES IDX 4 1 9 2 5 3 8 4 6 5 7 6 2 7 1 8 3 9 10 10 11 11 12 12
REMARK H PARENT
REMARK Flexibility Score: inf
ROOT
ATOM      1  C   UNL     1      22.740  31.383   6.186  1.00  0.00     0.006 A 
ATOM      2  C   UNL     1      23.687  31.049   7.192  1.00  0.00     0.006 A 
ATOM      3  C   UNL     1      21.660  32.225   6.513  1.00  0.00     0.010 A 
ATOM      4  C   UNL     1      23.555  31.621   8.472  1.00  0.00     0.010 A 
ATOM      5  C   UNL     1      21.538  32.762   7.794  1.00  0.00     0.001 A 
ATOM      6  C   UNL     1      22.490  32.471   8.769  1.00  0.00     0.001 A 
ENDROOT
BRANCH   1   7
ATOM      7  C   UNL     1      22.880  30.941   4.779  1.00  0.00     0.072 C 
ATOM      8  O   UNL     1      23.476  31.670   3.942  1.00  0.00    -0.545 OA
ATOM      9  O   UNL     1      22.416  29.693   4.378  1.00  0.00    -0.545 OA
ENDBRANCH   1   7
BRANCH   2  10
ATOM     10  C   UNL     1      24.770  30.063   6.974  1.00  0.00     0.072 C 
ATOM     11  O   UNL     1      25.962  30.449   6.846  1.00  0.00    -0.545 OA
ATOM     12  O   UNL     1      24.499  28.700   6.972  1.00  0.00    -0.545 OA
ENDBRANCH   2  10
TORSDOF 2
ENDMDL
MODEL 9
REMARK VINA RESULT:    -4.793      1.723      3.682
REMARK INTER + INTRA:          -5.556
REMARK INTER:                  -5.351
REMARK INTRA:                  -0.204
REMARK UNBOUND:                -0.203
REMARK SMILES O=C([O-])c1ccccc1C(=O)[O-]
REMARK SMILES IDX 4 1 9 2 5 3 8 4 6 5 7 6 2 7 1 8 3 9 10 10 11 11 12 12
REMARK H PARENT
REMARK Flexibility Score: inf
ROOT
ATOM      1  C   UNL     1      23.732  31.004   7.211  1.00  0.00     0.006 A 
ATOM      2  C   UNL     1      22.761  31.356   6.234  1.00  0.00     0.006 A 
ATOM      3  C   UNL     1      23.639  31.561   8.501  1.00  0.00     0.010 A 
ATOM      4  C   UNL     1      21.698  32.202   6.599  1.00  0.00     0.010 A 
ATOM      5  C   UNL     1      22.587  32.415   8.835  1.00  0.00     0.001 A 
ATOM      6  C   UNL     1      21.612  32.725   7.890  1.00  0.00     0.001 A 
ENDROOT
BRANCH   1   7
ATOM      7  C   UNL     1      24.802  30.012   6.954  1.00  0.00     0.072 C 
ATOM      8  O   UNL     1      25.991  30.393   6.781  1.00  0.00    -0.545 OA
ATOM      9  O   UNL     1      24.524  28.651   6.962  1.00  0.00    -0.545 OA
ENDBRANCH   1   7
BRANCH   2  10
ATOM     10  C   UNL     1      22.862  30.929   4.819  1.00  0.00     0.072 C 
ATOM     11  O   UNL     1      23.383  31.693   3.963  1.00  0.00    -0.545 OA
ATOM     12  O   UNL     1      22.448  29.662   4.429  1.00  0.00    -0.545 OA
ENDBRANCH   2  10
TORSDOF 2
ENDMDL
