MODEL 1
REMARK VINA RESULT:    -4.301      0.000      0.000
REMARK INTER + INTRA:         -10.858
REMARK INTER:                  -8.324
REMARK INTRA:                  -2.534
REMARK UNBOUND:                -2.534
REMARK SMILES CCCCCCCCCCCCCCCCCC(=O)[O-]
REMARK SMILES IDX 10 1 11 2 12 3 13 4 14 5 15 6 16 7 17 8 18 9 19 10 20 11
REMARK SMILES IDX 9 12 8 13 7 14 6 15 5 16 4 17 3 18 2 19 1 20
REMARK H PARENT
REMARK Flexibility Score: inf
ROOT
ATOM      1  C   UNL     1      25.741   3.224   7.721  1.00  0.00     0.000 C 
ENDROOT
BRANCH   1   2
ATOM      2  C   UNL     1      25.308   4.356   6.774  1.00  0.00     0.000 C 
BRANCH   2   3
ATOM      3  C   UNL     1      26.382   5.447   6.617  1.00  0.00     0.000 C 
BRANCH   3   4
ATOM      4  C   UNL     1      25.994   6.831   7.174  1.00  0.00     0.000 C 
BRANCH   4   5
ATOM      5  C   UNL     1      26.484   7.124   8.606  1.00  0.00     0.000 C 
BRANCH   5   6
ATOM      6  C   UNL     1      25.595   6.556   9.726  1.00  0.00     0.000 C 
BRANCH   6   7
ATOM      7  C   UNL     1      26.355   5.612  10.669  1.00  0.00     0.006 C 
BRANCH   7   8
ATOM      8  C   UNL     1      27.851   5.599  10.342  1.00  0.00     0.053 C 
BRANCH   8   9
ATOM      9  C   UNL     1      28.621   4.932  11.438  1.00  0.00     0.041 C 
ATOM     10  O   UNL     1      28.770   3.681  11.435  1.00  0.00    -0.550 OA
ATOM     11  O   UNL     1      29.124   5.684  12.490  1.00  0.00    -0.550 OA
ENDBRANCH   8   9
ENDBRANCH   7   8
ENDBRANCH   6   7
ENDBRANCH   5   6
ENDBRANCH   4   5
ENDBRANCH   3   4
ENDBRANCH   2   3
ENDBRANCH   1   2
BRANCH   1  12
ATOM     12  C   UNL     1      27.259   3.211   7.966  1.00  0.00     0.000 C 
BRANCH  12  13
ATOM     13  C   UNL     1      27.916   1.895   7.523  1.00  0.00    -0.000 C 
BRANCH  13  14
ATOM     14  C   UNL     1      27.999   0.900   8.691  1.00  0.00    -0.000 C 
BRANCH  14  15
ATOM     15  C   UNL     1      27.416  -0.477   8.337  1.00  0.00    -0.000 C 
BRANCH  15  16
ATOM     16  C   UNL     1      25.888  -0.443   8.153  1.00  0.00    -0.000 C 
BRANCH  16  17
ATOM     17  C   UNL     1      25.464  -0.672   6.693  1.00  0.00    -0.000 C 
BRANCH  17  18
ATOM     18  C   UNL     1      24.355   0.295   6.242  1.00  0.00    -0.000 C 
BRANCH  18  19
ATOM     19  C   UNL     1      24.619   0.884   4.847  1.00  0.00    -0.003 C 
ATOM     20  C   UNL     1      26.108   1.073   4.558  1.00  0.00     0.004 C 
ENDBRANCH  18  19
ENDBRANCH  17  18
ENDBRANCH  16  17
ENDBRANCH  15  16
ENDBRANCH  14  15
ENDBRANCH  13  14
ENDBRANCH  12  13
ENDBRANCH   1  12
TORSDOF 16
ENDMDL
MODEL 2
REMARK VINA RESULT:    -4.291      2.506      4.393
REMARK INTER + INTRA:         -10.839
REMARK INTER:                  -8.624
REMARK INTRA:                  -2.216
REMARK UNBOUND:                -2.534
REMARK SMILES CCCCCCCCCCCCCCCCCC(=O)[O-]
REMARK SMILES IDX 10 1 11 2 12 3 13 4 14 5 15 6 16 7 17 8 18 9 19 10 20 11
REMARK SMILES IDX 9 12 8 13 7 14 6 15 5 16 4 17 3 18 2 19 1 20
REMARK H PARENT
REMARK Flexibility Score: inf
ROOT
ATOM      1  C   UNL     1      26.056   5.362  10.453  1.00  0.00     0.000 C 
ENDROOT
BRANCH   1   2
ATOM      2  C   UNL     1      25.119   6.439   9.879  1.00  0.00     0.000 C 
BRANCH   2   3
ATOM      3  C   UNL     1      25.835   7.778   9.625  1.00  0.00     0.000 C 
BRANCH   3   4
ATOM      4  C   UNL     1      25.720   8.317   8.185  1.00  0.00     0.000 C 
BRANCH   4   5
ATOM      5  C   UNL     1      26.809   7.823   7.211  1.00  0.00     0.000 C 
BRANCH   5   6
ATOM      6  C   UNL     1      26.308   6.882   6.101  1.00  0.00     0.000 C 
BRANCH   6   7
ATOM      7  C   UNL     1      26.098   5.442   6.589  1.00  0.00     0.006 C 
BRANCH   7   8
ATOM      8  C   UNL     1      24.612   5.073   6.583  1.00  0.00     0.053 C 
BRANCH   8   9
ATOM      9  C   UNL     1      24.432   3.619   6.884  1.00  0.00     0.041 C 
ATOM     10  O   UNL     1      24.330   3.227   8.076  1.00  0.00    -0.550 OA
ATOM     11  O   UNL     1      24.434   2.691   5.851  1.00  0.00    -0.550 OA
ENDBRANCH   8   9
ENDBRANCH   7   8
ENDBRANCH   6   7
ENDBRANCH   5   6
ENDBRANCH   4   5
ENDBRANCH   3   4
ENDBRANCH   2   3
ENDBRANCH   1   2
BRANCH   1  12
ATOM     12  C   UNL     1      27.527   5.809  10.469  1.00  0.00     0.000 C 
BRANCH  12  13
ATOM     13  C   UNL     1      28.441   4.857   9.682  1.00  0.00    -0.000 C 
BRANCH  13  14
ATOM     14  C   UNL     1      27.854   3.438   9.645  1.00  0.00    -0.000 C 
BRANCH  14  15
ATOM     15  C   UNL     1      27.824   2.849   8.226  1.00  0.00    -0.000 C 
BRANCH  15  16
ATOM     16  C   UNL     1      27.945   1.314   8.219  1.00  0.00    -0.000 C 
BRANCH  16  17
ATOM     17  C   UNL     1      26.726   0.630   7.579  1.00  0.00    -0.000 C 
BRANCH  17  18
ATOM     18  C   UNL     1      26.280  -0.624   8.353  1.00  0.00    -0.000 C 
BRANCH  18  19
ATOM     19  C   UNL     1      27.464  -1.503   8.784  1.00  0.00    -0.003 C 
ATOM     20  C   UNL     1      27.569  -1.648  10.302  1.00  0.00     0.004 C 
ENDBRANCH  18  19
ENDBRANCH  17  18
ENDBRANCH  16  17
ENDBRANCH  15  16
ENDBRANCH  14  15
ENDBRANCH  13  14
ENDBRANCH  12  13
ENDBRANCH   1  12
TORSDOF 16
ENDMDL
MODEL 3
REMARK VINA RESULT:    -4.268      2.538      6.256
REMARK INTER + INTRA:         -10.795
REMARK INTER:                  -8.003
REMARK INTRA:                  -2.791
REMARK UNBOUND:                -2.534
REMARK SMILES CCCCCCCCCCCCCCCCCC(=O)[O-]
REMARK SMILES IDX 10 1 11 2 12 3 13 4 14 5 15 6 16 7 17 8 18 9 19 10 20 11
REMARK SMILES IDX 9 12 8 13 7 14 6 15 5 16 4 17 3 18 2 19 1 20
REMARK H PARENT
REMARK Flexibility Score: inf
ROOT
ATOM      1  C   UNL     1      23.205   5.633  10.242  1.00  0.00     0.000 C 
ENDROOT
BRANCH   1   2
ATOM      2  C   UNL     1      24.135   4.448  10.560  1.00  0.00     0.000 C 
BRANCH   2   3
ATOM      3  C   UNL     1      24.478   3.610   9.315  1.00  0.00     0.000 C 
BRANCH   3   4
ATOM      4  C   UNL     1      24.182   4.294   7.965  1.00  0.00     0.000 C 
BRANCH   4   5
ATOM      5  C   UNL     1      25.048   3.814   6.783  1.00  0.00     0.000 C 
BRANCH   5   6
ATOM      6  C   UNL     1      26.527   3.558   7.124  1.00  0.00     0.000 C 
BRANCH   6   7
ATOM      7  C   UNL     1      26.888   2.065   7.129  1.00  0.00     0.006 C 
BRANCH   7   8
ATOM      8  C   UNL     1      27.613   1.682   8.423  1.00  0.00     0.053 C 
BRANCH   8   9
ATOM      9  C   UNL     1      28.038   0.249   8.380  1.00  0.00     0.041 C 
ATOM     10  O   UNL     1      27.999  -0.391   7.295  1.00  0.00    -0.550 OA
ATOM     11  O   UNL     1      28.425  -0.397   9.546  1.00  0.00    -0.550 OA
ENDBRANCH   8   9
ENDBRANCH   7   8
ENDBRANCH   6   7
ENDBRANCH   5   6
ENDBRANCH   4   5
ENDBRANCH   3   4
ENDBRANCH   2   3
ENDBRANCH   1   2
BRANCH   1  12
ATOM     12  C   UNL     1      23.705   6.953  10.851  1.00  0.00     0.000 C 
BRANCH  12  13
ATOM     13  C   UNL     1      23.663   8.117   9.848  1.00  0.00    -0.000 C 
BRANCH  13  14
ATOM     14  C   UNL     1      25.082   8.525   9.420  1.00  0.00    -0.000 C 
BRANCH  14  15
ATOM     15  C   UNL     1      25.498   7.895   8.081  1.00  0.00    -0.000 C 
BRANCH  15  16
ATOM     16  C   UNL     1      26.701   6.946   8.222  1.00  0.00    -0.000 C 
BRANCH  16  17
ATOM     17  C   UNL     1      27.039   6.634   9.688  1.00  0.00    -0.000 C 
BRANCH  17  18
ATOM     18  C   UNL     1      28.078   5.507   9.828  1.00  0.00    -0.000 C 
BRANCH  18  19
ATOM     19  C   UNL     1      27.679   4.466  10.885  1.00  0.00    -0.003 C 
ATOM     20  C   UNL     1      28.887   3.772  11.515  1.00  0.00     0.004 C 
ENDBRANCH  18  19
ENDBRANCH  17  18
ENDBRANCH  16  17
ENDBRANCH  15  16
ENDBRANCH  14  15
ENDBRANCH  13  14
ENDBRANCH  12  13
ENDBRANCH   1  12
TORSDOF 16
ENDMDL
MODEL 4
REMARK VINA RESULT:    -4.254      3.376      6.484
REMARK INTER + INTRA:         -10.768
REMARK INTER:                  -7.973
REMARK INTRA:                  -2.794
REMARK UNBOUND:                -2.534
REMARK SMILES CCCCCCCCCCCCCCCCCC(=O)[O-]
REMARK SMILES IDX 10 1 11 2 12 3 13 4 14 5 15 6 16 7 17 8 18 9 19 10 20 11
REMARK SMILES IDX 9 12 8 13 7 14 6 15 5 16 4 17 3 18 2 19 1 20
REMARK H PARENT
REMARK Flexibility Score: inf
ROOT
ATOM      1  C   UNL     1      27.064   6.406   9.459  1.00  0.00     0.000 C 
ENDROOT
BRANCH   1   2
ATOM      2  C   UNL     1      26.840   5.257  10.458  1.00  0.00     0.000 C 
BRANCH   2   3
ATOM      3  C   UNL     1      26.898   3.870   9.794  1.00  0.00     0.000 C 
BRANCH   3   4
ATOM      4  C   UNL     1      28.004   3.700   8.733  1.00  0.00     0.000 C 
BRANCH   4   5
ATOM      5  C   UNL     1      27.653   2.755   7.566  1.00  0.00     0.000 C 
BRANCH   5   6
ATOM      6  C   UNL     1      26.410   1.876   7.793  1.00  0.00     0.000 C 
BRANCH   6   7
ATOM      7  C   UNL     1      26.149   0.901   6.636  1.00  0.00     0.006 C 
BRANCH   7   8
ATOM      8  C   UNL     1      26.421   1.570   5.285  1.00  0.00     0.053 C 
BRANCH   8   9
ATOM      9  C   UNL     1      26.302   0.574   4.175  1.00  0.00     0.041 C 
ATOM     10  O   UNL     1      26.465  -0.654   4.405  1.00  0.00    -0.550 OA
ATOM     11  O   UNL     1      26.067   1.006   2.877  1.00  0.00    -0.550 OA
ENDBRANCH   8   9
ENDBRANCH   7   8
ENDBRANCH   6   7
ENDBRANCH   5   6
ENDBRANCH   4   5
ENDBRANCH   3   4
ENDBRANCH   2   3
ENDBRANCH   1   2
BRANCH   1  12
ATOM     12  C   UNL     1      25.988   7.498   9.567  1.00  0.00     0.000 C 
BRANCH  12  13
ATOM     13  C   UNL     1      25.669   8.148   8.212  1.00  0.00    -0.000 C 
BRANCH  13  14
ATOM     14  C   UNL     1      26.756   7.820   7.177  1.00  0.00    -0.000 C 
BRANCH  14  15
ATOM     15  C   UNL     1      26.213   7.017   5.984  1.00  0.00    -0.000 C 
BRANCH  15  16
ATOM     16  C   UNL     1      24.811   6.440   6.249  1.00  0.00    -0.000 C 
BRANCH  16  17
ATOM     17  C   UNL     1      24.847   4.948   6.616  1.00  0.00    -0.000 C 
BRANCH  17  18
ATOM     18  C   UNL     1      23.555   4.479   7.309  1.00  0.00    -0.000 C 
BRANCH  18  19
ATOM     19  C   UNL     1      23.509   4.869   8.795  1.00  0.00    -0.003 C 
ATOM     20  C   UNL     1      22.486   5.968   9.085  1.00  0.00     0.004 C 
ENDBRANCH  18  19
ENDBRANCH  17  18
ENDBRANCH  16  17
ENDBRANCH  15  16
ENDBRANCH  14  15
ENDBRANCH  13  14
ENDBRANCH  12  13
ENDBRANCH   1  12
TORSDOF 16
ENDMDL
MODEL 5
REMARK VINA RESULT:    -4.229      2.742      5.597
REMARK INTER + INTRA:         -10.719
REMARK INTER:                  -7.917
REMARK INTRA:                  -2.802
REMARK UNBOUND:                -2.534
REMARK SMILES CCCCCCCCCCCCCCCCCC(=O)[O-]
REMARK SMILES IDX 10 1 11 2 12 3 13 4 14 5 15 6 16 7 17 8 18 9 19 10 20 11
REMARK SMILES IDX 9 12 8 13 7 14 6 15 5 16 4 17 3 18 2 19 1 20
REMARK H PARENT
REMARK Flexibility Score: inf
ROOT
ATOM      1  C   UNL     1      25.591   6.353  10.164  1.00  0.00     0.000 C 
ENDROOT
BRANCH   1   2
ATOM      2  C   UNL     1      26.707   5.457  10.727  1.00  0.00     0.000 C 
BRANCH   2   3
ATOM      3  C   UNL     1      28.003   5.527   9.899  1.00  0.00     0.000 C 
BRANCH   3   4
ATOM      4  C   UNL     1      28.621   4.162   9.535  1.00  0.00     0.000 C 
BRANCH   4   5
ATOM      5  C   UNL     1      27.687   2.950   9.719  1.00  0.00     0.000 C 
BRANCH   5   6
ATOM      6  C   UNL     1      27.687   1.947   8.552  1.00  0.00     0.000 C 
BRANCH   6   7
ATOM      7  C   UNL     1      28.469   0.664   8.867  1.00  0.00     0.006 C 
BRANCH   7   8
ATOM      8  C   UNL     1      27.680  -0.577   8.439  1.00  0.00     0.053 C 
BRANCH   8   9
ATOM      9  C   UNL     1      27.779  -1.646   9.481  1.00  0.00     0.041 C 
ATOM     10  O   UNL     1      27.679  -1.351  10.702  1.00  0.00    -0.550 OA
ATOM     11  O   UNL     1      28.039  -2.958   9.109  1.00  0.00    -0.550 OA
ENDBRANCH   8   9
ENDBRANCH   7   8
ENDBRANCH   6   7
ENDBRANCH   5   6
ENDBRANCH   4   5
ENDBRANCH   3   4
ENDBRANCH   2   3
ENDBRANCH   1   2
BRANCH   1  12
ATOM     12  C   UNL     1      24.196   5.728  10.327  1.00  0.00     0.000 C 
BRANCH  12  13
ATOM     13  C   UNL     1      24.253   4.208  10.542  1.00  0.00    -0.000 C 
BRANCH  13  14
ATOM     14  C   UNL     1      24.026   3.457   9.221  1.00  0.00    -0.000 C 
BRANCH  14  15
ATOM     15  C   UNL     1      23.129   4.236   8.246  1.00  0.00    -0.000 C 
BRANCH  15  16
ATOM     16  C   UNL     1      23.806   4.481   6.885  1.00  0.00    -0.000 C 
BRANCH  16  17
ATOM     17  C   UNL     1      25.264   3.994   6.855  1.00  0.00    -0.000 C 
BRANCH  17  18
ATOM     18  C   UNL     1      26.271   5.151   6.732  1.00  0.00    -0.000 C 
BRANCH  18  19
ATOM     19  C   UNL     1      25.586   6.502   6.474  1.00  0.00    -0.003 C 
ATOM     20  C   UNL     1      26.511   7.691   6.734  1.00  0.00     0.004 C 
ENDBRANCH  18  19
ENDBRANCH  17  18
ENDBRANCH  16  17
ENDBRANCH  15  16
ENDBRANCH  14  15
ENDBRANCH  13  14
ENDBRANCH  12  13
ENDBRANCH   1  12
TORSDOF 16
ENDMDL
MODEL 6
REMARK VINA RESULT:    -4.205      3.815      7.033
REMARK INTER + INTRA:         -10.673
REMARK INTER:                  -8.217
REMARK INTRA:                  -2.456
REMARK UNBOUND:                -2.534
REMARK SMILES CCCCCCCCCCCCCCCCCC(=O)[O-]
REMARK SMILES IDX 10 1 11 2 12 3 13 4 14 5 15 6 16 7 17 8 18 9 19 10 20 11
REMARK SMILES IDX 9 12 8 13 7 14 6 15 5 16 4 17 3 18 2 19 1 20
REMARK H PARENT
REMARK Flexibility Score: inf
ROOT
ATOM      1  C   UNL     1      26.874   4.984   9.960  1.00  0.00     0.000 C 
ENDROOT
BRANCH   1   2
ATOM      2  C   UNL     1      28.022   4.117   9.414  1.00  0.00     0.000 C 
BRANCH   2   3
ATOM      3  C   UNL     1      27.656   3.402   8.101  1.00  0.00     0.000 C 
BRANCH   3   4
ATOM      4  C   UNL     1      27.674   1.862   8.169  1.00  0.00     0.000 C 
BRANCH   4   5
ATOM      5  C   UNL     1      26.944   1.146   7.015  1.00  0.00     0.000 C 
BRANCH   5   6
ATOM      6  C   UNL     1      26.600   2.040   5.810  1.00  0.00     0.000 C 
BRANCH   6   7
ATOM      7  C   UNL     1      25.764   1.312   4.747  1.00  0.00     0.006 C 
BRANCH   7   8
ATOM      8  C   UNL     1      26.417  -0.016   4.352  1.00  0.00     0.053 C 
BRANCH   8   9
ATOM      9  C   UNL     1      26.205  -0.291   2.897  1.00  0.00     0.041 C 
ATOM     10  O   UNL     1      25.772   0.617   2.138  1.00  0.00    -0.550 OA
ATOM     11  O   UNL     1      26.430  -1.563   2.390  1.00  0.00    -0.550 OA
ENDBRANCH   8   9
ENDBRANCH   7   8
ENDBRANCH   6   7
ENDBRANCH   5   6
ENDBRANCH   4   5
ENDBRANCH   3   4
ENDBRANCH   2   3
ENDBRANCH   1   2
BRANCH   1  12
ATOM     12  C   UNL     1      27.021   6.465   9.574  1.00  0.00     0.000 C 
BRANCH  12  13
ATOM     13  C   UNL     1      25.680   7.215   9.597  1.00  0.00    -0.000 C 
BRANCH  13  14
ATOM     14  C   UNL     1      25.482   8.028   8.309  1.00  0.00    -0.000 C 
BRANCH  14  15
ATOM     15  C   UNL     1      26.562   7.736   7.255  1.00  0.00    -0.000 C 
BRANCH  15  16
ATOM     16  C   UNL     1      25.990   7.073   5.988  1.00  0.00    -0.000 C 
BRANCH  16  17
ATOM     17  C   UNL     1      24.615   6.431   6.228  1.00  0.00    -0.000 C 
BRANCH  17  18
ATOM     18  C   UNL     1      24.717   4.946   6.619  1.00  0.00    -0.000 C 
BRANCH  18  19
ATOM     19  C   UNL     1      23.811   4.586   7.807  1.00  0.00    -0.003 C 
ATOM     20  C   UNL     1      23.984   3.137   8.264  1.00  0.00     0.004 C 
ENDBRANCH  18  19
ENDBRANCH  17  18
ENDBRANCH  16  17
ENDBRANCH  15  16
ENDBRANCH  14  15
ENDBRANCH  13  14
ENDBRANCH  12  13
ENDBRANCH   1  12
TORSDOF 16
ENDMDL
MODEL 7
REMARK VINA RESULT:    -4.197      3.647      6.230
REMARK INTER + INTRA:         -10.657
REMARK INTER:                  -7.933
REMARK INTRA:                  -2.724
REMARK UNBOUND:                -2.534
REMARK SMILES CCCCCCCCCCCCCCCCCC(=O)[O-]
REMARK SMILES IDX 10 1 11 2 12 3 13 4 14 5 15 6 16 7 17 8 18 9 19 10 20 11
REMARK SMILES IDX 9 12 8 13 7 14 6 15 5 16 4 17 3 18 2 19 1 20
REMARK H PARENT
REMARK Flexibility Score: inf
ROOT
ATOM      1  C   UNL     1      27.916   2.409   8.448  1.00  0.00     0.000 C 
ENDROOT
BRANCH   1   2
ATOM      2  C   UNL     1      27.102   2.240   7.152  1.00  0.00     0.000 C 
BRANCH   2   3
ATOM      3  C   UNL     1      26.544   3.572   6.621  1.00  0.00     0.000 C 
BRANCH   3   4
ATOM      4  C   UNL     1      25.010   3.713   6.694  1.00  0.00     0.000 C 
BRANCH   4   5
ATOM      5  C   UNL     1      24.425   3.778   8.118  1.00  0.00     0.000 C 
BRANCH   5   6
ATOM      6  C   UNL     1      23.182   4.674   8.270  1.00  0.00     0.000 C 
BRANCH   6   7
ATOM      7  C   UNL     1      22.094   4.366   7.230  1.00  0.00     0.006 C 
BRANCH   7   8
ATOM      8  C   UNL     1      20.899   5.310   7.393  1.00  0.00     0.053 C 
BRANCH   8   9
ATOM      9  C   UNL     1      21.220   6.662   6.839  1.00  0.00     0.041 C 
ATOM     10  O   UNL     1      21.575   6.785   5.636  1.00  0.00    -0.550 OA
ATOM     11  O   UNL     1      21.183   7.777   7.664  1.00  0.00    -0.550 OA
ENDBRANCH   8   9
ENDBRANCH   7   8
ENDBRANCH   6   7
ENDBRANCH   5   6
ENDBRANCH   4   5
ENDBRANCH   3   4
ENDBRANCH   2   3
ENDBRANCH   1   2
BRANCH   1  12
ATOM     12  C   UNL     1      27.978   3.873   8.916  1.00  0.00     0.000 C 
BRANCH  12  13
ATOM     13  C   UNL     1      27.760   4.016  10.430  1.00  0.00    -0.000 C 
BRANCH  13  14
ATOM     14  C   UNL     1      26.902   5.251  10.746  1.00  0.00    -0.000 C 
BRANCH  14  15
ATOM     15  C   UNL     1      26.904   6.280   9.605  1.00  0.00    -0.000 C 
BRANCH  15  16
ATOM     16  C   UNL     1      25.596   7.087   9.533  1.00  0.00    -0.000 C 
BRANCH  16  17
ATOM     17  C   UNL     1      25.454   7.864   8.214  1.00  0.00    -0.000 C 
BRANCH  17  18
ATOM     18  C   UNL     1      26.734   7.819   7.361  1.00  0.00    -0.000 C 
BRANCH  18  19
ATOM     19  C   UNL     1      26.498   7.197   5.976  1.00  0.00    -0.003 C 
ATOM     20  C   UNL     1      25.017   7.122   5.608  1.00  0.00     0.004 C 
ENDBRANCH  18  19
ENDBRANCH  17  18
ENDBRANCH  16  17
ENDBRANCH  15  16
ENDBRANCH  14  15
ENDBRANCH  13  14
ENDBRANCH  12  13
ENDBRANCH   1  12
TORSDOF 16
ENDMDL
MODEL 8
REMARK VINA RESULT:    -4.146      2.503      5.557
REMARK INTER + INTRA:         -10.558
REMARK INTER:                  -8.247
REMARK INTRA:                  -2.311
REMARK UNBOUND:                -2.534
REMARK SMILES CCCCCCCCCCCCCCCCCC(=O)[O-]
REMARK SMILES IDX 10 1 11 2 12 3 13 4 14 5 15 6 16 7 17 8 18 9 19 10 20 11
REMARK SMILES IDX 9 12 8 13 7 14 6 15 5 16 4 17 3 18 2 19 1 20
REMARK H PARENT
REMARK Flexibility Score: inf
ROOT
ATOM      1  C   UNL     1      26.326   5.368  10.618  1.00  0.00     0.000 C 
ENDROOT
BRANCH   1   2
ATOM      2  C   UNL     1      27.825   5.657  10.811  1.00  0.00     0.000 C 
BRANCH   2   3
ATOM      3  C   UNL     1      28.695   4.392  10.701  1.00  0.00     0.000 C 
BRANCH   3   4
ATOM      4  C   UNL     1      28.004   3.179  10.044  1.00  0.00     0.000 C 
BRANCH   4   5
ATOM      5  C   UNL     1      28.065   3.144   8.504  1.00  0.00     0.000 C 
BRANCH   5   6
ATOM      6  C   UNL     1      27.880   1.750   7.879  1.00  0.00     0.000 C 
BRANCH   6   7
ATOM      7  C   UNL     1      28.140   0.610   8.875  1.00  0.00     0.006 C 
BRANCH   7   8
ATOM      8  C   UNL     1      27.721  -0.739   8.284  1.00  0.00     0.053 C 
BRANCH   8   9
ATOM      9  C   UNL     1      27.783  -1.810   9.327  1.00  0.00     0.041 C 
ATOM     10  O   UNL     1      27.651  -1.515  10.545  1.00  0.00    -0.550 OA
ATOM     11  O   UNL     1      28.042  -3.123   8.960  1.00  0.00    -0.550 OA
ENDBRANCH   8   9
ENDBRANCH   7   8
ENDBRANCH   6   7
ENDBRANCH   5   6
ENDBRANCH   4   5
ENDBRANCH   3   4
ENDBRANCH   2   3
ENDBRANCH   1   2
BRANCH   1  12
ATOM     12  C   UNL     1      25.637   6.408   9.719  1.00  0.00     0.000 C 
BRANCH  12  13
ATOM     13  C   UNL     1      26.617   7.094   8.755  1.00  0.00    -0.000 C 
BRANCH  13  14
ATOM     14  C   UNL     1      26.026   7.179   7.339  1.00  0.00    -0.000 C 
BRANCH  14  15
ATOM     15  C   UNL     1      24.891   6.169   7.112  1.00  0.00    -0.000 C 
BRANCH  15  16
ATOM     16  C   UNL     1      25.403   4.801   6.625  1.00  0.00    -0.000 C 
BRANCH  16  17
ATOM     17  C   UNL     1      24.389   3.672   6.864  1.00  0.00    -0.000 C 
BRANCH  17  18
ATOM     18  C   UNL     1      24.415   3.152   8.312  1.00  0.00    -0.000 C 
BRANCH  18  19
ATOM     19  C   UNL     1      23.641   1.835   8.480  1.00  0.00    -0.003 C 
ATOM     20  C   UNL     1      24.282   0.673   7.722  1.00  0.00     0.004 C 
ENDBRANCH  18  19
ENDBRANCH  17  18
ENDBRANCH  16  17
ENDBRANCH  15  16
ENDBRANCH  14  15
ENDBRANCH  13  14
ENDBRANCH  12  13
ENDBRANCH   1  12
TORSDOF 16
ENDMDL
MODEL 9
REMARK VINA RESULT:    -4.079      3.434      6.763
REMARK INTER + INTRA:         -10.428
REMARK INTER:                  -7.577
REMARK INTRA:                  -2.851
REMARK UNBOUND:                -2.534
REMARK SMILES CCCCCCCCCCCCCCCCCC(=O)[O-]
REMARK SMILES IDX 10 1 11 2 12 3 13 4 14 5 15 6 16 7 17 8 18 9 19 10 20 11
REMARK SMILES IDX 9 12 8 13 7 14 6 15 5 16 4 17 3 18 2 19 1 20
REMARK H PARENT
REMARK Flexibility Score: inf
ROOT
ATOM      1  C   UNL     1      26.477   3.548   6.812  1.00  0.00     0.000 C 
ENDROOT
BRANCH   1   2
ATOM      2  C   UNL     1      25.012   3.270   7.194  1.00  0.00     0.000 C 
BRANCH   2   3
ATOM      3  C   UNL     1      24.862   2.075   8.152  1.00  0.00     0.000 C 
BRANCH   3   4
ATOM      4  C   UNL     1      24.141   0.848   7.558  1.00  0.00     0.000 C 
BRANCH   4   5
ATOM      5  C   UNL     1      24.967  -0.453   7.540  1.00  0.00     0.000 C 
BRANCH   5   6
ATOM      6  C   UNL     1      26.389  -0.311   6.969  1.00  0.00     0.000 C 
BRANCH   6   7
ATOM      7  C   UNL     1      26.457  -0.587   5.460  1.00  0.00     0.006 C 
BRANCH   7   8
ATOM      8  C   UNL     1      26.527   0.721   4.666  1.00  0.00     0.053 C 
BRANCH   8   9
ATOM      9  C   UNL     1      25.444   0.767   3.635  1.00  0.00     0.041 C 
ATOM     10  O   UNL     1      24.234   0.752   3.986  1.00  0.00    -0.550 OA
ATOM     11  O   UNL     1      25.770   0.769   2.286  1.00  0.00    -0.550 OA
ENDBRANCH   8   9
ENDBRANCH   7   8
ENDBRANCH   6   7
ENDBRANCH   5   6
ENDBRANCH   4   5
ENDBRANCH   3   4
ENDBRANCH   2   3
ENDBRANCH   1   2
BRANCH   1  12
ATOM     12  C   UNL     1      27.467   3.035   7.870  1.00  0.00     0.000 C 
BRANCH  12  13
ATOM     13  C   UNL     1      27.970   4.152   8.798  1.00  0.00    -0.000 C 
BRANCH  13  14
ATOM     14  C   UNL     1      27.394   3.991  10.213  1.00  0.00    -0.000 C 
BRANCH  14  15
ATOM     15  C   UNL     1      26.750   5.284  10.739  1.00  0.00    -0.000 C 
BRANCH  15  16
ATOM     16  C   UNL     1      25.281   5.432  10.306  1.00  0.00    -0.000 C 
BRANCH  16  17
ATOM     17  C   UNL     1      24.983   6.809   9.690  1.00  0.00    -0.000 C 
BRANCH  17  18
ATOM     18  C   UNL     1      25.067   6.799   8.154  1.00  0.00    -0.000 C 
BRANCH  18  19
ATOM     19  C   UNL     1      26.359   7.446   7.630  1.00  0.00    -0.003 C 
ATOM     20  C   UNL     1      26.546   7.258   6.125  1.00  0.00     0.004 C 
ENDBRANCH  18  19
ENDBRANCH  17  18
ENDBRANCH  16  17
ENDBRANCH  15  16
ENDBRANCH  14  15
ENDBRANCH  13  14
ENDBRANCH  12  13
ENDBRANCH   1  12
TORSDOF 16
ENDMDL
