MODEL 1
REMARK VINA RESULT:    -5.748      0.000      0.000
REMARK INTER + INTRA:          -6.309
REMARK INTER:                  -6.252
REMARK INTRA:                  -0.057
REMARK UNBOUND:                -0.057
REMARK SMILES CC(=O)[C@@H]1CC[C@H]2[C@H]3CC=C4C[C@H](O)CC[C@]4(C)[C@@H]3CC[C@@]12C
REMARK SMILES IDX 4 1 5 2 6 3 7 4 22 5 21 6 20 7 19 8 8 9 9 10 10 11 11 12
REMARK SMILES IDX 17 13 16 14 15 15 13 16 12 17 18 18 23 19 2 20 1 21 3 22
REMARK SMILES IDX 14 23
REMARK H PARENT 14 24
REMARK Flexibility Score: inf
ROOT
ATOM      1  C   UNL     1      -6.263 -10.069 -43.618  1.00  0.00     0.062 C 
ATOM      2  C   UNL     1      -5.472 -11.365 -43.873  1.00  0.00     0.012 C 
ATOM      3  C   UNL     1      -4.705 -11.684 -42.588  1.00  0.00     0.005 C 
ATOM      4  C   UNL     1      -5.106 -10.616 -41.554  1.00  0.00    -0.001 C 
ATOM      5  C   UNL     1      -5.579  -9.407 -42.386  1.00  0.00    -0.020 C 
ATOM      6  C   UNL     1      -4.359  -8.571 -42.884  1.00  0.00     0.008 C 
ATOM      7  C   UNL     1      -3.381  -8.191 -41.768  1.00  0.00     0.005 C 
ATOM      8  C   UNL     1      -2.851  -9.438 -41.020  1.00  0.00     0.003 C 
ATOM      9  C   UNL     1      -4.029 -10.277 -40.479  1.00  0.00     0.000 C 
ATOM     10  C   UNL     1      -3.465 -11.550 -39.837  1.00  0.00     0.031 C 
ATOM     11  C   UNL     1      -2.592 -11.181 -38.686  1.00  0.00    -0.027 C 
ATOM     12  C   UNL     1      -1.823 -10.073 -38.690  1.00  0.00    -0.065 C 
ATOM     13  C   UNL     1      -1.733  -9.130 -39.913  1.00  0.00    -0.008 C 
ATOM     14  C   UNL     1      -1.848  -7.680 -39.352  1.00  0.00     0.014 C 
ATOM     15  C   UNL     1      -0.824  -7.303 -38.257  1.00  0.00     0.033 C 
ATOM     16  C   UNL     1      -0.279  -8.474 -37.412  1.00  0.00     0.118 C 
ATOM     17  C   UNL     1      -1.238  -9.669 -37.348  1.00  0.00     0.063 C 
ATOM     18  C   UNL     1      -0.358  -9.316 -40.606  1.00  0.00     0.016 C 
ATOM     19  C   UNL     1      -6.544  -8.497 -41.581  1.00  0.00     0.012 C 
ENDROOT
BRANCH   1  20
ATOM     20  C   UNL     1      -7.740 -10.386 -43.420  1.00  0.00     0.133 C 
ATOM     21  C   UNL     1      -8.807  -9.534 -44.043  1.00  0.00     0.088 C 
ATOM     22  O   UNL     1      -8.077 -11.349 -42.746  1.00  0.00    -0.300 OA
ENDBRANCH   1  20
BRANCH  16  23
ATOM     23  O   UNL     1      -0.016  -8.012 -36.111  1.00  0.00    -0.393 OA
ATOM     24  H   UNL     1      -0.880  -8.017 -35.621  1.00  0.00     0.210 HD
ENDBRANCH  16  23
TORSDOF 2
ENDMDL
MODEL 2
REMARK VINA RESULT:    -5.638      3.112      6.887
REMARK INTER + INTRA:          -6.189
REMARK INTER:                  -6.148
REMARK INTRA:                  -0.041
REMARK UNBOUND:                -0.057
REMARK SMILES CC(=O)[C@@H]1CC[C@H]2[C@H]3CC=C4C[C@H](O)CC[C@]4(C)[C@@H]3CC[C@@]12C
REMARK SMILES IDX 4 1 5 2 6 3 7 4 22 5 21 6 20 7 19 8 8 9 9 10 10 11 11 12
REMARK SMILES IDX 17 13 16 14 15 15 13 16 12 17 18 18 23 19 2 20 1 21 3 22
REMARK SMILES IDX 14 23
REMARK H PARENT 14 24
REMARK Flexibility Score: inf
ROOT
ATOM      1  C   UNL     1      -2.862 -11.270 -40.192  1.00  0.00     0.062 C 
ATOM      2  C   UNL     1      -4.363 -11.182 -39.865  1.00  0.00     0.012 C 
ATOM      3  C   UNL     1      -5.107 -11.066 -41.198  1.00  0.00     0.005 C 
ATOM      4  C   UNL     1      -4.047 -11.163 -42.309  1.00  0.00    -0.001 C 
ATOM      5  C   UNL     1      -2.725 -10.727 -41.644  1.00  0.00    -0.020 C 
ATOM      6  C   UNL     1      -2.626  -9.171 -41.586  1.00  0.00     0.008 C 
ATOM      7  C   UNL     1      -2.878  -8.491 -42.936  1.00  0.00     0.005 C 
ATOM      8  C   UNL     1      -4.256  -8.875 -43.525  1.00  0.00     0.003 C 
ATOM      9  C   UNL     1      -4.381 -10.411 -43.632  1.00  0.00     0.000 C 
ATOM     10  C   UNL     1      -5.794 -10.750 -44.122  1.00  0.00     0.031 C 
ATOM     11  C   UNL     1      -6.001 -10.172 -45.480  1.00  0.00    -0.027 C 
ATOM     12  C   UNL     1      -5.462  -8.992 -45.853  1.00  0.00    -0.065 C 
ATOM     13  C   UNL     1      -4.641  -8.112 -44.882  1.00  0.00    -0.008 C 
ATOM     14  C   UNL     1      -3.379  -7.654 -45.673  1.00  0.00     0.014 C 
ATOM     15  C   UNL     1      -3.655  -6.931 -47.012  1.00  0.00     0.033 C 
ATOM     16  C   UNL     1      -4.983  -7.294 -47.712  1.00  0.00     0.118 C 
ATOM     17  C   UNL     1      -5.499  -8.689 -47.340  1.00  0.00     0.063 C 
ATOM     18  C   UNL     1      -5.481  -6.875 -44.473  1.00  0.00     0.016 C 
ATOM     19  C   UNL     1      -1.490 -11.303 -42.386  1.00  0.00     0.012 C 
ENDROOT
BRANCH   1  20
ATOM     20  C   UNL     1      -2.368 -12.700 -40.008  1.00  0.00     0.133 C 
ATOM     21  C   UNL     1      -1.119 -12.996 -39.229  1.00  0.00     0.088 C 
ATOM     22  O   UNL     1      -2.991 -13.632 -40.496  1.00  0.00    -0.300 OA
ENDBRANCH   1  20
BRANCH  16  23
ATOM     23  O   UNL     1      -4.799  -7.215 -49.103  1.00  0.00    -0.393 OA
ATOM     24  H   UNL     1      -3.869  -6.902 -49.256  1.00  0.00     0.210 HD
ENDBRANCH  16  23
TORSDOF 2
ENDMDL
MODEL 3
REMARK VINA RESULT:    -5.588      1.779      2.360
REMARK INTER + INTRA:          -6.136
REMARK INTER:                  -6.080
REMARK INTRA:                  -0.056
REMARK UNBOUND:                -0.057
REMARK SMILES CC(=O)[C@@H]1CC[C@H]2[C@H]3CC=C4C[C@H](O)CC[C@]4(C)[C@@H]3CC[C@@]12C
REMARK SMILES IDX 4 1 5 2 6 3 7 4 22 5 21 6 20 7 19 8 8 9 9 10 10 11 11 12
REMARK SMILES IDX 17 13 16 14 15 15 13 16 12 17 18 18 23 19 2 20 1 21 3 22
REMARK SMILES IDX 14 23
REMARK H PARENT 14 24
REMARK Flexibility Score: inf
ROOT
ATOM      1  C   UNL     1      -6.489  -8.777 -45.556  1.00  0.00     0.062 C 
ATOM      2  C   UNL     1      -6.422 -10.296 -45.793  1.00  0.00     0.012 C 
ATOM      3  C   UNL     1      -5.992 -10.939 -44.472  1.00  0.00     0.005 C 
ATOM      4  C   UNL     1      -5.882  -9.802 -43.440  1.00  0.00    -0.001 C 
ATOM      5  C   UNL     1      -5.647  -8.524 -44.271  1.00  0.00    -0.020 C 
ATOM      6  C   UNL     1      -4.146  -8.400 -44.676  1.00  0.00     0.008 C 
ATOM      7  C   UNL     1      -3.180  -8.539 -43.495  1.00  0.00     0.005 C 
ATOM      8  C   UNL     1      -3.378  -9.878 -42.746  1.00  0.00     0.003 C 
ATOM      9  C   UNL     1      -4.848 -10.025 -42.295  1.00  0.00     0.000 C 
ATOM     10  C   UNL     1      -5.023 -11.405 -41.650  1.00  0.00     0.031 C 
ATOM     11  C   UNL     1      -4.155 -11.502 -40.441  1.00  0.00    -0.027 C 
ATOM     12  C   UNL     1      -2.943 -10.914 -40.373  1.00  0.00    -0.065 C 
ATOM     13  C   UNL     1      -2.325 -10.148 -41.567  1.00  0.00    -0.008 C 
ATOM     14  C   UNL     1      -1.750  -8.824 -40.981  1.00  0.00     0.014 C 
ATOM     15  C   UNL     1      -0.743  -8.988 -39.819  1.00  0.00     0.033 C 
ATOM     16  C   UNL     1      -0.898 -10.268 -38.970  1.00  0.00     0.118 C 
ATOM     17  C   UNL     1      -2.321 -10.837 -38.990  1.00  0.00     0.063 C 
ATOM     18  C   UNL     1      -1.178 -10.992 -42.182  1.00  0.00     0.016 C 
ATOM     19  C   UNL     1      -6.090  -7.250 -43.504  1.00  0.00     0.012 C 
ENDROOT
BRANCH   1  20
ATOM     20  C   UNL     1      -7.941  -8.325 -45.454  1.00  0.00     0.133 C 
ATOM     21  C   UNL     1      -8.413  -7.069 -46.127  1.00  0.00     0.088 C 
ATOM     22  O   UNL     1      -8.747  -8.989 -44.817  1.00  0.00    -0.300 OA
ENDBRANCH   1  20
BRANCH  16  23
ATOM     23  O   UNL     1      -0.524  -9.983 -37.645  1.00  0.00    -0.393 OA
ATOM     24  H   UNL     1      -0.192  -9.046 -37.632  1.00  0.00     0.210 HD
ENDBRANCH  16  23
TORSDOF 2
ENDMDL
MODEL 4
REMARK VINA RESULT:    -5.434     12.372     14.680
REMARK INTER + INTRA:          -5.968
REMARK INTER:                  -5.911
REMARK INTRA:                  -0.056
REMARK UNBOUND:                -0.057
REMARK SMILES CC(=O)[C@@H]1CC[C@H]2[C@H]3CC=C4C[C@H](O)CC[C@]4(C)[C@@H]3CC[C@@]12C
REMARK SMILES IDX 4 1 5 2 6 3 7 4 22 5 21 6 20 7 19 8 8 9 9 10 10 11 11 12
REMARK SMILES IDX 17 13 16 14 15 15 13 16 12 17 18 18 23 19 2 20 1 21 3 22
REMARK SMILES IDX 14 23
REMARK H PARENT 14 24
REMARK Flexibility Score: inf
ROOT
ATOM      1  C   UNL     1      -0.932 -19.169 -41.367  1.00  0.00     0.062 C 
ATOM      2  C   UNL     1      -2.244 -19.931 -41.106  1.00  0.00     0.012 C 
ATOM      3  C   UNL     1      -1.943 -21.420 -41.292  1.00  0.00     0.005 C 
ATOM      4  C   UNL     1      -0.438 -21.537 -41.587  1.00  0.00    -0.001 C 
ATOM      5  C   UNL     1      -0.031 -20.163 -42.157  1.00  0.00    -0.020 C 
ATOM      6  C   UNL     1      -0.394 -20.066 -43.672  1.00  0.00     0.008 C 
ATOM      7  C   UNL     1       0.128 -21.243 -44.502  1.00  0.00     0.005 C 
ATOM      8  C   UNL     1      -0.382 -22.599 -43.959  1.00  0.00     0.003 C 
ATOM      9  C   UNL     1      -0.012 -22.751 -42.467  1.00  0.00     0.000 C 
ATOM     10  C   UNL     1      -0.622 -24.056 -41.944  1.00  0.00     0.031 C 
ATOM     11  C   UNL     1      -0.037 -25.210 -42.687  1.00  0.00    -0.027 C 
ATOM     12  C   UNL     1       0.291 -25.137 -43.993  1.00  0.00    -0.065 C 
ATOM     13  C   UNL     1       0.027 -23.872 -44.844  1.00  0.00    -0.008 C 
ATOM     14  C   UNL     1       1.329 -23.622 -45.663  1.00  0.00     0.014 C 
ATOM     15  C   UNL     1       1.814 -24.808 -46.528  1.00  0.00     0.033 C 
ATOM     16  C   UNL     1       1.407 -26.213 -46.034  1.00  0.00     0.118 C 
ATOM     17  C   UNL     1       1.151 -26.270 -44.524  1.00  0.00     0.063 C 
ATOM     18  C   UNL     1      -1.157 -24.140 -45.810  1.00  0.00     0.016 C 
ATOM     19  C   UNL     1       1.483 -19.884 -41.963  1.00  0.00     0.012 C 
ENDROOT
BRANCH   1  20
ATOM     20  C   UNL     1      -0.332 -18.690 -40.050  1.00  0.00     0.133 C 
ATOM     21  C   UNL     1       0.265 -17.319 -39.922  1.00  0.00     0.088 C 
ATOM     22  O   UNL     1      -0.334 -19.424 -39.072  1.00  0.00    -0.300 OA
ENDBRANCH   1  20
BRANCH  16  23
ATOM     23  O   UNL     1       2.420 -27.125 -46.374  1.00  0.00    -0.393 OA
ATOM     24  H   UNL     1       3.145 -26.605 -46.812  1.00  0.00     0.210 HD
ENDBRANCH  16  23
TORSDOF 2
ENDMDL
MODEL 5
REMARK VINA RESULT:    -5.408      2.564      6.769
REMARK INTER + INTRA:          -5.940
REMARK INTER:                  -5.894
REMARK INTRA:                  -0.046
REMARK UNBOUND:                -0.057
REMARK SMILES CC(=O)[C@@H]1CC[C@H]2[C@H]3CC=C4C[C@H](O)CC[C@]4(C)[C@@H]3CC[C@@]12C
REMARK SMILES IDX 4 1 5 2 6 3 7 4 22 5 21 6 20 7 19 8 8 9 9 10 10 11 11 12
REMARK SMILES IDX 17 13 16 14 15 15 13 16 12 17 18 18 23 19 2 20 1 21 3 22
REMARK SMILES IDX 14 23
REMARK H PARENT 14 24
REMARK Flexibility Score: inf
ROOT
ATOM      1  C   UNL     1       0.504 -10.764 -40.927  1.00  0.00     0.062 C 
ATOM      2  C   UNL     1      -0.211 -11.957 -40.269  1.00  0.00     0.012 C 
ATOM      3  C   UNL     1      -1.527 -12.165 -41.024  1.00  0.00     0.005 C 
ATOM      4  C   UNL     1      -1.545 -11.142 -42.174  1.00  0.00    -0.001 C 
ATOM      5  C   UNL     1      -0.602 -10.009 -41.722  1.00  0.00    -0.020 C 
ATOM      6  C   UNL     1      -1.337  -9.037 -40.748  1.00  0.00     0.008 C 
ATOM      7  C   UNL     1      -2.677  -8.527 -41.288  1.00  0.00     0.005 C 
ATOM      8  C   UNL     1      -3.634  -9.691 -41.638  1.00  0.00     0.003 C 
ATOM      9  C   UNL     1      -2.956 -10.661 -42.630  1.00  0.00     0.000 C 
ATOM     10  C   UNL     1      -3.897 -11.848 -42.869  1.00  0.00     0.031 C 
ATOM     11  C   UNL     1      -5.163 -11.362 -43.488  1.00  0.00    -0.027 C 
ATOM     12  C   UNL     1      -5.708 -10.168 -43.176  1.00  0.00    -0.065 C 
ATOM     13  C   UNL     1      -5.101  -9.236 -42.101  1.00  0.00    -0.008 C 
ATOM     14  C   UNL     1      -5.102  -7.805 -42.718  1.00  0.00     0.014 C 
ATOM     15  C   UNL     1      -6.473  -7.292 -43.217  1.00  0.00     0.033 C 
ATOM     16  C   UNL     1      -7.481  -8.378 -43.650  1.00  0.00     0.118 C 
ATOM     17  C   UNL     1      -6.808  -9.680 -44.101  1.00  0.00     0.063 C 
ATOM     18  C   UNL     1      -5.995  -9.261 -40.833  1.00  0.00     0.016 C 
ATOM     19  C   UNL     1      -0.037  -9.214 -42.929  1.00  0.00     0.012 C 
ENDROOT
BRANCH   1  20
ATOM     20  C   UNL     1       1.665 -11.256 -41.783  1.00  0.00     0.133 C 
ATOM     21  C   UNL     1       3.021 -10.618 -41.695  1.00  0.00     0.088 C 
ATOM     22  O   UNL     1       1.505 -12.188 -42.558  1.00  0.00    -0.300 OA
ENDBRANCH   1  20
BRANCH  16  23
ATOM     23  O   UNL     1      -8.274  -7.872 -44.693  1.00  0.00    -0.393 OA
ATOM     24  H   UNL     1      -9.011  -8.523 -44.841  1.00  0.00     0.210 HD
ENDBRANCH  16  23
TORSDOF 2
ENDMDL
MODEL 6
REMARK VINA RESULT:    -5.294      2.184      3.571
REMARK INTER + INTRA:          -5.815
REMARK INTER:                  -5.759
REMARK INTRA:                  -0.056
REMARK UNBOUND:                -0.057
REMARK SMILES CC(=O)[C@@H]1CC[C@H]2[C@H]3CC=C4C[C@H](O)CC[C@]4(C)[C@@H]3CC[C@@]12C
REMARK SMILES IDX 4 1 5 2 6 3 7 4 22 5 21 6 20 7 19 8 8 9 9 10 10 11 11 12
REMARK SMILES IDX 17 13 16 14 15 15 13 16 12 17 18 18 23 19 2 20 1 21 3 22
REMARK SMILES IDX 14 23
REMARK H PARENT 14 24
REMARK Flexibility Score: inf
ROOT
ATOM      1  C   UNL     1      -8.138 -10.374 -43.952  1.00  0.00     0.062 C 
ATOM      2  C   UNL     1      -8.515  -9.872 -42.547  1.00  0.00     0.012 C 
ATOM      3  C   UNL     1      -7.280  -9.170 -41.974  1.00  0.00     0.005 C 
ATOM      4  C   UNL     1      -6.204  -9.196 -43.075  1.00  0.00    -0.001 C 
ATOM      5  C   UNL     1      -6.582 -10.386 -43.980  1.00  0.00    -0.020 C 
ATOM      6  C   UNL     1      -6.083 -11.728 -43.361  1.00  0.00     0.008 C 
ATOM      7  C   UNL     1      -4.601 -11.710 -42.973  1.00  0.00     0.005 C 
ATOM      8  C   UNL     1      -4.280 -10.563 -41.986  1.00  0.00     0.003 C 
ATOM      9  C   UNL     1      -4.727  -9.208 -42.577  1.00  0.00     0.000 C 
ATOM     10  C   UNL     1      -4.485  -8.116 -41.529  1.00  0.00     0.031 C 
ATOM     11  C   UNL     1      -3.028  -8.032 -41.227  1.00  0.00    -0.027 C 
ATOM     12  C   UNL     1      -2.229  -9.118 -41.212  1.00  0.00    -0.065 C 
ATOM     13  C   UNL     1      -2.771 -10.549 -41.443  1.00  0.00    -0.008 C 
ATOM     14  C   UNL     1      -1.785 -11.231 -42.438  1.00  0.00     0.014 C 
ATOM     15  C   UNL     1      -0.300 -11.240 -42.007  1.00  0.00     0.033 C 
ATOM     16  C   UNL     1       0.136 -10.096 -41.066  1.00  0.00     0.118 C 
ATOM     17  C   UNL     1      -0.736  -8.842 -41.198  1.00  0.00     0.063 C 
ATOM     18  C   UNL     1      -2.776 -11.320 -40.097  1.00  0.00     0.016 C 
ATOM     19  C   UNL     1      -6.007 -10.224 -45.412  1.00  0.00     0.012 C 
ENDROOT
BRANCH   1  20
ATOM     20  C   UNL     1      -8.778  -9.490 -45.015  1.00  0.00     0.133 C 
ATOM     21  C   UNL     1      -9.400 -10.081 -46.246  1.00  0.00     0.088 C 
ATOM     22  O   UNL     1      -8.795  -8.275 -44.874  1.00  0.00    -0.300 OA
ENDBRANCH   1  20
BRANCH  16  23
ATOM     23  O   UNL     1       1.475  -9.769 -41.339  1.00  0.00    -0.393 OA
ATOM     24  H   UNL     1       1.720 -10.229 -42.186  1.00  0.00     0.210 HD
ENDBRANCH  16  23
TORSDOF 2
ENDMDL
MODEL 7
REMARK VINA RESULT:    -5.263     13.446     16.199
REMARK INTER + INTRA:          -5.782
REMARK INTER:                  -5.746
REMARK INTRA:                  -0.036
REMARK UNBOUND:                -0.057
REMARK SMILES CC(=O)[C@@H]1CC[C@H]2[C@H]3CC=C4C[C@H](O)CC[C@]4(C)[C@@H]3CC[C@@]12C
REMARK SMILES IDX 4 1 5 2 6 3 7 4 22 5 21 6 20 7 19 8 8 9 9 10 10 11 11 12
REMARK SMILES IDX 17 13 16 14 15 15 13 16 12 17 18 18 23 19 2 20 1 21 3 22
REMARK SMILES IDX 14 23
REMARK H PARENT 14 24
REMARK Flexibility Score: inf
ROOT
ATOM      1  C   UNL     1       1.098 -21.080 -41.256  1.00  0.00     0.062 C 
ATOM      2  C   UNL     1       2.181 -22.125 -40.938  1.00  0.00     0.012 C 
ATOM      3  C   UNL     1       2.337 -23.004 -42.181  1.00  0.00     0.005 C 
ATOM      4  C   UNL     1       1.399 -22.426 -43.255  1.00  0.00    -0.001 C 
ATOM      5  C   UNL     1       0.316 -21.657 -42.472  1.00  0.00    -0.020 C 
ATOM      6  C   UNL     1      -0.778 -22.635 -41.941  1.00  0.00     0.008 C 
ATOM      7  C   UNL     1      -1.352 -23.556 -43.022  1.00  0.00     0.005 C 
ATOM      8  C   UNL     1      -0.246 -24.384 -43.717  1.00  0.00     0.003 C 
ATOM      9  C   UNL     1       0.841 -23.449 -44.290  1.00  0.00     0.000 C 
ATOM     10  C   UNL     1       1.964 -24.312 -44.878  1.00  0.00     0.031 C 
ATOM     11  C   UNL     1       1.424 -25.134 -45.998  1.00  0.00    -0.027 C 
ATOM     12  C   UNL     1       0.172 -25.637 -45.986  1.00  0.00    -0.065 C 
ATOM     13  C   UNL     1      -0.782 -25.457 -44.782  1.00  0.00    -0.008 C 
ATOM     14  C   UNL     1      -2.162 -25.049 -45.380  1.00  0.00     0.014 C 
ATOM     15  C   UNL     1      -2.745 -26.015 -46.438  1.00  0.00     0.033 C 
ATOM     16  C   UNL     1      -1.714 -26.845 -47.232  1.00  0.00     0.118 C 
ATOM     17  C   UNL     1      -0.335 -26.180 -47.310  1.00  0.00     0.063 C 
ATOM     18  C   UNL     1      -0.916 -26.805 -44.026  1.00  0.00     0.016 C 
ATOM     19  C   UNL     1      -0.346 -20.552 -43.339  1.00  0.00     0.012 C 
ENDROOT
BRANCH   1  20
ATOM     20  C   UNL     1       1.739 -19.720 -41.511  1.00  0.00     0.133 C 
ATOM     21  C   UNL     1       1.065 -18.451 -41.078  1.00  0.00     0.088 C 
ATOM     22  O   UNL     1       2.822 -19.648 -42.074  1.00  0.00    -0.300 OA
ENDBRANCH   1  20
BRANCH  16  23
ATOM     23  O   UNL     1      -2.207 -27.060 -48.530  1.00  0.00    -0.393 OA
ATOM     24  H   UNL     1      -3.002 -26.475 -48.640  1.00  0.00     0.210 HD
ENDBRANCH  16  23
TORSDOF 2
ENDMDL
MODEL 8
REMARK VINA RESULT:    -5.209     12.719     14.340
REMARK INTER + INTRA:          -5.724
REMARK INTER:                  -5.746
REMARK INTRA:                   0.023
REMARK UNBOUND:                -0.057
REMARK SMILES CC(=O)[C@@H]1CC[C@H]2[C@H]3CC=C4C[C@H](O)CC[C@]4(C)[C@@H]3CC[C@@]12C
REMARK SMILES IDX 4 1 5 2 6 3 7 4 22 5 21 6 20 7 19 8 8 9 9 10 10 11 11 12
REMARK SMILES IDX 17 13 16 14 15 15 13 16 12 17 18 18 23 19 2 20 1 21 3 22
REMARK SMILES IDX 14 23
REMARK H PARENT 14 24
REMARK Flexibility Score: inf
ROOT
ATOM      1  C   UNL     1       0.214 -25.603 -45.094  1.00  0.00     0.062 C 
ATOM      2  C   UNL     1      -1.107 -25.346 -44.348  1.00  0.00     0.012 C 
ATOM      3  C   UNL     1      -1.129 -23.863 -43.969  1.00  0.00     0.005 C 
ATOM      4  C   UNL     1       0.146 -23.235 -44.561  1.00  0.00    -0.001 C 
ATOM      5  C   UNL     1       1.136 -24.406 -44.720  1.00  0.00    -0.020 C 
ATOM      6  C   UNL     1       1.836 -24.723 -43.362  1.00  0.00     0.008 C 
ATOM      7  C   UNL     1       2.457 -23.494 -42.691  1.00  0.00     0.005 C 
ATOM      8  C   UNL     1       1.411 -22.378 -42.458  1.00  0.00     0.003 C 
ATOM      9  C   UNL     1       0.718 -22.008 -43.788  1.00  0.00     0.000 C 
ATOM     10  C   UNL     1      -0.378 -20.976 -43.495  1.00  0.00     0.031 C 
ATOM     11  C   UNL     1       0.240 -19.740 -42.935  1.00  0.00    -0.027 C 
ATOM     12  C   UNL     1       1.318 -19.775 -42.124  1.00  0.00    -0.065 C 
ATOM     13  C   UNL     1       1.959 -21.103 -41.655  1.00  0.00    -0.008 C 
ATOM     14  C   UNL     1       3.498 -20.923 -41.823  1.00  0.00     0.014 C 
ATOM     15  C   UNL     1       4.112 -19.700 -41.102  1.00  0.00     0.033 C 
ATOM     16  C   UNL     1       3.161 -18.505 -40.875  1.00  0.00     0.118 C 
ATOM     17  C   UNL     1       2.014 -18.446 -41.890  1.00  0.00     0.063 C 
ATOM     18  C   UNL     1       1.618 -21.339 -40.160  1.00  0.00     0.016 C 
ATOM     19  C   UNL     1       2.207 -24.111 -45.804  1.00  0.00     0.012 C 
ENDROOT
BRANCH   1  20
ATOM     20  C   UNL     1      -0.047 -25.750 -46.589  1.00  0.00     0.133 C 
ATOM     21  C   UNL     1      -1.213 -25.069 -47.245  1.00  0.00     0.088 C 
ATOM     22  O   UNL     1       0.700 -26.430 -47.278  1.00  0.00    -0.300 OA
ENDBRANCH   1  20
BRANCH  16  23
ATOM     23  O   UNL     1       3.905 -17.315 -40.937  1.00  0.00    -0.393 OA
ATOM     24  H   UNL     1       4.861 -17.573 -41.017  1.00  0.00     0.210 HD
ENDBRANCH  16  23
TORSDOF 2
ENDMDL
MODEL 9
REMARK VINA RESULT:    -5.122      2.540      3.877
REMARK INTER + INTRA:          -5.628
REMARK INTER:                  -5.572
REMARK INTRA:                  -0.056
REMARK UNBOUND:                -0.057
REMARK SMILES CC(=O)[C@@H]1CC[C@H]2[C@H]3CC=C4C[C@H](O)CC[C@]4(C)[C@@H]3CC[C@@]12C
REMARK SMILES IDX 4 1 5 2 6 3 7 4 22 5 21 6 20 7 19 8 8 9 9 10 10 11 11 12
REMARK SMILES IDX 17 13 16 14 15 15 13 16 12 17 18 18 23 19 2 20 1 21 3 22
REMARK SMILES IDX 14 23
REMARK H PARENT 14 24
REMARK Flexibility Score: inf
ROOT
ATOM      1  C   UNL     1      -6.961  -8.465 -44.061  1.00  0.00     0.062 C 
ATOM      2  C   UNL     1      -6.362  -7.174 -43.477  1.00  0.00     0.012 C 
ATOM      3  C   UNL     1      -4.879  -7.446 -43.212  1.00  0.00     0.005 C 
ATOM      4  C   UNL     1      -4.593  -8.873 -43.711  1.00  0.00    -0.001 C 
ATOM      5  C   UNL     1      -5.957  -9.592 -43.681  1.00  0.00    -0.020 C 
ATOM      6  C   UNL     1      -6.286 -10.086 -42.238  1.00  0.00     0.008 C 
ATOM      7  C   UNL     1      -5.158 -10.902 -41.598  1.00  0.00     0.005 C 
ATOM      8  C   UNL     1      -3.829 -10.110 -41.556  1.00  0.00     0.003 C 
ATOM      9  C   UNL     1      -3.448  -9.632 -42.974  1.00  0.00     0.000 C 
ATOM     10  C   UNL     1      -2.185  -8.769 -42.874  1.00  0.00     0.031 C 
ATOM     11  C   UNL     1      -1.061  -9.593 -42.344  1.00  0.00    -0.027 C 
ATOM     12  C   UNL     1      -1.246 -10.563 -41.425  1.00  0.00    -0.065 C 
ATOM     13  C   UNL     1      -2.629 -10.854 -40.796  1.00  0.00    -0.008 C 
ATOM     14  C   UNL     1      -2.796 -12.404 -40.815  1.00  0.00     0.014 C 
ATOM     15  C   UNL     1      -1.669 -13.207 -40.126  1.00  0.00     0.033 C 
ATOM     16  C   UNL     1      -0.283 -12.526 -40.087  1.00  0.00     0.118 C 
ATOM     17  C   UNL     1      -0.079 -11.511 -41.218  1.00  0.00     0.063 C 
ATOM     18  C   UNL     1      -2.647 -10.343 -39.332  1.00  0.00     0.016 C 
ATOM     19  C   UNL     1      -5.998 -10.790 -44.666  1.00  0.00     0.012 C 
ENDROOT
BRANCH   1  20
ATOM     20  C   UNL     1      -7.189  -8.308 -45.559  1.00  0.00     0.133 C 
ATOM     21  C   UNL     1      -8.448  -8.803 -46.210  1.00  0.00     0.088 C 
ATOM     22  O   UNL     1      -6.341  -7.768 -46.256  1.00  0.00    -0.300 OA
ENDBRANCH   1  20
BRANCH  16  23
ATOM     23  O   UNL     1       0.711 -13.515 -40.158  1.00  0.00    -0.393 OA
ATOM     24  H   UNL     1       0.735 -13.838 -41.098  1.00  0.00     0.210 HD
ENDBRANCH  16  23
TORSDOF 2
ENDMDL
