MODEL 1
REMARK VINA RESULT:    -4.172      0.000      0.000
REMARK INTER + INTRA:          -6.526
REMARK INTER:                  -6.123
REMARK INTRA:                  -0.402
REMARK UNBOUND:                -0.402
REMARK SMILES O=C([O-])CCCCCCCC(=O)[O-]
REMARK SMILES IDX 7 1 6 2 5 3 4 4 2 5 1 6 3 7 8 8 9 9 10 10 11 11 12 12 13 13
REMARK H PARENT
REMARK Flexibility Score: inf
ROOT
ATOM      1  C   UNL     1       6.727 -18.999  23.967  1.00  0.00     0.000 C 
ENDROOT
BRANCH   1   2
ATOM      2  C   UNL     1       8.078 -18.515  23.412  1.00  0.00     0.000 C 
BRANCH   2   3
ATOM      3  C   UNL     1       7.970 -17.163  22.686  1.00  0.00     0.006 C 
BRANCH   3   4
ATOM      4  C   UNL     1       7.637 -16.015  23.649  1.00  0.00     0.053 C 
BRANCH   4   5
ATOM      5  C   UNL     1       8.795 -15.676  24.536  1.00  0.00     0.041 C 
ATOM      6  O   UNL     1       8.746 -15.935  25.767  1.00  0.00    -0.550 OA
ATOM      7  O   UNL     1       9.916 -15.048  24.009  1.00  0.00    -0.550 OA
ENDBRANCH   4   5
ENDBRANCH   3   4
ENDBRANCH   2   3
ENDBRANCH   1   2
BRANCH   1   8
ATOM      8  C   UNL     1       6.416 -20.453  23.578  1.00  0.00     0.000 C 
BRANCH   8   9
ATOM      9  C   UNL     1       7.515 -21.085  22.704  1.00  0.00     0.006 C 
BRANCH   9  10
ATOM     10  C   UNL     1       7.012 -21.673  21.376  1.00  0.00     0.053 C 
BRANCH  10  11
ATOM     11  C   UNL     1       8.105 -22.360  20.616  1.00  0.00     0.041 C 
ATOM     12  O   UNL     1       8.731 -23.322  21.135  1.00  0.00    -0.550 OA
ATOM     13  O   UNL     1       8.409 -21.958  19.322  1.00  0.00    -0.550 OA
ENDBRANCH  10  11
ENDBRANCH   9  10
ENDBRANCH   8   9
ENDBRANCH   1   8
TORSDOF 8
ENDMDL
MODEL 2
REMARK VINA RESULT:    -4.125      1.019      1.681
REMARK INTER + INTRA:          -6.457
REMARK INTER:                  -5.942
REMARK INTRA:                  -0.515
REMARK UNBOUND:                -0.402
REMARK SMILES O=C([O-])CCCCCCCC(=O)[O-]
REMARK SMILES IDX 7 1 6 2 5 3 4 4 2 5 1 6 3 7 8 8 9 9 10 10 11 11 12 12 13 13
REMARK H PARENT
REMARK Flexibility Score: inf
ROOT
ATOM      1  C   UNL     1       8.232 -18.616  22.524  1.00  0.00     0.000 C 
ENDROOT
BRANCH   1   2
ATOM      2  C   UNL     1       7.890 -17.215  21.990  1.00  0.00     0.000 C 
BRANCH   2   3
ATOM      3  C   UNL     1       7.076 -16.380  22.994  1.00  0.00     0.006 C 
BRANCH   3   4
ATOM      4  C   UNL     1       7.789 -15.073  23.370  1.00  0.00     0.053 C 
BRANCH   4   5
ATOM      5  C   UNL     1       8.958 -15.315  24.274  1.00  0.00     0.041 C 
ATOM      6  O   UNL     1      10.126 -15.054  23.881  1.00  0.00    -0.550 OA
ATOM      7  O   UNL     1       8.762 -15.856  25.537  1.00  0.00    -0.550 OA
ENDBRANCH   4   5
ENDBRANCH   3   4
ENDBRANCH   2   3
ENDBRANCH   1   2
BRANCH   1   8
ATOM      8  C   UNL     1       7.129 -19.189  23.429  1.00  0.00     0.000 C 
BRANCH   8   9
ATOM      9  C   UNL     1       6.861 -20.683  23.168  1.00  0.00     0.006 C 
BRANCH   9  10
ATOM     10  C   UNL     1       7.252 -21.162  21.762  1.00  0.00     0.053 C 
BRANCH  10  11
ATOM     11  C   UNL     1       8.304 -22.228  21.804  1.00  0.00     0.041 C 
ATOM     12  O   UNL     1       8.032 -23.402  21.441  1.00  0.00    -0.550 OA
ATOM     13  O   UNL     1       9.594 -21.915  22.213  1.00  0.00    -0.550 OA
ENDBRANCH  10  11
ENDBRANCH   9  10
ENDBRANCH   8   9
ENDBRANCH   1   8
TORSDOF 8
ENDMDL
MODEL 3
REMARK VINA RESULT:    -4.115      0.948      6.244
REMARK INTER + INTRA:          -6.442
REMARK INTER:                  -5.871
REMARK INTRA:                  -0.571
REMARK UNBOUND:                -0.402
REMARK SMILES O=C([O-])CCCCCCCC(=O)[O-]
REMARK SMILES IDX 7 1 6 2 5 3 4 4 2 5 1 6 3 7 8 8 9 9 10 10 11 11 12 12 13 13
REMARK H PARENT
REMARK Flexibility Score: inf
ROOT
ATOM      1  C   UNL     1       8.463 -19.139  23.748  1.00  0.00     0.000 C 
ENDROOT
BRANCH   1   2
ATOM      2  C   UNL     1       7.248 -19.998  24.140  1.00  0.00     0.000 C 
BRANCH   2   3
ATOM      3  C   UNL     1       6.670 -20.784  22.951  1.00  0.00     0.006 C 
BRANCH   3   4
ATOM      4  C   UNL     1       7.719 -21.693  22.295  1.00  0.00     0.053 C 
BRANCH   4   5
ATOM      5  C   UNL     1       7.851 -21.427  20.828  1.00  0.00     0.041 C 
ATOM      6  O   UNL     1       7.403 -20.358  20.336  1.00  0.00    -0.550 OA
ATOM      7  O   UNL     1       8.441 -22.372  19.998  1.00  0.00    -0.550 OA
ENDBRANCH   4   5
ENDBRANCH   3   4
ENDBRANCH   2   3
ENDBRANCH   1   2
BRANCH   1   8
ATOM      8  C   UNL     1       8.095 -18.000  22.783  1.00  0.00     0.000 C 
BRANCH   8   9
ATOM      9  C   UNL     1       7.208 -16.926  23.439  1.00  0.00     0.006 C 
BRANCH   9  10
ATOM     10  C   UNL     1       7.821 -15.517  23.452  1.00  0.00     0.053 C 
BRANCH  10  11
ATOM     11  C   UNL     1       9.028 -15.438  24.335  1.00  0.00     0.041 C 
ATOM     12  O   UNL     1       8.944 -15.743  25.553  1.00  0.00    -0.550 OA
ATOM     13  O   UNL     1      10.253 -15.057  23.803  1.00  0.00    -0.550 OA
ENDBRANCH  10  11
ENDBRANCH   9  10
ENDBRANCH   8   9
ENDBRANCH   1   8
TORSDOF 8
ENDMDL
MODEL 4
REMARK VINA RESULT:    -4.083      1.363      6.415
REMARK INTER + INTRA:          -6.395
REMARK INTER:                  -6.070
REMARK INTRA:                  -0.324
REMARK UNBOUND:                -0.402
REMARK SMILES O=C([O-])CCCCCCCC(=O)[O-]
REMARK SMILES IDX 7 1 6 2 5 3 4 4 2 5 1 6 3 7 8 8 9 9 10 10 11 11 12 12 13 13
REMARK H PARENT
REMARK Flexibility Score: inf
ROOT
ATOM      1  C   UNL     1       6.612 -18.853  24.520  1.00  0.00     0.000 C 
ENDROOT
BRANCH   1   2
ATOM      2  C   UNL     1       6.789 -20.373  24.364  1.00  0.00     0.000 C 
BRANCH   2   3
ATOM      3  C   UNL     1       6.826 -20.816  22.891  1.00  0.00     0.006 C 
BRANCH   3   4
ATOM      4  C   UNL     1       8.247 -21.174  22.431  1.00  0.00     0.053 C 
BRANCH   4   5
ATOM      5  C   UNL     1       8.237 -22.112  21.264  1.00  0.00     0.041 C 
ATOM      6  O   UNL     1       7.943 -21.690  20.115  1.00  0.00    -0.550 OA
ATOM      7  O   UNL     1       8.522 -23.458  21.450  1.00  0.00    -0.550 OA
ENDBRANCH   4   5
ENDBRANCH   3   4
ENDBRANCH   2   3
ENDBRANCH   1   2
BRANCH   1   8
ATOM      8  C   UNL     1       7.345 -18.297  25.753  1.00  0.00     0.000 C 
BRANCH   8   9
ATOM      9  C   UNL     1       8.729 -17.716  25.410  1.00  0.00     0.006 C 
BRANCH   9  10
ATOM     10  C   UNL     1       8.863 -16.205  25.658  1.00  0.00     0.053 C 
BRANCH  10  11
ATOM     11  C   UNL     1       9.002 -15.437  24.380  1.00  0.00     0.041 C 
ATOM     12  O   UNL     1      10.136 -15.048  23.993  1.00  0.00    -0.550 OA
ATOM     13  O   UNL     1       7.883 -15.178  23.599  1.00  0.00    -0.550 OA
ENDBRANCH  10  11
ENDBRANCH   9  10
ENDBRANCH   8   9
ENDBRANCH   1   8
TORSDOF 8
ENDMDL
MODEL 5
REMARK VINA RESULT:    -4.082      1.018      6.540
REMARK INTER + INTRA:          -6.394
REMARK INTER:                  -5.974
REMARK INTRA:                  -0.420
REMARK UNBOUND:                -0.402
REMARK SMILES O=C([O-])CCCCCCCC(=O)[O-]
REMARK SMILES IDX 7 1 6 2 5 3 4 4 2 5 1 6 3 7 8 8 9 9 10 10 11 11 12 12 13 13
REMARK H PARENT
REMARK Flexibility Score: inf
ROOT
ATOM      1  C   UNL     1       7.715 -18.649  21.733  1.00  0.00     0.000 C 
ENDROOT
BRANCH   1   2
ATOM      2  C   UNL     1       7.255 -19.192  23.096  1.00  0.00     0.000 C 
BRANCH   2   3
ATOM      3  C   UNL     1       7.284 -20.729  23.162  1.00  0.00     0.006 C 
BRANCH   3   4
ATOM      4  C   UNL     1       8.549 -21.312  22.517  1.00  0.00     0.053 C 
BRANCH   4   5
ATOM      5  C   UNL     1       8.228 -22.416  21.557  1.00  0.00     0.041 C 
ATOM      6  O   UNL     1       9.018 -23.387  21.424  1.00  0.00    -0.550 OA
ATOM      7  O   UNL     1       7.073 -22.357  20.789  1.00  0.00    -0.550 OA
ENDBRANCH   4   5
ENDBRANCH   3   4
ENDBRANCH   2   3
ENDBRANCH   1   2
BRANCH   1   8
ATOM      8  C   UNL     1       7.931 -17.127  21.745  1.00  0.00     0.000 C 
BRANCH   8   9
ATOM      9  C   UNL     1       7.211 -16.433  22.916  1.00  0.00     0.006 C 
BRANCH   9  10
ATOM     10  C   UNL     1       7.866 -15.121  23.376  1.00  0.00     0.053 C 
BRANCH  10  11
ATOM     11  C   UNL     1       9.008 -15.362  24.314  1.00  0.00     0.041 C 
ATOM     12  O   UNL     1      10.189 -15.113  23.954  1.00  0.00    -0.550 OA
ATOM     13  O   UNL     1       8.765 -15.831  25.599  1.00  0.00    -0.550 OA
ENDBRANCH  10  11
ENDBRANCH   9  10
ENDBRANCH   8   9
ENDBRANCH   1   8
TORSDOF 8
ENDMDL
MODEL 6
REMARK VINA RESULT:    -4.075      1.236      1.789
REMARK INTER + INTRA:          -6.383
REMARK INTER:                  -6.032
REMARK INTRA:                  -0.351
REMARK UNBOUND:                -0.402
REMARK SMILES O=C([O-])CCCCCCCC(=O)[O-]
REMARK SMILES IDX 7 1 6 2 5 3 4 4 2 5 1 6 3 7 8 8 9 9 10 10 11 11 12 12 13 13
REMARK H PARENT
REMARK Flexibility Score: inf
ROOT
ATOM      1  C   UNL     1       6.608 -18.768  24.219  1.00  0.00     0.000 C 
ENDROOT
BRANCH   1   2
ATOM      2  C   UNL     1       7.239 -18.373  25.565  1.00  0.00     0.000 C 
BRANCH   2   3
ATOM      3  C   UNL     1       8.647 -17.773  25.405  1.00  0.00     0.006 C 
BRANCH   3   4
ATOM      4  C   UNL     1       8.660 -16.257  25.644  1.00  0.00     0.053 C 
BRANCH   4   5
ATOM      5  C   UNL     1       8.883 -15.493  24.376  1.00  0.00     0.041 C 
ATOM      6  O   UNL     1      10.043 -15.125  24.054  1.00  0.00    -0.550 OA
ATOM      7  O   UNL     1       7.806 -15.162  23.563  1.00  0.00    -0.550 OA
ENDBRANCH   4   5
ENDBRANCH   3   4
ENDBRANCH   2   3
ENDBRANCH   1   2
BRANCH   1   8
ATOM      8  C   UNL     1       6.733 -20.272  23.926  1.00  0.00     0.000 C 
BRANCH   8   9
ATOM      9  C   UNL     1       7.844 -20.589  22.908  1.00  0.00     0.006 C 
BRANCH   9  10
ATOM     10  C   UNL     1       7.346 -20.808  21.471  1.00  0.00     0.053 C 
BRANCH  10  11
ATOM     11  C   UNL     1       7.884 -22.072  20.875  1.00  0.00     0.041 C 
ATOM     12  O   UNL     1       8.205 -22.113  19.658  1.00  0.00    -0.550 OA
ATOM     13  O   UNL     1       8.063 -23.195  21.673  1.00  0.00    -0.550 OA
ENDBRANCH  10  11
ENDBRANCH   9  10
ENDBRANCH   8   9
ENDBRANCH   1   8
TORSDOF 8
ENDMDL
MODEL 7
REMARK VINA RESULT:    -4.023      1.851      5.998
REMARK INTER + INTRA:          -6.307
REMARK INTER:                  -5.872
REMARK INTRA:                  -0.435
REMARK UNBOUND:                -0.402
REMARK SMILES O=C([O-])CCCCCCCC(=O)[O-]
REMARK SMILES IDX 7 1 6 2 5 3 4 4 2 5 1 6 3 7 8 8 9 9 10 10 11 11 12 12 13 13
REMARK H PARENT
REMARK Flexibility Score: inf
ROOT
ATOM      1  C   UNL     1       6.618 -20.803  22.953  1.00  0.00     0.000 C 
ENDROOT
BRANCH   1   2
ATOM      2  C   UNL     1       7.966 -20.884  22.217  1.00  0.00     0.000 C 
BRANCH   2   3
ATOM      3  C   UNL     1       7.985 -21.976  21.133  1.00  0.00     0.006 C 
BRANCH   3   4
ATOM      4  C   UNL     1       8.898 -23.150  21.510  1.00  0.00     0.053 C 
BRANCH   4   5
ATOM      5  C   UNL     1      10.346 -22.769  21.464  1.00  0.00     0.041 C 
ATOM      6  O   UNL     1      10.808 -22.156  20.466  1.00  0.00    -0.550 OA
ATOM      7  O   UNL     1      11.191 -23.118  22.509  1.00  0.00    -0.550 OA
ENDBRANCH   4   5
ENDBRANCH   3   4
ENDBRANCH   2   3
ENDBRANCH   1   2
BRANCH   1   8
ATOM      8  C   UNL     1       6.782 -20.682  24.477  1.00  0.00     0.000 C 
BRANCH   8   9
ATOM      9  C   UNL     1       7.277 -19.290  24.913  1.00  0.00     0.006 C 
BRANCH   9  10
ATOM     10  C   UNL     1       6.446 -18.120  24.362  1.00  0.00     0.053 C 
BRANCH  10  11
ATOM     11  C   UNL     1       7.304 -17.082  23.705  1.00  0.00     0.041 C 
ATOM     12  O   UNL     1       6.778 -16.078  23.157  1.00  0.00    -0.550 OA
ATOM     13  O   UNL     1       8.687 -17.209  23.727  1.00  0.00    -0.550 OA
ENDBRANCH  10  11
ENDBRANCH   9  10
ENDBRANCH   8   9
ENDBRANCH   1   8
TORSDOF 8
ENDMDL
MODEL 8
REMARK VINA RESULT:    -4.009      1.714      2.504
REMARK INTER + INTRA:          -6.287
REMARK INTER:                  -5.927
REMARK INTRA:                  -0.359
REMARK UNBOUND:                -0.402
REMARK SMILES O=C([O-])CCCCCCCC(=O)[O-]
REMARK SMILES IDX 7 1 6 2 5 3 4 4 2 5 1 6 3 7 8 8 9 9 10 10 11 11 12 12 13 13
REMARK H PARENT
REMARK Flexibility Score: inf
ROOT
ATOM      1  C   UNL     1       7.141 -21.197  22.966  1.00  0.00     0.000 C 
ENDROOT
BRANCH   1   2
ATOM      2  C   UNL     1       6.702 -19.877  23.622  1.00  0.00     0.000 C 
BRANCH   2   3
ATOM      3  C   UNL     1       7.396 -18.650  23.006  1.00  0.00     0.006 C 
BRANCH   3   4
ATOM      4  C   UNL     1       7.059 -17.356  23.758  1.00  0.00     0.053 C 
BRANCH   4   5
ATOM      5  C   UNL     1       7.692 -16.158  23.122  1.00  0.00     0.041 C 
ATOM      6  O   UNL     1       8.946 -16.063  23.059  1.00  0.00    -0.550 OA
ATOM      7  O   UNL     1       6.899 -15.131  22.625  1.00  0.00    -0.550 OA
ENDBRANCH   4   5
ENDBRANCH   3   4
ENDBRANCH   2   3
ENDBRANCH   1   2
BRANCH   1   8
ATOM      8  C   UNL     1       7.063 -21.149  21.431  1.00  0.00     0.000 C 
BRANCH   8   9
ATOM      9  C   UNL     1       7.843 -22.295  20.760  1.00  0.00     0.006 C 
BRANCH   9  10
ATOM     10  C   UNL     1       8.766 -23.076  21.707  1.00  0.00     0.053 C 
BRANCH  10  11
ATOM     11  C   UNL     1      10.211 -22.757  21.473  1.00  0.00     0.041 C 
ATOM     12  O   UNL     1      10.566 -22.152  20.427  1.00  0.00    -0.550 OA
ATOM     13  O   UNL     1      11.161 -23.101  22.426  1.00  0.00    -0.550 OA
ENDBRANCH  10  11
ENDBRANCH   9  10
ENDBRANCH   8   9
ENDBRANCH   1   8
TORSDOF 8
ENDMDL
MODEL 9
REMARK VINA RESULT:    -3.984      2.038      6.233
REMARK INTER + INTRA:          -6.250
REMARK INTER:                  -5.718
REMARK INTRA:                  -0.531
REMARK UNBOUND:                -0.402
REMARK SMILES O=C([O-])CCCCCCCC(=O)[O-]
REMARK SMILES IDX 7 1 6 2 5 3 4 4 2 5 1 6 3 7 8 8 9 9 10 10 11 11 12 12 13 13
REMARK H PARENT
REMARK Flexibility Score: inf
ROOT
ATOM      1  C   UNL     1       7.993 -16.946  20.937  1.00  0.00     0.000 C 
ENDROOT
BRANCH   1   2
ATOM      2  C   UNL     1       7.504 -17.807  19.760  1.00  0.00     0.000 C 
BRANCH   2   3
ATOM      3  C   UNL     1       7.606 -19.315  20.048  1.00  0.00     0.006 C 
BRANCH   3   4
ATOM      4  C   UNL     1       7.838 -19.605  21.537  1.00  0.00     0.053 C 
BRANCH   4   5
ATOM      5  C   UNL     1       7.027 -20.769  22.013  1.00  0.00     0.041 C 
ATOM      6  O   UNL     1       6.713 -21.691  21.215  1.00  0.00    -0.550 OA
ATOM      7  O   UNL     1       6.590 -20.822  23.331  1.00  0.00    -0.550 OA
ENDBRANCH   4   5
ENDBRANCH   3   4
ENDBRANCH   2   3
ENDBRANCH   1   2
BRANCH   1   8
ATOM      8  C   UNL     1       7.100 -15.718  21.182  1.00  0.00     0.000 C 
BRANCH   8   9
ATOM      9  C   UNL     1       6.973 -15.363  22.675  1.00  0.00     0.006 C 
BRANCH   9  10
ATOM     10  C   UNL     1       7.577 -16.405  23.629  1.00  0.00     0.053 C 
BRANCH  10  11
ATOM     11  C   UNL     1       8.626 -15.810  24.518  1.00  0.00     0.041 C 
ATOM     12  O   UNL     1       9.505 -15.046  24.040  1.00  0.00    -0.550 OA
ATOM     13  O   UNL     1       8.611 -16.074  25.882  1.00  0.00    -0.550 OA
ENDBRANCH  10  11
ENDBRANCH   9  10
ENDBRANCH   8   9
ENDBRANCH   1   8
TORSDOF 8
ENDMDL
