MODEL 1
REMARK VINA RESULT:    -4.157      0.000      0.000
REMARK INTER + INTRA:          -6.119
REMARK INTER:                  -5.858
REMARK INTRA:                  -0.260
REMARK UNBOUND:                -0.260
REMARK SMILES CCCCCCCCC(=O)[O-]
REMARK SMILES IDX 6 1 7 2 8 3 9 4 10 5 11 6 5 7 4 8 3 9 2 10 1 11
REMARK H PARENT
REMARK Flexibility Score: inf
ROOT
ATOM      1  C   UNL     1      32.587   5.301  47.990  1.00  0.00     0.000 C 
ENDROOT
BRANCH   1   2
ATOM      2  C   UNL     1      34.020   5.846  48.097  1.00  0.00     0.006 C 
BRANCH   2   3
ATOM      3  C   UNL     1      35.060   4.904  47.477  1.00  0.00     0.053 C 
BRANCH   3   4
ATOM      4  C   UNL     1      34.991   4.960  45.983  1.00  0.00     0.041 C 
ATOM      5  O   UNL     1      34.511   5.972  45.409  1.00  0.00    -0.550 OA
ATOM      6  O   UNL     1      35.501   3.915  45.224  1.00  0.00    -0.550 OA
ENDBRANCH   3   4
ENDBRANCH   2   3
ENDBRANCH   1   2
BRANCH   1   7
ATOM      7  C   UNL     1      31.595   6.349  47.456  1.00  0.00     0.000 C 
BRANCH   7   8
ATOM      8  C   UNL     1      31.058   7.272  48.561  1.00  0.00    -0.000 C 
BRANCH   8   9
ATOM      9  C   UNL     1      29.542   7.139  48.763  1.00  0.00    -0.000 C 
BRANCH   9  10
ATOM     10  C   UNL     1      29.115   5.666  48.749  1.00  0.00    -0.003 C 
ATOM     11  C   UNL     1      28.022   5.420  47.712  1.00  0.00     0.004 C 
ENDBRANCH   9  10
ENDBRANCH   8   9
ENDBRANCH   7   8
ENDBRANCH   1   7
TORSDOF 7
ENDMDL
MODEL 2
REMARK VINA RESULT:    -4.090      3.796      5.774
REMARK INTER + INTRA:          -6.024
REMARK INTER:                  -5.738
REMARK INTRA:                  -0.287
REMARK UNBOUND:                -0.260
REMARK SMILES CCCCCCCCC(=O)[O-]
REMARK SMILES IDX 6 1 7 2 8 3 9 4 10 5 11 6 5 7 4 8 3 9 2 10 1 11
REMARK H PARENT
REMARK Flexibility Score: inf
ROOT
ATOM      1  C   UNL     1      33.205   5.997  47.920  1.00  0.00     0.000 C 
ENDROOT
BRANCH   1   2
ATOM      2  C   UNL     1      31.787   5.439  48.116  1.00  0.00     0.006 C 
BRANCH   2   3
ATOM      3  C   UNL     1      30.696   6.471  47.805  1.00  0.00     0.053 C 
BRANCH   3   4
ATOM      4  C   UNL     1      29.442   6.146  48.554  1.00  0.00     0.041 C 
ATOM      5  O   UNL     1      29.396   6.284  49.804  1.00  0.00    -0.550 OA
ATOM      6  O   UNL     1      28.308   5.736  47.865  1.00  0.00    -0.550 OA
ENDBRANCH   3   4
ENDBRANCH   2   3
ENDBRANCH   1   2
BRANCH   1   7
ATOM      7  C   UNL     1      33.273   7.060  46.810  1.00  0.00     0.000 C 
BRANCH   7   8
ATOM      8  C   UNL     1      34.028   6.566  45.565  1.00  0.00    -0.000 C 
BRANCH   8   9
ATOM      9  C   UNL     1      34.085   7.617  44.447  1.00  0.00    -0.000 C 
BRANCH   9  10
ATOM     10  C   UNL     1      34.383   9.009  45.018  1.00  0.00    -0.003 C 
ATOM     11  C   UNL     1      34.533  10.041  43.904  1.00  0.00     0.004 C 
ENDBRANCH   9  10
ENDBRANCH   8   9
ENDBRANCH   7   8
ENDBRANCH   1   7
TORSDOF 7
ENDMDL
MODEL 3
REMARK VINA RESULT:    -4.071      1.605      3.049
REMARK INTER + INTRA:          -5.998
REMARK INTER:                  -5.358
REMARK INTRA:                  -0.640
REMARK UNBOUND:                -0.260
REMARK SMILES CCCCCCCCC(=O)[O-]
REMARK SMILES IDX 6 1 7 2 8 3 9 4 10 5 11 6 5 7 4 8 3 9 2 10 1 11
REMARK H PARENT
REMARK Flexibility Score: inf
ROOT
ATOM      1  C   UNL     1      31.275   6.287  47.504  1.00  0.00     0.000 C 
ENDROOT
BRANCH   1   2
ATOM      2  C   UNL     1      32.547   5.521  47.900  1.00  0.00     0.006 C 
BRANCH   2   3
ATOM      3  C   UNL     1      33.831   6.289  47.559  1.00  0.00     0.053 C 
BRANCH   3   4
ATOM      4  C   UNL     1      34.315   5.915  46.193  1.00  0.00     0.041 C 
ATOM      5  O   UNL     1      35.057   4.911  46.037  1.00  0.00    -0.550 OA
ATOM      6  O   UNL     1      33.907   6.649  45.087  1.00  0.00    -0.550 OA
ENDBRANCH   3   4
ENDBRANCH   2   3
ENDBRANCH   1   2
BRANCH   1   7
ATOM      7  C   UNL     1      30.330   6.518  48.697  1.00  0.00     0.000 C 
BRANCH   7   8
ATOM      8  C   UNL     1      30.126   8.010  49.008  1.00  0.00    -0.000 C 
BRANCH   8   9
ATOM      9  C   UNL     1      31.413   8.700  49.482  1.00  0.00    -0.000 C 
BRANCH   9  10
ATOM     10  C   UNL     1      31.700   9.955  48.650  1.00  0.00    -0.003 C 
ATOM     11  C   UNL     1      32.997   9.806  47.858  1.00  0.00     0.004 C 
ENDBRANCH   9  10
ENDBRANCH   8   9
ENDBRANCH   7   8
ENDBRANCH   1   7
TORSDOF 7
ENDMDL
MODEL 4
REMARK VINA RESULT:    -3.919      1.421      2.101
REMARK INTER + INTRA:          -5.783
REMARK INTER:                  -5.038
REMARK INTRA:                  -0.746
REMARK UNBOUND:                -0.260
REMARK SMILES CCCCCCCCC(=O)[O-]
REMARK SMILES IDX 6 1 7 2 8 3 9 4 10 5 11 6 5 7 4 8 3 9 2 10 1 11
REMARK H PARENT
REMARK Flexibility Score: inf
ROOT
ATOM      1  C   UNL     1      33.260   6.977  48.995  1.00  0.00     0.000 C 
ENDROOT
BRANCH   1   2
ATOM      2  C   UNL     1      33.011   5.899  47.929  1.00  0.00     0.006 C 
BRANCH   2   3
ATOM      3  C   UNL     1      32.702   6.492  46.548  1.00  0.00     0.053 C 
BRANCH   3   4
ATOM      4  C   UNL     1      33.933   6.502  45.698  1.00  0.00     0.041 C 
ATOM      5  O   UNL     1      34.732   5.531  45.729  1.00  0.00    -0.550 OA
ATOM      6  O   UNL     1      34.172   7.563  44.834  1.00  0.00    -0.550 OA
ENDBRANCH   3   4
ENDBRANCH   2   3
ENDBRANCH   1   2
BRANCH   1   7
ATOM      7  C   UNL     1      32.483   8.276  48.715  1.00  0.00     0.000 C 
BRANCH   7   8
ATOM      8  C   UNL     1      31.371   8.532  49.745  1.00  0.00    -0.000 C 
BRANCH   8   9
ATOM      9  C   UNL     1      29.980   8.135  49.229  1.00  0.00    -0.000 C 
BRANCH   9  10
ATOM     10  C   UNL     1      29.599   6.730  49.709  1.00  0.00    -0.003 C 
ATOM     11  C   UNL     1      29.219   5.831  48.535  1.00  0.00     0.004 C 
ENDBRANCH   9  10
ENDBRANCH   8   9
ENDBRANCH   7   8
ENDBRANCH   1   7
TORSDOF 7
ENDMDL
MODEL 5
REMARK VINA RESULT:    -3.899      1.414      2.387
REMARK INTER + INTRA:          -5.755
REMARK INTER:                  -5.194
REMARK INTRA:                  -0.560
REMARK UNBOUND:                -0.260
REMARK SMILES CCCCCCCCC(=O)[O-]
REMARK SMILES IDX 6 1 7 2 8 3 9 4 10 5 11 6 5 7 4 8 3 9 2 10 1 11
REMARK H PARENT
REMARK Flexibility Score: inf
ROOT
ATOM      1  C   UNL     1      31.790   6.297  47.121  1.00  0.00     0.000 C 
ENDROOT
BRANCH   1   2
ATOM      2  C   UNL     1      33.282   6.572  47.362  1.00  0.00     0.006 C 
BRANCH   2   3
ATOM      3  C   UNL     1      34.159   6.164  46.171  1.00  0.00     0.053 C 
BRANCH   3   4
ATOM      4  C   UNL     1      34.927   4.920  46.491  1.00  0.00     0.041 C 
ATOM      5  O   UNL     1      35.429   4.229  45.566  1.00  0.00    -0.550 OA
ATOM      6  O   UNL     1      35.129   4.549  47.814  1.00  0.00    -0.550 OA
ENDBRANCH   3   4
ENDBRANCH   2   3
ENDBRANCH   1   2
BRANCH   1   7
ATOM      7  C   UNL     1      31.193   5.327  48.156  1.00  0.00     0.000 C 
BRANCH   7   8
ATOM      8  C   UNL     1      29.934   5.889  48.836  1.00  0.00    -0.000 C 
BRANCH   8   9
ATOM      9  C   UNL     1      29.857   7.421  48.770  1.00  0.00    -0.000 C 
BRANCH   9  10
ATOM     10  C   UNL     1      30.262   8.047  50.110  1.00  0.00    -0.003 C 
ATOM     11  C   UNL     1      31.621   8.735  50.008  1.00  0.00     0.004 C 
ENDBRANCH   9  10
ENDBRANCH   8   9
ENDBRANCH   7   8
ENDBRANCH   1   7
TORSDOF 7
ENDMDL
MODEL 6
REMARK VINA RESULT:    -3.874      4.098      6.018
REMARK INTER + INTRA:          -5.719
REMARK INTER:                  -5.479
REMARK INTRA:                  -0.240
REMARK UNBOUND:                -0.260
REMARK SMILES CCCCCCCCC(=O)[O-]
REMARK SMILES IDX 6 1 7 2 8 3 9 4 10 5 11 6 5 7 4 8 3 9 2 10 1 11
REMARK H PARENT
REMARK Flexibility Score: inf
ROOT
ATOM      1  C   UNL     1      31.893   9.789  48.516  1.00  0.00     0.000 C 
ENDROOT
BRANCH   1   2
ATOM      2  C   UNL     1      31.642   8.307  48.197  1.00  0.00     0.006 C 
BRANCH   2   3
ATOM      3  C   UNL     1      30.347   7.777  48.826  1.00  0.00     0.053 C 
BRANCH   3   4
ATOM      4  C   UNL     1      30.096   6.367  48.392  1.00  0.00     0.041 C 
ATOM      5  O   UNL     1      31.054   5.559  48.276  1.00  0.00    -0.550 OA
ATOM      6  O   UNL     1      28.797   5.933  48.161  1.00  0.00    -0.550 OA
ENDBRANCH   3   4
ENDBRANCH   2   3
ENDBRANCH   1   2
BRANCH   1   7
ATOM      7  C   UNL     1      33.342  10.219  48.225  1.00  0.00     0.000 C 
BRANCH   7   8
ATOM      8  C   UNL     1      33.860   9.678  46.883  1.00  0.00    -0.000 C 
BRANCH   8   9
ATOM      9  C   UNL     1      34.759  10.681  46.145  1.00  0.00    -0.000 C 
BRANCH   9  10
ATOM     10  C   UNL     1      34.515  10.625  44.632  1.00  0.00    -0.003 C 
ATOM     11  C   UNL     1      34.662   9.201  44.103  1.00  0.00     0.004 C 
ENDBRANCH   9  10
ENDBRANCH   8   9
ENDBRANCH   7   8
ENDBRANCH   1   7
TORSDOF 7
ENDMDL
MODEL 7
REMARK VINA RESULT:    -3.853     16.686     18.665
REMARK INTER + INTRA:          -5.690
REMARK INTER:                  -5.088
REMARK INTRA:                  -0.602
REMARK UNBOUND:                -0.260
REMARK SMILES CCCCCCCCC(=O)[O-]
REMARK SMILES IDX 6 1 7 2 8 3 9 4 10 5 11 6 5 7 4 8 3 9 2 10 1 11
REMARK H PARENT
REMARK Flexibility Score: inf
ROOT
ATOM      1  C   UNL     1      19.310  12.389  36.157  1.00  0.00     0.000 C 
ENDROOT
BRANCH   1   2
ATOM      2  C   UNL     1      19.302  13.576  35.181  1.00  0.00     0.006 C 
BRANCH   2   3
ATOM      3  C   UNL     1      20.708  14.119  34.898  1.00  0.00     0.053 C 
BRANCH   3   4
ATOM      4  C   UNL     1      21.004  14.063  33.433  1.00  0.00     0.041 C 
ATOM      5  O   UNL     1      21.327  12.973  32.893  1.00  0.00    -0.550 OA
ATOM      6  O   UNL     1      20.876  15.206  32.654  1.00  0.00    -0.550 OA
ENDBRANCH   3   4
ENDBRANCH   2   3
ENDBRANCH   1   2
BRANCH   1   7
ATOM      7  C   UNL     1      19.571  11.046  35.453  1.00  0.00     0.000 C 
BRANCH   7   8
ATOM      8  C   UNL     1      20.662  10.216  36.150  1.00  0.00    -0.000 C 
BRANCH   8   9
ATOM      9  C   UNL     1      21.953  10.118  35.325  1.00  0.00    -0.000 C 
BRANCH   9  10
ATOM     10  C   UNL     1      22.878  11.307  35.611  1.00  0.00    -0.003 C 
ATOM     11  C   UNL     1      24.330  10.856  35.742  1.00  0.00     0.004 C 
ENDBRANCH   9  10
ENDBRANCH   8   9
ENDBRANCH   7   8
ENDBRANCH   1   7
TORSDOF 7
ENDMDL
MODEL 8
REMARK VINA RESULT:    -3.850      1.688      2.224
REMARK INTER + INTRA:          -5.686
REMARK INTER:                  -5.004
REMARK INTRA:                  -0.682
REMARK UNBOUND:                -0.260
REMARK SMILES CCCCCCCCC(=O)[O-]
REMARK SMILES IDX 6 1 7 2 8 3 9 4 10 5 11 6 5 7 4 8 3 9 2 10 1 11
REMARK H PARENT
REMARK Flexibility Score: inf
ROOT
ATOM      1  C   UNL     1      32.608   7.942  48.786  1.00  0.00     0.000 C 
ENDROOT
BRANCH   1   2
ATOM      2  C   UNL     1      33.056   7.138  47.556  1.00  0.00     0.006 C 
BRANCH   2   3
ATOM      3  C   UNL     1      33.006   5.622  47.789  1.00  0.00     0.053 C 
BRANCH   3   4
ATOM      4  C   UNL     1      34.390   5.055  47.830  1.00  0.00     0.041 C 
ATOM      5  O   UNL     1      34.815   4.351  46.878  1.00  0.00    -0.550 OA
ATOM      6  O   UNL     1      35.227   5.345  48.900  1.00  0.00    -0.550 OA
ENDBRANCH   3   4
ENDBRANCH   2   3
ENDBRANCH   1   2
BRANCH   1   7
ATOM      7  C   UNL     1      31.371   8.813  48.505  1.00  0.00     0.000 C 
BRANCH   7   8
ATOM      8  C   UNL     1      30.115   8.307  49.232  1.00  0.00    -0.000 C 
BRANCH   8   9
ATOM      9  C   UNL     1      30.380   7.047  50.070  1.00  0.00    -0.000 C 
BRANCH   9  10
ATOM     10  C   UNL     1      29.356   5.951  49.748  1.00  0.00    -0.003 C 
ATOM     11  C   UNL     1      29.038   5.915  48.256  1.00  0.00     0.004 C 
ENDBRANCH   9  10
ENDBRANCH   8   9
ENDBRANCH   7   8
ENDBRANCH   1   7
TORSDOF 7
ENDMDL
MODEL 9
REMARK VINA RESULT:    -3.835      2.719      4.658
REMARK INTER + INTRA:          -5.665
REMARK INTER:                  -4.954
REMARK INTRA:                  -0.710
REMARK UNBOUND:                -0.260
REMARK SMILES CCCCCCCCC(=O)[O-]
REMARK SMILES IDX 6 1 7 2 8 3 9 4 10 5 11 6 5 7 4 8 3 9 2 10 1 11
REMARK H PARENT
REMARK Flexibility Score: inf
ROOT
ATOM      1  C   UNL     1      30.184   8.113  48.959  1.00  0.00     0.000 C 
ENDROOT
BRANCH   1   2
ATOM      2  C   UNL     1      31.500   8.769  49.403  1.00  0.00     0.006 C 
BRANCH   2   3
ATOM      3  C   UNL     1      31.975   9.860  48.434  1.00  0.00     0.053 C 
BRANCH   3   4
ATOM      4  C   UNL     1      33.424   9.674  48.110  1.00  0.00     0.041 C 
ATOM      5  O   UNL     1      34.199   9.146  48.949  1.00  0.00    -0.550 OA
ATOM      6  O   UNL     1      33.909  10.040  46.861  1.00  0.00    -0.550 OA
ENDBRANCH   3   4
ENDBRANCH   2   3
ENDBRANCH   1   2
BRANCH   1   7
ATOM      7  C   UNL     1      30.346   6.614  48.650  1.00  0.00     0.000 C 
BRANCH   7   8
ATOM      8  C   UNL     1      31.368   6.349  47.533  1.00  0.00    -0.000 C 
BRANCH   8   9
ATOM      9  C   UNL     1      32.541   5.474  47.996  1.00  0.00    -0.000 C 
BRANCH   9  10
ATOM     10  C   UNL     1      33.866   5.980  47.414  1.00  0.00    -0.003 C 
ATOM     11  C   UNL     1      33.657   6.616  46.042  1.00  0.00     0.004 C 
ENDBRANCH   9  10
ENDBRANCH   8   9
ENDBRANCH   7   8
ENDBRANCH   1   7
TORSDOF 7
ENDMDL
