MODEL 1
REMARK VINA RESULT:    -4.960      0.000      0.000
REMARK INTER + INTRA:          -6.274
REMARK INTER:                  -6.120
REMARK INTRA:                  -0.154
REMARK UNBOUND:                -0.154
REMARK SMILES CCOC(=O)c1ccc(O)c(O)c1
REMARK SMILES IDX 4 1 5 2 3 3 2 4 1 5 6 6 13 7 7 8 11 9 8 10 9 11 12 12 10 14
REMARK H PARENT 12 13 10 15
REMARK Flexibility Score: inf
ROOT
ATOM      1  C   UNL     1     -11.462   7.369  23.405  1.00  0.00     0.338 C 
ATOM      2  O   UNL     1     -12.668   7.153  23.710  1.00  0.00    -0.246 OA
ENDROOT
BRANCH   1   3
ATOM      3  O   UNL     1     -10.757   6.437  22.635  1.00  0.00    -0.462 OA
BRANCH   3   4
ATOM      4  C   UNL     1     -11.339   5.758  21.527  1.00  0.00     0.230 C 
ATOM      5  C   UNL     1     -10.910   4.299  21.543  1.00  0.00     0.049 C 
ENDBRANCH   3   4
ENDBRANCH   1   3
BRANCH   1   6
ATOM      6  C   UNL     1     -10.790   8.607  23.860  1.00  0.00     0.064 A 
ATOM      7  C   UNL     1      -9.910   9.300  23.011  1.00  0.00     0.065 A 
ATOM      8  C   UNL     1     -11.024   9.107  25.151  1.00  0.00     0.020 A 
ATOM      9  C   UNL     1      -9.270  10.471  23.436  1.00  0.00     0.158 A 
ATOM     10  C   UNL     1     -10.390  10.274  25.582  1.00  0.00     0.051 A 
ATOM     11  C   UNL     1      -9.514  10.965  24.739  1.00  0.00     0.157 A 
BRANCH   9  12
ATOM     12  O   UNL     1      -8.410  11.106  22.538  1.00  0.00    -0.504 OA
ATOM     13  H   UNL     1      -8.386  10.913  21.547  1.00  0.00     0.293 HD
ENDBRANCH   9  12
BRANCH  11  14
ATOM     14  O   UNL     1      -8.914  12.125  25.232  1.00  0.00    -0.504 OA
ATOM     15  H   UNL     1      -8.410  12.173  26.106  1.00  0.00     0.293 HD
ENDBRANCH  11  14
ENDBRANCH   1   6
TORSDOF 5
ENDMDL
MODEL 2
REMARK VINA RESULT:    -4.761     15.294     17.513
REMARK INTER + INTRA:          -6.028
REMARK INTER:                  -5.742
REMARK INTRA:                  -0.286
REMARK UNBOUND:                -0.154
REMARK SMILES CCOC(=O)c1ccc(O)c(O)c1
REMARK SMILES IDX 4 1 5 2 3 3 2 4 1 5 6 6 13 7 7 8 11 9 8 10 9 11 12 12 10 14
REMARK H PARENT 12 13 10 15
REMARK Flexibility Score: inf
ROOT
ATOM      1  C   UNL     1      -2.384   6.944   9.708  1.00  0.00     0.338 C 
ATOM      2  O   UNL     1      -2.088   7.987   9.060  1.00  0.00    -0.246 OA
ENDROOT
BRANCH   1   3
ATOM      3  O   UNL     1      -2.880   7.049  11.013  1.00  0.00    -0.462 OA
BRANCH   3   4
ATOM      4  C   UNL     1      -2.059   6.881  12.164  1.00  0.00     0.230 C 
ATOM      5  C   UNL     1      -2.513   5.654  12.938  1.00  0.00     0.049 C 
ENDBRANCH   3   4
ENDBRANCH   1   3
BRANCH   1   6
ATOM      6  C   UNL     1      -2.209   5.610   9.092  1.00  0.00     0.064 A 
ATOM      7  C   UNL     1      -3.103   4.563   9.379  1.00  0.00     0.065 A 
ATOM      8  C   UNL     1      -1.145   5.372   8.208  1.00  0.00     0.020 A 
ATOM      9  C   UNL     1      -2.942   3.299   8.799  1.00  0.00     0.158 A 
ATOM     10  C   UNL     1      -0.977   4.114   7.627  1.00  0.00     0.051 A 
ATOM     11  C   UNL     1      -1.864   3.071   7.910  1.00  0.00     0.157 A 
BRANCH   9  12
ATOM     12  O   UNL     1      -3.868   2.307   9.130  1.00  0.00    -0.504 OA
ATOM     13  H   UNL     1      -4.796   2.497   9.482  1.00  0.00     0.293 HD
ENDBRANCH   9  12
BRANCH  11  14
ATOM     14  O   UNL     1      -1.640   1.838   7.295  1.00  0.00    -0.504 OA
ATOM     15  H   UNL     1      -2.259   1.044   7.378  1.00  0.00     0.293 HD
ENDBRANCH  11  14
ENDBRANCH   1   6
TORSDOF 5
ENDMDL
MODEL 3
REMARK VINA RESULT:    -4.761      2.140      3.172
REMARK INTER + INTRA:          -6.028
REMARK INTER:                  -5.733
REMARK INTRA:                  -0.295
REMARK UNBOUND:                -0.154
REMARK SMILES CCOC(=O)c1ccc(O)c(O)c1
REMARK SMILES IDX 4 1 5 2 3 3 2 4 1 5 6 6 13 7 7 8 11 9 8 10 9 11 12 12 10 14
REMARK H PARENT 12 13 10 15
REMARK Flexibility Score: inf
ROOT
ATOM      1  C   UNL     1     -11.545   7.892  25.824  1.00  0.00     0.338 C 
ATOM      2  O   UNL     1     -10.988   6.876  26.325  1.00  0.00    -0.246 OA
ENDROOT
BRANCH   1   3
ATOM      3  O   UNL     1     -12.910   8.119  26.039  1.00  0.00    -0.462 OA
BRANCH   3   4
ATOM      4  C   UNL     1     -13.755   8.714  25.059  1.00  0.00     0.230 C 
ATOM      5  C   UNL     1     -14.114   7.682  24.002  1.00  0.00     0.049 C 
ENDBRANCH   3   4
ENDBRANCH   1   3
BRANCH   1   6
ATOM      6  C   UNL     1     -10.761   8.845  25.008  1.00  0.00     0.064 A 
ATOM      7  C   UNL     1     -10.363  10.085  25.537  1.00  0.00     0.065 A 
ATOM      8  C   UNL     1     -10.401   8.521  23.691  1.00  0.00     0.020 A 
ATOM      9  C   UNL     1      -9.620  10.991  24.769  1.00  0.00     0.158 A 
ATOM     10  C   UNL     1      -9.661   9.419  22.919  1.00  0.00     0.051 A 
ATOM     11  C   UNL     1      -9.263  10.653  23.442  1.00  0.00     0.157 A 
BRANCH   9  12
ATOM     12  O   UNL     1      -9.261  12.205  25.361  1.00  0.00    -0.504 OA
ATOM     13  H   UNL     1      -8.307  12.520  25.466  1.00  0.00     0.293 HD
ENDBRANCH   9  12
BRANCH  11  14
ATOM     14  O   UNL     1      -8.526  11.505  22.618  1.00  0.00    -0.504 OA
ATOM     15  H   UNL     1      -8.067  11.211  21.767  1.00  0.00     0.293 HD
ENDBRANCH  11  14
ENDBRANCH   1   6
TORSDOF 5
ENDMDL
MODEL 4
REMARK VINA RESULT:    -4.712     11.028     12.977
REMARK INTER + INTRA:          -5.967
REMARK INTER:                  -5.960
REMARK INTRA:                  -0.007
REMARK UNBOUND:                -0.154
REMARK SMILES CCOC(=O)c1ccc(O)c(O)c1
REMARK SMILES IDX 4 1 5 2 3 3 2 4 1 5 6 6 13 7 7 8 11 9 8 10 9 11 12 12 10 14
REMARK H PARENT 12 13 10 15
REMARK Flexibility Score: inf
ROOT
ATOM      1  C   UNL     1      -4.819  14.078  12.819  1.00  0.00     0.338 C 
ATOM      2  O   UNL     1      -4.891  12.856  12.509  1.00  0.00    -0.246 OA
ENDROOT
BRANCH   1   3
ATOM      3  O   UNL     1      -3.940  14.923  12.130  1.00  0.00    -0.462 OA
BRANCH   3   4
ATOM      4  C   UNL     1      -4.283  16.255  11.762  1.00  0.00     0.230 C 
ATOM      5  C   UNL     1      -3.031  17.002  11.332  1.00  0.00     0.049 C 
ENDBRANCH   3   4
ENDBRANCH   1   3
BRANCH   1   6
ATOM      6  C   UNL     1      -5.660  14.621  13.908  1.00  0.00     0.064 A 
ATOM      7  C   UNL     1      -5.119  15.499  14.864  1.00  0.00     0.065 A 
ATOM      8  C   UNL     1      -7.015  14.267  14.001  1.00  0.00     0.020 A 
ATOM      9  C   UNL     1      -5.910  16.016  15.898  1.00  0.00     0.158 A 
ATOM     10  C   UNL     1      -7.810  14.778  15.028  1.00  0.00     0.051 A 
ATOM     11  C   UNL     1      -7.275  15.651  15.980  1.00  0.00     0.157 A 
BRANCH   9  12
ATOM     12  O   UNL     1      -5.305  16.882  16.811  1.00  0.00    -0.504 OA
ATOM     13  H   UNL     1      -5.332  17.889  16.737  1.00  0.00     0.293 HD
ENDBRANCH   9  12
BRANCH  11  14
ATOM     14  O   UNL     1      -8.124  16.125  16.982  1.00  0.00    -0.504 OA
ATOM     15  H   UNL     1      -8.220  17.100  17.227  1.00  0.00     0.293 HD
ENDBRANCH  11  14
ENDBRANCH   1   6
TORSDOF 5
ENDMDL
MODEL 5
REMARK VINA RESULT:    -4.641     15.525     17.710
REMARK INTER + INTRA:          -5.880
REMARK INTER:                  -5.705
REMARK INTRA:                  -0.175
REMARK UNBOUND:                -0.154
REMARK SMILES CCOC(=O)c1ccc(O)c(O)c1
REMARK SMILES IDX 4 1 5 2 3 3 2 4 1 5 6 6 13 7 7 8 11 9 8 10 9 11 12 12 10 14
REMARK H PARENT 12 13 10 15
REMARK Flexibility Score: inf
ROOT
ATOM      1  C   UNL     1      -2.284   6.952  10.100  1.00  0.00     0.338 C 
ATOM      2  O   UNL     1      -2.872   6.995  11.216  1.00  0.00    -0.246 OA
ENDROOT
BRANCH   1   3
ATOM      3  O   UNL     1      -1.755   8.122   9.543  1.00  0.00    -0.462 OA
BRANCH   3   4
ATOM      4  C   UNL     1      -0.942   9.028  10.282  1.00  0.00     0.230 C 
ATOM      5  C   UNL     1      -1.724  10.302  10.560  1.00  0.00     0.049 C 
ENDBRANCH   3   4
ENDBRANCH   1   3
BRANCH   1   6
ATOM      6  C   UNL     1      -2.151   5.667   9.378  1.00  0.00     0.064 A 
ATOM      7  C   UNL     1      -3.021   4.597   9.649  1.00  0.00     0.065 A 
ATOM      8  C   UNL     1      -1.150   5.500   8.408  1.00  0.00     0.020 A 
ATOM      9  C   UNL     1      -2.900   3.379   8.969  1.00  0.00     0.158 A 
ATOM     10  C   UNL     1      -1.023   4.289   7.726  1.00  0.00     0.051 A 
ATOM     11  C   UNL     1      -1.887   3.223   7.993  1.00  0.00     0.157 A 
BRANCH   9  12
ATOM     12  O   UNL     1      -3.800   2.360   9.291  1.00  0.00    -0.504 OA
ATOM     13  H   UNL     1      -4.275   2.288  10.180  1.00  0.00     0.293 HD
ENDBRANCH   9  12
BRANCH  11  14
ATOM     14  O   UNL     1      -1.705   2.039   7.276  1.00  0.00    -0.504 OA
ATOM     15  H   UNL     1      -1.144   1.965   6.439  1.00  0.00     0.293 HD
ENDBRANCH  11  14
ENDBRANCH   1   6
TORSDOF 5
ENDMDL
MODEL 6
REMARK VINA RESULT:    -4.581     15.040     16.838
REMARK INTER + INTRA:          -5.806
REMARK INTER:                  -5.639
REMARK INTRA:                  -0.166
REMARK UNBOUND:                -0.154
REMARK SMILES CCOC(=O)c1ccc(O)c(O)c1
REMARK SMILES IDX 4 1 5 2 3 3 2 4 1 5 6 6 13 7 7 8 11 9 8 10 9 11 12 12 10 14
REMARK H PARENT 12 13 10 15
REMARK Flexibility Score: inf
ROOT
ATOM      1  C   UNL     1      -2.132   7.930  10.782  1.00  0.00     0.338 C 
ATOM      2  O   UNL     1      -2.733   8.259  11.842  1.00  0.00    -0.246 OA
ENDROOT
BRANCH   1   3
ATOM      3  O   UNL     1      -1.169   8.784  10.230  1.00  0.00    -0.462 OA
BRANCH   3   4
ATOM      4  C   UNL     1      -1.404  10.171  10.015  1.00  0.00     0.230 C 
ATOM      5  C   UNL     1      -0.652  10.983  11.058  1.00  0.00     0.049 C 
ENDBRANCH   3   4
ENDBRANCH   1   3
BRANCH   1   6
ATOM      6  C   UNL     1      -2.441   6.644  10.119  1.00  0.00     0.064 A 
ATOM      7  C   UNL     1      -2.578   5.463  10.871  1.00  0.00     0.065 A 
ATOM      8  C   UNL     1      -2.602   6.585   8.726  1.00  0.00     0.020 A 
ATOM      9  C   UNL     1      -2.870   4.243  10.249  1.00  0.00     0.158 A 
ATOM     10  C   UNL     1      -2.893   5.372   8.099  1.00  0.00     0.051 A 
ATOM     11  C   UNL     1      -3.030   4.197   8.843  1.00  0.00     0.157 A 
BRANCH   9  12
ATOM     12  O   UNL     1      -2.993   3.112  11.059  1.00  0.00    -0.504 OA
ATOM     13  H   UNL     1      -3.709   2.409  10.942  1.00  0.00     0.293 HD
ENDBRANCH   9  12
BRANCH  11  14
ATOM     14  O   UNL     1      -3.322   3.018   8.154  1.00  0.00    -0.504 OA
ATOM     15  H   UNL     1      -3.228   2.910   7.154  1.00  0.00     0.293 HD
ENDBRANCH  11  14
ENDBRANCH   1   6
TORSDOF 5
ENDMDL
MODEL 7
REMARK VINA RESULT:    -4.564     11.819     13.916
REMARK INTER + INTRA:          -5.785
REMARK INTER:                  -5.649
REMARK INTRA:                  -0.135
REMARK UNBOUND:                -0.154
REMARK SMILES CCOC(=O)c1ccc(O)c(O)c1
REMARK SMILES IDX 4 1 5 2 3 3 2 4 1 5 6 6 13 7 7 8 11 9 8 10 9 11 12 12 10 14
REMARK H PARENT 12 13 10 15
REMARK Flexibility Score: inf
ROOT
ATOM      1  C   UNL     1      -2.106   3.415  12.194  1.00  0.00     0.338 C 
ATOM      2  O   UNL     1      -0.883   3.105  12.166  1.00  0.00    -0.246 OA
ENDROOT
BRANCH   1   3
ATOM      3  O   UNL     1      -2.754   3.811  11.018  1.00  0.00    -0.462 OA
BRANCH   3   4
ATOM      4  C   UNL     1      -2.162   3.675   9.730  1.00  0.00     0.230 C 
ATOM      5  C   UNL     1      -3.106   2.911   8.815  1.00  0.00     0.049 C 
ENDBRANCH   3   4
ENDBRANCH   1   3
BRANCH   1   6
ATOM      6  C   UNL     1      -2.860   3.360  13.466  1.00  0.00     0.064 A 
ATOM      7  C   UNL     1      -3.239   4.541  14.128  1.00  0.00     0.065 A 
ATOM      8  C   UNL     1      -3.208   2.123  14.031  1.00  0.00     0.020 A 
ATOM      9  C   UNL     1      -3.952   4.496  15.332  1.00  0.00     0.158 A 
ATOM     10  C   UNL     1      -3.918   2.069  15.231  1.00  0.00     0.051 A 
ATOM     11  C   UNL     1      -4.297   3.242  15.892  1.00  0.00     0.157 A 
BRANCH   9  12
ATOM     12  O   UNL     1      -4.295   5.709  15.933  1.00  0.00    -0.504 OA
ATOM     13  H   UNL     1      -5.231   6.087  15.946  1.00  0.00     0.293 HD
ENDBRANCH   9  12
BRANCH  11  14
ATOM     14  O   UNL     1      -5.006   3.118  17.088  1.00  0.00    -0.504 OA
ATOM     15  H   UNL     1      -5.822   3.666  17.321  1.00  0.00     0.293 HD
ENDBRANCH  11  14
ENDBRANCH   1   6
TORSDOF 5
ENDMDL
MODEL 8
REMARK VINA RESULT:    -4.558     14.199     15.301
REMARK INTER + INTRA:          -5.778
REMARK INTER:                  -5.515
REMARK INTRA:                  -0.262
REMARK UNBOUND:                -0.154
REMARK SMILES CCOC(=O)c1ccc(O)c(O)c1
REMARK SMILES IDX 4 1 5 2 3 3 2 4 1 5 6 6 13 7 7 8 11 9 8 10 9 11 12 12 10 14
REMARK H PARENT 12 13 10 15
REMARK Flexibility Score: inf
ROOT
ATOM      1  C   UNL     1      -2.236   6.067  11.316  1.00  0.00     0.338 C 
ATOM      2  O   UNL     1      -2.454   5.435  12.386  1.00  0.00    -0.246 OA
ENDROOT
BRANCH   1   3
ATOM      3  O   UNL     1      -2.136   5.375  10.103  1.00  0.00    -0.462 OA
BRANCH   3   4
ATOM      4  C   UNL     1      -3.271   4.854   9.418  1.00  0.00     0.230 C 
ATOM      5  C   UNL     1      -3.392   5.518   8.056  1.00  0.00     0.049 C 
ENDBRANCH   3   4
ENDBRANCH   1   3
BRANCH   1   6
ATOM      6  C   UNL     1      -2.086   7.539  11.337  1.00  0.00     0.064 A 
ATOM      7  C   UNL     1      -1.830   8.252  10.153  1.00  0.00     0.065 A 
ATOM      8  C   UNL     1      -2.197   8.245  12.545  1.00  0.00     0.020 A 
ATOM      9  C   UNL     1      -1.687   9.645  10.167  1.00  0.00     0.158 A 
ATOM     10  C   UNL     1      -2.055   9.633  12.568  1.00  0.00     0.051 A 
ATOM     11  C   UNL     1      -1.801  10.346  11.392  1.00  0.00     0.157 A 
BRANCH   9  12
ATOM     12  O   UNL     1      -1.434  10.287   8.953  1.00  0.00    -0.504 OA
ATOM     13  H   UNL     1      -0.811   9.927   8.244  1.00  0.00     0.293 HD
ENDBRANCH   9  12
BRANCH  11  14
ATOM     14  O   UNL     1      -1.670  11.732  11.484  1.00  0.00    -0.504 OA
ATOM     15  H   UNL     1      -0.784  12.212  11.565  1.00  0.00     0.293 HD
ENDBRANCH  11  14
ENDBRANCH   1   6
TORSDOF 5
ENDMDL
MODEL 9
REMARK VINA RESULT:    -4.513     11.325     13.575
REMARK INTER + INTRA:          -5.722
REMARK INTER:                  -5.414
REMARK INTRA:                  -0.308
REMARK UNBOUND:                -0.154
REMARK SMILES CCOC(=O)c1ccc(O)c(O)c1
REMARK SMILES IDX 4 1 5 2 3 3 2 4 1 5 6 6 13 7 7 8 11 9 8 10 9 11 12 12 10 14
REMARK H PARENT 12 13 10 15
REMARK Flexibility Score: inf
ROOT
ATOM      1  C   UNL     1      -2.864   6.109  15.209  1.00  0.00     0.338 C 
ATOM      2  O   UNL     1      -3.722   6.692  15.928  1.00  0.00    -0.246 OA
ENDROOT
BRANCH   1   3
ATOM      3  O   UNL     1      -1.766   6.822  14.713  1.00  0.00    -0.462 OA
BRANCH   3   4
ATOM      4  C   UNL     1      -1.904   7.935  13.835  1.00  0.00     0.230 C 
ATOM      5  C   UNL     1      -2.312   7.445  12.454  1.00  0.00     0.049 C 
ENDBRANCH   3   4
ENDBRANCH   1   3
BRANCH   1   6
ATOM      6  C   UNL     1      -3.013   4.672  14.889  1.00  0.00     0.064 A 
ATOM      7  C   UNL     1      -2.077   4.018  14.068  1.00  0.00     0.065 A 
ATOM      8  C   UNL     1      -4.095   3.941  15.402  1.00  0.00     0.020 A 
ATOM      9  C   UNL     1      -2.214   2.658  13.761  1.00  0.00     0.158 A 
ATOM     10  C   UNL     1      -4.238   2.585  15.100  1.00  0.00     0.051 A 
ATOM     11  C   UNL     1      -3.310   1.932  14.285  1.00  0.00     0.157 A 
BRANCH   9  12
ATOM     12  O   UNL     1      -1.246   2.076  12.940  1.00  0.00    -0.504 OA
ATOM     13  H   UNL     1      -0.651   2.597  12.313  1.00  0.00     0.293 HD
ENDBRANCH   9  12
BRANCH  11  14
ATOM     14  O   UNL     1      -3.511   0.576  14.023  1.00  0.00    -0.504 OA
ATOM     15  H   UNL     1      -2.807  -0.036  13.636  1.00  0.00     0.293 HD
ENDBRANCH  11  14
ENDBRANCH   1   6
TORSDOF 5
ENDMDL
