MODEL 1
REMARK VINA RESULT:    30.230      0.000      0.000
REMARK INTER + INTRA:          36.205
REMARK INTER:                  36.416
REMARK INTRA:                  -0.210
REMARK UNBOUND:                -0.210
REMARK SMILES O=c1ccn([C@H]2O[C@H](CO)[C@@H](O)[C@H]2O)c(=O)[nH]1
REMARK SMILES IDX 6 1 13 2 11 3 8 4 7 5 5 6 3 7 4 8 2 9 17 10 1 11 15 12 16 14
REMARK SMILES IDX 14 15 12 17 9 19 10 20
REMARK H PARENT 17 13 14 16 12 18 10 21
REMARK Flexibility Score: inf
ROOT
ATOM      1  C   UNL     1     -25.807 -20.681 -19.021  1.00  0.00     0.255 C 
ATOM      2  C   UNL     1     -24.281 -20.612 -18.991  1.00  0.00     0.196 C 
ATOM      3  C   UNL     1     -23.913 -22.045 -19.277  1.00  0.00     0.179 C 
ATOM      4  C   UNL     1     -25.074 -22.520 -20.154  1.00  0.00     0.178 C 
ATOM      5  O   UNL     1     -26.209 -21.722 -19.886  1.00  0.00    -0.347 OA
ENDROOT
BRANCH   1   6
ATOM      6  N   UNL     1     -26.419 -19.390 -19.406  1.00  0.00    -0.271 N 
ATOM      7  C   UNL     1     -27.405 -18.033 -21.122  1.00  0.00     0.090 A 
ATOM      8  C   UNL     1     -26.808 -19.220 -20.707  1.00  0.00     0.099 A 
ATOM      9  C   UNL     1     -27.612 -17.028 -20.186  1.00  0.00     0.253 A 
ATOM     10  N   UNL     1     -27.239 -17.220 -18.894  1.00  0.00    -0.274 N 
ATOM     11  O   UNL     1     -28.150 -15.943 -20.534  1.00  0.00    -0.269 OA
ATOM     12  C   UNL     1     -26.656 -18.385 -18.495  1.00  0.00     0.330 A 
ATOM     13  H   UNL     1     -27.408 -16.463 -18.193  1.00  0.00     0.175 HD
ATOM     14  O   UNL     1     -26.349 -18.529 -17.280  1.00  0.00    -0.248 OA
ENDBRANCH   1   6
BRANCH   2  15
ATOM     15  O   UNL     1     -23.798 -19.757 -19.998  1.00  0.00    -0.386 OA
ATOM     16  H   UNL     1     -24.575 -19.231 -20.322  1.00  0.00     0.211 HD
ENDBRANCH   2  15
BRANCH   3  17
ATOM     17  O   UNL     1     -22.682 -22.142 -19.946  1.00  0.00    -0.387 OA
ATOM     18  H   UNL     1     -22.144 -22.811 -19.447  1.00  0.00     0.211 HD
ENDBRANCH   3  17
BRANCH   4  19
ATOM     19  C   UNL     1     -25.406 -23.999 -19.912  1.00  0.00     0.191 C 
BRANCH  19  20
ATOM     20  O   UNL     1     -25.451 -24.271 -18.537  1.00  0.00    -0.394 OA
ATOM     21  H   UNL     1     -25.980 -25.104 -18.430  1.00  0.00     0.210 HD
ENDBRANCH  19  20
ENDBRANCH   4  19
TORSDOF 5
ENDMDL
MODEL 2
REMARK VINA RESULT:    33.145      1.661      5.682
REMARK INTER + INTRA:          39.716
REMARK INTER:                  39.450
REMARK INTRA:                   0.266
REMARK UNBOUND:                -0.210
REMARK SMILES O=c1ccn([C@H]2O[C@H](CO)[C@@H](O)[C@H]2O)c(=O)[nH]1
REMARK SMILES IDX 6 1 13 2 11 3 8 4 7 5 5 6 3 7 4 8 2 9 17 10 1 11 15 12 16 14
REMARK SMILES IDX 14 15 12 17 9 19 10 20
REMARK H PARENT 17 13 14 16 12 18 10 21
REMARK Flexibility Score: inf
ROOT
ATOM      1  C   UNL     1     -25.848 -18.653 -19.725  1.00  0.00     0.255 C 
ATOM      2  C   UNL     1     -26.264 -18.072 -18.374  1.00  0.00     0.196 C 
ATOM      3  C   UNL     1     -27.149 -16.930 -18.802  1.00  0.00     0.179 C 
ATOM      4  C   UNL     1     -27.738 -17.439 -20.120  1.00  0.00     0.178 C 
ATOM      5  O   UNL     1     -26.864 -18.402 -20.672  1.00  0.00    -0.347 OA
ENDROOT
BRANCH   1   6
ATOM      6  N   UNL     1     -25.529 -20.096 -19.641  1.00  0.00    -0.271 N 
ATOM      7  C   UNL     1     -23.853 -21.808 -19.500  1.00  0.00     0.090 A 
ATOM      8  C   UNL     1     -24.213 -20.467 -19.596  1.00  0.00     0.099 A 
ATOM      9  C   UNL     1     -24.859 -22.764 -19.435  1.00  0.00     0.253 A 
ATOM     10  N   UNL     1     -26.161 -22.378 -19.461  1.00  0.00    -0.274 N 
ATOM     11  O   UNL     1     -24.563 -23.986 -19.349  1.00  0.00    -0.269 OA
ATOM     12  C   UNL     1     -26.505 -21.063 -19.554  1.00  0.00     0.330 A 
ATOM     13  H   UNL     1     -26.913 -23.104 -19.402  1.00  0.00     0.175 HD
ATOM     14  O   UNL     1     -27.727 -20.749 -19.549  1.00  0.00    -0.248 OA
ENDBRANCH   1   6
BRANCH   2  15
ATOM     15  O   UNL     1     -26.986 -19.018 -17.624  1.00  0.00    -0.386 OA
ATOM     16  H   UNL     1     -27.844 -19.165 -18.100  1.00  0.00     0.211 HD
ENDBRANCH   2  15
BRANCH   3  17
ATOM     17  O   UNL     1     -28.150 -16.666 -17.852  1.00  0.00    -0.387 OA
ATOM     18  H   UNL     1     -28.943 -17.197 -18.126  1.00  0.00     0.211 HD
ENDBRANCH   3  17
BRANCH   4  19
ATOM     19  C   UNL     1     -27.962 -16.300 -21.123  1.00  0.00     0.191 C 
BRANCH  19  20
ATOM     20  O   UNL     1     -28.966 -15.436 -20.665  1.00  0.00    -0.394 OA
ATOM     21  H   UNL     1     -29.372 -15.869 -19.870  1.00  0.00     0.210 HD
ENDBRANCH  19  20
ENDBRANCH   4  19
TORSDOF 5
ENDMDL
MODEL 3
REMARK VINA RESULT:    33.163      1.086      2.248
REMARK INTER + INTRA:          39.738
REMARK INTER:                  39.484
REMARK INTRA:                   0.254
REMARK UNBOUND:                -0.210
REMARK SMILES O=c1ccn([C@H]2O[C@H](CO)[C@@H](O)[C@H]2O)c(=O)[nH]1
REMARK SMILES IDX 6 1 13 2 11 3 8 4 7 5 5 6 3 7 4 8 2 9 17 10 1 11 15 12 16 14
REMARK SMILES IDX 14 15 12 17 9 19 10 20
REMARK H PARENT 17 13 14 16 12 18 10 21
REMARK Flexibility Score: inf
ROOT
ATOM      1  C   UNL     1     -24.912 -20.469 -19.907  1.00  0.00     0.255 C 
ATOM      2  C   UNL     1     -25.711 -21.769 -19.981  1.00  0.00     0.196 C 
ATOM      3  C   UNL     1     -24.656 -22.786 -19.630  1.00  0.00     0.179 C 
ATOM      4  C   UNL     1     -23.731 -22.000 -18.698  1.00  0.00     0.178 C 
ATOM      5  O   UNL     1     -23.860 -20.621 -18.977  1.00  0.00    -0.347 OA
ENDROOT
BRANCH   1   6
ATOM      6  N   UNL     1     -25.765 -19.306 -19.575  1.00  0.00    -0.271 N 
ATOM      7  C   UNL     1     -27.177 -17.527 -20.350  1.00  0.00     0.090 A 
ATOM      8  C   UNL     1     -26.351 -18.618 -20.603  1.00  0.00     0.099 A 
ATOM      9  C   UNL     1     -27.406 -17.156 -19.031  1.00  0.00     0.253 A 
ATOM     10  N   UNL     1     -26.832 -17.860 -18.021  1.00  0.00    -0.274 N 
ATOM     11  O   UNL     1     -28.148 -16.171 -18.773  1.00  0.00    -0.269 OA
ATOM     12  C   UNL     1     -26.026 -18.929 -18.277  1.00  0.00     0.330 A 
ATOM     13  H   UNL     1     -27.017 -17.581 -17.031  1.00  0.00     0.175 HD
ATOM     14  O   UNL     1     -25.535 -19.569 -17.307  1.00  0.00    -0.248 OA
ENDBRANCH   1   6
BRANCH   2  15
ATOM     15  O   UNL     1     -26.751 -21.773 -19.035  1.00  0.00    -0.386 OA
ATOM     16  H   UNL     1     -26.643 -22.599 -18.495  1.00  0.00     0.211 HD
ENDBRANCH   2  15
BRANCH   3  17
ATOM     17  O   UNL     1     -25.209 -23.908 -18.990  1.00  0.00    -0.387 OA
ATOM     18  H   UNL     1     -25.360 -23.644 -18.045  1.00  0.00     0.211 HD
ENDBRANCH   3  17
BRANCH   4  19
ATOM     19  C   UNL     1     -22.266 -22.429 -18.851  1.00  0.00     0.191 C 
BRANCH  19  20
ATOM     20  O   UNL     1     -21.882 -22.385 -20.199  1.00  0.00    -0.394 OA
ATOM     21  H   UNL     1     -21.378 -21.539 -20.323  1.00  0.00     0.210 HD
ENDBRANCH  19  20
ENDBRANCH   4  19
TORSDOF 5
ENDMDL
