MODEL 1
REMARK VINA RESULT:    13.503      0.000      0.000
REMARK INTER + INTRA:          22.228
REMARK INTER:                  20.608
REMARK INTRA:                   1.619
REMARK UNBOUND:                 1.619
REMARK SMILES CC1=CCC[C@H](C)C(=O)C[C@H](C(C)C)C(=O)C1
REMARK SMILES IDX 8 1 9 2 6 3 7 4 5 5 4 6 3 7 2 8 1 9 10 11 11 12 15 13 16 14
REMARK SMILES IDX 17 15 12 17 13 18 14 19
REMARK H PARENT
REMARK Flexibility Score: 70.00
ROOT
ATOM      1  C   UNL     1      18.198  18.870 -11.663  1.00  0.00     0.136 C 
ATOM      2  O   UNL     1      18.165  19.442 -10.582  1.00  0.00    -0.299 OA
ENDROOT
BRANCH   1   3
ATOM      3  C   UNL     1      18.614  19.691 -12.882  1.00  0.00     0.053 C 
ATOM      4  C   UNL     1      17.383  20.437 -13.422  1.00  0.00     0.016 C 
BRANCH   3   5
ATOM      5  C   UNL     1      19.766  20.706 -12.682  1.00  0.00     0.015 C 
BRANCH   5   6
ATOM      6  C   UNL     1      20.811  20.376 -11.599  1.00  0.00     0.028 C 
BRANCH   6   7
ATOM      7  C   UNL     1      21.863  19.374 -12.010  1.00  0.00    -0.028 C 
ATOM      8  C   UNL     1      21.891  18.040 -11.742  1.00  0.00    -0.070 CG0
ATOM      9  C   UNL     1      23.121  17.287 -12.192  1.00  0.00     0.039 C 
ATOM     10  G   UNL     1      20.749  17.217 -11.149  1.00  0.00     0.000 G0
ENDBRANCH   6   7
ENDBRANCH   5   6
ENDBRANCH   3   5
ENDBRANCH   1   3
BRANCH   1  11
ATOM     11  C   UNL     1      17.803  17.409 -11.685  1.00  0.00     0.087 C 
BRANCH  11  12
ATOM     12  C   UNL     1      18.676  16.591 -12.675  1.00  0.00     0.066 C 
BRANCH  12  13
ATOM     13  C   UNL     1      20.050  16.252 -12.095  1.00  0.00     0.140 C 
ATOM     14  O   UNL     1      20.631  15.223 -12.412  1.00  0.00    -0.299 OA
BRANCH  13  15
ATOM     15  C   UNL     1      20.740  17.211 -11.159  1.00  0.00     0.106 CG0
ATOM     16  G   UNL     1      21.880  18.032 -11.759  1.00  0.00     0.000 G0
ENDBRANCH  13  15
ENDBRANCH  12  13
BRANCH  12  17
ATOM     17  C   UNL     1      17.893  15.372 -13.265  1.00  0.00    -0.006 C 
ATOM     18  C   UNL     1      16.410  15.308 -12.856  1.00  0.00     0.008 C 
ATOM     19  C   UNL     1      18.596  14.038 -12.968  1.00  0.00     0.008 C 
ENDBRANCH  12  17
ENDBRANCH  11  12
ENDBRANCH   1  11
TORSDOF 1
ENDMDL
MODEL 2
REMARK VINA RESULT:    13.512      1.505      3.569
REMARK INTER + INTRA:          22.241
REMARK INTER:                  21.102
REMARK INTRA:                   1.139
REMARK UNBOUND:                 1.619
REMARK SMILES CC1=CCC[C@H](C)C(=O)C[C@H](C(C)C)C(=O)C1
REMARK SMILES IDX 8 1 9 2 6 3 7 4 5 5 4 6 3 7 2 8 1 9 10 11 11 12 15 13 16 14
REMARK SMILES IDX 17 15 12 17 13 18 14 19
REMARK H PARENT
REMARK Flexibility Score: 70.00
ROOT
ATOM      1  C   UNL     1      20.868  16.771 -11.108  1.00  0.00     0.136 C 
ATOM      2  O   UNL     1      20.823  16.336  -9.966  1.00  0.00    -0.299 OA
ENDROOT
BRANCH   1   3
ATOM      3  C   UNL     1      21.651  18.062 -11.341  1.00  0.00     0.053 C 
ATOM      4  C   UNL     1      23.124  17.709 -11.603  1.00  0.00     0.016 C 
BRANCH   3   5
ATOM      5  C   UNL     1      21.148  18.989 -12.476  1.00  0.00     0.015 C 
BRANCH   5   6
ATOM      6  C   UNL     1      20.804  20.440 -12.096  1.00  0.00     0.028 C 
BRANCH   6   7
ATOM      7  C   UNL     1      19.387  20.863 -12.405  1.00  0.00    -0.028 C 
ATOM      8  C   UNL     1      18.397  20.111 -12.958  1.00  0.00    -0.070 CG0
ATOM      9  C   UNL     1      17.096  20.821 -13.251  1.00  0.00     0.039 C 
ATOM     10  G   UNL     1      18.435  18.602 -13.191  1.00  0.00     0.000 G0
ENDBRANCH   6   7
ENDBRANCH   5   6
ENDBRANCH   3   5
ENDBRANCH   1   3
BRANCH   1  11
ATOM     11  C   UNL     1      20.122  15.996 -12.173  1.00  0.00     0.087 C 
BRANCH  11  12
ATOM     12  C   UNL     1      18.588  16.224 -12.083  1.00  0.00     0.066 C 
BRANCH  12  13
ATOM     13  C   UNL     1      18.223  17.706 -12.004  1.00  0.00     0.140 C 
ATOM     14  O   UNL     1      17.802  18.197 -10.966  1.00  0.00    -0.299 OA
BRANCH  13  15
ATOM     15  C   UNL     1      18.429  18.607 -13.195  1.00  0.00     0.106 CG0
ATOM     16  G   UNL     1      18.395  20.108 -12.918  1.00  0.00     0.000 G0
ENDBRANCH  13  15
ENDBRANCH  12  13
BRANCH  12  17
ATOM     17  C   UNL     1      17.819  15.416 -13.180  1.00  0.00    -0.006 C 
ATOM     18  C   UNL     1      16.347  15.121 -12.841  1.00  0.00     0.008 C 
ATOM     19  C   UNL     1      18.557  14.123 -13.566  1.00  0.00     0.008 C 
ENDBRANCH  12  17
ENDBRANCH  11  12
ENDBRANCH   1  11
TORSDOF 1
ENDMDL
MODEL 3
REMARK VINA RESULT:    14.257      1.092      1.268
REMARK INTER + INTRA:          23.378
REMARK INTER:                  21.891
REMARK INTRA:                   1.487
REMARK UNBOUND:                 1.619
REMARK SMILES CC1=CCC[C@H](C)C(=O)C[C@H](C(C)C)C(=O)C1
REMARK SMILES IDX 8 1 9 2 6 3 7 4 5 5 4 6 3 7 2 8 1 9 10 11 11 12 15 13 16 14
REMARK SMILES IDX 17 15 12 17 13 18 14 19
REMARK H PARENT
REMARK Flexibility Score: 70.00
ROOT
ATOM      1  C   UNL     1      18.154  19.220 -12.972  1.00  0.00     0.136 C 
ATOM      2  O   UNL     1      18.123  19.384 -14.184  1.00  0.00    -0.299 OA
ENDROOT
BRANCH   1   3
ATOM      3  C   UNL     1      18.606  20.398 -12.112  1.00  0.00     0.053 C 
ATOM      4  C   UNL     1      18.230  20.117 -10.648  1.00  0.00     0.016 C 
BRANCH   3   5
ATOM      5  C   UNL     1      20.107  20.777 -12.178  1.00  0.00     0.015 C 
BRANCH   5   6
ATOM      6  C   UNL     1      20.970  20.041 -13.219  1.00  0.00     0.028 C 
BRANCH   6   7
ATOM      7  C   UNL     1      22.011  19.110 -12.644  1.00  0.00    -0.028 C 
ATOM      8  C   UNL     1      21.820  18.096 -11.756  1.00  0.00    -0.070 CG0
ATOM      9  C   UNL     1      23.061  17.384 -11.269  1.00  0.00     0.039 C 
ATOM     10  G   UNL     1      20.473  17.532 -11.310  1.00  0.00     0.000 G0
ENDBRANCH   6   7
ENDBRANCH   5   6
ENDBRANCH   3   5
ENDBRANCH   1   3
BRANCH   1  11
ATOM     11  C   UNL     1      17.761  17.855 -12.449  1.00  0.00     0.087 C 
BRANCH  11  12
ATOM     12  C   UNL     1      18.655  16.731 -13.043  1.00  0.00     0.066 C 
BRANCH  12  13
ATOM     13  C   UNL     1      19.876  16.437 -12.172  1.00  0.00     0.140 C 
ATOM     14  O   UNL     1      20.414  15.340 -12.191  1.00  0.00    -0.299 OA
BRANCH  13  15
ATOM     15  C   UNL     1      20.475  17.519 -11.309  1.00  0.00     0.106 CG0
ATOM     16  G   UNL     1      21.827  18.067 -11.759  1.00  0.00     0.000 G0
ENDBRANCH  13  15
ENDBRANCH  12  13
BRANCH  12  17
ATOM     17  C   UNL     1      17.814  15.474 -13.441  1.00  0.00    -0.006 C 
ATOM     18  C   UNL     1      16.375  15.470 -12.895  1.00  0.00     0.008 C 
ATOM     19  C   UNL     1      18.534  14.163 -13.084  1.00  0.00     0.008 C 
ENDBRANCH  12  17
ENDBRANCH  11  12
ENDBRANCH   1  11
TORSDOF 1
ENDMDL
MODEL 4
REMARK VINA RESULT:    15.360      1.839      4.932
REMARK INTER + INTRA:          25.061
REMARK INTER:                  24.595
REMARK INTRA:                   0.466
REMARK UNBOUND:                 1.619
REMARK SMILES CC1=CCC[C@H](C)C(=O)C[C@H](C(C)C)C(=O)C1
REMARK SMILES IDX 8 1 9 2 6 3 7 4 5 5 4 6 3 7 2 8 1 9 10 11 11 12 15 13 16 14
REMARK SMILES IDX 17 15 12 17 13 18 14 19
REMARK H PARENT
REMARK Flexibility Score: 70.00
ROOT
ATOM      1  C   UNL     1      21.505  18.614 -12.383  1.00  0.00     0.136 C 
ATOM      2  O   UNL     1      22.146  19.247 -13.210  1.00  0.00    -0.299 OA
ENDROOT
BRANCH   1   3
ATOM      3  C   UNL     1      21.920  17.167 -12.126  1.00  0.00     0.053 C 
ATOM      4  C   UNL     1      22.957  17.142 -10.990  1.00  0.00     0.016 C 
BRANCH   3   5
ATOM      5  C   UNL     1      20.788  16.164 -11.791  1.00  0.00     0.015 C 
BRANCH   5   6
ATOM      6  C   UNL     1      20.427  15.128 -12.871  1.00  0.00     0.028 C 
BRANCH   6   7
ATOM      7  C   UNL     1      18.981  14.691 -12.881  1.00  0.00    -0.028 C 
ATOM      8  C   UNL     1      17.875  15.480 -12.954  1.00  0.00    -0.070 CG0
ATOM      9  C   UNL     1      16.540  14.781 -12.843  1.00  0.00     0.039 C 
ATOM     10  G   UNL     1      17.854  16.976 -13.262  1.00  0.00     0.000 G0
ENDBRANCH   6   7
ENDBRANCH   5   6
ENDBRANCH   3   5
ENDBRANCH   1   3
BRANCH   1  11
ATOM     11  C   UNL     1      20.348  19.324 -11.714  1.00  0.00     0.087 C 
BRANCH  11  12
ATOM     12  C   UNL     1      19.038  19.195 -12.539  1.00  0.00     0.066 C 
BRANCH  12  13
ATOM     13  C   UNL     1      18.250  17.934 -12.184  1.00  0.00     0.140 C 
ATOM     14  O   UNL     1      17.911  17.706 -11.032  1.00  0.00    -0.299 OA
BRANCH  13  15
ATOM     15  C   UNL     1      17.827  16.970 -13.264  1.00  0.00     0.106 CG0
ATOM     16  G   UNL     1      17.869  15.489 -12.897  1.00  0.00     0.000 G0
ENDBRANCH  13  15
ENDBRANCH  12  13
BRANCH  12  17
ATOM     17  C   UNL     1      18.206  20.519 -12.512  1.00  0.00    -0.006 C 
ATOM     18  C   UNL     1      17.159  20.638 -13.634  1.00  0.00     0.008 C 
ATOM     19  C   UNL     1      19.107  21.764 -12.476  1.00  0.00     0.008 C 
ENDBRANCH  12  17
ENDBRANCH  11  12
ENDBRANCH   1  11
TORSDOF 1
ENDMDL
MODEL 5
REMARK VINA RESULT:    15.943      1.496      4.336
REMARK INTER + INTRA:          25.951
REMARK INTER:                  24.995
REMARK INTRA:                   0.957
REMARK UNBOUND:                 1.619
REMARK SMILES CC1=CCC[C@H](C)C(=O)C[C@H](C(C)C)C(=O)C1
REMARK SMILES IDX 8 1 9 2 6 3 7 4 5 5 4 6 3 7 2 8 1 9 10 11 11 12 15 13 16 14
REMARK SMILES IDX 17 15 12 17 13 18 14 19
REMARK H PARENT
REMARK Flexibility Score: 70.00
ROOT
ATOM      1  C   UNL     1      17.515  15.851 -13.267  1.00  0.00     0.136 C 
ATOM      2  O   UNL     1      16.404  16.070 -12.806  1.00  0.00    -0.299 OA
ENDROOT
BRANCH   1   3
ATOM      3  C   UNL     1      17.874  14.401 -13.585  1.00  0.00     0.053 C 
ATOM      4  C   UNL     1      17.291  14.034 -14.959  1.00  0.00     0.016 C 
BRANCH   3   5
ATOM      5  C   UNL     1      19.380  14.034 -13.567  1.00  0.00     0.015 C 
BRANCH   5   6
ATOM      6  C   UNL     1      20.089  14.050 -12.200  1.00  0.00     0.028 C 
BRANCH   6   7
ATOM      7  C   UNL     1      20.976  15.247 -11.954  1.00  0.00    -0.028 C 
ATOM      8  C   UNL     1      20.629  16.439 -11.396  1.00  0.00    -0.070 CG0
ATOM      9  C   UNL     1      21.700  17.505 -11.362  1.00  0.00     0.039 C 
ATOM     10  G   UNL     1      19.310  16.753 -10.692  1.00  0.00     0.000 G0
ENDBRANCH   6   7
ENDBRANCH   5   6
ENDBRANCH   3   5
ENDBRANCH   1   3
BRANCH   1  11
ATOM     11  C   UNL     1      18.433  17.041 -13.454  1.00  0.00     0.087 C 
BRANCH  11  12
ATOM     12  C   UNL     1      18.048  18.218 -12.517  1.00  0.00     0.066 C 
BRANCH  12  13
ATOM     13  C   UNL     1      18.632  18.059 -11.113  1.00  0.00     0.140 C 
ATOM     14  O   UNL     1      18.529  18.951 -10.283  1.00  0.00    -0.299 OA
BRANCH  13  15
ATOM     15  C   UNL     1      19.300  16.770 -10.708  1.00  0.00     0.106 CG0
ATOM     16  G   UNL     1      20.626  16.454 -11.397  1.00  0.00     0.000 G0
ENDBRANCH  13  15
ENDBRANCH  12  13
BRANCH  12  17
ATOM     17  C   UNL     1      18.321  19.604 -13.189  1.00  0.00    -0.006 C 
ATOM     18  C   UNL     1      19.412  20.443 -12.500  1.00  0.00     0.008 C 
ATOM     19  C   UNL     1      17.032  20.425 -13.360  1.00  0.00     0.008 C 
ENDBRANCH  12  17
ENDBRANCH  11  12
ENDBRANCH   1  11
TORSDOF 1
ENDMDL
MODEL 6
REMARK VINA RESULT:    16.088      1.579      4.147
REMARK INTER + INTRA:          26.173
REMARK INTER:                  24.800
REMARK INTRA:                   1.373
REMARK UNBOUND:                 1.619
REMARK SMILES CC1=CCC[C@H](C)C(=O)C[C@H](C(C)C)C(=O)C1
REMARK SMILES IDX 8 1 9 2 6 3 7 4 5 5 4 6 3 7 2 8 1 9 10 11 11 12 15 13 16 14
REMARK SMILES IDX 17 15 12 17 13 18 14 19
REMARK H PARENT
REMARK Flexibility Score: 70.00
ROOT
ATOM      1  C   UNL     1      17.578  16.799 -12.125  1.00  0.00     0.136 C 
ATOM      2  O   UNL     1      17.133  17.077 -11.020  1.00  0.00    -0.299 OA
ENDROOT
BRANCH   1   3
ATOM      3  C   UNL     1      17.445  15.352 -12.597  1.00  0.00     0.053 C 
ATOM      4  C   UNL     1      16.020  15.131 -13.128  1.00  0.00     0.016 C 
BRANCH   3   5
ATOM      5  C   UNL     1      18.458  14.870 -13.666  1.00  0.00     0.015 C 
BRANCH   5   6
ATOM      6  C   UNL     1      19.832  14.389 -13.164  1.00  0.00     0.028 C 
BRANCH   6   7
ATOM      7  C   UNL     1      20.252  14.942 -11.823  1.00  0.00    -0.028 C 
ATOM      8  C   UNL     1      20.875  16.126 -11.570  1.00  0.00    -0.070 CG0
ATOM      9  C   UNL     1      21.272  16.385 -10.135  1.00  0.00     0.039 C 
ATOM     10  G   UNL     1      21.093  17.260 -12.569  1.00  0.00     0.000 G0
ENDBRANCH   6   7
ENDBRANCH   5   6
ENDBRANCH   3   5
ENDBRANCH   1   3
BRANCH   1  11
ATOM     11  C   UNL     1      18.236  17.916 -12.906  1.00  0.00     0.087 C 
BRANCH  11  12
ATOM     12  C   UNL     1      19.081  18.841 -11.987  1.00  0.00     0.066 C 
BRANCH  12  13
ATOM     13  C   UNL     1      20.583  18.628 -12.172  1.00  0.00     0.140 C 
ATOM     14  O   UNL     1      21.378  19.536 -11.970  1.00  0.00    -0.299 OA
BRANCH  13  15
ATOM     15  C   UNL     1      21.120  17.273 -12.555  1.00  0.00     0.106 CG0
ATOM     16  G   UNL     1      20.858  16.141 -11.563  1.00  0.00     0.000 G0
ENDBRANCH  13  15
ENDBRANCH  12  13
BRANCH  12  17
ATOM     17  C   UNL     1      18.612  20.331 -12.079  1.00  0.00    -0.006 C 
ATOM     18  C   UNL     1      17.626  20.620 -13.225  1.00  0.00     0.008 C 
ATOM     19  C   UNL     1      19.800  21.306 -12.126  1.00  0.00     0.008 C 
ENDBRANCH  12  17
ENDBRANCH  11  12
ENDBRANCH   1  11
TORSDOF 1
ENDMDL
MODEL 7
REMARK VINA RESULT:    16.335      2.053      5.390
REMARK INTER + INTRA:          26.549
REMARK INTER:                  25.450
REMARK INTRA:                   1.099
REMARK UNBOUND:                 1.619
REMARK SMILES CC1=CCC[C@H](C)C(=O)C[C@H](C(C)C)C(=O)C1
REMARK SMILES IDX 8 1 9 2 6 3 7 4 5 5 4 6 3 7 2 8 1 9 10 11 11 12 15 13 16 14
REMARK SMILES IDX 17 15 12 17 13 18 14 19
REMARK H PARENT
REMARK Flexibility Score: 70.00
ROOT
ATOM      1  C   UNL     1      19.494  16.145 -12.373  1.00  0.00     0.136 C 
ATOM      2  O   UNL     1      20.286  15.285 -12.014  1.00  0.00    -0.299 OA
ENDROOT
BRANCH   1   3
ATOM      3  C   UNL     1      18.379  15.724 -13.327  1.00  0.00     0.053 C 
ATOM      4  C   UNL     1      18.392  14.192 -13.462  1.00  0.00     0.016 C 
BRANCH   3   5
ATOM      5  C   UNL     1      16.943  16.182 -12.969  1.00  0.00     0.015 C 
BRANCH   5   6
ATOM      6  C   UNL     1      15.997  15.124 -12.373  1.00  0.00     0.028 C 
BRANCH   6   7
ATOM      7  C   UNL     1      15.415  15.474 -11.024  1.00  0.00    -0.028 C 
ATOM      8  C   UNL     1      16.056  16.030  -9.960  1.00  0.00    -0.070 CG0
ATOM      9  C   UNL     1      15.250  16.182  -8.691  1.00  0.00     0.039 C 
ATOM     10  G   UNL     1      17.462  16.626  -9.968  1.00  0.00     0.000 G0
ENDBRANCH   6   7
ENDBRANCH   5   6
ENDBRANCH   3   5
ENDBRANCH   1   3
BRANCH   1  11
ATOM     11  C   UNL     1      19.714  17.549 -11.850  1.00  0.00     0.087 C 
BRANCH  11  12
ATOM     12  C   UNL     1      18.381  18.339 -11.743  1.00  0.00     0.066 C 
BRANCH  12  13
ATOM     13  C   UNL     1      17.646  18.066 -10.430  1.00  0.00     0.140 C 
ATOM     14  O   UNL     1      17.133  18.976  -9.794  1.00  0.00    -0.299 OA
BRANCH  13  15
ATOM     15  C   UNL     1      17.493  16.655  -9.922  1.00  0.00     0.106 CG0
ATOM     16  G   UNL     1      16.084  16.070  -9.975  1.00  0.00     0.000 G0
ENDBRANCH  13  15
ENDBRANCH  12  13
BRANCH  12  17
ATOM     17  C   UNL     1      18.578  19.853 -12.083  1.00  0.00    -0.006 C 
ATOM     18  C   UNL     1      17.717  20.362 -13.253  1.00  0.00     0.008 C 
ATOM     19  C   UNL     1      20.058  20.205 -12.305  1.00  0.00     0.008 C 
ENDBRANCH  12  17
ENDBRANCH  11  12
ENDBRANCH   1  11
TORSDOF 1
ENDMDL
MODEL 8
REMARK VINA RESULT:    16.357      1.987      4.990
REMARK INTER + INTRA:          26.583
REMARK INTER:                  25.992
REMARK INTRA:                   0.591
REMARK UNBOUND:                 1.619
REMARK SMILES CC1=CCC[C@H](C)C(=O)C[C@H](C(C)C)C(=O)C1
REMARK SMILES IDX 8 1 9 2 6 3 7 4 5 5 4 6 3 7 2 8 1 9 10 11 11 12 15 13 16 14
REMARK SMILES IDX 17 15 12 17 13 18 14 19
REMARK H PARENT
REMARK Flexibility Score: 70.00
ROOT
ATOM      1  C   UNL     1      19.916  16.999 -10.666  1.00  0.00     0.136 C 
ATOM      2  O   UNL     1      20.196  16.755  -9.500  1.00  0.00    -0.299 OA
ENDROOT
BRANCH   1   3
ATOM      3  C   UNL     1      20.792  16.372 -11.748  1.00  0.00     0.053 C 
ATOM      4  C   UNL     1      22.232  16.884 -11.582  1.00  0.00     0.016 C 
BRANCH   3   5
ATOM      5  C   UNL     1      20.817  14.824 -11.817  1.00  0.00     0.015 C 
BRANCH   5   6
ATOM      6  C   UNL     1      20.051  14.161 -12.976  1.00  0.00     0.028 C 
BRANCH   6   7
ATOM      7  C   UNL     1      18.546  14.234 -12.873  1.00  0.00    -0.028 C 
ATOM      8  C   UNL     1      17.741  15.288 -13.179  1.00  0.00    -0.070 CG0
ATOM      9  C   UNL     1      16.269  15.121 -12.883  1.00  0.00     0.039 C 
ATOM     10  G   UNL     1      18.166  16.564 -13.904  1.00  0.00     0.000 G0
ENDBRANCH   6   7
ENDBRANCH   5   6
ENDBRANCH   3   5
ENDBRANCH   1   3
BRANCH   1  11
ATOM     11  C   UNL     1      18.740  17.919 -10.916  1.00  0.00     0.087 C 
BRANCH  11  12
ATOM     12  C   UNL     1      18.797  18.554 -12.333  1.00  0.00     0.066 C 
BRANCH  12  13
ATOM     13  C   UNL     1      17.829  17.886 -13.309  1.00  0.00     0.140 C 
ATOM     14  O   UNL     1      16.783  18.431 -13.632  1.00  0.00    -0.299 OA
BRANCH  13  15
ATOM     15  C   UNL     1      18.174  16.559 -13.936  1.00  0.00     0.106 CG0
ATOM     16  G   UNL     1      17.732  15.316 -13.166  1.00  0.00     0.000 G0
ENDBRANCH  13  15
ENDBRANCH  12  13
BRANCH  12  17
ATOM     17  C   UNL     1      18.696  20.114 -12.271  1.00  0.00    -0.006 C 
ATOM     18  C   UNL     1      17.911  20.749 -13.433  1.00  0.00     0.008 C 
ATOM     19  C   UNL     1      20.076  20.775 -12.124  1.00  0.00     0.008 C 
ENDBRANCH  12  17
ENDBRANCH  11  12
ENDBRANCH   1  11
TORSDOF 1
ENDMDL
