MODEL 1
REMARK VINA RESULT:    -4.408      0.000      0.000
REMARK INTER + INTRA:          -4.408
REMARK INTER:                  -4.408
REMARK INTRA:                   0.000
REMARK UNBOUND:                 0.000
REMARK SMILES CC(C)=C1CC[C@@H](C)CC1=O
REMARK SMILES IDX 8 1 7 2 6 3 5 4 4 5 2 6 1 7 3 8 10 9 11 10 9 11
REMARK H PARENT
REMARK Flexibility Score: inf
ROOT
ATOM      1  C   UNL     1       9.879  -4.310  -2.032  1.00  0.00     0.008 C 
ATOM      2  C   UNL     1       8.462  -3.794  -1.755  1.00  0.00    -0.006 C 
ATOM      3  C   UNL     1       8.283  -2.377  -2.324  1.00  0.00     0.008 C 
ATOM      4  C   UNL     1       6.840  -1.884  -2.147  1.00  0.00     0.039 C 
ATOM      5  C   UNL     1       6.355  -2.003  -0.709  1.00  0.00    -0.006 C 
ATOM      6  C   UNL     1       5.458  -1.115  -0.186  1.00  0.00    -0.070 C 
ATOM      7  C   UNL     1       4.896   0.014  -1.021  1.00  0.00     0.039 C 
ATOM      8  C   UNL     1       5.012  -1.190   1.255  1.00  0.00     0.039 C 
ATOM      9  C   UNL     1       6.825  -3.203   0.045  1.00  0.00     0.159 C 
ATOM     10  O   UNL     1       6.107  -3.745   0.927  1.00  0.00    -0.295 OA
ATOM     11  C   UNL     1       8.175  -3.794  -0.247  1.00  0.00     0.084 C 
ENDROOT
TORSDOF 0
ENDMDL
MODEL 2
REMARK VINA RESULT:    -4.385      2.507      4.062
REMARK INTER + INTRA:          -4.385
REMARK INTER:                  -4.385
REMARK INTRA:                   0.000
REMARK UNBOUND:                 0.000
REMARK SMILES CC(C)=C1CC[C@@H](C)CC1=O
REMARK SMILES IDX 8 1 7 2 6 3 5 4 4 5 2 6 1 7 3 8 10 9 11 10 9 11
REMARK H PARENT
REMARK Flexibility Score: inf
ROOT
ATOM      1  C   UNL     1       4.877  -1.841   3.369  1.00  0.00     0.008 C 
ATOM      2  C   UNL     1       5.373  -2.121   1.946  1.00  0.00    -0.006 C 
ATOM      3  C   UNL     1       4.717  -1.158   0.945  1.00  0.00     0.008 C 
ATOM      4  C   UNL     1       5.279  -1.356  -0.469  1.00  0.00     0.039 C 
ATOM      5  C   UNL     1       5.213  -2.807  -0.926  1.00  0.00    -0.006 C 
ATOM      6  C   UNL     1       5.034  -3.131  -2.241  1.00  0.00    -0.070 C 
ATOM      7  C   UNL     1       4.912  -2.060  -3.301  1.00  0.00     0.039 C 
ATOM      8  C   UNL     1       4.911  -4.566  -2.698  1.00  0.00     0.039 C 
ATOM      9  C   UNL     1       5.470  -3.837   0.124  1.00  0.00     0.159 C 
ATOM     10  O   UNL     1       6.024  -4.933  -0.156  1.00  0.00    -0.295 OA
ATOM     11  C   UNL     1       5.073  -3.575   1.549  1.00  0.00     0.084 C 
ENDROOT
TORSDOF 0
ENDMDL
MODEL 3
REMARK VINA RESULT:    -4.348      2.163      4.544
REMARK INTER + INTRA:          -4.348
REMARK INTER:                  -4.348
REMARK INTRA:                   0.000
REMARK UNBOUND:                 0.000
REMARK SMILES CC(C)=C1CC[C@@H](C)CC1=O
REMARK SMILES IDX 8 1 7 2 6 3 5 4 4 5 2 6 1 7 3 8 10 9 11 10 9 11
REMARK H PARENT
REMARK Flexibility Score: inf
ROOT
ATOM      1  C   UNL     1       4.724   0.810  -1.255  1.00  0.00     0.008 C 
ATOM      2  C   UNL     1       4.870  -0.695  -1.002  1.00  0.00    -0.006 C 
ATOM      3  C   UNL     1       6.336  -1.056  -0.717  1.00  0.00     0.008 C 
ATOM      4  C   UNL     1       6.486  -2.541  -0.360  1.00  0.00     0.039 C 
ATOM      5  C   UNL     1       5.849  -3.457  -1.397  1.00  0.00    -0.006 C 
ATOM      6  C   UNL     1       6.360  -4.696  -1.659  1.00  0.00    -0.070 C 
ATOM      7  C   UNL     1       7.570  -5.218  -0.917  1.00  0.00     0.039 C 
ATOM      8  C   UNL     1       5.771  -5.591  -2.724  1.00  0.00     0.039 C 
ATOM      9  C   UNL     1       4.581  -2.967  -2.014  1.00  0.00     0.159 C 
ATOM     10  O   UNL     1       3.677  -3.767  -2.375  1.00  0.00    -0.295 OA
ATOM     11  C   UNL     1       4.358  -1.495  -2.209  1.00  0.00     0.084 C 
ENDROOT
TORSDOF 0
ENDMDL
MODEL 4
REMARK VINA RESULT:    -4.324      2.151      4.423
REMARK INTER + INTRA:          -4.324
REMARK INTER:                  -4.324
REMARK INTRA:                   0.000
REMARK UNBOUND:                 0.000
REMARK SMILES CC(C)=C1CC[C@@H](C)CC1=O
REMARK SMILES IDX 8 1 7 2 6 3 5 4 4 5 2 6 1 7 3 8 10 9 11 10 9 11
REMARK H PARENT
REMARK Flexibility Score: inf
ROOT
ATOM      1  C   UNL     1       4.885  -1.118   1.030  1.00  0.00     0.008 C 
ATOM      2  C   UNL     1       5.446  -1.034  -0.395  1.00  0.00    -0.006 C 
ATOM      3  C   UNL     1       4.574  -1.844  -1.367  1.00  0.00     0.008 C 
ATOM      4  C   UNL     1       5.060  -1.689  -2.814  1.00  0.00     0.039 C 
ATOM      5  C   UNL     1       6.544  -1.993  -2.967  1.00  0.00    -0.006 C 
ATOM      6  C   UNL     1       7.044  -2.535  -4.117  1.00  0.00    -0.070 C 
ATOM      7  C   UNL     1       6.144  -2.837  -5.295  1.00  0.00     0.039 C 
ATOM      8  C   UNL     1       8.505  -2.893  -4.260  1.00  0.00     0.039 C 
ATOM      9  C   UNL     1       7.422  -1.560  -1.839  1.00  0.00     0.159 C 
ATOM     10  O   UNL     1       8.610  -1.192  -2.039  1.00  0.00    -0.295 OA
ATOM     11  C   UNL     1       6.892  -1.549  -0.434  1.00  0.00     0.084 C 
ENDROOT
TORSDOF 0
ENDMDL
MODEL 5
REMARK VINA RESULT:    -4.291      1.985      4.111
REMARK INTER + INTRA:          -4.291
REMARK INTER:                  -4.291
REMARK INTRA:                   0.000
REMARK UNBOUND:                 0.000
REMARK SMILES CC(C)=C1CC[C@@H](C)CC1=O
REMARK SMILES IDX 8 1 7 2 6 3 5 4 4 5 2 6 1 7 3 8 10 9 11 10 9 11
REMARK H PARENT
REMARK Flexibility Score: inf
ROOT
ATOM      1  C   UNL     1       4.460   1.024  -1.114  1.00  0.00     0.008 C 
ATOM      2  C   UNL     1       5.282  -0.258  -1.290  1.00  0.00    -0.006 C 
ATOM      3  C   UNL     1       4.810  -1.037  -2.528  1.00  0.00     0.008 C 
ATOM      4  C   UNL     1       5.688  -2.270  -2.779  1.00  0.00     0.039 C 
ATOM      5  C   UNL     1       5.819  -3.154  -1.547  1.00  0.00    -0.006 C 
ATOM      6  C   UNL     1       5.963  -4.508  -1.656  1.00  0.00    -0.070 C 
ATOM      7  C   UNL     1       6.016  -5.184  -3.008  1.00  0.00     0.039 C 
ATOM      8  C   UNL     1       6.038  -5.401  -0.439  1.00  0.00     0.039 C 
ATOM      9  C   UNL     1       5.896  -2.444  -0.235  1.00  0.00     0.159 C 
ATOM     10  O   UNL     1       6.568  -2.911   0.723  1.00  0.00    -0.295 OA
ATOM     11  C   UNL     1       5.172  -1.143  -0.040  1.00  0.00     0.084 C 
ENDROOT
TORSDOF 0
ENDMDL
MODEL 6
REMARK VINA RESULT:    -4.279      2.386      2.695
REMARK INTER + INTRA:          -4.279
REMARK INTER:                  -4.279
REMARK INTRA:                   0.000
REMARK UNBOUND:                 0.000
REMARK SMILES CC(C)=C1CC[C@@H](C)CC1=O
REMARK SMILES IDX 8 1 7 2 6 3 5 4 4 5 2 6 1 7 3 8 10 9 11 10 9 11
REMARK H PARENT
REMARK Flexibility Score: inf
ROOT
ATOM      1  C   UNL     1       5.665  -5.494  -4.584  1.00  0.00     0.008 C 
ATOM      2  C   UNL     1       5.080  -4.504  -3.569  1.00  0.00    -0.006 C 
ATOM      3  C   UNL     1       5.357  -3.056  -4.005  1.00  0.00     0.008 C 
ATOM      4  C   UNL     1       4.690  -2.051  -3.056  1.00  0.00     0.039 C 
ATOM      5  C   UNL     1       5.048  -2.301  -1.598  1.00  0.00    -0.006 C 
ATOM      6  C   UNL     1       5.137  -1.273  -0.702  1.00  0.00    -0.070 C 
ATOM      7  C   UNL     1       4.866   0.155  -1.119  1.00  0.00     0.039 C 
ATOM      8  C   UNL     1       5.544  -1.502   0.735  1.00  0.00     0.039 C 
ATOM      9  C   UNL     1       5.177  -3.731  -1.189  1.00  0.00     0.159 C 
ATOM     10  O   UNL     1       4.873  -4.111  -0.027  1.00  0.00    -0.295 OA
ATOM     11  C   UNL     1       5.670  -4.753  -2.173  1.00  0.00     0.084 C 
ENDROOT
TORSDOF 0
ENDMDL
MODEL 7
REMARK VINA RESULT:    -4.171      2.201      4.561
REMARK INTER + INTRA:          -4.171
REMARK INTER:                  -4.171
REMARK INTRA:                   0.000
REMARK UNBOUND:                 0.000
REMARK SMILES CC(C)=C1CC[C@@H](C)CC1=O
REMARK SMILES IDX 8 1 7 2 6 3 5 4 4 5 2 6 1 7 3 8 10 9 11 10 9 11
REMARK H PARENT
REMARK Flexibility Score: inf
ROOT
ATOM      1  C   UNL     1       4.808  -0.745   0.721  1.00  0.00     0.008 C 
ATOM      2  C   UNL     1       5.416  -1.643  -0.364  1.00  0.00    -0.006 C 
ATOM      3  C   UNL     1       6.816  -1.145  -0.755  1.00  0.00     0.008 C 
ATOM      4  C   UNL     1       7.482  -2.089  -1.764  1.00  0.00     0.039 C 
ATOM      5  C   UNL     1       6.601  -2.365  -2.974  1.00  0.00    -0.006 C 
ATOM      6  C   UNL     1       7.140  -2.597  -4.208  1.00  0.00    -0.070 C 
ATOM      7  C   UNL     1       8.637  -2.608  -4.419  1.00  0.00     0.039 C 
ATOM      8  C   UNL     1       6.274  -2.817  -5.427  1.00  0.00     0.039 C 
ATOM      9  C   UNL     1       5.136  -2.480  -2.707  1.00  0.00     0.159 C 
ATOM     10  O   UNL     1       4.404  -3.246  -3.389  1.00  0.00    -0.295 OA
ATOM     11  C   UNL     1       4.508  -1.680  -1.602  1.00  0.00     0.084 C 
ENDROOT
TORSDOF 0
ENDMDL
MODEL 8
REMARK VINA RESULT:    -4.159      2.075      2.937
REMARK INTER + INTRA:          -4.159
REMARK INTER:                  -4.159
REMARK INTRA:                   0.000
REMARK UNBOUND:                 0.000
REMARK SMILES CC(C)=C1CC[C@@H](C)CC1=O
REMARK SMILES IDX 8 1 7 2 6 3 5 4 4 5 2 6 1 7 3 8 10 9 11 10 9 11
REMARK H PARENT
REMARK Flexibility Score: inf
ROOT
ATOM      1  C   UNL     1       6.531  -6.569  -2.313  1.00  0.00     0.008 C 
ATOM      2  C   UNL     1       6.676  -5.177  -1.688  1.00  0.00    -0.006 C 
ATOM      3  C   UNL     1       5.991  -5.128  -0.313  1.00  0.00     0.008 C 
ATOM      4  C   UNL     1       6.214  -3.774   0.373  1.00  0.00     0.039 C 
ATOM      5  C   UNL     1       5.826  -2.599  -0.515  1.00  0.00    -0.006 C 
ATOM      6  C   UNL     1       5.334  -1.440   0.014  1.00  0.00    -0.070 C 
ATOM      7  C   UNL     1       5.170  -1.269   1.508  1.00  0.00     0.039 C 
ATOM      8  C   UNL     1       4.894  -0.289  -0.861  1.00  0.00     0.039 C 
ATOM      9  C   UNL     1       6.125  -2.751  -1.970  1.00  0.00     0.159 C 
ATOM     10  O   UNL     1       6.430  -1.757  -2.683  1.00  0.00    -0.295 OA
ATOM     11  C   UNL     1       6.075  -4.108  -2.612  1.00  0.00     0.084 C 
ENDROOT
TORSDOF 0
ENDMDL
MODEL 9
REMARK VINA RESULT:    -4.148      2.636      4.512
REMARK INTER + INTRA:          -4.148
REMARK INTER:                  -4.148
REMARK INTRA:                   0.000
REMARK UNBOUND:                 0.000
REMARK SMILES CC(C)=C1CC[C@@H](C)CC1=O
REMARK SMILES IDX 8 1 7 2 6 3 5 4 4 5 2 6 1 7 3 8 10 9 11 10 9 11
REMARK H PARENT
REMARK Flexibility Score: inf
ROOT
ATOM      1  C   UNL     1       5.267  -1.485   2.533  1.00  0.00     0.008 C 
ATOM      2  C   UNL     1       4.904  -2.055   1.157  1.00  0.00    -0.006 C 
ATOM      3  C   UNL     1       5.602  -3.405   0.930  1.00  0.00     0.008 C 
ATOM      4  C   UNL     1       5.170  -4.039  -0.399  1.00  0.00     0.039 C 
ATOM      5  C   UNL     1       5.334  -3.091  -1.578  1.00  0.00    -0.006 C 
ATOM      6  C   UNL     1       5.636  -3.556  -2.827  1.00  0.00    -0.070 C 
ATOM      7  C   UNL     1       5.803  -5.035  -3.093  1.00  0.00     0.039 C 
ATOM      8  C   UNL     1       5.856  -2.620  -3.993  1.00  0.00     0.039 C 
ATOM      9  C   UNL     1       5.033  -1.653  -1.311  1.00  0.00     0.159 C 
ATOM     10  O   UNL     1       4.549  -0.909  -2.206  1.00  0.00    -0.295 OA
ATOM     11  C   UNL     1       5.297  -1.069   0.047  1.00  0.00     0.084 C 
ENDROOT
TORSDOF 0
ENDMDL
