MODEL 1
REMARK VINA RESULT:    -4.162      0.000      0.000
REMARK INTER + INTRA:          -4.574
REMARK INTER:                  -4.527
REMARK INTRA:                  -0.046
REMARK UNBOUND:                -0.046
REMARK SMILES COc1ccccc1O
REMARK SMILES IDX 3 1 4 2 5 3 6 4 7 5 8 6 2 7 1 8 9 9
REMARK H PARENT 9 10
REMARK Flexibility Score: inf
ROOT
ATOM      1  C   UNL     1     -17.040  44.360  31.629  1.00  0.00     0.160 A 
ATOM      2  C   UNL     1     -15.838  44.147  32.333  1.00  0.00     0.050 A 
ATOM      3  C   UNL     1     -15.821  43.333  33.469  1.00  0.00     0.004 A 
ATOM      4  C   UNL     1     -16.998  42.725  33.913  1.00  0.00     0.004 A 
ATOM      5  C   UNL     1     -18.194  42.930  33.222  1.00  0.00     0.050 A 
ATOM      6  C   UNL     1     -18.218  43.746  32.082  1.00  0.00     0.157 A 
ENDROOT
BRANCH   1   7
ATOM      7  O   UNL     1     -17.104  45.171  30.484  1.00  0.00    -0.493 OA
ATOM      8  C   UNL     1     -16.631  44.784  29.197  1.00  0.00     0.278 C 
ENDBRANCH   1   7
BRANCH   6   9
ATOM      9  O   UNL     1     -19.412  43.953  31.391  1.00  0.00    -0.504 OA
ATOM     10  H   UNL     1     -20.227  43.374  31.556  1.00  0.00     0.293 HD
ENDBRANCH   6   9
TORSDOF 2
ENDMDL
MODEL 2
REMARK VINA RESULT:    -4.160      1.756      2.932
REMARK INTER + INTRA:          -4.571
REMARK INTER:                  -4.537
REMARK INTRA:                  -0.034
REMARK UNBOUND:                -0.046
REMARK SMILES COc1ccccc1O
REMARK SMILES IDX 3 1 4 2 5 3 6 4 7 5 8 6 2 7 1 8 9 9
REMARK H PARENT 9 10
REMARK Flexibility Score: inf
ROOT
ATOM      1  C   UNL     1     -17.585  42.174  32.738  1.00  0.00     0.160 A 
ATOM      2  C   UNL     1     -16.542  42.119  33.684  1.00  0.00     0.050 A 
ATOM      3  C   UNL     1     -15.873  43.286  34.064  1.00  0.00     0.004 A 
ATOM      4  C   UNL     1     -16.236  44.515  33.507  1.00  0.00     0.004 A 
ATOM      5  C   UNL     1     -17.269  44.579  32.568  1.00  0.00     0.050 A 
ATOM      6  C   UNL     1     -17.944  43.412  32.182  1.00  0.00     0.157 A 
ENDROOT
BRANCH   1   7
ATOM      7  O   UNL     1     -18.284  41.027  32.327  1.00  0.00    -0.493 OA
ATOM      8  C   UNL     1     -17.667  39.791  31.979  1.00  0.00     0.278 C 
ENDBRANCH   1   7
BRANCH   6   9
ATOM      9  O   UNL     1     -18.975  43.474  31.245  1.00  0.00    -0.504 OA
ATOM     10  H   UNL     1     -19.247  42.664  30.702  1.00  0.00     0.293 HD
ENDBRANCH   6   9
TORSDOF 2
ENDMDL
MODEL 3
REMARK VINA RESULT:    -4.085      1.278      2.266
REMARK INTER + INTRA:          -4.489
REMARK INTER:                  -4.461
REMARK INTRA:                  -0.028
REMARK UNBOUND:                -0.046
REMARK SMILES COc1ccccc1O
REMARK SMILES IDX 3 1 4 2 5 3 6 4 7 5 8 6 2 7 1 8 9 9
REMARK H PARENT 9 10
REMARK Flexibility Score: inf
ROOT
ATOM      1  C   UNL     1     -16.244  44.065  32.185  1.00  0.00     0.160 A 
ATOM      2  C   UNL     1     -16.280  43.117  33.229  1.00  0.00     0.050 A 
ATOM      3  C   UNL     1     -17.492  42.533  33.608  1.00  0.00     0.004 A 
ATOM      4  C   UNL     1     -18.675  42.886  32.954  1.00  0.00     0.004 A 
ATOM      5  C   UNL     1     -18.649  43.824  31.920  1.00  0.00     0.050 A 
ATOM      6  C   UNL     1     -17.437  44.415  31.534  1.00  0.00     0.157 A 
ENDROOT
BRANCH   1   7
ATOM      7  O   UNL     1     -15.050  44.677  31.772  1.00  0.00    -0.493 OA
ATOM      8  C   UNL     1     -13.877  44.777  32.573  1.00  0.00     0.278 C 
ENDBRANCH   1   7
BRANCH   6   9
ATOM      9  O   UNL     1     -17.409  45.352  30.502  1.00  0.00    -0.504 OA
ATOM     10  H   UNL     1     -17.208  46.328  30.677  1.00  0.00     0.293 HD
ENDBRANCH   6   9
TORSDOF 2
ENDMDL
MODEL 4
REMARK VINA RESULT:    -4.076      2.814      3.933
REMARK INTER + INTRA:          -4.480
REMARK INTER:                  -4.433
REMARK INTRA:                  -0.046
REMARK UNBOUND:                -0.046
REMARK SMILES COc1ccccc1O
REMARK SMILES IDX 3 1 4 2 5 3 6 4 7 5 8 6 2 7 1 8 9 9
REMARK H PARENT 9 10
REMARK Flexibility Score: inf
ROOT
ATOM      1  C   UNL     1     -17.647  41.793  33.313  1.00  0.00     0.160 A 
ATOM      2  C   UNL     1     -18.940  42.356  33.280  1.00  0.00     0.050 A 
ATOM      3  C   UNL     1     -19.107  43.741  33.353  1.00  0.00     0.004 A 
ATOM      4  C   UNL     1     -17.993  44.577  33.461  1.00  0.00     0.004 A 
ATOM      5  C   UNL     1     -16.709  44.029  33.494  1.00  0.00     0.050 A 
ATOM      6  C   UNL     1     -16.533  42.640  33.421  1.00  0.00     0.157 A 
ENDROOT
BRANCH   1   7
ATOM      7  O   UNL     1     -17.432  40.407  33.242  1.00  0.00    -0.493 OA
ATOM      8  C   UNL     1     -17.506  39.641  32.044  1.00  0.00     0.278 C 
ENDBRANCH   1   7
BRANCH   6   9
ATOM      9  O   UNL     1     -15.252  42.091  33.455  1.00  0.00    -0.504 OA
ATOM     10  H   UNL     1     -14.979  41.343  32.829  1.00  0.00     0.293 HD
ENDBRANCH   6   9
TORSDOF 2
ENDMDL
MODEL 5
REMARK VINA RESULT:    -4.076      1.355      3.148
REMARK INTER + INTRA:          -4.479
REMARK INTER:                  -4.433
REMARK INTRA:                  -0.046
REMARK UNBOUND:                -0.046
REMARK SMILES COc1ccccc1O
REMARK SMILES IDX 3 1 4 2 5 3 6 4 7 5 8 6 2 7 1 8 9 9
REMARK H PARENT 9 10
REMARK Flexibility Score: inf
ROOT
ATOM      1  C   UNL     1     -16.813  43.873  32.410  1.00  0.00     0.160 A 
ATOM      2  C   UNL     1     -15.415  44.051  32.409  1.00  0.00     0.050 A 
ATOM      3  C   UNL     1     -14.767  44.536  31.269  1.00  0.00     0.004 A 
ATOM      4  C   UNL     1     -15.504  44.846  30.123  1.00  0.00     0.004 A 
ATOM      5  C   UNL     1     -16.889  44.672  30.114  1.00  0.00     0.050 A 
ATOM      6  C   UNL     1     -17.546  44.186  31.254  1.00  0.00     0.157 A 
ENDROOT
BRANCH   1   7
ATOM      7  O   UNL     1     -17.505  43.389  33.532  1.00  0.00    -0.493 OA
ATOM      8  C   UNL     1     -17.494  42.030  33.959  1.00  0.00     0.278 C 
ENDBRANCH   1   7
BRANCH   6   9
ATOM      9  O   UNL     1     -18.930  44.012  31.247  1.00  0.00    -0.504 OA
ATOM     10  H   UNL     1     -19.561  44.793  31.117  1.00  0.00     0.293 HD
ENDBRANCH   6   9
TORSDOF 2
ENDMDL
MODEL 6
REMARK VINA RESULT:    -4.065      1.940      2.437
REMARK INTER + INTRA:          -4.467
REMARK INTER:                  -4.421
REMARK INTRA:                  -0.046
REMARK UNBOUND:                -0.046
REMARK SMILES COc1ccccc1O
REMARK SMILES IDX 3 1 4 2 5 3 6 4 7 5 8 6 2 7 1 8 9 9
REMARK H PARENT 9 10
REMARK Flexibility Score: inf
ROOT
ATOM      1  C   UNL     1     -17.542  42.598  31.590  1.00  0.00     0.160 A 
ATOM      2  C   UNL     1     -17.828  41.561  32.501  1.00  0.00     0.050 A 
ATOM      3  C   UNL     1     -18.712  41.778  33.561  1.00  0.00     0.004 A 
ATOM      4  C   UNL     1     -19.318  43.026  33.725  1.00  0.00     0.004 A 
ATOM      5  C   UNL     1     -19.040  44.060  32.828  1.00  0.00     0.050 A 
ATOM      6  C   UNL     1     -18.154  43.849  31.761  1.00  0.00     0.157 A 
ENDROOT
BRANCH   1   7
ATOM      7  O   UNL     1     -16.661  42.425  30.511  1.00  0.00    -0.493 OA
ATOM      8  C   UNL     1     -15.241  42.406  30.626  1.00  0.00     0.278 C 
ENDBRANCH   1   7
BRANCH   6   9
ATOM      9  O   UNL     1     -17.876  44.881  30.865  1.00  0.00    -0.504 OA
ATOM     10  H   UNL     1     -17.082  44.839  30.238  1.00  0.00     0.293 HD
ENDBRANCH   6   9
TORSDOF 2
ENDMDL
MODEL 7
REMARK VINA RESULT:    -4.026      3.345      4.823
REMARK INTER + INTRA:          -4.425
REMARK INTER:                  -4.397
REMARK INTRA:                  -0.028
REMARK UNBOUND:                -0.046
REMARK SMILES COc1ccccc1O
REMARK SMILES IDX 3 1 4 2 5 3 6 4 7 5 8 6 2 7 1 8 9 9
REMARK H PARENT 9 10
REMARK Flexibility Score: inf
ROOT
ATOM      1  C   UNL     1     -14.500  44.653  32.916  1.00  0.00     0.160 A 
ATOM      2  C   UNL     1     -14.688  44.635  31.519  1.00  0.00     0.050 A 
ATOM      3  C   UNL     1     -13.593  44.491  30.663  1.00  0.00     0.004 A 
ATOM      4  C   UNL     1     -12.304  44.364  31.188  1.00  0.00     0.004 A 
ATOM      5  C   UNL     1     -12.109  44.381  32.570  1.00  0.00     0.050 A 
ATOM      6  C   UNL     1     -13.202  44.526  33.435  1.00  0.00     0.157 A 
ENDROOT
BRANCH   1   7
ATOM      7  O   UNL     1     -15.571  44.796  33.813  1.00  0.00    -0.493 OA
ATOM      8  C   UNL     1     -16.924  44.474  33.509  1.00  0.00     0.278 C 
ENDBRANCH   1   7
BRANCH   6   9
ATOM      9  O   UNL     1     -13.008  44.543  34.816  1.00  0.00    -0.504 OA
ATOM     10  H   UNL     1     -13.148  45.386  35.361  1.00  0.00     0.293 HD
ENDBRANCH   6   9
TORSDOF 2
ENDMDL
MODEL 8
REMARK VINA RESULT:    -3.972      3.502      4.368
REMARK INTER + INTRA:          -4.367
REMARK INTER:                  -4.340
REMARK INTRA:                  -0.027
REMARK UNBOUND:                -0.046
REMARK SMILES COc1ccccc1O
REMARK SMILES IDX 3 1 4 2 5 3 6 4 7 5 8 6 2 7 1 8 9 9
REMARK H PARENT 9 10
REMARK Flexibility Score: inf
ROOT
ATOM      1  C   UNL     1     -13.467  44.561  32.564  1.00  0.00     0.160 A 
ATOM      2  C   UNL     1     -14.464  44.508  31.569  1.00  0.00     0.050 A 
ATOM      3  C   UNL     1     -15.812  44.416  31.927  1.00  0.00     0.004 A 
ATOM      4  C   UNL     1     -16.179  44.375  33.274  1.00  0.00     0.004 A 
ATOM      5  C   UNL     1     -15.198  44.427  34.267  1.00  0.00     0.050 A 
ATOM      6  C   UNL     1     -13.843  44.519  33.916  1.00  0.00     0.157 A 
ENDROOT
BRANCH   1   7
ATOM      7  O   UNL     1     -12.101  44.653  32.251  1.00  0.00    -0.493 OA
ATOM      8  C   UNL     1     -11.572  44.596  30.930  1.00  0.00     0.278 C 
ENDBRANCH   1   7
BRANCH   6   9
ATOM      9  O   UNL     1     -12.863  44.571  34.906  1.00  0.00    -0.504 OA
ATOM     10  H   UNL     1     -11.956  44.988  34.733  1.00  0.00     0.293 HD
ENDBRANCH   6   9
TORSDOF 2
ENDMDL
MODEL 9
REMARK VINA RESULT:    -3.932      2.503      3.412
REMARK INTER + INTRA:          -4.323
REMARK INTER:                  -4.296
REMARK INTRA:                  -0.028
REMARK UNBOUND:                -0.046
REMARK SMILES COc1ccccc1O
REMARK SMILES IDX 3 1 4 2 5 3 6 4 7 5 8 6 2 7 1 8 9 9
REMARK H PARENT 9 10
REMARK Flexibility Score: inf
ROOT
ATOM      1  C   UNL     1     -15.892  43.715  33.515  1.00  0.00     0.160 A 
ATOM      2  C   UNL     1     -16.238  44.524  32.414  1.00  0.00     0.050 A 
ATOM      3  C   UNL     1     -17.412  44.276  31.698  1.00  0.00     0.004 A 
ATOM      4  C   UNL     1     -18.251  43.223  32.071  1.00  0.00     0.004 A 
ATOM      5  C   UNL     1     -17.916  42.415  33.161  1.00  0.00     0.050 A 
ATOM      6  C   UNL     1     -16.739  42.658  33.883  1.00  0.00     0.157 A 
ENDROOT
BRANCH   1   7
ATOM      7  O   UNL     1     -14.722  43.927  34.262  1.00  0.00    -0.493 OA
ATOM      8  C   UNL     1     -13.961  45.131  34.241  1.00  0.00     0.278 C 
ENDBRANCH   1   7
BRANCH   6   9
ATOM      9  O   UNL     1     -16.404  41.853  34.971  1.00  0.00    -0.504 OA
ATOM     10  H   UNL     1     -16.579  40.855  34.966  1.00  0.00     0.293 HD
ENDBRANCH   6   9
TORSDOF 2
ENDMDL
