MODEL 1
REMARK VINA RESULT:    -4.496      0.000      0.000
REMARK INTER + INTRA:          -6.015
REMARK INTER:                  -6.861
REMARK INTRA:                   0.846
REMARK UNBOUND:                 0.846
REMARK SMILES CC1=CCC[C@@H](C)C(=O)C[C@H](C(C)C)C(=O)C1
REMARK SMILES IDX 8 1 9 2 6 3 7 4 5 5 4 6 3 7 2 8 1 9 10 11 11 12 15 13 16 14
REMARK SMILES IDX 17 15 12 17 13 18 14 19
REMARK H PARENT
REMARK Flexibility Score: 70.00
ROOT
ATOM      1  C   UNL     1     -11.260 -16.286  28.365  1.00  0.00     0.136 C 
ATOM      2  O   UNL     1     -10.158 -16.496  28.854  1.00  0.00    -0.299 OA
ENDROOT
BRANCH   1   3
ATOM      3  C   UNL     1     -11.869 -17.297  27.416  1.00  0.00     0.053 C 
ATOM      4  C   UNL     1     -11.391 -17.007  25.990  1.00  0.00     0.016 C 
BRANCH   3   5
ATOM      5  C   UNL     1     -13.414 -17.281  27.477  1.00  0.00     0.015 C 
BRANCH   5   6
ATOM      6  C   UNL     1     -14.004 -18.471  28.250  1.00  0.00     0.028 C 
BRANCH   6   7
ATOM      7  C   UNL     1     -12.998 -19.054  29.215  1.00  0.00    -0.028 C 
ATOM      8  C   UNL     1     -12.800 -18.642  30.488  1.00  0.00    -0.070 CG0
ATOM      9  C   UNL     1     -11.787 -19.357  31.347  1.00  0.00     0.039 C 
ATOM     10  G   UNL     1     -13.560 -17.491  31.117  1.00  0.00     0.000 G0
ENDBRANCH   6   7
ENDBRANCH   5   6
ENDBRANCH   3   5
ENDBRANCH   1   3
BRANCH   1  11
ATOM     11  C   UNL     1     -11.996 -15.024  28.738  1.00  0.00     0.087 C 
BRANCH  11  12
ATOM     12  C   UNL     1     -13.235 -15.318  29.622  1.00  0.00     0.066 C 
BRANCH  12  13
ATOM     13  C   UNL     1     -12.854 -16.156  30.831  1.00  0.00     0.140 C 
ATOM     14  O   UNL     1     -12.007 -15.747  31.614  1.00  0.00    -0.299 OA
BRANCH  13  15
ATOM     15  C   UNL     1     -13.543 -17.464  31.127  1.00  0.00     0.106 CG0
ATOM     16  G   UNL     1     -12.797 -18.625  30.502  1.00  0.00     0.000 G0
ENDBRANCH  13  15
ENDBRANCH  12  13
BRANCH  12  17
ATOM     17  C   UNL     1     -13.997 -14.032  30.073  1.00  0.00    -0.006 C 
ATOM     18  C   UNL     1     -14.947 -14.317  31.248  1.00  0.00     0.008 C 
ATOM     19  C   UNL     1     -14.761 -13.331  28.936  1.00  0.00     0.008 C 
ENDBRANCH  12  17
ENDBRANCH  11  12
ENDBRANCH   1  11
TORSDOF 1
ENDMDL
MODEL 2
REMARK VINA RESULT:    -4.377      1.817      3.554
REMARK INTER + INTRA:          -5.834
REMARK INTER:                  -6.048
REMARK INTRA:                   0.215
REMARK UNBOUND:                 0.846
REMARK SMILES CC1=CCC[C@@H](C)C(=O)C[C@H](C(C)C)C(=O)C1
REMARK SMILES IDX 8 1 9 2 6 3 7 4 5 5 4 6 3 7 2 8 1 9 10 11 11 12 15 13 16 14
REMARK SMILES IDX 17 15 12 17 13 18 14 19
REMARK H PARENT
REMARK Flexibility Score: 70.00
ROOT
ATOM      1  C   UNL     1     -12.114 -15.502  30.286  1.00  0.00     0.136 C 
ATOM      2  O   UNL     1     -12.769 -15.677  31.304  1.00  0.00    -0.299 OA
ENDROOT
BRANCH   1   3
ATOM      3  C   UNL     1     -10.632 -15.206  30.384  1.00  0.00     0.053 C 
ATOM      4  C   UNL     1     -10.051 -15.047  28.976  1.00  0.00     0.016 C 
BRANCH   3   5
ATOM      5  C   UNL     1      -9.876 -16.315  31.152  1.00  0.00     0.015 C 
BRANCH   5   6
ATOM      6  C   UNL     1     -10.001 -17.700  30.498  1.00  0.00     0.028 C 
BRANCH   6   7
ATOM      7  C   UNL     1     -10.951 -18.589  31.267  1.00  0.00    -0.028 C 
ATOM      8  C   UNL     1     -11.947 -19.328  30.728  1.00  0.00    -0.070 CG0
ATOM      9  C   UNL     1     -12.784 -20.206  31.624  1.00  0.00     0.039 C 
ATOM     10  G   UNL     1     -12.268 -19.335  29.247  1.00  0.00     0.000 G0
ENDBRANCH   6   7
ENDBRANCH   5   6
ENDBRANCH   3   5
ENDBRANCH   1   3
BRANCH   1  11
ATOM     11  C   UNL     1     -12.802 -15.604  28.948  1.00  0.00     0.087 C 
BRANCH  11  12
ATOM     12  C   UNL     1     -12.426 -16.911  28.203  1.00  0.00     0.066 C 
BRANCH  12  13
ATOM     13  C   UNL     1     -13.074 -18.118  28.863  1.00  0.00     0.140 C 
ATOM     14  O   UNL     1     -14.285 -18.139  29.039  1.00  0.00    -0.299 OA
BRANCH  13  15
ATOM     15  C   UNL     1     -12.263 -19.327  29.252  1.00  0.00     0.106 CG0
ATOM     16  G   UNL     1     -11.960 -19.323  30.737  1.00  0.00     0.000 G0
ENDBRANCH  13  15
ENDBRANCH  12  13
BRANCH  12  17
ATOM     17  C   UNL     1     -12.765 -16.879  26.680  1.00  0.00    -0.006 C 
ATOM     18  C   UNL     1     -11.511 -16.644  25.823  1.00  0.00     0.008 C 
ATOM     19  C   UNL     1     -13.857 -15.861  26.307  1.00  0.00     0.008 C 
ENDBRANCH  12  17
ENDBRANCH  11  12
ENDBRANCH   1  11
TORSDOF 1
ENDMDL
MODEL 3
REMARK VINA RESULT:    -4.126      1.956      4.983
REMARK INTER + INTRA:          -5.451
REMARK INTER:                  -5.435
REMARK INTRA:                  -0.017
REMARK UNBOUND:                 0.846
REMARK SMILES CC1=CCC[C@@H](C)C(=O)C[C@H](C(C)C)C(=O)C1
REMARK SMILES IDX 8 1 9 2 6 3 7 4 5 5 4 6 3 7 2 8 1 9 10 11 11 12 15 13 16 14
REMARK SMILES IDX 17 15 12 17 13 18 14 19
REMARK H PARENT
REMARK Flexibility Score: 70.00
ROOT
ATOM      1  C   UNL     1     -13.637 -15.987  31.507  1.00  0.00     0.136 C 
ATOM      2  O   UNL     1     -14.386 -16.860  31.923  1.00  0.00    -0.299 OA
ENDROOT
BRANCH   1   3
ATOM      3  C   UNL     1     -14.025 -14.529  31.651  1.00  0.00     0.053 C 
ATOM      4  C   UNL     1     -14.815 -14.340  32.949  1.00  0.00     0.016 C 
BRANCH   3   5
ATOM      5  C   UNL     1     -14.854 -14.036  30.442  1.00  0.00     0.015 C 
BRANCH   5   6
ATOM      6  C   UNL     1     -13.994 -13.682  29.219  1.00  0.00     0.028 C 
BRANCH   6   7
ATOM      7  C   UNL     1     -14.356 -14.536  28.026  1.00  0.00    -0.028 C 
ATOM      8  C   UNL     1     -13.585 -15.514  27.496  1.00  0.00    -0.070 CG0
ATOM      9  C   UNL     1     -14.106 -16.315  26.329  1.00  0.00     0.039 C 
ATOM     10  G   UNL     1     -12.209 -15.866  28.025  1.00  0.00     0.000 G0
ENDBRANCH   6   7
ENDBRANCH   5   6
ENDBRANCH   3   5
ENDBRANCH   1   3
BRANCH   1  11
ATOM     11  C   UNL     1     -12.329 -16.387  30.874  1.00  0.00     0.087 C 
BRANCH  11  12
ATOM     12  C   UNL     1     -12.486 -17.628  29.958  1.00  0.00     0.066 C 
BRANCH  12  13
ATOM     13  C   UNL     1     -12.148 -17.286  28.516  1.00  0.00     0.140 C 
ATOM     14  O   UNL     1     -11.879 -18.180  27.725  1.00  0.00    -0.299 OA
BRANCH  13  15
ATOM     15  C   UNL     1     -12.195 -15.865  28.016  1.00  0.00     0.106 CG0
ATOM     16  G   UNL     1     -13.582 -15.508  27.521  1.00  0.00     0.000 G0
ENDBRANCH  13  15
ENDBRANCH  12  13
BRANCH  12  17
ATOM     17  C   UNL     1     -11.654 -18.861  30.431  1.00  0.00    -0.006 C 
ATOM     18  C   UNL     1     -12.367 -19.631  31.554  1.00  0.00     0.008 C 
ATOM     19  C   UNL     1     -10.217 -18.515  30.860  1.00  0.00     0.008 C 
ENDBRANCH  12  17
ENDBRANCH  11  12
ENDBRANCH   1  11
TORSDOF 1
ENDMDL
MODEL 4
REMARK VINA RESULT:    -3.651      2.062      3.953
REMARK INTER + INTRA:          -4.727
REMARK INTER:                  -5.524
REMARK INTRA:                   0.798
REMARK UNBOUND:                 0.846
REMARK SMILES CC1=CCC[C@@H](C)C(=O)C[C@H](C(C)C)C(=O)C1
REMARK SMILES IDX 8 1 9 2 6 3 7 4 5 5 4 6 3 7 2 8 1 9 10 11 11 12 15 13 16 14
REMARK SMILES IDX 17 15 12 17 13 18 14 19
REMARK H PARENT
REMARK Flexibility Score: 70.00
ROOT
ATOM      1  C   UNL     1     -13.268 -18.239  30.028  1.00  0.00     0.136 C 
ATOM      2  O   UNL     1     -13.763 -17.881  31.087  1.00  0.00    -0.299 OA
ENDROOT
BRANCH   1   3
ATOM      3  C   UNL     1     -12.332 -19.430  29.998  1.00  0.00     0.053 C 
ATOM      4  C   UNL     1     -13.154 -20.721  29.956  1.00  0.00     0.016 C 
BRANCH   3   5
ATOM      5  C   UNL     1     -11.380 -19.442  31.217  1.00  0.00     0.015 C 
BRANCH   5   6
ATOM      6  C   UNL     1     -10.006 -18.821  30.920  1.00  0.00     0.028 C 
BRANCH   6   7
ATOM      7  C   UNL     1     -10.064 -17.312  30.955  1.00  0.00    -0.028 C 
ATOM      8  C   UNL     1     -10.109 -16.502  29.872  1.00  0.00    -0.070 CG0
ATOM      9  C   UNL     1     -10.213 -15.010  30.069  1.00  0.00     0.039 C 
ATOM     10  G   UNL     1     -10.072 -17.017  28.447  1.00  0.00     0.000 G0
ENDBRANCH   6   7
ENDBRANCH   5   6
ENDBRANCH   3   5
ENDBRANCH   1   3
BRANCH   1  11
ATOM     11  C   UNL     1     -13.618 -17.491  28.767  1.00  0.00     0.087 C 
BRANCH  11  12
ATOM     12  C   UNL     1     -12.639 -16.320  28.499  1.00  0.00     0.066 C 
BRANCH  12  13
ATOM     13  C   UNL     1     -11.413 -16.800  27.740  1.00  0.00     0.140 C 
ATOM     14  O   UNL     1     -11.477 -16.982  26.531  1.00  0.00    -0.299 OA
BRANCH  13  15
ATOM     15  C   UNL     1     -10.090 -17.000  28.434  1.00  0.00     0.106 CG0
ATOM     16  G   UNL     1     -10.135 -16.474  29.854  1.00  0.00     0.000 G0
ENDBRANCH  13  15
ENDBRANCH  12  13
BRANCH  12  17
ATOM     17  C   UNL     1     -13.297 -15.114  27.757  1.00  0.00    -0.006 C 
ATOM     18  C   UNL     1     -13.871 -14.084  28.743  1.00  0.00     0.008 C 
ATOM     19  C   UNL     1     -14.375 -15.525  26.737  1.00  0.00     0.008 C 
ENDBRANCH  12  17
ENDBRANCH  11  12
ENDBRANCH   1  11
TORSDOF 1
ENDMDL
MODEL 5
REMARK VINA RESULT:    -3.594      1.544      3.250
REMARK INTER + INTRA:          -4.638
REMARK INTER:                  -5.854
REMARK INTRA:                   1.215
REMARK UNBOUND:                 0.846
REMARK SMILES CC1=CCC[C@@H](C)C(=O)C[C@H](C(C)C)C(=O)C1
REMARK SMILES IDX 8 1 9 2 6 3 7 4 5 5 4 6 3 7 2 8 1 9 10 11 11 12 15 13 16 14
REMARK SMILES IDX 17 15 12 17 13 18 14 19
REMARK H PARENT
REMARK Flexibility Score: 70.00
ROOT
ATOM      1  C   UNL     1     -12.814 -18.032  30.981  1.00  0.00     0.136 C 
ATOM      2  O   UNL     1     -11.621 -17.773  31.066  1.00  0.00    -0.299 OA
ENDROOT
BRANCH   1   3
ATOM      3  C   UNL     1     -13.270 -19.476  30.921  1.00  0.00     0.053 C 
ATOM      4  C   UNL     1     -12.272 -20.355  31.681  1.00  0.00     0.016 C 
BRANCH   3   5
ATOM      5  C   UNL     1     -13.416 -19.970  29.463  1.00  0.00     0.015 C 
BRANCH   5   6
ATOM      6  C   UNL     1     -13.944 -18.891  28.506  1.00  0.00     0.028 C 
BRANCH   6   7
ATOM      7  C   UNL     1     -12.839 -18.338  27.636  1.00  0.00    -0.028 C 
ATOM      8  C   UNL     1     -12.534 -17.028  27.490  1.00  0.00    -0.070 CG0
ATOM      9  C   UNL     1     -11.368 -16.633  26.619  1.00  0.00     0.039 C 
ATOM     10  G   UNL     1     -13.303 -15.915  28.173  1.00  0.00     0.000 G0
ENDBRANCH   6   7
ENDBRANCH   5   6
ENDBRANCH   3   5
ENDBRANCH   1   3
BRANCH   1  11
ATOM     11  C   UNL     1     -13.807 -16.899  30.956  1.00  0.00     0.087 C 
BRANCH  11  12
ATOM     12  C   UNL     1     -13.112 -15.524  30.783  1.00  0.00     0.066 C 
BRANCH  12  13
ATOM     13  C   UNL     1     -12.557 -15.368  29.376  1.00  0.00     0.140 C 
ATOM     14  O   UNL     1     -11.463 -14.847  29.208  1.00  0.00    -0.299 OA
BRANCH  13  15
ATOM     15  C   UNL     1     -13.300 -15.901  28.177  1.00  0.00     0.106 CG0
ATOM     16  G   UNL     1     -12.529 -17.024  27.515  1.00  0.00     0.000 G0
ENDBRANCH  13  15
ENDBRANCH  12  13
BRANCH  12  17
ATOM     17  C   UNL     1     -14.029 -14.313  31.141  1.00  0.00    -0.006 C 
ATOM     18  C   UNL     1     -15.051 -14.675  32.231  1.00  0.00     0.008 C 
ATOM     19  C   UNL     1     -14.749 -13.698  29.927  1.00  0.00     0.008 C 
ENDBRANCH  12  17
ENDBRANCH  11  12
ENDBRANCH   1  11
TORSDOF 1
ENDMDL
MODEL 6
REMARK VINA RESULT:    -3.450      1.820      4.355
REMARK INTER + INTRA:          -4.420
REMARK INTER:                  -5.090
REMARK INTRA:                   0.670
REMARK UNBOUND:                 0.846
REMARK SMILES CC1=CCC[C@@H](C)C(=O)C[C@H](C(C)C)C(=O)C1
REMARK SMILES IDX 8 1 9 2 6 3 7 4 5 5 4 6 3 7 2 8 1 9 10 11 11 12 15 13 16 14
REMARK SMILES IDX 17 15 12 17 13 18 14 19
REMARK H PARENT
REMARK Flexibility Score: 70.00
ROOT
ATOM      1  C   UNL     1     -13.079 -19.046  29.357  1.00  0.00     0.136 C 
ATOM      2  O   UNL     1     -13.936 -19.885  29.115  1.00  0.00    -0.299 OA
ENDROOT
BRANCH   1   3
ATOM      3  C   UNL     1     -12.791 -18.654  30.792  1.00  0.00     0.053 C 
ATOM      4  C   UNL     1     -12.580 -19.917  31.631  1.00  0.00     0.016 C 
BRANCH   3   5
ATOM      5  C   UNL     1     -13.930 -17.797  31.391  1.00  0.00     0.015 C 
BRANCH   5   6
ATOM      6  C   UNL     1     -13.487 -16.375  31.768  1.00  0.00     0.028 C 
BRANCH   6   7
ATOM      7  C   UNL     1     -14.040 -15.352  30.804  1.00  0.00    -0.028 C 
ATOM      8  C   UNL     1     -13.324 -14.685  29.869  1.00  0.00    -0.070 CG0
ATOM      9  C   UNL     1     -14.030 -13.725  28.944  1.00  0.00     0.039 C 
ATOM     10  G   UNL     1     -11.830 -14.859  29.687  1.00  0.00     0.000 G0
ENDBRANCH   6   7
ENDBRANCH   5   6
ENDBRANCH   3   5
ENDBRANCH   1   3
BRANCH   1  11
ATOM     11  C   UNL     1     -12.313 -18.434  28.212  1.00  0.00     0.087 C 
BRANCH  11  12
ATOM     12  C   UNL     1     -12.500 -16.896  28.148  1.00  0.00     0.066 C 
BRANCH  12  13
ATOM     13  C   UNL     1     -11.501 -16.189  29.050  1.00  0.00     0.140 C 
ATOM     14  O   UNL     1     -10.393 -16.677  29.232  1.00  0.00    -0.299 OA
BRANCH  13  15
ATOM     15  C   UNL     1     -11.820 -14.859  29.683  1.00  0.00     0.106 CG0
ATOM     16  G   UNL     1     -13.315 -14.690  29.868  1.00  0.00     0.000 G0
ENDBRANCH  13  15
ENDBRANCH  12  13
BRANCH  12  17
ATOM     17  C   UNL     1     -12.425 -16.319  26.700  1.00  0.00    -0.006 C 
ATOM     18  C   UNL     1     -13.803 -16.312  26.018  1.00  0.00     0.008 C 
ATOM     19  C   UNL     1     -11.396 -17.027  25.801  1.00  0.00     0.008 C 
ENDBRANCH  12  17
ENDBRANCH  11  12
ENDBRANCH   1  11
TORSDOF 1
ENDMDL
MODEL 7
REMARK VINA RESULT:    -3.449      2.202      3.404
REMARK INTER + INTRA:          -4.418
REMARK INTER:                  -5.579
REMARK INTRA:                   1.161
REMARK UNBOUND:                 0.846
REMARK SMILES CC1=CCC[C@@H](C)C(=O)C[C@H](C(C)C)C(=O)C1
REMARK SMILES IDX 8 1 9 2 6 3 7 4 5 5 4 6 3 7 2 8 1 9 10 11 11 12 15 13 16 14
REMARK SMILES IDX 17 15 12 17 13 18 14 19
REMARK H PARENT
REMARK Flexibility Score: 70.00
ROOT
ATOM      1  C   UNL     1     -12.787 -18.018  28.954  1.00  0.00     0.136 C 
ATOM      2  O   UNL     1     -12.208 -17.781  27.902  1.00  0.00    -0.299 OA
ENDROOT
BRANCH   1   3
ATOM      3  C   UNL     1     -12.596 -19.359  29.633  1.00  0.00     0.053 C 
ATOM      4  C   UNL     1     -13.952 -19.882  30.114  1.00  0.00     0.016 C 
BRANCH   3   5
ATOM      5  C   UNL     1     -11.608 -19.264  30.819  1.00  0.00     0.015 C 
BRANCH   5   6
ATOM      6  C   UNL     1     -10.328 -18.483  30.482  1.00  0.00     0.028 C 
BRANCH   6   7
ATOM      7  C   UNL     1     -10.080 -17.376  31.480  1.00  0.00    -0.028 C 
ATOM      8  C   UNL     1     -10.095 -16.051  31.205  1.00  0.00    -0.070 CG0
ATOM      9  C   UNL     1      -9.875 -15.062  32.322  1.00  0.00     0.039 C 
ATOM     10  G   UNL     1     -10.338 -15.494  29.817  1.00  0.00     0.000 G0
ENDBRANCH   6   7
ENDBRANCH   5   6
ENDBRANCH   3   5
ENDBRANCH   1   3
BRANCH   1  11
ATOM     11  C   UNL     1     -13.667 -16.955  29.559  1.00  0.00     0.087 C 
BRANCH  11  12
ATOM     12  C   UNL     1     -12.855 -15.949  30.414  1.00  0.00     0.066 C 
BRANCH  12  13
ATOM     13  C   UNL     1     -11.794 -15.255  29.575  1.00  0.00     0.140 C 
ATOM     14  O   UNL     1     -12.129 -14.456  28.711  1.00  0.00    -0.299 OA
BRANCH  13  15
ATOM     15  C   UNL     1     -10.325 -15.481  29.824  1.00  0.00     0.106 CG0
ATOM     16  G   UNL     1     -10.088 -16.035  31.215  1.00  0.00     0.000 G0
ENDBRANCH  13  15
ENDBRANCH  12  13
BRANCH  12  17
ATOM     17  C   UNL     1     -13.742 -14.894  31.146  1.00  0.00    -0.006 C 
ATOM     18  C   UNL     1     -14.614 -15.541  32.235  1.00  0.00     0.008 C 
ATOM     19  C   UNL     1     -14.619 -14.054  30.200  1.00  0.00     0.008 C 
ENDBRANCH  12  17
ENDBRANCH  11  12
ENDBRANCH   1  11
TORSDOF 1
ENDMDL
MODEL 8
REMARK VINA RESULT:    -3.434      1.993      3.724
REMARK INTER + INTRA:          -4.395
REMARK INTER:                  -5.329
REMARK INTRA:                   0.933
REMARK UNBOUND:                 0.846
REMARK SMILES CC1=CCC[C@@H](C)C(=O)C[C@H](C(C)C)C(=O)C1
REMARK SMILES IDX 8 1 9 2 6 3 7 4 5 5 4 6 3 7 2 8 1 9 10 11 11 12 15 13 16 14
REMARK SMILES IDX 17 15 12 17 13 18 14 19
REMARK H PARENT
REMARK Flexibility Score: 70.00
ROOT
ATOM      1  C   UNL     1     -13.284 -18.303  31.206  1.00  0.00     0.136 C 
ATOM      2  O   UNL     1     -13.716 -18.564  32.321  1.00  0.00    -0.299 OA
ENDROOT
BRANCH   1   3
ATOM      3  C   UNL     1     -12.174 -19.145  30.611  1.00  0.00     0.053 C 
ATOM      4  C   UNL     1     -12.505 -20.628  30.800  1.00  0.00     0.016 C 
BRANCH   3   5
ATOM      5  C   UNL     1     -10.803 -18.817  31.247  1.00  0.00     0.015 C 
BRANCH   5   6
ATOM      6  C   UNL     1      -9.954 -17.856  30.400  1.00  0.00     0.028 C 
BRANCH   6   7
ATOM      7  C   UNL     1     -10.416 -17.837  28.961  1.00  0.00    -0.028 C 
ATOM      8  C   UNL     1     -10.940 -16.768  28.318  1.00  0.00    -0.070 CG0
ATOM      9  C   UNL     1     -11.312 -16.892  26.862  1.00  0.00     0.039 C 
ATOM     10  G   UNL     1     -11.166 -15.426  28.984  1.00  0.00     0.000 G0
ENDBRANCH   6   7
ENDBRANCH   5   6
ENDBRANCH   3   5
ENDBRANCH   1   3
BRANCH   1  11
ATOM     11  C   UNL     1     -13.885 -17.152  30.442  1.00  0.00     0.087 C 
BRANCH  11  12
ATOM     12  C   UNL     1     -13.122 -15.826  30.696  1.00  0.00     0.066 C 
BRANCH  12  13
ATOM     13  C   UNL     1     -12.594 -15.244  29.395  1.00  0.00     0.140 C 
ATOM     14  O   UNL     1     -13.332 -14.573  28.685  1.00  0.00    -0.299 OA
BRANCH  13  15
ATOM     15  C   UNL     1     -11.156 -15.423  28.983  1.00  0.00     0.106 CG0
ATOM     16  G   UNL     1     -10.941 -16.772  28.327  1.00  0.00     0.000 G0
ENDBRANCH  13  15
ENDBRANCH  12  13
BRANCH  12  17
ATOM     17  C   UNL     1     -13.963 -14.760  31.465  1.00  0.00    -0.006 C 
ATOM     18  C   UNL     1     -14.824 -15.400  32.566  1.00  0.00     0.008 C 
ATOM     19  C   UNL     1     -14.841 -13.884  30.553  1.00  0.00     0.008 C 
ENDBRANCH  12  17
ENDBRANCH  11  12
ENDBRANCH   1  11
TORSDOF 1
ENDMDL
MODEL 9
REMARK VINA RESULT:    -3.331      2.039      2.595
REMARK INTER + INTRA:          -4.238
REMARK INTER:                  -4.344
REMARK INTRA:                   0.106
REMARK UNBOUND:                 0.846
REMARK SMILES CC1=CCC[C@@H](C)C(=O)C[C@H](C(C)C)C(=O)C1
REMARK SMILES IDX 8 1 9 2 6 3 7 4 5 5 4 6 3 7 2 8 1 9 10 11 11 12 15 13 16 14
REMARK SMILES IDX 17 15 12 17 13 18 14 19
REMARK H PARENT
REMARK Flexibility Score: 70.00
ROOT
ATOM      1  C   UNL     1     -13.245 -16.293  28.364  1.00  0.00     0.136 C 
ATOM      2  O   UNL     1     -13.834 -17.312  28.698  1.00  0.00    -0.299 OA
ENDROOT
BRANCH   1   3
ATOM      3  C   UNL     1     -12.714 -16.158  26.951  1.00  0.00     0.053 C 
ATOM      4  C   UNL     1     -13.868 -16.312  25.957  1.00  0.00     0.016 C 
BRANCH   3   5
ATOM      5  C   UNL     1     -11.609 -17.199  26.654  1.00  0.00     0.015 C 
BRANCH   5   6
ATOM      6  C   UNL     1     -10.320 -16.964  27.458  1.00  0.00     0.028 C 
BRANCH   6   7
ATOM      7  C   UNL     1     -10.277 -17.831  28.694  1.00  0.00    -0.028 C 
ATOM      8  C   UNL     1     -10.262 -17.383  29.970  1.00  0.00    -0.070 CG0
ATOM      9  C   UNL     1     -10.266 -18.377  31.103  1.00  0.00     0.039 C 
ATOM     10  G   UNL     1     -10.253 -15.911  30.333  1.00  0.00     0.000 G0
ENDBRANCH   6   7
ENDBRANCH   5   6
ENDBRANCH   3   5
ENDBRANCH   1   3
BRANCH   1  11
ATOM     11  C   UNL     1     -13.079 -15.182  29.369  1.00  0.00     0.087 C 
BRANCH  11  12
ATOM     12  C   UNL     1     -12.848 -15.728  30.801  1.00  0.00     0.066 C 
BRANCH  12  13
ATOM     13  C   UNL     1     -11.404 -15.533  31.231  1.00  0.00     0.140 C 
ATOM     14  O   UNL     1     -11.154 -15.121  32.356  1.00  0.00    -0.299 OA
BRANCH  13  15
ATOM     15  C   UNL     1     -10.259 -15.895  30.320  1.00  0.00     0.106 CG0
ATOM     16  G   UNL     1     -10.280 -17.372  29.981  1.00  0.00     0.000 G0
ENDBRANCH  13  15
ENDBRANCH  12  13
BRANCH  12  17
ATOM     17  C   UNL     1     -13.816 -15.119  31.863  1.00  0.00    -0.006 C 
ATOM     18  C   UNL     1     -14.627 -16.208  32.585  1.00  0.00     0.008 C 
ATOM     19  C   UNL     1     -14.763 -14.045  31.299  1.00  0.00     0.008 C 
ENDBRANCH  12  17
ENDBRANCH  11  12
ENDBRANCH   1  11
TORSDOF 1
ENDMDL
