MODEL 1
REMARK VINA RESULT:    -8.119      0.000      0.000
REMARK INTER + INTRA:          -9.341
REMARK INTER:                  -9.781
REMARK INTRA:                   0.440
REMARK UNBOUND:                 0.440
REMARK SMILES O=c1c(O)c(-c2ccc(O)c(O)c2)oc2cc(O)cc(O)c12
REMARK SMILES IDX 5 1 3 2 2 3 1 4 22 5 20 6 19 7 17 8 16 9 15 10 14 11 6 12
REMARK SMILES IDX 7 13 8 14 9 15 13 16 11 17 10 18 12 20 4 22 21 24 18 26
REMARK H PARENT 10 19 12 21 4 23 21 25 18 27
REMARK Flexibility Score: inf
ROOT
ATOM      1  C   UNL     1      30.678  24.154 -17.145  1.00  0.00     0.180 A 
ATOM      2  C   UNL     1      29.890  23.763 -18.241  1.00  0.00     0.208 A 
ATOM      3  C   UNL     1      29.963  22.436 -18.694  1.00  0.00     0.238 A 
ATOM      4  O   UNL     1      29.216  22.078 -19.640  1.00  0.00    -0.285 OA
ATOM      5  C   UNL     1      30.836  21.521 -18.056  1.00  0.00     0.111 A 
ATOM      6  C   UNL     1      31.021  20.164 -18.456  1.00  0.00     0.134 A 
ATOM      7  C   UNL     1      31.810  19.314 -17.673  1.00  0.00     0.093 A 
ATOM      8  C   UNL     1      32.474  19.787 -16.542  1.00  0.00     0.123 A 
ATOM      9  C   UNL     1      32.348  21.128 -16.175  1.00  0.00     0.094 A 
ATOM     10  C   UNL     1      31.538  21.992 -16.916  1.00  0.00     0.146 A 
ATOM     11  O   UNL     1      31.436  23.256 -16.527  1.00  0.00    -0.452 OA
ENDROOT
BRANCH   1  12
ATOM     12  C   UNL     1      30.673  25.541 -16.626  1.00  0.00     0.025 A 
ATOM     13  C   UNL     1      31.712  25.967 -15.783  1.00  0.00     0.016 A 
ATOM     14  C   UNL     1      31.738  27.278 -15.299  1.00  0.00     0.051 A 
ATOM     15  C   UNL     1      30.736  28.185 -15.664  1.00  0.00     0.157 A 
ATOM     16  C   UNL     1      29.680  26.462 -17.006  1.00  0.00     0.062 A 
ATOM     17  C   UNL     1      29.707  27.777 -16.522  1.00  0.00     0.158 A 
BRANCH  15  18
ATOM     18  O   UNL     1      30.756  29.493 -15.182  1.00  0.00    -0.504 OA
ATOM     19  H   UNL     1      29.901  29.986 -14.951  1.00  0.00     0.293 HD
ENDBRANCH  15  18
BRANCH  17  20
ATOM     20  O   UNL     1      28.718  28.687 -16.895  1.00  0.00    -0.504 OA
ATOM     21  H   UNL     1      27.830  28.379 -17.272  1.00  0.00     0.293 HD
ENDBRANCH  17  20
ENDBRANCH   1  12
BRANCH   2  22
ATOM     22  O   UNL     1      29.019  24.677 -18.842  1.00  0.00    -0.502 OA
ATOM     23  H   UNL     1      28.965  24.796 -19.846  1.00  0.00     0.293 HD
ENDBRANCH   2  22
BRANCH   6  24
ATOM     24  O   UNL     1      30.477  19.613 -19.621  1.00  0.00    -0.507 OA
ATOM     25  H   UNL     1      30.163  18.659 -19.713  1.00  0.00     0.293 HD
ENDBRANCH   6  24
BRANCH   8  26
ATOM     26  O   UNL     1      33.265  18.918 -15.794  1.00  0.00    -0.508 OA
ATOM     27  H   UNL     1      33.032  18.679 -14.837  1.00  0.00     0.293 HD
ENDBRANCH   8  26
TORSDOF 6
ENDMDL
MODEL 2
REMARK VINA RESULT:    -8.071      0.935      1.061
REMARK INTER + INTRA:          -9.283
REMARK INTER:                  -9.722
REMARK INTRA:                   0.439
REMARK UNBOUND:                 0.440
REMARK SMILES O=c1c(O)c(-c2ccc(O)c(O)c2)oc2cc(O)cc(O)c12
REMARK SMILES IDX 5 1 3 2 2 3 1 4 22 5 20 6 19 7 17 8 16 9 15 10 14 11 6 12
REMARK SMILES IDX 7 13 8 14 9 15 13 16 11 17 10 18 12 20 4 22 21 24 18 26
REMARK H PARENT 10 19 12 21 4 23 21 25 18 27
REMARK Flexibility Score: inf
ROOT
ATOM      1  C   UNL     1      30.626  25.054 -16.891  1.00  0.00     0.180 A 
ATOM      2  C   UNL     1      29.821  24.867 -18.029  1.00  0.00     0.208 A 
ATOM      3  C   UNL     1      29.770  23.598 -18.627  1.00  0.00     0.238 A 
ATOM      4  O   UNL     1      29.007  23.424 -19.612  1.00  0.00    -0.285 OA
ATOM      5  C   UNL     1      30.537  22.535 -18.090  1.00  0.00     0.111 A 
ATOM      6  C   UNL     1      30.592  21.219 -18.638  1.00  0.00     0.134 A 
ATOM      7  C   UNL     1      31.280  20.212 -17.950  1.00  0.00     0.093 A 
ATOM      8  C   UNL     1      31.968  20.488 -16.769  1.00  0.00     0.123 A 
ATOM      9  C   UNL     1      31.971  21.786 -16.255  1.00  0.00     0.094 A 
ATOM     10  C   UNL     1      31.263  22.803 -16.900  1.00  0.00     0.146 A 
ATOM     11  O   UNL     1      31.281  24.021 -16.373  1.00  0.00    -0.452 OA
ENDROOT
BRANCH   1  12
ATOM     12  C   UNL     1      30.750  26.368 -16.221  1.00  0.00     0.025 A 
ATOM     13  C   UNL     1      31.806  26.589 -15.323  1.00  0.00     0.016 A 
ATOM     14  C   UNL     1      31.954  27.829 -14.695  1.00  0.00     0.051 A 
ATOM     15  C   UNL     1      31.059  28.869 -14.968  1.00  0.00     0.157 A 
ATOM     16  C   UNL     1      29.865  27.423 -16.508  1.00  0.00     0.062 A 
ATOM     17  C   UNL     1      30.014  28.668 -15.879  1.00  0.00     0.158 A 
BRANCH  15  18
ATOM     18  O   UNL     1      31.201  30.107 -14.343  1.00  0.00    -0.504 OA
ATOM     19  H   UNL     1      31.891  30.782 -14.654  1.00  0.00     0.293 HD
ENDBRANCH  15  18
BRANCH  17  20
ATOM     20  O   UNL     1      29.132  29.710 -16.160  1.00  0.00    -0.504 OA
ATOM     21  H   UNL     1      28.422  29.626 -16.878  1.00  0.00     0.293 HD
ENDBRANCH  17  20
ENDBRANCH   1  12
BRANCH   2  22
ATOM     22  O   UNL     1      29.056  25.925 -18.529  1.00  0.00    -0.502 OA
ATOM     23  H   UNL     1      29.473  26.751 -18.939  1.00  0.00     0.293 HD
ENDBRANCH   2  22
BRANCH   6  24
ATOM     24  O   UNL     1      30.017  20.857 -19.860  1.00  0.00    -0.507 OA
ATOM     25  H   UNL     1      29.870  19.908 -20.168  1.00  0.00     0.293 HD
ENDBRANCH   6  24
BRANCH   8  26
ATOM     26  O   UNL     1      32.656  19.466 -16.119  1.00  0.00    -0.508 OA
ATOM     27  H   UNL     1      32.441  19.207 -15.163  1.00  0.00     0.293 HD
ENDBRANCH   8  26
TORSDOF 6
ENDMDL
MODEL 3
REMARK VINA RESULT:    -7.845      1.211      6.858
REMARK INTER + INTRA:          -9.011
REMARK INTER:                  -9.552
REMARK INTRA:                   0.541
REMARK UNBOUND:                 0.440
REMARK SMILES O=c1c(O)c(-c2ccc(O)c(O)c2)oc2cc(O)cc(O)c12
REMARK SMILES IDX 5 1 3 2 2 3 1 4 22 5 20 6 19 7 17 8 16 9 15 10 14 11 6 12
REMARK SMILES IDX 7 13 8 14 9 15 13 16 11 17 10 18 12 20 4 22 21 24 18 26
REMARK H PARENT 10 19 12 21 4 23 21 25 18 27
REMARK Flexibility Score: inf
ROOT
ATOM      1  C   UNL     1      30.606  24.378 -17.204  1.00  0.00     0.180 A 
ATOM      2  C   UNL     1      29.698  25.046 -18.045  1.00  0.00     0.208 A 
ATOM      3  C   UNL     1      29.425  26.402 -17.812  1.00  0.00     0.238 A 
ATOM      4  O   UNL     1      28.654  27.008 -18.601  1.00  0.00    -0.285 OA
ATOM      5  C   UNL     1      30.048  27.072 -16.731  1.00  0.00     0.111 A 
ATOM      6  C   UNL     1      29.814  28.434 -16.377  1.00  0.00     0.134 A 
ATOM      7  C   UNL     1      30.583  29.028 -15.370  1.00  0.00     0.093 A 
ATOM      8  C   UNL     1      31.531  28.293 -14.660  1.00  0.00     0.123 A 
ATOM      9  C   UNL     1      31.727  26.944 -14.957  1.00  0.00     0.094 A 
ATOM     10  C   UNL     1      31.000  26.332 -15.981  1.00  0.00     0.146 A 
ATOM     11  O   UNL     1      31.224  25.050 -16.240  1.00  0.00    -0.452 OA
ENDROOT
BRANCH   1  12
ATOM     12  C   UNL     1      30.926  22.942 -17.372  1.00  0.00     0.025 A 
ATOM     13  C   UNL     1      30.434  22.251 -18.492  1.00  0.00     0.016 A 
ATOM     14  C   UNL     1      30.742  20.901 -18.681  1.00  0.00     0.051 A 
ATOM     15  C   UNL     1      31.559  20.228 -17.765  1.00  0.00     0.157 A 
ATOM     16  C   UNL     1      31.763  22.267 -16.466  1.00  0.00     0.062 A 
ATOM     17  C   UNL     1      32.074  20.914 -16.657  1.00  0.00     0.158 A 
BRANCH  15  18
ATOM     18  O   UNL     1      31.867  18.881 -17.948  1.00  0.00    -0.504 OA
ATOM     19  H   UNL     1      31.544  18.371 -18.763  1.00  0.00     0.293 HD
ENDBRANCH  15  18
BRANCH  17  20
ATOM     20  O   UNL     1      32.898  20.245 -15.753  1.00  0.00    -0.504 OA
ATOM     21  H   UNL     1      33.861  20.025 -15.975  1.00  0.00     0.293 HD
ENDBRANCH  17  20
ENDBRANCH   1  12
BRANCH   2  22
ATOM     22  O   UNL     1      29.111  24.372 -19.120  1.00  0.00    -0.502 OA
ATOM     23  H   UNL     1      28.400  24.796 -19.704  1.00  0.00     0.293 HD
ENDBRANCH   2  22
BRANCH   6  24
ATOM     24  O   UNL     1      28.826  29.233 -16.961  1.00  0.00    -0.507 OA
ATOM     25  H   UNL     1      28.955  29.793 -17.790  1.00  0.00     0.293 HD
ENDBRANCH   6  24
BRANCH   8  26
ATOM     26  O   UNL     1      32.268  28.913 -13.652  1.00  0.00    -0.508 OA
ATOM     27  H   UNL     1      33.120  28.502 -13.290  1.00  0.00     0.293 HD
ENDBRANCH   8  26
TORSDOF 6
ENDMDL
MODEL 4
REMARK VINA RESULT:    -7.788      0.909      6.693
REMARK INTER + INTRA:          -8.942
REMARK INTER:                  -9.417
REMARK INTRA:                   0.475
REMARK UNBOUND:                 0.440
REMARK SMILES O=c1c(O)c(-c2ccc(O)c(O)c2)oc2cc(O)cc(O)c12
REMARK SMILES IDX 5 1 3 2 2 3 1 4 22 5 20 6 19 7 17 8 16 9 15 10 14 11 6 12
REMARK SMILES IDX 7 13 8 14 9 15 13 16 11 17 10 18 12 20 4 22 21 24 18 26
REMARK H PARENT 10 19 12 21 4 23 21 25 18 27
REMARK Flexibility Score: inf
ROOT
ATOM      1  C   UNL     1      30.865  23.396 -17.248  1.00  0.00     0.180 A 
ATOM      2  C   UNL     1      29.829  23.822 -18.097  1.00  0.00     0.208 A 
ATOM      3  C   UNL     1      29.402  25.158 -18.032  1.00  0.00     0.238 A 
ATOM      4  O   UNL     1      28.512  25.547 -18.831  1.00  0.00    -0.285 OA
ATOM      5  C   UNL     1      30.003  26.047 -17.108  1.00  0.00     0.111 A 
ATOM      6  C   UNL     1      29.622  27.410 -16.928  1.00  0.00     0.134 A 
ATOM      7  C   UNL     1      30.372  28.231 -16.079  1.00  0.00     0.093 A 
ATOM      8  C   UNL     1      31.449  27.724 -15.353  1.00  0.00     0.123 A 
ATOM      9  C   UNL     1      31.794  26.377 -15.475  1.00  0.00     0.094 A 
ATOM     10  C   UNL     1      31.087  25.541 -16.343  1.00  0.00     0.146 A 
ATOM     11  O   UNL     1      31.454  24.270 -16.439  1.00  0.00    -0.452 OA
ENDROOT
BRANCH   1  12
ATOM     12  C   UNL     1      31.353  21.998 -17.241  1.00  0.00     0.025 A 
ATOM     13  C   UNL     1      32.329  21.611 -16.308  1.00  0.00     0.016 A 
ATOM     14  C   UNL     1      32.788  20.292 -16.270  1.00  0.00     0.051 A 
ATOM     15  C   UNL     1      32.267  19.338 -17.153  1.00  0.00     0.157 A 
ATOM     16  C   UNL     1      30.819  21.031 -18.112  1.00  0.00     0.062 A 
ATOM     17  C   UNL     1      31.279  19.707 -18.073  1.00  0.00     0.158 A 
BRANCH  15  18
ATOM     18  O   UNL     1      32.725  18.021 -17.121  1.00  0.00    -0.504 OA
ATOM     19  H   UNL     1      32.087  17.242 -16.997  1.00  0.00     0.293 HD
ENDBRANCH  15  18
BRANCH  17  20
ATOM     20  O   UNL     1      30.752  18.753 -18.942  1.00  0.00    -0.504 OA
ATOM     21  H   UNL     1      29.754  18.610 -19.033  1.00  0.00     0.293 HD
ENDBRANCH  17  20
ENDBRANCH   1  12
BRANCH   2  22
ATOM     22  O   UNL     1      29.264  22.935 -19.017  1.00  0.00    -0.502 OA
ATOM     23  H   UNL     1      28.863  22.047 -18.739  1.00  0.00     0.293 HD
ENDBRANCH   2  22
BRANCH   6  24
ATOM     24  O   UNL     1      28.505  27.994 -17.535  1.00  0.00    -0.507 OA
ATOM     25  H   UNL     1      28.101  28.878 -17.264  1.00  0.00     0.293 HD
ENDBRANCH   6  24
BRANCH   8  26
ATOM     26  O   UNL     1      32.165  28.566 -14.504  1.00  0.00    -0.508 OA
ATOM     27  H   UNL     1      33.119  28.838 -14.709  1.00  0.00     0.293 HD
ENDBRANCH   8  26
TORSDOF 6
ENDMDL
MODEL 5
REMARK VINA RESULT:    -7.656      2.417      7.551
REMARK INTER + INTRA:          -8.783
REMARK INTER:                  -8.476
REMARK INTRA:                  -0.307
REMARK UNBOUND:                 0.440
REMARK SMILES O=c1c(O)c(-c2ccc(O)c(O)c2)oc2cc(O)cc(O)c12
REMARK SMILES IDX 5 1 3 2 2 3 1 4 22 5 20 6 19 7 17 8 16 9 15 10 14 11 6 12
REMARK SMILES IDX 7 13 8 14 9 15 13 16 11 17 10 18 12 20 4 22 21 24 18 26
REMARK H PARENT 10 19 12 21 4 23 21 25 18 27
REMARK Flexibility Score: inf
ROOT
ATOM      1  C   UNL     1      29.739  21.655 -18.999  1.00  0.00     0.180 A 
ATOM      2  C   UNL     1      30.773  21.515 -18.057  1.00  0.00     0.208 A 
ATOM      3  C   UNL     1      31.217  22.649 -17.359  1.00  0.00     0.238 A 
ATOM      4  O   UNL     1      32.104  22.508 -16.478  1.00  0.00    -0.285 OA
ATOM      5  C   UNL     1      30.634  23.912 -17.624  1.00  0.00     0.111 A 
ATOM      6  C   UNL     1      31.034  25.135 -17.005  1.00  0.00     0.134 A 
ATOM      7  C   UNL     1      30.301  26.303 -17.247  1.00  0.00     0.093 A 
ATOM      8  C   UNL     1      29.225  26.307 -18.133  1.00  0.00     0.123 A 
ATOM      9  C   UNL     1      28.862  25.130 -18.789  1.00  0.00     0.094 A 
ATOM     10  C   UNL     1      29.552  23.941 -18.541  1.00  0.00     0.146 A 
ATOM     11  O   UNL     1      29.169  22.841 -19.177  1.00  0.00    -0.452 OA
ENDROOT
BRANCH   1  12
ATOM     12  C   UNL     1      29.234  20.510 -19.791  1.00  0.00     0.025 A 
ATOM     13  C   UNL     1      29.763  20.267 -21.069  1.00  0.00     0.016 A 
ATOM     14  C   UNL     1      29.317  19.180 -21.825  1.00  0.00     0.051 A 
ATOM     15  C   UNL     1      28.348  18.311 -21.307  1.00  0.00     0.157 A 
ATOM     16  C   UNL     1      28.277  19.623 -19.267  1.00  0.00     0.062 A 
ATOM     17  C   UNL     1      27.830  18.531 -20.025  1.00  0.00     0.158 A 
BRANCH  15  18
ATOM     18  O   UNL     1      27.897  17.227 -22.058  1.00  0.00    -0.504 OA
ATOM     19  H   UNL     1      28.088  17.155 -23.052  1.00  0.00     0.293 HD
ENDBRANCH  15  18
BRANCH  17  20
ATOM     20  O   UNL     1      26.875  17.657 -19.507  1.00  0.00    -0.504 OA
ATOM     21  H   UNL     1      27.057  17.102 -18.679  1.00  0.00     0.293 HD
ENDBRANCH  17  20
ENDBRANCH   1  12
BRANCH   2  22
ATOM     22  O   UNL     1      31.319  20.255 -17.795  1.00  0.00    -0.502 OA
ATOM     23  H   UNL     1      31.987  19.813 -18.414  1.00  0.00     0.293 HD
ENDBRANCH   2  22
BRANCH   6  24
ATOM     24  O   UNL     1      32.152  25.260 -16.175  1.00  0.00    -0.507 OA
ATOM     25  H   UNL     1      33.026  24.776 -16.310  1.00  0.00     0.293 HD
ENDBRANCH   6  24
BRANCH   8  26
ATOM     26  O   UNL     1      28.527  27.492 -18.362  1.00  0.00    -0.508 OA
ATOM     27  H   UNL     1      28.950  28.268 -18.857  1.00  0.00     0.293 HD
ENDBRANCH   8  26
TORSDOF 6
ENDMDL
MODEL 6
REMARK VINA RESULT:    -7.388      2.376      3.915
REMARK INTER + INTRA:          -8.460
REMARK INTER:                  -8.296
REMARK INTRA:                  -0.163
REMARK UNBOUND:                 0.440
REMARK SMILES O=c1c(O)c(-c2ccc(O)c(O)c2)oc2cc(O)cc(O)c12
REMARK SMILES IDX 5 1 3 2 2 3 1 4 22 5 20 6 19 7 17 8 16 9 15 10 14 11 6 12
REMARK SMILES IDX 7 13 8 14 9 15 13 16 11 17 10 18 12 20 4 22 21 24 18 26
REMARK H PARENT 10 19 12 21 4 23 21 25 18 27
REMARK Flexibility Score: inf
ROOT
ATOM      1  C   UNL     1      29.560  25.422 -18.348  1.00  0.00     0.180 A 
ATOM      2  C   UNL     1      30.559  25.459 -17.360  1.00  0.00     0.208 A 
ATOM      3  C   UNL     1      31.172  24.260 -16.965  1.00  0.00     0.238 A 
ATOM      4  O   UNL     1      32.103  24.306 -16.120  1.00  0.00    -0.285 OA
ATOM      5  C   UNL     1      30.767  23.035 -17.551  1.00  0.00     0.111 A 
ATOM      6  C   UNL     1      31.291  21.756 -17.198  1.00  0.00     0.134 A 
ATOM      7  C   UNL     1      30.911  20.627 -17.934  1.00  0.00     0.093 A 
ATOM      8  C   UNL     1      29.978  20.721 -18.966  1.00  0.00     0.123 A 
ATOM      9  C   UNL     1      29.414  21.959 -19.281  1.00  0.00     0.094 A 
ATOM     10  C   UNL     1      29.801  23.108 -18.588  1.00  0.00     0.146 A 
ATOM     11  O   UNL     1      29.249  24.267 -18.925  1.00  0.00    -0.452 OA
ENDROOT
BRANCH   1  12
ATOM     12  C   UNL     1      28.852  26.642 -18.798  1.00  0.00     0.025 A 
ATOM     13  C   UNL     1      28.048  27.349 -17.889  1.00  0.00     0.016 A 
ATOM     14  C   UNL     1      27.387  28.515 -18.287  1.00  0.00     0.051 A 
ATOM     15  C   UNL     1      27.534  28.999 -19.593  1.00  0.00     0.157 A 
ATOM     16  C   UNL     1      29.012  27.143 -20.102  1.00  0.00     0.062 A 
ATOM     17  C   UNL     1      28.351  28.313 -20.501  1.00  0.00     0.158 A 
BRANCH  15  18
ATOM     18  O   UNL     1      26.875  30.159 -19.995  1.00  0.00    -0.504 OA
ATOM     19  H   UNL     1      25.864  30.196 -20.070  1.00  0.00     0.293 HD
ENDBRANCH  15  18
BRANCH  17  20
ATOM     20  O   UNL     1      28.506  28.805 -21.797  1.00  0.00    -0.504 OA
ATOM     21  H   UNL     1      29.419  28.888 -22.227  1.00  0.00     0.293 HD
ENDBRANCH  17  20
ENDBRANCH   1  12
BRANCH   2  22
ATOM     22  O   UNL     1      30.959  26.681 -16.810  1.00  0.00    -0.502 OA
ATOM     23  H   UNL     1      30.769  26.932 -15.848  1.00  0.00     0.293 HD
ENDBRANCH   2  22
BRANCH   6  24
ATOM     24  O   UNL     1      32.159  21.537 -16.124  1.00  0.00    -0.507 OA
ATOM     25  H   UNL     1      32.130  22.039 -15.250  1.00  0.00     0.293 HD
ENDBRANCH   6  24
BRANCH   8  26
ATOM     26  O   UNL     1      29.611  19.574 -19.668  1.00  0.00    -0.508 OA
ATOM     27  H   UNL     1      29.925  18.655 -19.382  1.00  0.00     0.293 HD
ENDBRANCH   8  26
TORSDOF 6
ENDMDL
MODEL 7
REMARK VINA RESULT:    -7.368      1.690      3.437
REMARK INTER + INTRA:          -8.436
REMARK INTER:                  -8.661
REMARK INTRA:                   0.224
REMARK UNBOUND:                 0.440
REMARK SMILES O=c1c(O)c(-c2ccc(O)c(O)c2)oc2cc(O)cc(O)c12
REMARK SMILES IDX 5 1 3 2 2 3 1 4 22 5 20 6 19 7 17 8 16 9 15 10 14 11 6 12
REMARK SMILES IDX 7 13 8 14 9 15 13 16 11 17 10 18 12 20 4 22 21 24 18 26
REMARK H PARENT 10 19 12 21 4 23 21 25 18 27
REMARK Flexibility Score: inf
ROOT
ATOM      1  C   UNL     1      30.230  23.700 -17.871  1.00  0.00     0.180 A 
ATOM      2  C   UNL     1      31.134  22.815 -17.259  1.00  0.00     0.208 A 
ATOM      3  C   UNL     1      31.206  21.490 -17.719  1.00  0.00     0.238 A 
ATOM      4  O   UNL     1      32.055  20.717 -17.204  1.00  0.00    -0.285 OA
ATOM      5  C   UNL     1      30.363  21.062 -18.773  1.00  0.00     0.111 A 
ATOM      6  C   UNL     1      30.323  19.733 -19.291  1.00  0.00     0.134 A 
ATOM      7  C   UNL     1      29.545  19.455 -20.420  1.00  0.00     0.093 A 
ATOM      8  C   UNL     1      28.755  20.440 -21.011  1.00  0.00     0.123 A 
ATOM      9  C   UNL     1      28.740  21.730 -20.476  1.00  0.00     0.094 A 
ATOM     10  C   UNL     1      29.534  22.047 -19.372  1.00  0.00     0.146 A 
ATOM     11  O   UNL     1      29.500  23.287 -18.901  1.00  0.00    -0.452 OA
ENDROOT
BRANCH   1  12
ATOM     12  C   UNL     1      30.079  25.105 -17.426  1.00  0.00     0.025 A 
ATOM     13  C   UNL     1      28.803  25.691 -17.409  1.00  0.00     0.016 A 
ATOM     14  C   UNL     1      28.635  27.008 -16.972  1.00  0.00     0.051 A 
ATOM     15  C   UNL     1      29.737  27.751 -16.532  1.00  0.00     0.157 A 
ATOM     16  C   UNL     1      31.180  25.848 -16.964  1.00  0.00     0.062 A 
ATOM     17  C   UNL     1      31.011  27.169 -16.524  1.00  0.00     0.158 A 
BRANCH  15  18
ATOM     18  O   UNL     1      29.575  29.066 -16.098  1.00  0.00    -0.504 OA
ATOM     19  H   UNL     1      29.612  29.307 -15.114  1.00  0.00     0.293 HD
ENDBRANCH  15  18
BRANCH  17  20
ATOM     20  O   UNL     1      32.105  27.907 -16.073  1.00  0.00    -0.504 OA
ATOM     21  H   UNL     1      32.975  27.460 -15.810  1.00  0.00     0.293 HD
ENDBRANCH  17  20
ENDBRANCH   1  12
BRANCH   2  22
ATOM     22  O   UNL     1      31.973  23.263 -16.235  1.00  0.00    -0.502 OA
ATOM     23  H   UNL     1      32.405  24.179 -16.249  1.00  0.00     0.293 HD
ENDBRANCH   2  22
BRANCH   6  24
ATOM     24  O   UNL     1      31.003  18.652 -18.720  1.00  0.00    -0.507 OA
ATOM     25  H   UNL     1      30.902  18.351 -17.762  1.00  0.00     0.293 HD
ENDBRANCH   6  24
BRANCH   8  26
ATOM     26  O   UNL     1      27.979  20.125 -22.125  1.00  0.00    -0.508 OA
ATOM     27  H   UNL     1      27.041  20.489 -22.238  1.00  0.00     0.293 HD
ENDBRANCH   8  26
TORSDOF 6
ENDMDL
MODEL 8
REMARK VINA RESULT:    -7.342      1.456      6.997
REMARK INTER + INTRA:          -8.405
REMARK INTER:                  -8.880
REMARK INTRA:                   0.475
REMARK UNBOUND:                 0.440
REMARK SMILES O=c1c(O)c(-c2ccc(O)c(O)c2)oc2cc(O)cc(O)c12
REMARK SMILES IDX 5 1 3 2 2 3 1 4 22 5 20 6 19 7 17 8 16 9 15 10 14 11 6 12
REMARK SMILES IDX 7 13 8 14 9 15 13 16 11 17 10 18 12 20 4 22 21 24 18 26
REMARK H PARENT 10 19 12 21 4 23 21 25 18 27
REMARK Flexibility Score: inf
ROOT
ATOM      1  C   UNL     1      30.501  25.422 -16.926  1.00  0.00     0.180 A 
ATOM      2  C   UNL     1      29.500  26.130 -17.615  1.00  0.00     0.208 A 
ATOM      3  C   UNL     1      29.250  27.466 -17.268  1.00  0.00     0.238 A 
ATOM      4  O   UNL     1      28.391  28.111 -17.924  1.00  0.00    -0.285 OA
ATOM      5  C   UNL     1      29.990  28.075 -16.225  1.00  0.00     0.111 A 
ATOM      6  C   UNL     1      29.792  29.410 -15.763  1.00  0.00     0.134 A 
ATOM      7  C   UNL     1      30.670  29.950 -14.815  1.00  0.00     0.093 A 
ATOM      8  C   UNL     1      31.696  29.184 -14.265  1.00  0.00     0.123 A 
ATOM      9  C   UNL     1      31.862  27.857 -14.666  1.00  0.00     0.094 A 
ATOM     10  C   UNL     1      31.025  27.302 -15.637  1.00  0.00     0.146 A 
ATOM     11  O   UNL     1      31.222  26.040 -15.999  1.00  0.00    -0.452 OA
ENDROOT
BRANCH   1  12
ATOM     12  C   UNL     1      30.806  24.003 -17.219  1.00  0.00     0.025 A 
ATOM     13  C   UNL     1      31.705  23.306 -16.397  1.00  0.00     0.016 A 
ATOM     14  C   UNL     1      31.992  21.960 -16.642  1.00  0.00     0.051 A 
ATOM     15  C   UNL     1      31.370  21.288 -17.702  1.00  0.00     0.157 A 
ATOM     16  C   UNL     1      30.168  23.318 -18.270  1.00  0.00     0.062 A 
ATOM     17  C   UNL     1      30.454  21.968 -18.515  1.00  0.00     0.158 A 
BRANCH  15  18
ATOM     18  O   UNL     1      31.654  19.947 -17.953  1.00  0.00    -0.504 OA
ATOM     19  H   UNL     1      30.920  19.248 -17.990  1.00  0.00     0.293 HD
ENDBRANCH  15  18
BRANCH  17  20
ATOM     20  O   UNL     1      29.826  21.293 -19.561  1.00  0.00    -0.504 OA
ATOM     21  H   UNL     1      30.023  20.319 -19.758  1.00  0.00     0.293 HD
ENDBRANCH  17  20
ENDBRANCH   1  12
BRANCH   2  22
ATOM     22  O   UNL     1      28.796  25.517 -18.656  1.00  0.00    -0.502 OA
ATOM     23  H   UNL     1      27.964  25.926 -19.064  1.00  0.00     0.293 HD
ENDBRANCH   2  22
BRANCH   6  24
ATOM     24  O   UNL     1      28.741  30.233 -16.179  1.00  0.00    -0.507 OA
ATOM     25  H   UNL     1      28.163  30.783 -15.563  1.00  0.00     0.293 HD
ENDBRANCH   6  24
BRANCH   8  26
ATOM     26  O   UNL     1      32.541  29.748 -13.312  1.00  0.00    -0.508 OA
ATOM     27  H   UNL     1      33.032  30.617 -13.487  1.00  0.00     0.293 HD
ENDBRANCH   8  26
TORSDOF 6
ENDMDL
MODEL 9
REMARK VINA RESULT:    -7.180      2.520      7.014
REMARK INTER + INTRA:          -8.209
REMARK INTER:                  -7.949
REMARK INTRA:                  -0.260
REMARK UNBOUND:                 0.440
REMARK SMILES O=c1c(O)c(-c2ccc(O)c(O)c2)oc2cc(O)cc(O)c12
REMARK SMILES IDX 5 1 3 2 2 3 1 4 22 5 20 6 19 7 17 8 16 9 15 10 14 11 6 12
REMARK SMILES IDX 7 13 8 14 9 15 13 16 11 17 10 18 12 20 4 22 21 24 18 26
REMARK H PARENT 10 19 12 21 4 23 21 25 18 27
REMARK Flexibility Score: inf
ROOT
ATOM      1  C   UNL     1      29.238  22.506 -19.183  1.00  0.00     0.180 A 
ATOM      2  C   UNL     1      28.461  23.479 -19.837  1.00  0.00     0.208 A 
ATOM      3  C   UNL     1      28.573  24.820 -19.440  1.00  0.00     0.238 A 
ATOM      4  O   UNL     1      27.916  25.693 -20.065  1.00  0.00    -0.285 OA
ATOM      5  C   UNL     1      29.446  25.172 -18.382  1.00  0.00     0.111 A 
ATOM      6  C   UNL     1      29.608  26.494 -17.870  1.00  0.00     0.134 A 
ATOM      7  C   UNL     1      30.595  26.747 -16.910  1.00  0.00     0.093 A 
ATOM      8  C   UNL     1      31.381  25.716 -16.397  1.00  0.00     0.123 A 
ATOM      9  C   UNL     1      31.191  24.409 -16.847  1.00  0.00     0.094 A 
ATOM     10  C   UNL     1      30.238  24.131 -17.830  1.00  0.00     0.146 A 
ATOM     11  O   UNL     1      30.096  22.877 -18.239  1.00  0.00    -0.452 OA
ENDROOT
BRANCH   1  12
ATOM     12  C   UNL     1      29.157  21.069 -19.529  1.00  0.00     0.025 A 
ATOM     13  C   UNL     1      30.245  20.450 -20.166  1.00  0.00     0.016 A 
ATOM     14  C   UNL     1      30.198  19.090 -20.483  1.00  0.00     0.051 A 
ATOM     15  C   UNL     1      29.071  18.326 -20.154  1.00  0.00     0.157 A 
ATOM     16  C   UNL     1      28.036  20.294 -19.182  1.00  0.00     0.062 A 
ATOM     17  C   UNL     1      27.990  18.929 -19.499  1.00  0.00     0.158 A 
BRANCH  15  18
ATOM     18  O   UNL     1      29.019  16.970 -20.470  1.00  0.00    -0.504 OA
ATOM     19  H   UNL     1      29.690  16.311 -20.090  1.00  0.00     0.293 HD
ENDBRANCH  15  18
BRANCH  17  20
ATOM     20  O   UNL     1      26.875  18.163 -19.160  1.00  0.00    -0.504 OA
ATOM     21  H   UNL     1      26.192  18.489 -18.486  1.00  0.00     0.293 HD
ENDBRANCH  17  20
ENDBRANCH   1  12
BRANCH   2  22
ATOM     22  O   UNL     1      27.622  23.113 -20.894  1.00  0.00    -0.502 OA
ATOM     23  H   UNL     1      27.706  23.515 -21.819  1.00  0.00     0.293 HD
ENDBRANCH   2  22
BRANCH   6  24
ATOM     24  O   UNL     1      28.812  27.580 -18.248  1.00  0.00    -0.507 OA
ATOM     25  H   UNL     1      28.533  27.786 -19.194  1.00  0.00     0.293 HD
ENDBRANCH   6  24
BRANCH   8  26
ATOM     26  O   UNL     1      32.344  26.002 -15.430  1.00  0.00    -0.508 OA
ATOM     27  H   UNL     1      32.140  25.926 -14.441  1.00  0.00     0.293 HD
ENDBRANCH   8  26
TORSDOF 6
ENDMDL
