MODEL 1
REMARK VINA RESULT:    -6.317      0.000      0.000
REMARK INTER + INTRA:         -10.368
REMARK INTER:                  -8.717
REMARK INTRA:                  -1.650
REMARK UNBOUND:                -1.650
REMARK SMILES CC[C@@H](CC[C@@H](C)[C@H]1CC[C@H]2[C@@H]3CC=C4C[C@H](O)CC[C@]4(C)[C@@H]3CC[C@@]12C)C(C)C
REMARK SMILES IDX 5 1 4 2 3 3 2 4 1 5 28 6 29 7 30 8 6 9 7 10 8 11 9 12 26 13
REMARK SMILES IDX 10 14 11 15 25 16 27 17 12 18 24 19 23 20 13 21 21 22 14 23
REMARK SMILES IDX 15 24 20 25 22 26 16 27 19 28 17 29 18 30
REMARK H PARENT 18 31
REMARK Flexibility Score: inf
ROOT
ATOM      1  C   UNL     1     137.347 133.621 144.920  1.00  0.00     0.004 C 
ENDROOT
BRANCH   1   2
ATOM      2  C   UNL     1     136.269 133.320 146.000  1.00  0.00     0.004 C 
BRANCH   2   3
ATOM      3  C   UNL     1     136.137 134.373 147.153  1.00  0.00    -0.009 C 
BRANCH   3   4
ATOM      4  C   UNL     1     136.284 133.714 148.559  1.00  0.00     0.000 C 
ATOM      5  C   UNL     1     137.728 133.516 149.037  1.00  0.00     0.004 C 
ENDBRANCH   3   4
BRANCH   3   6
ATOM      6  C   UNL     1     134.923 135.364 147.011  1.00  0.00    -0.014 C 
ATOM      7  C   UNL     1     135.352 136.715 146.395  1.00  0.00     0.007 C 
ATOM      8  C   UNL     1     134.242 135.643 148.363  1.00  0.00     0.007 C 
ENDBRANCH   3   6
ENDBRANCH   2   3
ENDBRANCH   1   2
BRANCH   1   9
ATOM      9  C   UNL     1     138.494 134.580 145.410  1.00  0.00    -0.011 C 
ATOM     10  C   UNL     1     139.751 133.749 145.737  1.00  0.00     0.008 C 
BRANCH   9  11
ATOM     11  C   UNL     1     138.896 135.785 144.466  1.00  0.00    -0.002 C 
ATOM     12  C   UNL     1     137.804 136.337 143.536  1.00  0.00     0.005 C 
ATOM     13  C   UNL     1     139.613 137.015 145.102  1.00  0.00    -0.026 C 
ATOM     14  C   UNL     1     138.192 137.784 143.229  1.00  0.00     0.005 C 
ATOM     15  C   UNL     1     139.507 138.081 143.968  1.00  0.00    -0.001 C 
ATOM     16  C   UNL     1     138.901 137.485 146.392  1.00  0.00     0.007 C 
ATOM     17  C   UNL     1     141.094 136.647 145.417  1.00  0.00     0.012 C 
ATOM     18  C   UNL     1     139.626 139.580 144.387  1.00  0.00     0.000 C 
ATOM     19  C   UNL     1     139.230 138.922 146.802  1.00  0.00     0.005 C 
ATOM     20  C   UNL     1     138.838 139.918 145.682  1.00  0.00     0.003 C 
ATOM     21  C   UNL     1     141.099 140.022 144.483  1.00  0.00     0.031 C 
ATOM     22  C   UNL     1     138.962 141.455 146.055  1.00  0.00    -0.008 C 
ATOM     23  C   UNL     1     141.269 141.404 145.034  1.00  0.00    -0.027 C 
ATOM     24  C   UNL     1     140.385 141.996 145.862  1.00  0.00    -0.065 C 
ATOM     25  C   UNL     1     138.524 141.725 147.532  1.00  0.00     0.014 C 
ATOM     26  C   UNL     1     138.023 142.256 145.111  1.00  0.00     0.016 C 
ATOM     27  C   UNL     1     140.723 143.380 146.394  1.00  0.00     0.063 C 
ATOM     28  C   UNL     1     138.741 143.173 147.994  1.00  0.00     0.033 C 
ATOM     29  C   UNL     1     140.206 143.603 147.832  1.00  0.00     0.118 C 
BRANCH  29  30
ATOM     30  O   UNL     1     141.017 142.965 148.796  1.00  0.00    -0.393 OA
ATOM     31  H   UNL     1     141.972 143.139 148.576  1.00  0.00     0.210 HD
ENDBRANCH  29  30
ENDBRANCH   9  11
ENDBRANCH   1   9
TORSDOF 7
ENDMDL
MODEL 2
REMARK VINA RESULT:    -6.289      4.970      8.108
REMARK INTER + INTRA:         -10.329
REMARK INTER:                  -9.252
REMARK INTRA:                  -1.077
REMARK UNBOUND:                -1.650
REMARK SMILES CC[C@@H](CC[C@@H](C)[C@H]1CC[C@H]2[C@@H]3CC=C4C[C@H](O)CC[C@]4(C)[C@@H]3CC[C@@]12C)C(C)C
REMARK SMILES IDX 5 1 4 2 3 3 2 4 1 5 28 6 29 7 30 8 6 9 7 10 8 11 9 12 26 13
REMARK SMILES IDX 10 14 11 15 25 16 27 17 12 18 24 19 23 20 13 21 21 22 14 23
REMARK SMILES IDX 15 24 20 25 22 26 16 27 19 28 17 29 18 30
REMARK H PARENT 18 31
REMARK Flexibility Score: inf
ROOT
ATOM      1  C   UNL     1     140.379 139.772 146.161  1.00  0.00     0.004 C 
ENDROOT
BRANCH   1   2
ATOM      2  C   UNL     1     138.921 140.256 145.923  1.00  0.00     0.004 C 
BRANCH   2   3
ATOM      3  C   UNL     1     138.549 141.650 146.535  1.00  0.00    -0.009 C 
BRANCH   3   4
ATOM      4  C   UNL     1     138.276 142.714 145.428  1.00  0.00     0.000 C 
ATOM      5  C   UNL     1     138.199 142.162 144.000  1.00  0.00     0.004 C 
ENDBRANCH   3   4
BRANCH   3   6
ATOM      6  C   UNL     1     139.488 142.134 147.701  1.00  0.00    -0.014 C 
ATOM      7  C   UNL     1     139.140 141.450 149.043  1.00  0.00     0.007 C 
ATOM      8  C   UNL     1     139.420 143.659 147.905  1.00  0.00     0.007 C 
ENDBRANCH   3   6
ENDBRANCH   2   3
ENDBRANCH   1   2
BRANCH   1   9
ATOM      9  C   UNL     1     140.481 138.354 146.836  1.00  0.00    -0.011 C 
ATOM     10  C   UNL     1     139.084 137.701 146.868  1.00  0.00     0.008 C 
BRANCH   9  11
ATOM     11  C   UNL     1     141.523 137.327 146.232  1.00  0.00    -0.002 C 
ATOM     12  C   UNL     1     142.239 137.740 144.937  1.00  0.00     0.005 C 
ATOM     13  C   UNL     1     142.609 136.732 147.179  1.00  0.00    -0.026 C 
ATOM     14  C   UNL     1     143.555 136.961 144.905  1.00  0.00     0.005 C 
ATOM     15  C   UNL     1     143.610 136.090 146.171  1.00  0.00    -0.001 C 
ATOM     16  C   UNL     1     143.286 137.832 148.031  1.00  0.00     0.007 C 
ATOM     17  C   UNL     1     141.958 135.666 148.111  1.00  0.00     0.012 C 
ATOM     18  C   UNL     1     145.072 135.861 146.668  1.00  0.00     0.000 C 
ATOM     19  C   UNL     1     144.643 137.429 148.611  1.00  0.00     0.005 C 
ATOM     20  C   UNL     1     145.636 137.056 147.483  1.00  0.00     0.003 C 
ATOM     21  C   UNL     1     145.202 134.532 147.438  1.00  0.00     0.031 C 
ATOM     22  C   UNL     1     147.132 136.794 147.943  1.00  0.00    -0.008 C 
ATOM     23  C   UNL     1     146.546 134.342 148.070  1.00  0.00    -0.027 C 
ATOM     24  C   UNL     1     147.354 135.358 148.438  1.00  0.00    -0.065 C 
ATOM     25  C   UNL     1     147.567 137.782 149.074  1.00  0.00     0.014 C 
ATOM     26  C   UNL     1     148.059 137.016 146.715  1.00  0.00     0.016 C 
ATOM     27  C   UNL     1     148.663 135.013 149.129  1.00  0.00     0.063 C 
ATOM     28  C   UNL     1     148.961 137.496 149.652  1.00  0.00     0.033 C 
ATOM     29  C   UNL     1     149.066 136.062 150.188  1.00  0.00     0.118 C 
BRANCH  29  30
ATOM     30  O   UNL     1     148.327 135.925 151.384  1.00  0.00    -0.393 OA
ATOM     31  H   UNL     1     148.579 136.663 152.002  1.00  0.00     0.210 HD
ENDBRANCH  29  30
ENDBRANCH   9  11
ENDBRANCH   1   9
TORSDOF 7
ENDMDL
MODEL 3
REMARK VINA RESULT:    -6.061      5.486      7.623
REMARK INTER + INTRA:         -10.015
REMARK INTER:                  -7.730
REMARK INTRA:                  -2.285
REMARK UNBOUND:                -1.650
REMARK SMILES CC[C@@H](CC[C@@H](C)[C@H]1CC[C@H]2[C@@H]3CC=C4C[C@H](O)CC[C@]4(C)[C@@H]3CC[C@@]12C)C(C)C
REMARK SMILES IDX 5 1 4 2 3 3 2 4 1 5 28 6 29 7 30 8 6 9 7 10 8 11 9 12 26 13
REMARK SMILES IDX 10 14 11 15 25 16 27 17 12 18 24 19 23 20 13 21 21 22 14 23
REMARK SMILES IDX 15 24 20 25 22 26 16 27 19 28 17 29 18 30
REMARK H PARENT 18 31
REMARK Flexibility Score: inf
ROOT
ATOM      1  C   UNL     1     146.019 134.099 151.751  1.00  0.00     0.004 C 
ENDROOT
BRANCH   1   2
ATOM      2  C   UNL     1     144.510 134.459 151.848  1.00  0.00     0.004 C 
BRANCH   2   3
ATOM      3  C   UNL     1     143.528 133.534 151.050  1.00  0.00    -0.009 C 
BRANCH   3   4
ATOM      4  C   UNL     1     143.879 132.025 151.229  1.00  0.00     0.000 C 
ATOM      5  C   UNL     1     142.756 131.161 151.815  1.00  0.00     0.004 C 
ENDBRANCH   3   4
BRANCH   3   6
ATOM      6  C   UNL     1     143.259 133.978 149.564  1.00  0.00    -0.014 C 
ATOM      7  C   UNL     1     141.850 134.593 149.394  1.00  0.00     0.007 C 
ATOM      8  C   UNL     1     143.398 132.808 148.574  1.00  0.00     0.007 C 
ENDBRANCH   3   6
ENDBRANCH   2   3
ENDBRANCH   1   2
BRANCH   1   9
ATOM      9  C   UNL     1     146.921 135.266 151.201  1.00  0.00    -0.011 C 
ATOM     10  C   UNL     1     148.321 135.176 151.842  1.00  0.00     0.008 C 
BRANCH   9  11
ATOM     11  C   UNL     1     147.074 135.399 149.632  1.00  0.00    -0.002 C 
ATOM     12  C   UNL     1     146.788 134.141 148.795  1.00  0.00     0.005 C 
ATOM     13  C   UNL     1     146.364 136.588 148.917  1.00  0.00    -0.026 C 
ATOM     14  C   UNL     1     146.389 134.633 147.402  1.00  0.00     0.005 C 
ATOM     15  C   UNL     1     146.447 136.169 147.417  1.00  0.00    -0.001 C 
ATOM     16  C   UNL     1     144.897 136.740 149.385  1.00  0.00     0.007 C 
ATOM     17  C   UNL     1     147.148 137.905 149.197  1.00  0.00     0.012 C 
ATOM     18  C   UNL     1     145.409 136.809 146.441  1.00  0.00     0.000 C 
ATOM     19  C   UNL     1     144.012 137.538 148.426  1.00  0.00     0.005 C 
ATOM     20  C   UNL     1     143.974 136.871 147.028  1.00  0.00     0.003 C 
ATOM     21  C   UNL     1     145.883 138.189 145.944  1.00  0.00     0.031 C 
ATOM     22  C   UNL     1     142.948 137.501 145.994  1.00  0.00    -0.008 C 
ATOM     23  C   UNL     1     144.854 138.912 145.132  1.00  0.00    -0.027 C 
ATOM     24  C   UNL     1     143.525 138.717 145.256  1.00  0.00    -0.065 C 
ATOM     25  C   UNL     1     141.617 137.931 146.694  1.00  0.00     0.014 C 
ATOM     26  C   UNL     1     142.614 136.420 144.929  1.00  0.00     0.016 C 
ATOM     27  C   UNL     1     142.597 139.571 144.409  1.00  0.00     0.063 C 
ATOM     28  C   UNL     1     140.634 138.664 145.771  1.00  0.00     0.033 C 
ATOM     29  C   UNL     1     141.275 139.906 145.135  1.00  0.00     0.118 C 
BRANCH  29  30
ATOM     30  O   UNL     1     141.438 140.926 146.098  1.00  0.00    -0.393 OA
ATOM     31  H   UNL     1     140.644 140.929 146.699  1.00  0.00     0.210 HD
ENDBRANCH  29  30
ENDBRANCH   9  11
ENDBRANCH   1   9
TORSDOF 7
ENDMDL
MODEL 4
REMARK VINA RESULT:    -6.051      7.767     10.079
REMARK INTER + INTRA:         -10.001
REMARK INTER:                  -7.885
REMARK INTRA:                  -2.117
REMARK UNBOUND:                -1.650
REMARK SMILES CC[C@@H](CC[C@@H](C)[C@H]1CC[C@H]2[C@@H]3CC=C4C[C@H](O)CC[C@]4(C)[C@@H]3CC[C@@]12C)C(C)C
REMARK SMILES IDX 5 1 4 2 3 3 2 4 1 5 28 6 29 7 30 8 6 9 7 10 8 11 9 12 26 13
REMARK SMILES IDX 10 14 11 15 25 16 27 17 12 18 24 19 23 20 13 21 21 22 14 23
REMARK SMILES IDX 15 24 20 25 22 26 16 27 19 28 17 29 18 30
REMARK H PARENT 18 31
REMARK Flexibility Score: inf
ROOT
ATOM      1  C   UNL     1     143.394 135.261 147.649  1.00  0.00     0.004 C 
ENDROOT
BRANCH   1   2
ATOM      2  C   UNL     1     143.306 136.809 147.531  1.00  0.00     0.004 C 
BRANCH   2   3
ATOM      3  C   UNL     1     143.649 137.413 146.126  1.00  0.00    -0.009 C 
BRANCH   3   4
ATOM      4  C   UNL     1     143.706 136.315 145.020  1.00  0.00     0.000 C 
ATOM      5  C   UNL     1     142.837 136.588 143.786  1.00  0.00     0.004 C 
ENDBRANCH   3   4
BRANCH   3   6
ATOM      6  C   UNL     1     144.855 138.424 146.115  1.00  0.00    -0.014 C 
ATOM      7  C   UNL     1     144.651 139.553 145.078  1.00  0.00     0.007 C 
ATOM      8  C   UNL     1     146.194 137.727 145.813  1.00  0.00     0.007 C 
ENDBRANCH   3   6
ENDBRANCH   2   3
ENDBRANCH   1   2
BRANCH   1   9
ATOM      9  C   UNL     1     144.112 134.759 148.956  1.00  0.00    -0.011 C 
ATOM     10  C   UNL     1     143.373 133.521 149.502  1.00  0.00     0.008 C 
BRANCH   9  11
ATOM     11  C   UNL     1     145.661 134.446 148.868  1.00  0.00    -0.002 C 
ATOM     12  C   UNL     1     146.240 134.179 147.469  1.00  0.00     0.005 C 
ATOM     13  C   UNL     1     146.653 135.406 149.593  1.00  0.00    -0.026 C 
ATOM     14  C   UNL     1     147.728 134.524 147.547  1.00  0.00     0.005 C 
ATOM     15  C   UNL     1     148.025 134.983 148.984  1.00  0.00    -0.001 C 
ATOM     16  C   UNL     1     146.330 136.889 149.294  1.00  0.00     0.007 C 
ATOM     17  C   UNL     1     146.595 135.150 151.128  1.00  0.00     0.012 C 
ATOM     18  C   UNL     1     149.182 136.030 149.043  1.00  0.00     0.000 C 
ATOM     19  C   UNL     1     147.493 137.848 149.554  1.00  0.00     0.005 C 
ATOM     20  C   UNL     1     148.723 137.471 148.692  1.00  0.00     0.003 C 
ATOM     21  C   UNL     1     149.917 135.979 150.397  1.00  0.00     0.031 C 
ATOM     22  C   UNL     1     149.934 138.495 148.736  1.00  0.00    -0.008 C 
ATOM     23  C   UNL     1     150.931 137.069 150.563  1.00  0.00    -0.027 C 
ATOM     24  C   UNL     1     150.863 138.260 149.935  1.00  0.00    -0.065 C 
ATOM     25  C   UNL     1     149.432 139.976 148.780  1.00  0.00     0.014 C 
ATOM     26  C   UNL     1     150.775 138.301 147.444  1.00  0.00     0.016 C 
ATOM     27  C   UNL     1     151.931 139.294 150.251  1.00  0.00     0.063 C 
ATOM     28  C   UNL     1     150.553 141.011 148.952  1.00  0.00     0.033 C 
ATOM     29  C   UNL     1     151.383 140.738 150.215  1.00  0.00     0.118 C 
BRANCH  29  30
ATOM     30  O   UNL     1     150.641 141.058 151.373  1.00  0.00    -0.393 OA
ATOM     31  H   UNL     1     150.430 140.216 151.860  1.00  0.00     0.210 HD
ENDBRANCH  29  30
ENDBRANCH   9  11
ENDBRANCH   1   9
TORSDOF 7
ENDMDL
MODEL 5
REMARK VINA RESULT:    -6.021      9.263     13.140
REMARK INTER + INTRA:          -9.960
REMARK INTER:                  -8.682
REMARK INTRA:                  -1.278
REMARK UNBOUND:                -1.650
REMARK SMILES CC[C@@H](CC[C@@H](C)[C@H]1CC[C@H]2[C@@H]3CC=C4C[C@H](O)CC[C@]4(C)[C@@H]3CC[C@@]12C)C(C)C
REMARK SMILES IDX 5 1 4 2 3 3 2 4 1 5 28 6 29 7 30 8 6 9 7 10 8 11 9 12 26 13
REMARK SMILES IDX 10 14 11 15 25 16 27 17 12 18 24 19 23 20 13 21 21 22 14 23
REMARK SMILES IDX 15 24 20 25 22 26 16 27 19 28 17 29 18 30
REMARK H PARENT 18 31
REMARK Flexibility Score: inf
ROOT
ATOM      1  C   UNL     1     149.261 139.623 140.431  1.00  0.00     0.004 C 
ENDROOT
BRANCH   1   2
ATOM      2  C   UNL     1     149.592 140.453 139.158  1.00  0.00     0.004 C 
BRANCH   2   3
ATOM      3  C   UNL     1     150.064 139.635 137.907  1.00  0.00    -0.009 C 
BRANCH   3   4
ATOM      4  C   UNL     1     150.440 138.169 138.280  1.00  0.00     0.000 C 
ATOM      5  C   UNL     1     151.926 137.820 138.130  1.00  0.00     0.004 C 
ENDBRANCH   3   4
BRANCH   3   6
ATOM      6  C   UNL     1     151.108 140.372 136.989  1.00  0.00    -0.014 C 
ATOM      7  C   UNL     1     151.706 141.618 137.682  1.00  0.00     0.007 C 
ATOM      8  C   UNL     1     150.493 140.813 135.648  1.00  0.00     0.007 C 
ENDBRANCH   3   6
ENDBRANCH   2   3
ENDBRANCH   1   2
BRANCH   1   9
ATOM      9  C   UNL     1     150.159 139.975 141.675  1.00  0.00    -0.011 C 
ATOM     10  C   UNL     1     151.222 141.013 141.261  1.00  0.00     0.008 C 
BRANCH   9  11
ATOM     11  C   UNL     1     149.430 140.471 142.989  1.00  0.00    -0.002 C 
ATOM     12  C   UNL     1     147.919 140.738 142.890  1.00  0.00     0.005 C 
ATOM     13  C   UNL     1     149.663 139.676 144.310  1.00  0.00    -0.026 C 
ATOM     14  C   UNL     1     147.362 140.582 144.306  1.00  0.00     0.005 C 
ATOM     15  C   UNL     1     148.537 140.232 145.233  1.00  0.00    -0.001 C 
ATOM     16  C   UNL     1     149.517 138.152 144.089  1.00  0.00     0.007 C 
ATOM     17  C   UNL     1     151.083 139.997 144.865  1.00  0.00     0.012 C 
ATOM     18  C   UNL     1     148.097 139.339 146.435  1.00  0.00     0.000 C 
ATOM     19  C   UNL     1     149.257 137.355 145.369  1.00  0.00     0.005 C 
ATOM     20  C   UNL     1     147.960 137.837 146.065  1.00  0.00     0.003 C 
ATOM     21  C   UNL     1     149.016 139.545 147.655  1.00  0.00     0.031 C 
ATOM     22  C   UNL     1     147.483 136.972 147.306  1.00  0.00    -0.008 C 
ATOM     23  C   UNL     1     148.732 138.597 148.779  1.00  0.00    -0.027 C 
ATOM     24  C   UNL     1     148.182 137.377 148.612  1.00  0.00    -0.065 C 
ATOM     25  C   UNL     1     147.723 135.445 147.068  1.00  0.00     0.014 C 
ATOM     26  C   UNL     1     145.959 137.205 147.498  1.00  0.00     0.016 C 
ATOM     27  C   UNL     1     148.013 136.497 149.840  1.00  0.00     0.063 C 
ATOM     28  C   UNL     1     147.401 134.564 148.284  1.00  0.00     0.033 C 
ATOM     29  C   UNL     1     148.199 134.997 149.522  1.00  0.00     0.118 C 
BRANCH  29  30
ATOM     30  O   UNL     1     149.560 134.646 149.380  1.00  0.00    -0.393 OA
ATOM     31  H   UNL     1     150.086 135.117 150.081  1.00  0.00     0.210 HD
ENDBRANCH  29  30
ENDBRANCH   9  11
ENDBRANCH   1   9
TORSDOF 7
ENDMDL
MODEL 6
REMARK VINA RESULT:    -5.935      4.454      7.550
REMARK INTER + INTRA:          -9.841
REMARK INTER:                  -9.011
REMARK INTRA:                  -0.831
REMARK UNBOUND:                -1.650
REMARK SMILES CC[C@@H](CC[C@@H](C)[C@H]1CC[C@H]2[C@@H]3CC=C4C[C@H](O)CC[C@]4(C)[C@@H]3CC[C@@]12C)C(C)C
REMARK SMILES IDX 5 1 4 2 3 3 2 4 1 5 28 6 29 7 30 8 6 9 7 10 8 11 9 12 26 13
REMARK SMILES IDX 10 14 11 15 25 16 27 17 12 18 24 19 23 20 13 21 21 22 14 23
REMARK SMILES IDX 15 24 20 25 22 26 16 27 19 28 17 29 18 30
REMARK H PARENT 18 31
REMARK Flexibility Score: inf
ROOT
ATOM      1  C   UNL     1     140.585 140.932 144.180  1.00  0.00     0.004 C 
ENDROOT
BRANCH   1   2
ATOM      2  C   UNL     1     140.248 142.147 145.091  1.00  0.00     0.004 C 
BRANCH   2   3
ATOM      3  C   UNL     1     138.898 142.061 145.882  1.00  0.00    -0.009 C 
BRANCH   3   4
ATOM      4  C   UNL     1     137.767 142.883 145.190  1.00  0.00     0.000 C 
ATOM      5  C   UNL     1     137.676 142.710 143.669  1.00  0.00     0.004 C 
ENDBRANCH   3   4
BRANCH   3   6
ATOM      6  C   UNL     1     139.023 142.288 147.435  1.00  0.00    -0.014 C 
ATOM      7  C   UNL     1     139.347 140.974 148.183  1.00  0.00     0.007 C 
ATOM      8  C   UNL     1     137.740 142.884 148.039  1.00  0.00     0.007 C 
ENDBRANCH   3   6
ENDBRANCH   2   3
ENDBRANCH   1   2
BRANCH   1   9
ATOM      9  C   UNL     1     140.138 139.545 144.773  1.00  0.00    -0.011 C 
ATOM     10  C   UNL     1     138.803 139.119 144.128  1.00  0.00     0.008 C 
BRANCH   9  11
ATOM     11  C   UNL     1     141.165 138.344 144.686  1.00  0.00    -0.002 C 
ATOM     12  C   UNL     1     141.471 137.788 143.286  1.00  0.00     0.005 C 
ATOM     13  C   UNL     1     142.531 138.484 145.425  1.00  0.00    -0.026 C 
ATOM     14  C   UNL     1     142.854 137.143 143.372  1.00  0.00     0.005 C 
ATOM     15  C   UNL     1     143.358 137.311 144.815  1.00  0.00    -0.001 C 
ATOM     16  C   UNL     1     143.193 139.854 145.143  1.00  0.00     0.007 C 
ATOM     17  C   UNL     1     142.313 138.307 146.957  1.00  0.00     0.012 C 
ATOM     18  C   UNL     1     144.913 137.423 144.890  1.00  0.00     0.000 C 
ATOM     19  C   UNL     1     144.697 139.892 145.418  1.00  0.00     0.005 C 
ATOM     20  C   UNL     1     145.442 138.843 144.555  1.00  0.00     0.003 C 
ATOM     21  C   UNL     1     145.448 136.919 146.245  1.00  0.00     0.031 C 
ATOM     22  C   UNL     1     147.027 138.904 144.614  1.00  0.00    -0.008 C 
ATOM     23  C   UNL     1     146.916 137.152 146.427  1.00  0.00    -0.027 C 
ATOM     24  C   UNL     1     147.602 138.137 145.813  1.00  0.00    -0.065 C 
ATOM     25  C   UNL     1     147.543 140.379 144.675  1.00  0.00     0.014 C 
ATOM     26  C   UNL     1     147.583 138.242 143.323  1.00  0.00     0.016 C 
ATOM     27  C   UNL     1     149.077 138.292 146.145  1.00  0.00     0.063 C 
ATOM     28  C   UNL     1     149.062 140.502 144.863  1.00  0.00     0.033 C 
ATOM     29  C   UNL     1     149.536 139.767 146.124  1.00  0.00     0.118 C 
BRANCH  29  30
ATOM     30  O   UNL     1     149.136 140.467 147.284  1.00  0.00    -0.393 OA
ATOM     31  H   UNL     1     149.403 141.421 147.190  1.00  0.00     0.210 HD
ENDBRANCH  29  30
ENDBRANCH   9  11
ENDBRANCH   1   9
TORSDOF 7
ENDMDL
MODEL 7
REMARK VINA RESULT:    -5.932      8.844     12.267
REMARK INTER + INTRA:          -9.836
REMARK INTER:                  -8.385
REMARK INTRA:                  -1.451
REMARK UNBOUND:                -1.650
REMARK SMILES CC[C@@H](CC[C@@H](C)[C@H]1CC[C@H]2[C@@H]3CC=C4C[C@H](O)CC[C@]4(C)[C@@H]3CC[C@@]12C)C(C)C
REMARK SMILES IDX 5 1 4 2 3 3 2 4 1 5 28 6 29 7 30 8 6 9 7 10 8 11 9 12 26 13
REMARK SMILES IDX 10 14 11 15 25 16 27 17 12 18 24 19 23 20 13 21 21 22 14 23
REMARK SMILES IDX 15 24 20 25 22 26 16 27 19 28 17 29 18 30
REMARK H PARENT 18 31
REMARK Flexibility Score: inf
ROOT
ATOM      1  C   UNL     1     148.822 139.843 140.642  1.00  0.00     0.004 C 
ENDROOT
BRANCH   1   2
ATOM      2  C   UNL     1     148.488 141.080 139.761  1.00  0.00     0.004 C 
BRANCH   2   3
ATOM      3  C   UNL     1     146.976 141.488 139.691  1.00  0.00    -0.009 C 
BRANCH   3   4
ATOM      4  C   UNL     1     146.432 141.446 138.230  1.00  0.00     0.000 C 
ATOM      5  C   UNL     1     147.502 141.305 137.141  1.00  0.00     0.004 C 
ENDBRANCH   3   4
BRANCH   3   6
ATOM      6  C   UNL     1     146.601 142.785 140.499  1.00  0.00    -0.014 C 
ATOM      7  C   UNL     1     145.571 143.656 139.743  1.00  0.00     0.007 C 
ATOM      8  C   UNL     1     147.834 143.654 140.807  1.00  0.00     0.007 C 
ENDBRANCH   3   6
ENDBRANCH   2   3
ENDBRANCH   1   2
BRANCH   1   9
ATOM      9  C   UNL     1     149.805 140.151 141.832  1.00  0.00    -0.011 C 
ATOM     10  C   UNL     1     150.821 141.223 141.390  1.00  0.00     0.008 C 
BRANCH   9  11
ATOM     11  C   UNL     1     149.169 140.575 143.218  1.00  0.00    -0.002 C 
ATOM     12  C   UNL     1     147.652 140.820 143.243  1.00  0.00     0.005 C 
ATOM     13  C   UNL     1     149.511 139.725 144.480  1.00  0.00    -0.026 C 
ATOM     14  C   UNL     1     147.203 140.592 144.687  1.00  0.00     0.005 C 
ATOM     15  C   UNL     1     148.449 140.221 145.508  1.00  0.00    -0.001 C 
ATOM     16  C   UNL     1     149.369 138.210 144.200  1.00  0.00     0.007 C 
ATOM     17  C   UNL     1     150.963 140.045 144.943  1.00  0.00     0.012 C 
ATOM     18  C   UNL     1     148.112 139.267 146.698  1.00  0.00     0.000 C 
ATOM     19  C   UNL     1     149.216 137.353 145.458  1.00  0.00     0.005 C 
ATOM     20  C   UNL     1     147.969 137.781 146.269  1.00  0.00     0.003 C 
ATOM     21  C   UNL     1     149.116 139.434 147.855  1.00  0.00     0.031 C 
ATOM     22  C   UNL     1     147.597 136.853 147.501  1.00  0.00    -0.008 C 
ATOM     23  C   UNL     1     148.930 138.431 148.951  1.00  0.00    -0.027 C 
ATOM     24  C   UNL     1     148.386 137.211 148.769  1.00  0.00    -0.065 C 
ATOM     25  C   UNL     1     147.840 135.342 147.176  1.00  0.00     0.014 C 
ATOM     26  C   UNL     1     146.088 137.051 147.815  1.00  0.00     0.016 C 
ATOM     27  C   UNL     1     148.320 136.274 149.964  1.00  0.00     0.063 C 
ATOM     28  C   UNL     1     147.620 134.403 148.371  1.00  0.00     0.033 C 
ATOM     29  C   UNL     1     148.503 134.793 149.565  1.00  0.00     0.118 C 
BRANCH  29  30
ATOM     30  O   UNL     1     149.854 134.472 149.307  1.00  0.00    -0.393 OA
ATOM     31  H   UNL     1     150.265 134.125 150.144  1.00  0.00     0.210 HD
ENDBRANCH  29  30
ENDBRANCH   9  11
ENDBRANCH   1   9
TORSDOF 7
ENDMDL
MODEL 8
REMARK VINA RESULT:    -5.779      6.317      9.355
REMARK INTER + INTRA:          -9.625
REMARK INTER:                  -8.508
REMARK INTRA:                  -1.117
REMARK UNBOUND:                -1.650
REMARK SMILES CC[C@@H](CC[C@@H](C)[C@H]1CC[C@H]2[C@@H]3CC=C4C[C@H](O)CC[C@]4(C)[C@@H]3CC[C@@]12C)C(C)C
REMARK SMILES IDX 5 1 4 2 3 3 2 4 1 5 28 6 29 7 30 8 6 9 7 10 8 11 9 12 26 13
REMARK SMILES IDX 10 14 11 15 25 16 27 17 12 18 24 19 23 20 13 21 21 22 14 23
REMARK SMILES IDX 15 24 20 25 22 26 16 27 19 28 17 29 18 30
REMARK H PARENT 18 31
REMARK Flexibility Score: inf
ROOT
ATOM      1  C   UNL     1     139.173 142.208 143.927  1.00  0.00     0.004 C 
ENDROOT
BRANCH   1   2
ATOM      2  C   UNL     1     138.869 141.225 145.093  1.00  0.00     0.004 C 
BRANCH   2   3
ATOM      3  C   UNL     1     139.360 141.668 146.513  1.00  0.00    -0.009 C 
BRANCH   3   4
ATOM      4  C   UNL     1     139.306 140.494 147.538  1.00  0.00     0.000 C 
ATOM      5  C   UNL     1     139.010 139.116 146.933  1.00  0.00     0.004 C 
ENDBRANCH   3   4
BRANCH   3   6
ATOM      6  C   UNL     1     138.754 143.025 147.031  1.00  0.00    -0.014 C 
ATOM      7  C   UNL     1     139.730 143.770 147.970  1.00  0.00     0.007 C 
ATOM      8  C   UNL     1     137.426 142.819 147.781  1.00  0.00     0.007 C 
ENDBRANCH   3   6
ENDBRANCH   2   3
ENDBRANCH   1   2
BRANCH   1   9
ATOM      9  C   UNL     1     138.147 142.126 142.737  1.00  0.00    -0.011 C 
ATOM     10  C   UNL     1     137.882 140.646 142.391  1.00  0.00     0.008 C 
BRANCH   9  11
ATOM     11  C   UNL     1     136.764 142.876 142.907  1.00  0.00    -0.002 C 
ATOM     12  C   UNL     1     136.601 143.764 144.151  1.00  0.00     0.005 C 
ATOM     13  C   UNL     1     136.209 143.688 141.697  1.00  0.00    -0.026 C 
ATOM     14  C   UNL     1     135.541 144.808 143.799  1.00  0.00     0.005 C 
ATOM     15  C   UNL     1     135.078 144.534 142.358  1.00  0.00    -0.001 C 
ATOM     16  C   UNL     1     137.298 144.587 141.067  1.00  0.00     0.007 C 
ATOM     17  C   UNL     1     135.648 142.705 140.626  1.00  0.00     0.012 C 
ATOM     18  C   UNL     1     134.640 145.837 141.619  1.00  0.00     0.000 C 
ATOM     19  C   UNL     1     136.749 145.736 140.219  1.00  0.00     0.005 C 
ATOM     20  C   UNL     1     135.836 146.657 141.064  1.00  0.00     0.003 C 
ATOM     21  C   UNL     1     133.595 145.540 140.526  1.00  0.00     0.031 C 
ATOM     22  C   UNL     1     135.348 147.986 140.347  1.00  0.00    -0.008 C 
ATOM     23  C   UNL     1     133.261 146.732 139.684  1.00  0.00    -0.027 C 
ATOM     24  C   UNL     1     134.103 147.765 139.477  1.00  0.00    -0.065 C 
ATOM     25  C   UNL     1     136.474 148.604 139.454  1.00  0.00     0.014 C 
ATOM     26  C   UNL     1     134.974 149.018 141.448  1.00  0.00     0.016 C 
ATOM     27  C   UNL     1     133.650 148.877 138.545  1.00  0.00     0.063 C 
ATOM     28  C   UNL     1     136.023 149.821 138.634  1.00  0.00     0.033 C 
ATOM     29  C   UNL     1     134.820 149.486 137.741  1.00  0.00     0.118 C 
BRANCH  29  30
ATOM     30  O   UNL     1     135.217 148.660 136.666  1.00  0.00    -0.393 OA
ATOM     31  H   UNL     1     135.977 149.095 136.192  1.00  0.00     0.210 HD
ENDBRANCH  29  30
ENDBRANCH   9  11
ENDBRANCH   1   9
TORSDOF 7
ENDMDL
MODEL 9
REMARK VINA RESULT:    -5.740      5.910      8.877
REMARK INTER + INTRA:          -9.572
REMARK INTER:                  -7.274
REMARK INTRA:                  -2.298
REMARK UNBOUND:                -1.650
REMARK SMILES CC[C@@H](CC[C@@H](C)[C@H]1CC[C@H]2[C@@H]3CC=C4C[C@H](O)CC[C@]4(C)[C@@H]3CC[C@@]12C)C(C)C
REMARK SMILES IDX 5 1 4 2 3 3 2 4 1 5 28 6 29 7 30 8 6 9 7 10 8 11 9 12 26 13
REMARK SMILES IDX 10 14 11 15 25 16 27 17 12 18 24 19 23 20 13 21 21 22 14 23
REMARK SMILES IDX 15 24 20 25 22 26 16 27 19 28 17 29 18 30
REMARK H PARENT 18 31
REMARK Flexibility Score: inf
ROOT
ATOM      1  C   UNL     1     146.812 134.263 150.330  1.00  0.00     0.004 C 
ENDROOT
BRANCH   1   2
ATOM      2  C   UNL     1     147.645 134.518 149.042  1.00  0.00     0.004 C 
BRANCH   2   3
ATOM      3  C   UNL     1     148.483 135.842 149.015  1.00  0.00    -0.009 C 
BRANCH   3   4
ATOM      4  C   UNL     1     149.031 136.210 150.427  1.00  0.00     0.000 C 
ATOM      5  C   UNL     1     150.417 135.641 150.756  1.00  0.00     0.004 C 
ENDBRANCH   3   4
BRANCH   3   6
ATOM      6  C   UNL     1     147.815 137.033 148.233  1.00  0.00    -0.014 C 
ATOM      7  C   UNL     1     148.119 136.971 146.719  1.00  0.00     0.007 C 
ATOM      8  C   UNL     1     148.276 138.404 148.762  1.00  0.00     0.007 C 
ENDBRANCH   3   6
ENDBRANCH   2   3
ENDBRANCH   1   2
BRANCH   1   9
ATOM      9  C   UNL     1     145.274 134.055 150.066  1.00  0.00    -0.011 C 
ATOM     10  C   UNL     1     144.663 133.236 151.221  1.00  0.00     0.008 C 
BRANCH   9  11
ATOM     11  C   UNL     1     144.392 135.345 149.818  1.00  0.00    -0.002 C 
ATOM     12  C   UNL     1     144.990 136.693 150.251  1.00  0.00     0.005 C 
ATOM     13  C   UNL     1     143.775 135.559 148.402  1.00  0.00    -0.026 C 
ATOM     14  C   UNL     1     144.311 137.761 149.392  1.00  0.00     0.005 C 
ATOM     15  C   UNL     1     143.315 137.047 148.463  1.00  0.00    -0.001 C 
ATOM     16  C   UNL     1     144.821 135.332 147.285  1.00  0.00     0.007 C 
ATOM     17  C   UNL     1     142.573 134.587 148.208  1.00  0.00     0.012 C 
ATOM     18  C   UNL     1     143.135 137.793 147.103  1.00  0.00     0.000 C 
ATOM     19  C   UNL     1     144.453 135.966 145.943  1.00  0.00     0.005 C 
ATOM     20  C   UNL     1     144.272 137.497 146.088  1.00  0.00     0.003 C 
ATOM     21  C   UNL     1     141.743 137.527 146.496  1.00  0.00     0.031 C 
ATOM     22  C   UNL     1     144.065 138.297 144.733  1.00  0.00    -0.008 C 
ATOM     23  C   UNL     1     141.580 138.090 145.119  1.00  0.00    -0.027 C 
ATOM     24  C   UNL     1     142.603 138.297 144.265  1.00  0.00    -0.065 C 
ATOM     25  C   UNL     1     144.954 137.718 143.583  1.00  0.00     0.014 C 
ATOM     26  C   UNL     1     144.481 139.774 144.978  1.00  0.00     0.016 C 
ATOM     27  C   UNL     1     142.277 138.815 142.874  1.00  0.00     0.063 C 
ATOM     28  C   UNL     1     144.704 138.367 142.214  1.00  0.00     0.033 C 
ATOM     29  C   UNL     1     143.232 138.255 141.796  1.00  0.00     0.118 C 
BRANCH  29  30
ATOM     30  O   UNL     1     142.917 136.924 141.444  1.00  0.00    -0.393 OA
ATOM     31  H   UNL     1     143.135 136.330 142.211  1.00  0.00     0.210 HD
ENDBRANCH  29  30
ENDBRANCH   9  11
ENDBRANCH   1   9
TORSDOF 7
ENDMDL
