MODEL 1
REMARK VINA RESULT:    -5.726      0.000      0.000
REMARK INTER + INTRA:          -6.228
REMARK INTER:                  -6.228
REMARK INTRA:                   0.000
REMARK UNBOUND:                 0.000
REMARK SMILES Oc1cccc(O)c1O
REMARK SMILES IDX 4 1 5 2 6 3 8 4 2 5 3 6 7 7 1 9 9 11
REMARK H PARENT 7 8 1 10 9 12
REMARK Flexibility Score: inf
ROOT
ATOM      1  C   UNL     1      12.662   8.235  28.552  1.00  0.00     0.008 A 
ATOM      2  C   UNL     1      11.419   7.891  28.015  1.00  0.00     0.050 A 
ATOM      3  C   UNL     1      10.241   8.368  28.602  1.00  0.00     0.161 A 
ATOM      4  C   UNL     1      10.308   9.198  29.736  1.00  0.00     0.200 A 
ATOM      5  C   UNL     1      11.562   9.542  30.275  1.00  0.00     0.161 A 
ATOM      6  C   UNL     1      12.735   9.058  29.678  1.00  0.00     0.050 A 
ENDROOT
BRANCH   3   7
ATOM      7  O   UNL     1       9.015   8.007  28.044  1.00  0.00    -0.504 OA
ATOM      8  H   UNL     1       8.137   8.166  28.523  1.00  0.00     0.293 HD
ENDBRANCH   3   7
BRANCH   5   9
ATOM      9  O   UNL     1      11.638  10.364  31.398  1.00  0.00    -0.504 OA
ATOM     10  H   UNL     1      12.498  10.464  31.927  1.00  0.00     0.293 HD
ENDBRANCH   5   9
BRANCH   4  11
ATOM     11  O   UNL     1       9.130   9.669  30.316  1.00  0.00    -0.502 OA
ATOM     12  H   UNL     1       8.942  10.658  30.427  1.00  0.00     0.293 HD
ENDBRANCH   4  11
TORSDOF 3
ENDMDL
MODEL 2
REMARK VINA RESULT:    -5.721      0.041      2.808
REMARK INTER + INTRA:          -6.222
REMARK INTER:                  -6.222
REMARK INTRA:                   0.000
REMARK UNBOUND:                 0.000
REMARK SMILES Oc1cccc(O)c1O
REMARK SMILES IDX 4 1 5 2 6 3 8 4 2 5 3 6 7 7 1 9 9 11
REMARK H PARENT 7 8 1 10 9 12
REMARK Flexibility Score: inf
ROOT
ATOM      1  C   UNL     1      12.679   8.236  28.557  1.00  0.00     0.008 A 
ATOM      2  C   UNL     1      12.735   9.055  29.687  1.00  0.00     0.050 A 
ATOM      3  C   UNL     1      11.557   9.548  30.260  1.00  0.00     0.161 A 
ATOM      4  C   UNL     1      10.311   9.217  29.697  1.00  0.00     0.200 A 
ATOM      5  C   UNL     1      10.257   8.391  28.559  1.00  0.00     0.161 A 
ATOM      6  C   UNL     1      11.445   7.904  27.994  1.00  0.00     0.050 A 
ENDROOT
BRANCH   3   7
ATOM      7  O   UNL     1      11.645  10.364  31.388  1.00  0.00    -0.504 OA
ATOM      8  H   UNL     1      11.496  11.365  31.341  1.00  0.00     0.293 HD
ENDBRANCH   3   7
BRANCH   5   9
ATOM      9  O   UNL     1       9.027   8.057  27.994  1.00  0.00    -0.504 OA
ATOM     10  H   UNL     1       8.154   8.235  28.479  1.00  0.00     0.293 HD
ENDBRANCH   5   9
BRANCH   4  11
ATOM     11  O   UNL     1       9.140   9.711  30.273  1.00  0.00    -0.502 OA
ATOM     12  H   UNL     1       8.855   9.464  31.213  1.00  0.00     0.293 HD
ENDBRANCH   4  11
TORSDOF 3
ENDMDL
MODEL 3
REMARK VINA RESULT:    -5.491      1.078      2.111
REMARK INTER + INTRA:          -5.973
REMARK INTER:                  -5.973
REMARK INTRA:                   0.000
REMARK UNBOUND:                 0.000
REMARK SMILES Oc1cccc(O)c1O
REMARK SMILES IDX 4 1 5 2 6 3 8 4 2 5 3 6 7 7 1 9 9 11
REMARK H PARENT 7 8 1 10 9 12
REMARK Flexibility Score: inf
ROOT
ATOM      1  C   UNL     1      12.570   9.624  29.929  1.00  0.00     0.008 A 
ATOM      2  C   UNL     1      12.677   8.709  28.880  1.00  0.00     0.050 A 
ATOM      3  C   UNL     1      11.526   8.165  28.299  1.00  0.00     0.161 A 
ATOM      4  C   UNL     1      10.255   8.541  28.773  1.00  0.00     0.200 A 
ATOM      5  C   UNL     1      10.151   9.464  29.830  1.00  0.00     0.161 A 
ATOM      6  C   UNL     1      11.312  10.002  30.404  1.00  0.00     0.050 A 
ENDROOT
BRANCH   3   7
ATOM      7  O   UNL     1      11.664   7.252  27.253  1.00  0.00    -0.504 OA
ATOM      8  H   UNL     1      11.000   6.502  27.102  1.00  0.00     0.293 HD
ENDBRANCH   3   7
BRANCH   5   9
ATOM      9  O   UNL     1       8.897   9.844  30.306  1.00  0.00    -0.504 OA
ATOM     10  H   UNL     1       8.109   9.206  30.296  1.00  0.00     0.293 HD
ENDBRANCH   5   9
BRANCH   4  11
ATOM     11  O   UNL     1       9.112   7.995  28.190  1.00  0.00    -0.502 OA
ATOM     12  H   UNL     1       8.184   8.162  28.562  1.00  0.00     0.293 HD
ENDBRANCH   4  11
TORSDOF 3
ENDMDL
MODEL 4
REMARK VINA RESULT:    -5.487      1.084      2.738
REMARK INTER + INTRA:          -5.968
REMARK INTER:                  -5.968
REMARK INTRA:                   0.000
REMARK UNBOUND:                 0.000
REMARK SMILES Oc1cccc(O)c1O
REMARK SMILES IDX 4 1 5 2 6 3 8 4 2 5 3 6 7 7 1 9 9 11
REMARK H PARENT 7 8 1 10 9 12
REMARK Flexibility Score: inf
ROOT
ATOM      1  C   UNL     1      12.563   9.645  29.911  1.00  0.00     0.008 A 
ATOM      2  C   UNL     1      11.298  10.027  30.363  1.00  0.00     0.050 A 
ATOM      3  C   UNL     1      10.147   9.484  29.780  1.00  0.00     0.161 A 
ATOM      4  C   UNL     1      10.264   8.548  28.736  1.00  0.00     0.200 A 
ATOM      5  C   UNL     1      11.540   8.165  28.283  1.00  0.00     0.161 A 
ATOM      6  C   UNL     1      12.685   8.717  28.875  1.00  0.00     0.050 A 
ENDROOT
BRANCH   3   7
ATOM      7  O   UNL     1       8.897   9.886  30.252  1.00  0.00    -0.504 OA
ATOM      8  H   UNL     1       8.054   9.360  30.058  1.00  0.00     0.293 HD
ENDBRANCH   3   7
BRANCH   5   9
ATOM      9  O   UNL     1      11.666   7.238  27.249  1.00  0.00    -0.504 OA
ATOM     10  H   UNL     1      11.885   6.265  27.432  1.00  0.00     0.293 HD
ENDBRANCH   5   9
BRANCH   4  11
ATOM     11  O   UNL     1       9.113   8.011  28.159  1.00  0.00    -0.502 OA
ATOM     12  H   UNL     1       8.184   8.245  28.487  1.00  0.00     0.293 HD
ENDBRANCH   4  11
TORSDOF 3
ENDMDL
MODEL 5
REMARK VINA RESULT:    -5.249      1.814      3.608
REMARK INTER + INTRA:          -5.709
REMARK INTER:                  -5.709
REMARK INTRA:                   0.000
REMARK UNBOUND:                 0.000
REMARK SMILES Oc1cccc(O)c1O
REMARK SMILES IDX 4 1 5 2 6 3 8 4 2 5 3 6 7 7 1 9 9 11
REMARK H PARENT 7 8 1 10 9 12
REMARK Flexibility Score: inf
ROOT
ATOM      1  C   UNL     1      10.314  10.882  29.338  1.00  0.00     0.008 A 
ATOM      2  C   UNL     1      11.661  10.513  29.352  1.00  0.00     0.050 A 
ATOM      3  C   UNL     1      12.059   9.277  28.828  1.00  0.00     0.161 A 
ATOM      4  C   UNL     1      11.100   8.403  28.285  1.00  0.00     0.200 A 
ATOM      5  C   UNL     1       9.743   8.779  28.272  1.00  0.00     0.161 A 
ATOM      6  C   UNL     1       9.357  10.019  28.800  1.00  0.00     0.050 A 
ENDROOT
BRANCH   3   7
ATOM      7  O   UNL     1      13.411   8.936  28.857  1.00  0.00    -0.504 OA
ATOM      8  H   UNL     1      13.738   8.009  28.612  1.00  0.00     0.293 HD
ENDBRANCH   3   7
BRANCH   5   9
ATOM      9  O   UNL     1       8.785   7.920  27.735  1.00  0.00    -0.504 OA
ATOM     10  H   UNL     1       8.389   8.074  26.815  1.00  0.00     0.293 HD
ENDBRANCH   5   9
BRANCH   4  11
ATOM     11  O   UNL     1      11.502   7.173  27.765  1.00  0.00    -0.502 OA
ATOM     12  H   UNL     1      11.572   6.341  28.338  1.00  0.00     0.293 HD
ENDBRANCH   4  11
TORSDOF 3
ENDMDL
MODEL 6
REMARK VINA RESULT:    -5.249      1.171      2.160
REMARK INTER + INTRA:          -5.709
REMARK INTER:                  -5.709
REMARK INTRA:                   0.000
REMARK UNBOUND:                 0.000
REMARK SMILES Oc1cccc(O)c1O
REMARK SMILES IDX 4 1 5 2 6 3 8 4 2 5 3 6 7 7 1 9 9 11
REMARK H PARENT 7 8 1 10 9 12
REMARK Flexibility Score: inf
ROOT
ATOM      1  C   UNL     1      10.758   7.980  27.629  1.00  0.00     0.008 A 
ATOM      2  C   UNL     1       9.731   8.608  28.339  1.00  0.00     0.050 A 
ATOM      3  C   UNL     1       9.992   9.201  29.579  1.00  0.00     0.161 A 
ATOM      4  C   UNL     1      11.293   9.166  30.114  1.00  0.00     0.200 A 
ATOM      5  C   UNL     1      12.325   8.533  29.397  1.00  0.00     0.161 A 
ATOM      6  C   UNL     1      12.051   7.942  28.155  1.00  0.00     0.050 A 
ENDROOT
BRANCH   3   7
ATOM      7  O   UNL     1       8.946   9.819  30.265  1.00  0.00    -0.504 OA
ATOM      8  H   UNL     1       8.370   9.320  30.931  1.00  0.00     0.293 HD
ENDBRANCH   3   7
BRANCH   5   9
ATOM      9  O   UNL     1      13.617   8.494  29.919  1.00  0.00    -0.504 OA
ATOM     10  H   UNL     1      14.361   7.980  29.459  1.00  0.00     0.293 HD
ENDBRANCH   5   9
BRANCH   4  11
ATOM     11  O   UNL     1      11.546   9.758  31.352  1.00  0.00    -0.502 OA
ATOM     12  H   UNL     1      11.338  10.732  31.537  1.00  0.00     0.293 HD
ENDBRANCH   4  11
TORSDOF 3
ENDMDL
MODEL 7
REMARK VINA RESULT:    -5.247      1.822      2.640
REMARK INTER + INTRA:          -5.707
REMARK INTER:                  -5.707
REMARK INTRA:                   0.000
REMARK UNBOUND:                 0.000
REMARK SMILES Oc1cccc(O)c1O
REMARK SMILES IDX 4 1 5 2 6 3 8 4 2 5 3 6 7 7 1 9 9 11
REMARK H PARENT 7 8 1 10 9 12
REMARK Flexibility Score: inf
ROOT
ATOM      1  C   UNL     1      10.356  10.838  29.324  1.00  0.00     0.008 A 
ATOM      2  C   UNL     1       9.398   9.977  28.783  1.00  0.00     0.050 A 
ATOM      3  C   UNL     1       9.782   8.742  28.248  1.00  0.00     0.161 A 
ATOM      4  C   UNL     1      11.137   8.365  28.255  1.00  0.00     0.200 A 
ATOM      5  C   UNL     1      12.100   9.234  28.800  1.00  0.00     0.161 A 
ATOM      6  C   UNL     1      11.703  10.469  29.333  1.00  0.00     0.050 A 
ENDROOT
BRANCH   3   7
ATOM      7  O   UNL     1       8.802   7.904  27.715  1.00  0.00    -0.504 OA
ATOM      8  H   UNL     1       8.751   6.920  27.947  1.00  0.00     0.293 HD
ENDBRANCH   3   7
BRANCH   5   9
ATOM      9  O   UNL     1      13.445   8.869  28.812  1.00  0.00    -0.504 OA
ATOM     10  H   UNL     1      14.002   8.863  27.964  1.00  0.00     0.293 HD
ENDBRANCH   5   9
BRANCH   4  11
ATOM     11  O   UNL     1      11.513   7.133  27.719  1.00  0.00    -0.502 OA
ATOM     12  H   UNL     1      11.708   6.327  28.302  1.00  0.00     0.293 HD
ENDBRANCH   4  11
TORSDOF 3
ENDMDL
MODEL 8
REMARK VINA RESULT:    -5.241      1.148      2.702
REMARK INTER + INTRA:          -5.701
REMARK INTER:                  -5.701
REMARK INTRA:                   0.000
REMARK UNBOUND:                 0.000
REMARK SMILES Oc1cccc(O)c1O
REMARK SMILES IDX 4 1 5 2 6 3 8 4 2 5 3 6 7 7 1 9 9 11
REMARK H PARENT 7 8 1 10 9 12
REMARK Flexibility Score: inf
ROOT
ATOM      1  C   UNL     1      10.743   8.005  27.644  1.00  0.00     0.008 A 
ATOM      2  C   UNL     1      12.029   7.985  28.190  1.00  0.00     0.050 A 
ATOM      3  C   UNL     1      12.282   8.595  29.424  1.00  0.00     0.161 A 
ATOM      4  C   UNL     1      11.237   9.232  30.119  1.00  0.00     0.200 A 
ATOM      5  C   UNL     1       9.943   9.251  29.567  1.00  0.00     0.161 A 
ATOM      6  C   UNL     1       9.703   8.636  28.330  1.00  0.00     0.050 A 
ENDROOT
BRANCH   3   7
ATOM      7  O   UNL     1      13.576   8.559  29.943  1.00  0.00    -0.504 OA
ATOM      8  H   UNL     1      13.964   7.723  30.364  1.00  0.00     0.293 HD
ENDBRANCH   3   7
BRANCH   5   9
ATOM      9  O   UNL     1       8.901   9.879  30.248  1.00  0.00    -0.504 OA
ATOM     10  H   UNL     1       8.954  10.067  31.243  1.00  0.00     0.293 HD
ENDBRANCH   5   9
BRANCH   4  11
ATOM     11  O   UNL     1      11.496   9.839  31.348  1.00  0.00    -0.502 OA
ATOM     12  H   UNL     1      11.665  10.834  31.433  1.00  0.00     0.293 HD
ENDBRANCH   4  11
TORSDOF 3
ENDMDL
MODEL 9
REMARK VINA RESULT:    -4.980      1.983      3.473
REMARK INTER + INTRA:          -5.416
REMARK INTER:                  -5.416
REMARK INTRA:                   0.000
REMARK UNBOUND:                 0.000
REMARK SMILES Oc1cccc(O)c1O
REMARK SMILES IDX 4 1 5 2 6 3 8 4 2 5 3 6 7 7 1 9 9 11
REMARK H PARENT 7 8 1 10 9 12
REMARK Flexibility Score: inf
ROOT
ATOM      1  C   UNL     1       9.499   9.925  28.667  1.00  0.00     0.008 A 
ATOM      2  C   UNL     1       9.734  11.010  29.515  1.00  0.00     0.050 A 
ATOM      3  C   UNL     1      10.926  11.090  30.244  1.00  0.00     0.161 A 
ATOM      4  C   UNL     1      11.892  10.074  30.123  1.00  0.00     0.200 A 
ATOM      5  C   UNL     1      11.653   8.983  29.268  1.00  0.00     0.161 A 
ATOM      6  C   UNL     1      10.455   8.914  28.543  1.00  0.00     0.050 A 
ENDROOT
BRANCH   3   7
ATOM      7  O   UNL     1      11.132  12.184  31.084  1.00  0.00    -0.504 OA
ATOM      8  H   UNL     1      12.048  12.595  31.219  1.00  0.00     0.293 HD
ENDBRANCH   3   7
BRANCH   5   9
ATOM      9  O   UNL     1      12.605   7.972  29.141  1.00  0.00    -0.504 OA
ATOM     10  H   UNL     1      13.558   8.171  28.857  1.00  0.00     0.293 HD
ENDBRANCH   5   9
BRANCH   4  11
ATOM     11  O   UNL     1      13.078  10.159  30.853  1.00  0.00    -0.502 OA
ATOM     12  H   UNL     1      13.124   9.927  31.838  1.00  0.00     0.293 HD
ENDBRANCH   4  11
TORSDOF 3
ENDMDL
