MODEL 1
REMARK VINA RESULT:    -4.184      0.000      0.000
REMARK INTER + INTRA:         -10.110
REMARK INTER:                  -8.098
REMARK INTRA:                  -2.012
REMARK UNBOUND:                -2.012
REMARK SMILES CCCCCCCCCCCCCCCCCC(=O)[O-]
REMARK SMILES IDX 10 1 11 2 12 3 13 4 14 5 15 6 16 7 17 8 18 9 19 10 20 11
REMARK SMILES IDX 9 12 8 13 7 14 6 15 5 16 4 17 3 18 2 19 1 20
REMARK H PARENT
REMARK Flexibility Score: inf
ROOT
ATOM      1  C   UNL     1      37.321  -6.584  13.259  1.00  0.00     0.000 C 
ENDROOT
BRANCH   1   2
ATOM      2  C   UNL     1      35.937  -6.213  13.826  1.00  0.00     0.000 C 
BRANCH   2   3
ATOM      3  C   UNL     1      35.402  -7.253  14.824  1.00  0.00     0.000 C 
BRANCH   3   4
ATOM      4  C   UNL     1      34.082  -7.897  14.366  1.00  0.00     0.000 C 
BRANCH   4   5
ATOM      5  C   UNL     1      34.140  -9.420  14.124  1.00  0.00     0.000 C 
BRANCH   5   6
ATOM      6  C   UNL     1      32.926 -10.210  14.644  1.00  0.00     0.000 C 
BRANCH   6   7
ATOM      7  C   UNL     1      31.758  -9.304  15.061  1.00  0.00     0.006 C 
BRANCH   7   8
ATOM      8  C   UNL     1      31.014  -9.889  16.264  1.00  0.00     0.053 C 
BRANCH   8   9
ATOM      9  C   UNL     1      31.410  -9.180  17.521  1.00  0.00     0.041 C 
ATOM     10  O   UNL     1      30.650  -9.197  18.524  1.00  0.00    -0.550 OA
ATOM     11  O   UNL     1      32.641  -8.542  17.602  1.00  0.00    -0.550 OA
ENDBRANCH   8   9
ENDBRANCH   7   8
ENDBRANCH   6   7
ENDBRANCH   5   6
ENDBRANCH   4   5
ENDBRANCH   3   4
ENDBRANCH   2   3
ENDBRANCH   1   2
BRANCH   1  12
ATOM     12  C   UNL     1      37.415  -7.983  12.616  1.00  0.00     0.000 C 
BRANCH  12  13
ATOM     13  C   UNL     1      36.525  -8.194  11.378  1.00  0.00    -0.000 C 
BRANCH  13  14
ATOM     14  C   UNL     1      36.530  -9.646  10.881  1.00  0.00    -0.000 C 
BRANCH  14  15
ATOM     15  C   UNL     1      37.965 -10.176  10.748  1.00  0.00    -0.000 C 
BRANCH  15  16
ATOM     16  C   UNL     1      38.434 -10.268   9.284  1.00  0.00    -0.000 C 
BRANCH  16  17
ATOM     17  C   UNL     1      39.498  -9.231   8.875  1.00  0.00    -0.000 C 
BRANCH  17  18
ATOM     18  C   UNL     1      40.018  -8.339  10.020  1.00  0.00    -0.000 C 
BRANCH  18  19
ATOM     19  C   UNL     1      40.056  -6.833   9.701  1.00  0.00    -0.003 C 
ATOM     20  C   UNL     1      38.734  -6.310   9.143  1.00  0.00     0.004 C 
ENDBRANCH  18  19
ENDBRANCH  17  18
ENDBRANCH  16  17
ENDBRANCH  15  16
ENDBRANCH  14  15
ENDBRANCH  13  14
ENDBRANCH  12  13
ENDBRANCH   1  12
TORSDOF 16
ENDMDL
MODEL 2
REMARK VINA RESULT:    -4.147      8.480     11.748
REMARK INTER + INTRA:         -10.038
REMARK INTER:                  -8.001
REMARK INTRA:                  -2.037
REMARK UNBOUND:                -2.012
REMARK SMILES CCCCCCCCCCCCCCCCCC(=O)[O-]
REMARK SMILES IDX 10 1 11 2 12 3 13 4 14 5 15 6 16 7 17 8 18 9 19 10 20 11
REMARK SMILES IDX 9 12 8 13 7 14 6 15 5 16 4 17 3 18 2 19 1 20
REMARK H PARENT
REMARK Flexibility Score: inf
ROOT
ATOM      1  C   UNL     1      43.767  -7.913   7.036  1.00  0.00     0.000 C 
ENDROOT
BRANCH   1   2
ATOM      2  C   UNL     1      43.420  -8.534   5.669  1.00  0.00     0.000 C 
BRANCH   2   3
ATOM      3  C   UNL     1      41.926  -8.424   5.325  1.00  0.00     0.000 C 
BRANCH   3   4
ATOM      4  C   UNL     1      41.372  -7.001   5.513  1.00  0.00     0.000 C 
BRANCH   4   5
ATOM      5  C   UNL     1      40.516  -6.467   4.346  1.00  0.00     0.000 C 
BRANCH   5   6
ATOM      6  C   UNL     1      41.152  -6.607   2.951  1.00  0.00     0.000 C 
BRANCH   6   7
ATOM      7  C   UNL     1      41.176  -5.285   2.170  1.00  0.00     0.006 C 
BRANCH   7   8
ATOM      8  C   UNL     1      40.323  -4.222   2.868  1.00  0.00     0.053 C 
BRANCH   8   9
ATOM      9  C   UNL     1      39.994  -3.109   1.923  1.00  0.00     0.041 C 
ATOM     10  O   UNL     1      38.840  -3.019   1.429  1.00  0.00    -0.550 OA
ATOM     11  O   UNL     1      40.947  -2.144   1.626  1.00  0.00    -0.550 OA
ENDBRANCH   8   9
ENDBRANCH   7   8
ENDBRANCH   6   7
ENDBRANCH   5   6
ENDBRANCH   4   5
ENDBRANCH   3   4
ENDBRANCH   2   3
ENDBRANCH   1   2
BRANCH   1  12
ATOM     12  C   UNL     1      44.468  -8.861   8.031  1.00  0.00     0.000 C 
BRANCH  12  13
ATOM     13  C   UNL     1      44.306 -10.361   7.729  1.00  0.00    -0.000 C 
BRANCH  13  14
ATOM     14  C   UNL     1      43.337 -11.062   8.692  1.00  0.00    -0.000 C 
BRANCH  14  15
ATOM     15  C   UNL     1      41.892 -10.968   8.181  1.00  0.00    -0.000 C 
BRANCH  15  16
ATOM     16  C   UNL     1      40.964 -10.215   9.152  1.00  0.00    -0.000 C 
BRANCH  16  17
ATOM     17  C   UNL     1      40.347  -8.919   8.589  1.00  0.00    -0.000 C 
BRANCH  17  18
ATOM     18  C   UNL     1      40.967  -7.612   9.124  1.00  0.00    -0.000 C 
BRANCH  18  19
ATOM     19  C   UNL     1      39.957  -6.611   9.713  1.00  0.00    -0.003 C 
ATOM     20  C   UNL     1      38.677  -6.500   8.888  1.00  0.00     0.004 C 
ENDBRANCH  18  19
ENDBRANCH  17  18
ENDBRANCH  16  17
ENDBRANCH  15  16
ENDBRANCH  14  15
ENDBRANCH  13  14
ENDBRANCH  12  13
ENDBRANCH   1  12
TORSDOF 16
ENDMDL
MODEL 3
REMARK VINA RESULT:    -4.143      4.470      9.107
REMARK INTER + INTRA:         -10.029
REMARK INTER:                  -8.602
REMARK INTRA:                  -1.428
REMARK UNBOUND:                -2.012
REMARK SMILES CCCCCCCCCCCCCCCCCC(=O)[O-]
REMARK SMILES IDX 10 1 11 2 12 3 13 4 14 5 15 6 16 7 17 8 18 9 19 10 20 11
REMARK SMILES IDX 9 12 8 13 7 14 6 15 5 16 4 17 3 18 2 19 1 20
REMARK H PARENT
REMARK Flexibility Score: inf
ROOT
ATOM      1  C   UNL     1      34.639  -7.371  15.613  1.00  0.00     0.000 C 
ENDROOT
BRANCH   1   2
ATOM      2  C   UNL     1      35.770  -6.978  14.644  1.00  0.00     0.000 C 
BRANCH   2   3
ATOM      3  C   UNL     1      35.249  -6.512  13.275  1.00  0.00     0.000 C 
BRANCH   3   4
ATOM      4  C   UNL     1      35.809  -7.342  12.107  1.00  0.00     0.000 C 
BRANCH   4   5
ATOM      5  C   UNL     1      37.348  -7.387  12.007  1.00  0.00     0.000 C 
BRANCH   5   6
ATOM      6  C   UNL     1      37.903  -7.714  10.610  1.00  0.00     0.000 C 
BRANCH   6   7
ATOM      7  C   UNL     1      39.380  -8.134  10.638  1.00  0.00     0.006 C 
BRANCH   7   8
ATOM      8  C   UNL     1      40.282  -6.998  10.150  1.00  0.00     0.053 C 
BRANCH   8   9
ATOM      9  C   UNL     1      40.637  -7.190   8.709  1.00  0.00     0.041 C 
ATOM     10  O   UNL     1      41.720  -7.750   8.393  1.00  0.00    -0.550 OA
ATOM     11  O   UNL     1      39.750  -6.797   7.716  1.00  0.00    -0.550 OA
ENDBRANCH   8   9
ENDBRANCH   7   8
ENDBRANCH   6   7
ENDBRANCH   5   6
ENDBRANCH   4   5
ENDBRANCH   3   4
ENDBRANCH   2   3
ENDBRANCH   1   2
BRANCH   1  12
ATOM     12  C   UNL     1      33.621  -8.387  15.058  1.00  0.00     0.000 C 
BRANCH  12  13
ATOM     13  C   UNL     1      32.146  -8.063  15.356  1.00  0.00    -0.000 C 
BRANCH  13  14
ATOM     14  C   UNL     1      31.173  -9.049  14.694  1.00  0.00    -0.000 C 
BRANCH  14  15
ATOM     15  C   UNL     1      30.703 -10.113  15.696  1.00  0.00    -0.000 C 
BRANCH  15  16
ATOM     16  C   UNL     1      31.080  -9.771  17.149  1.00  0.00    -0.000 C 
BRANCH  16  17
ATOM     17  C   UNL     1      32.074 -10.747  17.811  1.00  0.00    -0.000 C 
BRANCH  17  18
ATOM     18  C   UNL     1      33.309 -10.087  18.455  1.00  0.00    -0.000 C 
BRANCH  18  19
ATOM     19  C   UNL     1      33.105  -8.627  18.898  1.00  0.00    -0.003 C 
ATOM     20  C   UNL     1      34.404  -7.951  19.335  1.00  0.00     0.004 C 
ENDBRANCH  18  19
ENDBRANCH  17  18
ENDBRANCH  16  17
ENDBRANCH  15  16
ENDBRANCH  14  15
ENDBRANCH  13  14
ENDBRANCH  12  13
ENDBRANCH   1  12
TORSDOF 16
ENDMDL
MODEL 4
REMARK VINA RESULT:    -4.131      2.267      4.075
REMARK INTER + INTRA:         -10.007
REMARK INTER:                  -7.493
REMARK INTRA:                  -2.513
REMARK UNBOUND:                -2.012
REMARK SMILES CCCCCCCCCCCCCCCCCC(=O)[O-]
REMARK SMILES IDX 10 1 11 2 12 3 13 4 14 5 15 6 16 7 17 8 18 9 19 10 20 11
REMARK SMILES IDX 9 12 8 13 7 14 6 15 5 16 4 17 3 18 2 19 1 20
REMARK H PARENT
REMARK Flexibility Score: inf
ROOT
ATOM      1  C   UNL     1      33.461  -8.368  14.473  1.00  0.00     0.000 C 
ENDROOT
BRANCH   1   2
ATOM      2  C   UNL     1      32.079  -8.304  15.151  1.00  0.00     0.000 C 
BRANCH   2   3
ATOM      3  C   UNL     1      31.160  -9.468  14.746  1.00  0.00     0.000 C 
BRANCH   3   4
ATOM      4  C   UNL     1      30.656 -10.279  15.952  1.00  0.00     0.000 C 
BRANCH   4   5
ATOM      5  C   UNL     1      31.231  -9.856  17.320  1.00  0.00     0.000 C 
BRANCH   5   6
ATOM      6  C   UNL     1      32.380 -10.734  17.845  1.00  0.00     0.000 C 
BRANCH   6   7
ATOM      7  C   UNL     1      33.502  -9.918  18.504  1.00  0.00     0.006 C 
BRANCH   7   8
ATOM      8  C   UNL     1      33.001  -8.531  18.915  1.00  0.00     0.053 C 
BRANCH   8   9
ATOM      9  C   UNL     1      34.088  -7.514  18.763  1.00  0.00     0.041 C 
ATOM     10  O   UNL     1      34.440  -7.130  17.618  1.00  0.00    -0.550 OA
ATOM     11  O   UNL     1      34.677  -6.952  19.888  1.00  0.00    -0.550 OA
ENDBRANCH   8   9
ENDBRANCH   7   8
ENDBRANCH   6   7
ENDBRANCH   5   6
ENDBRANCH   4   5
ENDBRANCH   3   4
ENDBRANCH   2   3
ENDBRANCH   1   2
BRANCH   1  12
ATOM     12  C   UNL     1      34.366  -9.530  14.931  1.00  0.00     0.000 C 
BRANCH  12  13
ATOM     13  C   UNL     1      34.950 -10.390  13.796  1.00  0.00    -0.000 C 
BRANCH  13  14
ATOM     14  C   UNL     1      36.417 -10.775  14.033  1.00  0.00    -0.000 C 
BRANCH  14  15
ATOM     15  C   UNL     1      37.328 -10.140  12.972  1.00  0.00    -0.000 C 
BRANCH  15  16
ATOM     16  C   UNL     1      36.573  -9.764  11.685  1.00  0.00    -0.000 C 
BRANCH  16  17
ATOM     17  C   UNL     1      36.726  -8.294  11.246  1.00  0.00    -0.000 C 
BRANCH  17  18
ATOM     18  C   UNL     1      36.072  -7.259  12.183  1.00  0.00    -0.000 C 
BRANCH  18  19
ATOM     19  C   UNL     1      37.031  -6.603  13.192  1.00  0.00    -0.003 C 
ATOM     20  C   UNL     1      36.394  -6.380  14.562  1.00  0.00     0.004 C 
ENDBRANCH  18  19
ENDBRANCH  17  18
ENDBRANCH  16  17
ENDBRANCH  15  16
ENDBRANCH  14  15
ENDBRANCH  13  14
ENDBRANCH  12  13
ENDBRANCH   1  12
TORSDOF 16
ENDMDL
MODEL 5
REMARK VINA RESULT:    -4.123     15.881     17.906
REMARK INTER + INTRA:          -9.991
REMARK INTER:                  -8.636
REMARK INTRA:                  -1.355
REMARK UNBOUND:                -2.012
REMARK SMILES CCCCCCCCCCCCCCCCCC(=O)[O-]
REMARK SMILES IDX 10 1 11 2 12 3 13 4 14 5 15 6 16 7 17 8 18 9 19 10 20 11
REMARK SMILES IDX 9 12 8 13 7 14 6 15 5 16 4 17 3 18 2 19 1 20
REMARK H PARENT
REMARK Flexibility Score: inf
ROOT
ATOM      1  C   UNL     1      37.863   6.586  11.226  1.00  0.00     0.000 C 
ENDROOT
BRANCH   1   2
ATOM      2  C   UNL     1      36.554   6.944  11.956  1.00  0.00     0.000 C 
BRANCH   2   3
ATOM      3  C   UNL     1      35.817   8.130  11.312  1.00  0.00     0.000 C 
BRANCH   3   4
ATOM      4  C   UNL     1      36.421   8.546   9.959  1.00  0.00     0.000 C 
BRANCH   4   5
ATOM      5  C   UNL     1      35.502   8.344   8.736  1.00  0.00     0.000 C 
BRANCH   5   6
ATOM      6  C   UNL     1      35.574   6.950   8.088  1.00  0.00     0.000 C 
BRANCH   6   7
ATOM      7  C   UNL     1      36.059   6.994   6.632  1.00  0.00     0.006 C 
BRANCH   7   8
ATOM      8  C   UNL     1      37.465   7.594   6.541  1.00  0.00     0.053 C 
BRANCH   8   9
ATOM      9  C   UNL     1      38.326   6.776   5.630  1.00  0.00     0.041 C 
ATOM     10  O   UNL     1      39.369   7.274   5.130  1.00  0.00    -0.550 OA
ATOM     11  O   UNL     1      38.006   5.450   5.374  1.00  0.00    -0.550 OA
ENDBRANCH   8   9
ENDBRANCH   7   8
ENDBRANCH   6   7
ENDBRANCH   5   6
ENDBRANCH   4   5
ENDBRANCH   3   4
ENDBRANCH   2   3
ENDBRANCH   1   2
BRANCH   1  12
ATOM     12  C   UNL     1      39.153   6.807  12.042  1.00  0.00     0.000 C 
BRANCH  12  13
ATOM     13  C   UNL     1      39.441   8.269  12.427  1.00  0.00    -0.000 C 
BRANCH  13  14
ATOM     14  C   UNL     1      39.682   8.453  13.932  1.00  0.00    -0.000 C 
BRANCH  14  15
ATOM     15  C   UNL     1      39.747   7.095  14.647  1.00  0.00    -0.000 C 
BRANCH  15  16
ATOM     16  C   UNL     1      39.269   7.167  16.108  1.00  0.00    -0.000 C 
BRANCH  16  17
ATOM     17  C   UNL     1      37.742   7.064  16.300  1.00  0.00    -0.000 C 
BRANCH  17  18
ATOM     18  C   UNL     1      37.281   6.012  17.328  1.00  0.00    -0.000 C 
BRANCH  18  19
ATOM     19  C   UNL     1      36.620   6.591  18.592  1.00  0.00    -0.003 C 
ATOM     20  C   UNL     1      37.309   7.856  19.099  1.00  0.00     0.004 C 
ENDBRANCH  18  19
ENDBRANCH  17  18
ENDBRANCH  16  17
ENDBRANCH  15  16
ENDBRANCH  14  15
ENDBRANCH  13  14
ENDBRANCH  12  13
ENDBRANCH   1  12
TORSDOF 16
ENDMDL
MODEL 6
REMARK VINA RESULT:    -4.103      3.973      6.227
REMARK INTER + INTRA:          -9.952
REMARK INTER:                  -9.064
REMARK INTRA:                  -0.889
REMARK UNBOUND:                -2.012
REMARK SMILES CCCCCCCCCCCCCCCCCC(=O)[O-]
REMARK SMILES IDX 10 1 11 2 12 3 13 4 14 5 15 6 16 7 17 8 18 9 19 10 20 11
REMARK SMILES IDX 9 12 8 13 7 14 6 15 5 16 4 17 3 18 2 19 1 20
REMARK H PARENT
REMARK Flexibility Score: inf
ROOT
ATOM      1  C   UNL     1      39.531  -6.345   8.906  1.00  0.00     0.000 C 
ENDROOT
BRANCH   1   2
ATOM      2  C   UNL     1      40.264  -6.942  10.122  1.00  0.00     0.000 C 
BRANCH   2   3
ATOM      3  C   UNL     1      39.509  -8.122  10.755  1.00  0.00     0.000 C 
BRANCH   3   4
ATOM      4  C   UNL     1      38.195  -8.451  10.025  1.00  0.00     0.000 C 
BRANCH   4   5
ATOM      5  C   UNL     1      36.909  -8.223  10.846  1.00  0.00     0.000 C 
BRANCH   5   6
ATOM      6  C   UNL     1      37.124  -8.028  12.357  1.00  0.00     0.000 C 
BRANCH   6   7
ATOM      7  C   UNL     1      36.449  -6.758  12.897  1.00  0.00     0.006 C 
BRANCH   7   8
ATOM      8  C   UNL     1      35.023  -7.054  13.366  1.00  0.00     0.053 C 
BRANCH   8   9
ATOM      9  C   UNL     1      35.004  -7.356  14.831  1.00  0.00     0.041 C 
ATOM     10  O   UNL     1      35.736  -6.705  15.622  1.00  0.00    -0.550 OA
ATOM     11  O   UNL     1      34.141  -8.322  15.331  1.00  0.00    -0.550 OA
ENDBRANCH   8   9
ENDBRANCH   7   8
ENDBRANCH   6   7
ENDBRANCH   5   6
ENDBRANCH   4   5
ENDBRANCH   3   4
ENDBRANCH   2   3
ENDBRANCH   1   2
BRANCH   1  12
ATOM     12  C   UNL     1      39.887  -6.979   7.546  1.00  0.00     0.000 C 
BRANCH  12  13
ATOM     13  C   UNL     1      41.321  -7.525   7.435  1.00  0.00    -0.000 C 
BRANCH  13  14
ATOM     14  C   UNL     1      41.910  -7.373   6.025  1.00  0.00    -0.000 C 
BRANCH  14  15
ATOM     15  C   UNL     1      40.893  -6.725   5.073  1.00  0.00    -0.000 C 
BRANCH  15  16
ATOM     16  C   UNL     1      41.085  -7.160   3.609  1.00  0.00    -0.000 C 
BRANCH  16  17
ATOM     17  C   UNL     1      40.714  -6.094   2.559  1.00  0.00    -0.000 C 
BRANCH  17  18
ATOM     18  C   UNL     1      40.223  -4.750   3.134  1.00  0.00    -0.000 C 
BRANCH  18  19
ATOM     19  C   UNL     1      39.164  -4.030   2.281  1.00  0.00    -0.003 C 
ATOM     20  C   UNL     1      39.082  -2.533   2.573  1.00  0.00     0.004 C 
ENDBRANCH  18  19
ENDBRANCH  17  18
ENDBRANCH  16  17
ENDBRANCH  15  16
ENDBRANCH  14  15
ENDBRANCH  13  14
ENDBRANCH  12  13
ENDBRANCH   1  12
TORSDOF 16
ENDMDL
MODEL 7
REMARK VINA RESULT:    -4.076      5.482      9.626
REMARK INTER + INTRA:          -9.899
REMARK INTER:                  -7.768
REMARK INTRA:                  -2.131
REMARK UNBOUND:                -2.012
REMARK SMILES CCCCCCCCCCCCCCCCCC(=O)[O-]
REMARK SMILES IDX 10 1 11 2 12 3 13 4 14 5 15 6 16 7 17 8 18 9 19 10 20 11
REMARK SMILES IDX 9 12 8 13 7 14 6 15 5 16 4 17 3 18 2 19 1 20
REMARK H PARENT
REMARK Flexibility Score: inf
ROOT
ATOM      1  C   UNL     1      39.030  -7.488  11.198  1.00  0.00     0.000 C 
ENDROOT
BRANCH   1   2
ATOM      2  C   UNL     1      40.166  -7.466  10.158  1.00  0.00     0.000 C 
BRANCH   2   3
ATOM      3  C   UNL     1      39.704  -7.906   8.760  1.00  0.00     0.000 C 
BRANCH   3   4
ATOM      4  C   UNL     1      40.113  -9.350   8.422  1.00  0.00     0.000 C 
BRANCH   4   5
ATOM      5  C   UNL     1      41.436  -9.827   9.057  1.00  0.00     0.000 C 
BRANCH   5   6
ATOM      6  C   UNL     1      42.376 -10.595   8.111  1.00  0.00     0.000 C 
BRANCH   6   7
ATOM      7  C   UNL     1      43.775  -9.967   8.022  1.00  0.00     0.006 C 
BRANCH   7   8
ATOM      8  C   UNL     1      43.683  -8.449   7.847  1.00  0.00     0.053 C 
BRANCH   8   9
ATOM      9  C   UNL     1      43.394  -8.101   6.420  1.00  0.00     0.041 C 
ATOM     10  O   UNL     1      44.140  -8.528   5.501  1.00  0.00    -0.550 OA
ATOM     11  O   UNL     1      42.273  -7.346   6.102  1.00  0.00    -0.550 OA
ENDBRANCH   8   9
ENDBRANCH   7   8
ENDBRANCH   6   7
ENDBRANCH   5   6
ENDBRANCH   4   5
ENDBRANCH   3   4
ENDBRANCH   2   3
ENDBRANCH   1   2
BRANCH   1  12
ATOM     12  C   UNL     1      37.615  -7.705  10.624  1.00  0.00     0.000 C 
BRANCH  12  13
ATOM     13  C   UNL     1      36.978  -9.067  10.954  1.00  0.00    -0.000 C 
BRANCH  13  14
ATOM     14  C   UNL     1      37.812  -9.892  11.944  1.00  0.00    -0.000 C 
BRANCH  14  15
ATOM     15  C   UNL     1      37.175  -9.876  13.342  1.00  0.00    -0.000 C 
BRANCH  15  16
ATOM     16  C   UNL     1      35.670 -10.196  13.316  1.00  0.00    -0.000 C 
BRANCH  16  17
ATOM     17  C   UNL     1      34.777  -9.191  14.071  1.00  0.00    -0.000 C 
BRANCH  17  18
ATOM     18  C   UNL     1      34.980  -7.713  13.683  1.00  0.00    -0.000 C 
BRANCH  18  19
ATOM     19  C   UNL     1      35.821  -6.892  14.676  1.00  0.00    -0.003 C 
ATOM     20  C   UNL     1      36.994  -6.172  14.012  1.00  0.00     0.004 C 
ENDBRANCH  18  19
ENDBRANCH  17  18
ENDBRANCH  16  17
ENDBRANCH  15  16
ENDBRANCH  14  15
ENDBRANCH  13  14
ENDBRANCH  12  13
ENDBRANCH   1  12
TORSDOF 16
ENDMDL
MODEL 8
REMARK VINA RESULT:    -4.056      3.798      6.455
REMARK INTER + INTRA:          -9.862
REMARK INTER:                  -7.917
REMARK INTRA:                  -1.945
REMARK UNBOUND:                -2.012
REMARK SMILES CCCCCCCCCCCCCCCCCC(=O)[O-]
REMARK SMILES IDX 10 1 11 2 12 3 13 4 14 5 15 6 16 7 17 8 18 9 19 10 20 11
REMARK SMILES IDX 9 12 8 13 7 14 6 15 5 16 4 17 3 18 2 19 1 20
REMARK H PARENT
REMARK Flexibility Score: inf
ROOT
ATOM      1  C   UNL     1      40.259  -7.018   7.281  1.00  0.00     0.000 C 
ENDROOT
BRANCH   1   2
ATOM      2  C   UNL     1      39.451  -6.239   8.337  1.00  0.00     0.000 C 
BRANCH   2   3
ATOM      3  C   UNL     1      39.876  -6.568   9.777  1.00  0.00     0.000 C 
BRANCH   3   4
ATOM      4  C   UNL     1      38.805  -7.356  10.551  1.00  0.00     0.000 C 
BRANCH   4   5
ATOM      5  C   UNL     1      39.298  -8.655  11.223  1.00  0.00     0.000 C 
BRANCH   5   6
ATOM      6  C   UNL     1      38.198  -9.515  11.868  1.00  0.00     0.000 C 
BRANCH   6   7
ATOM      7  C   UNL     1      36.880  -8.751  12.062  1.00  0.00     0.006 C 
BRANCH   7   8
ATOM      8  C   UNL     1      36.488  -8.701  13.541  1.00  0.00     0.053 C 
BRANCH   8   9
ATOM      9  C   UNL     1      36.456  -7.287  14.028  1.00  0.00     0.041 C 
ATOM     10  O   UNL     1      37.315  -6.459  13.626  1.00  0.00    -0.550 OA
ATOM     11  O   UNL     1      35.449  -6.870  14.889  1.00  0.00    -0.550 OA
ENDBRANCH   8   9
ENDBRANCH   7   8
ENDBRANCH   6   7
ENDBRANCH   5   6
ENDBRANCH   4   5
ENDBRANCH   3   4
ENDBRANCH   2   3
ENDBRANCH   1   2
BRANCH   1  12
ATOM     12  C   UNL     1      41.477  -7.793   7.824  1.00  0.00     0.000 C 
BRANCH  12  13
ATOM     13  C   UNL     1      41.259  -9.305   8.010  1.00  0.00    -0.000 C 
BRANCH  13  14
ATOM     14  C   UNL     1      42.572 -10.078   8.199  1.00  0.00    -0.000 C 
BRANCH  14  15
ATOM     15  C   UNL     1      43.783  -9.144   8.056  1.00  0.00    -0.000 C 
BRANCH  15  16
ATOM     16  C   UNL     1      44.989  -9.830   7.389  1.00  0.00    -0.000 C 
BRANCH  16  17
ATOM     17  C   UNL     1      44.849 -10.061   5.871  1.00  0.00    -0.000 C 
BRANCH  17  18
ATOM     18  C   UNL     1      44.390  -8.832   5.061  1.00  0.00    -0.000 C 
BRANCH  18  19
ATOM     19  C   UNL     1      42.982  -8.949   4.450  1.00  0.00    -0.003 C 
ATOM     20  C   UNL     1      42.430 -10.373   4.494  1.00  0.00     0.004 C 
ENDBRANCH  18  19
ENDBRANCH  17  18
ENDBRANCH  16  17
ENDBRANCH  15  16
ENDBRANCH  14  15
ENDBRANCH  13  14
ENDBRANCH  12  13
ENDBRANCH   1  12
TORSDOF 16
ENDMDL
MODEL 9
REMARK VINA RESULT:    -4.050      5.939     10.138
REMARK INTER + INTRA:          -9.849
REMARK INTER:                  -8.146
REMARK INTRA:                  -1.703
REMARK UNBOUND:                -2.012
REMARK SMILES CCCCCCCCCCCCCCCCCC(=O)[O-]
REMARK SMILES IDX 10 1 11 2 12 3 13 4 14 5 15 6 16 7 17 8 18 9 19 10 20 11
REMARK SMILES IDX 9 12 8 13 7 14 6 15 5 16 4 17 3 18 2 19 1 20
REMARK H PARENT
REMARK Flexibility Score: inf
ROOT
ATOM      1  C   UNL     1      40.066  -7.042  10.293  1.00  0.00     0.000 C 
ENDROOT
BRANCH   1   2
ATOM      2  C   UNL     1      40.834  -7.414   9.011  1.00  0.00     0.000 C 
BRANCH   2   3
ATOM      3  C   UNL     1      41.006  -8.932   8.837  1.00  0.00     0.000 C 
BRANCH   3   4
ATOM      4  C   UNL     1      42.218  -9.300   7.964  1.00  0.00     0.000 C 
BRANCH   4   5
ATOM      5  C   UNL     1      43.185  -8.139   7.653  1.00  0.00     0.000 C 
BRANCH   5   6
ATOM      6  C   UNL     1      43.192  -7.668   6.188  1.00  0.00     0.000 C 
BRANCH   6   7
ATOM      7  C   UNL     1      41.909  -8.047   5.434  1.00  0.00     0.006 C 
BRANCH   7   8
ATOM      8  C   UNL     1      40.935  -6.868   5.384  1.00  0.00     0.053 C 
BRANCH   8   9
ATOM      9  C   UNL     1      40.910  -6.264   4.015  1.00  0.00     0.041 C 
ATOM     10  O   UNL     1      40.720  -5.028   3.872  1.00  0.00    -0.550 OA
ATOM     11  O   UNL     1      41.147  -7.057   2.900  1.00  0.00    -0.550 OA
ENDBRANCH   8   9
ENDBRANCH   7   8
ENDBRANCH   6   7
ENDBRANCH   5   6
ENDBRANCH   4   5
ENDBRANCH   3   4
ENDBRANCH   2   3
ENDBRANCH   1   2
BRANCH   1  12
ATOM     12  C   UNL     1      38.530  -7.016  10.157  1.00  0.00     0.000 C 
BRANCH  12  13
ATOM     13  C   UNL     1      37.805  -8.262  10.696  1.00  0.00    -0.000 C 
BRANCH  13  14
ATOM     14  C   UNL     1      38.586  -8.970  11.812  1.00  0.00    -0.000 C 
BRANCH  14  15
ATOM     15  C   UNL     1      37.813 -10.193  12.330  1.00  0.00    -0.000 C 
BRANCH  15  16
ATOM     16  C   UNL     1      36.977  -9.881  13.585  1.00  0.00    -0.000 C 
BRANCH  16  17
ATOM     17  C   UNL     1      35.555  -9.356  13.306  1.00  0.00    -0.000 C 
BRANCH  17  18
ATOM     18  C   UNL     1      35.159  -8.089  14.089  1.00  0.00    -0.000 C 
BRANCH  18  19
ATOM     19  C   UNL     1      35.518  -6.762  13.396  1.00  0.00    -0.003 C 
ATOM     20  C   UNL     1      36.901  -6.242  13.784  1.00  0.00     0.004 C 
ENDBRANCH  18  19
ENDBRANCH  17  18
ENDBRANCH  16  17
ENDBRANCH  15  16
ENDBRANCH  14  15
ENDBRANCH  13  14
ENDBRANCH  12  13
ENDBRANCH   1  12
TORSDOF 16
ENDMDL
