MODEL 1
REMARK VINA RESULT:    -3.595      0.000      0.000
REMARK INTER + INTRA:          -4.550
REMARK INTER:                  -4.225
REMARK INTRA:                  -0.325
REMARK UNBOUND:                -0.325
REMARK SMILES [NH3+][C@H](CO)C(=O)[O-]
REMARK SMILES IDX 3 1 2 2 1 3 5 7 6 8 7 9 4 10
REMARK H PARENT 1 4 1 5 1 6 4 11
REMARK Flexibility Score: inf
ROOT
ATOM      1  C   UNL     1      20.292  16.792  23.790  1.00  0.00     0.227 C 
ENDROOT
BRANCH   1   2
ATOM      2  C   UNL     1      19.616  18.120  23.408  1.00  0.00     0.253 C 
BRANCH   2   3
ATOM      3  N   UNL     1      19.976  19.190  24.348  1.00  0.00    -0.348 N 
ATOM      4  H   UNL     1      20.419  18.776  25.200  1.00  0.00     0.345 HD
ATOM      5  H   UNL     1      20.667  19.835  23.900  1.00  0.00     0.345 HD
ATOM      6  H   UNL     1      19.131  19.739  24.633  1.00  0.00     0.345 HD
ENDBRANCH   2   3
BRANCH   2   7
ATOM      7  C   UNL     1      19.959  18.506  21.993  1.00  0.00     0.102 C 
ATOM      8  O   UNL     1      20.823  19.392  21.759  1.00  0.00    -0.544 OA
ATOM      9  O   UNL     1      19.344  17.854  20.930  1.00  0.00    -0.544 OA
ENDBRANCH   2   7
ENDBRANCH   1   2
BRANCH   1  10
ATOM     10  O   UNL     1      21.472  16.605  23.057  1.00  0.00    -0.390 OA
ATOM     11  H   UNL     1      21.197  16.212  22.189  1.00  0.00     0.210 HD
ENDBRANCH   1  10
TORSDOF 4
ENDMDL
MODEL 2
REMARK VINA RESULT:    -3.279      1.689      2.737
REMARK INTER + INTRA:          -4.179
REMARK INTER:                  -3.827
REMARK INTRA:                  -0.353
REMARK UNBOUND:                -0.325
REMARK SMILES [NH3+][C@H](CO)C(=O)[O-]
REMARK SMILES IDX 3 1 2 2 1 3 5 7 6 8 7 9 4 10
REMARK H PARENT 1 4 1 5 1 6 4 11
REMARK Flexibility Score: inf
ROOT
ATOM      1  C   UNL     1      19.465  18.008  21.228  1.00  0.00     0.227 C 
ENDROOT
BRANCH   1   2
ATOM      2  C   UNL     1      20.506  18.160  22.350  1.00  0.00     0.253 C 
BRANCH   2   3
ATOM      3  N   UNL     1      20.759  19.575  22.654  1.00  0.00    -0.348 N 
ATOM      4  H   UNL     1      20.173  20.178  22.032  1.00  0.00     0.345 HD
ATOM      5  H   UNL     1      20.495  19.774  23.647  1.00  0.00     0.345 HD
ATOM      6  H   UNL     1      21.767  19.815  22.513  1.00  0.00     0.345 HD
ENDBRANCH   2   3
BRANCH   2   7
ATOM      7  C   UNL     1      20.075  17.411  23.584  1.00  0.00     0.102 C 
ATOM      8  O   UNL     1      19.353  17.966  24.454  1.00  0.00    -0.544 OA
ATOM      9  O   UNL     1      20.445  16.082  23.750  1.00  0.00    -0.544 OA
ENDBRANCH   2   7
ENDBRANCH   1   2
BRANCH   1  10
ATOM     10  O   UNL     1      18.639  16.899  21.462  1.00  0.00    -0.390 OA
ATOM     11  H   UNL     1      17.777  17.263  21.789  1.00  0.00     0.210 HD
ENDBRANCH   1  10
TORSDOF 4
ENDMDL
MODEL 3
REMARK VINA RESULT:    -3.262      2.078      3.117
REMARK INTER + INTRA:          -4.159
REMARK INTER:                  -3.938
REMARK INTRA:                  -0.221
REMARK UNBOUND:                -0.325
REMARK SMILES [NH3+][C@H](CO)C(=O)[O-]
REMARK SMILES IDX 3 1 2 2 1 3 5 7 6 8 7 9 4 10
REMARK H PARENT 1 4 1 5 1 6 4 11
REMARK Flexibility Score: inf
ROOT
ATOM      1  C   UNL     1      20.752  19.237  21.865  1.00  0.00     0.227 C 
ENDROOT
BRANCH   1   2
ATOM      2  C   UNL     1      19.538  18.333  22.136  1.00  0.00     0.253 C 
BRANCH   2   3
ATOM      3  N   UNL     1      19.351  17.355  21.057  1.00  0.00    -0.348 N 
ATOM      4  H   UNL     1      19.409  16.386  21.446  1.00  0.00     0.345 HD
ATOM      5  H   UNL     1      18.404  17.479  20.629  1.00  0.00     0.345 HD
ATOM      6  H   UNL     1      20.079  17.469  20.315  1.00  0.00     0.345 HD
ENDBRANCH   2   3
BRANCH   2   7
ATOM      7  C   UNL     1      19.671  17.646  23.471  1.00  0.00     0.102 C 
ATOM      8  O   UNL     1      19.925  16.414  23.538  1.00  0.00    -0.544 OA
ATOM      9  O   UNL     1      19.550  18.383  24.643  1.00  0.00    -0.544 OA
ENDBRANCH   2   7
ENDBRANCH   1   2
BRANCH   1  10
ATOM     10  O   UNL     1      21.043  20.029  22.985  1.00  0.00    -0.390 OA
ATOM     11  H   UNL     1      20.173  20.385  23.304  1.00  0.00     0.210 HD
ENDBRANCH   1  10
TORSDOF 4
ENDMDL
MODEL 4
REMARK VINA RESULT:    -3.230      4.353      5.084
REMARK INTER + INTRA:          -4.122
REMARK INTER:                  -3.894
REMARK INTRA:                  -0.228
REMARK UNBOUND:                -0.325
REMARK SMILES [NH3+][C@H](CO)C(=O)[O-]
REMARK SMILES IDX 3 1 2 2 1 3 5 7 6 8 7 9 4 10
REMARK H PARENT 1 4 1 5 1 6 4 11
REMARK Flexibility Score: inf
ROOT
ATOM      1  C   UNL     1      21.174  23.189  23.863  1.00  0.00     0.227 C 
ENDROOT
BRANCH   1   2
ATOM      2  C   UNL     1      22.021  23.053  22.587  1.00  0.00     0.253 C 
BRANCH   2   3
ATOM      3  N   UNL     1      23.368  23.608  22.780  1.00  0.00    -0.348 N 
ATOM      4  H   UNL     1      23.964  22.917  23.291  1.00  0.00     0.345 HD
ATOM      5  H   UNL     1      23.808  23.795  21.849  1.00  0.00     0.345 HD
ATOM      6  H   UNL     1      23.332  24.499  23.327  1.00  0.00     0.345 HD
ENDBRANCH   2   3
BRANCH   2   7
ATOM      7  C   UNL     1      22.088  21.616  22.140  1.00  0.00     0.102 C 
ATOM      8  O   UNL     1      21.044  20.917  22.065  1.00  0.00    -0.544 OA
ATOM      9  O   UNL     1      23.308  21.064  21.768  1.00  0.00    -0.544 OA
ENDBRANCH   2   7
ENDBRANCH   1   2
BRANCH   1  10
ATOM     10  O   UNL     1      21.187  21.995  24.598  1.00  0.00    -0.390 OA
ATOM     11  H   UNL     1      20.711  22.189  25.447  1.00  0.00     0.210 HD
ENDBRANCH   1  10
TORSDOF 4
ENDMDL
MODEL 5
REMARK VINA RESULT:    -3.212      4.600      5.021
REMARK INTER + INTRA:          -4.100
REMARK INTER:                  -3.894
REMARK INTRA:                  -0.206
REMARK UNBOUND:                -0.325
REMARK SMILES [NH3+][C@H](CO)C(=O)[O-]
REMARK SMILES IDX 3 1 2 2 1 3 5 7 6 8 7 9 4 10
REMARK H PARENT 1 4 1 5 1 6 4 11
REMARK Flexibility Score: inf
ROOT
ATOM      1  C   UNL     1      22.778  21.126  21.699  1.00  0.00     0.227 C 
ENDROOT
BRANCH   1   2
ATOM      2  C   UNL     1      21.581  21.545  22.568  1.00  0.00     0.253 C 
BRANCH   2   3
ATOM      3  N   UNL     1      21.474  20.704  23.768  1.00  0.00    -0.348 N 
ATOM      4  H   UNL     1      20.505  20.318  23.841  1.00  0.00     0.345 HD
ATOM      5  H   UNL     1      22.141  19.901  23.696  1.00  0.00     0.345 HD
ATOM      6  H   UNL     1      21.691  21.252  24.632  1.00  0.00     0.345 HD
ENDBRANCH   2   3
BRANCH   2   7
ATOM      7  C   UNL     1      21.672  23.003  22.938  1.00  0.00     0.102 C 
ATOM      8  O   UNL     1      22.064  23.855  22.098  1.00  0.00    -0.544 OA
ATOM      9  O   UNL     1      21.283  23.421  24.205  1.00  0.00    -0.544 OA
ENDBRANCH   2   7
ENDBRANCH   1   2
BRANCH   1  10
ATOM     10  O   UNL     1      23.916  21.880  22.022  1.00  0.00    -0.390 OA
ATOM     11  H   UNL     1      24.180  21.601  22.937  1.00  0.00     0.210 HD
ENDBRANCH   1  10
TORSDOF 4
ENDMDL
MODEL 6
REMARK VINA RESULT:    -3.142     11.295     12.134
REMARK INTER + INTRA:          -4.017
REMARK INTER:                  -3.801
REMARK INTRA:                  -0.216
REMARK UNBOUND:                -0.325
REMARK SMILES [NH3+][C@H](CO)C(=O)[O-]
REMARK SMILES IDX 3 1 2 2 1 3 5 7 6 8 7 9 4 10
REMARK H PARENT 1 4 1 5 1 6 4 11
REMARK Flexibility Score: inf
ROOT
ATOM      1  C   UNL     1      27.191  26.112  22.660  1.00  0.00     0.227 C 
ENDROOT
BRANCH   1   2
ATOM      2  C   UNL     1      28.228  25.762  21.580  1.00  0.00     0.253 C 
BRANCH   2   3
ATOM      3  N   UNL     1      27.832  26.292  20.269  1.00  0.00    -0.348 N 
ATOM      4  H   UNL     1      26.817  26.543  20.283  1.00  0.00     0.345 HD
ATOM      5  H   UNL     1      28.380  27.158  20.058  1.00  0.00     0.345 HD
ATOM      6  H   UNL     1      28.000  25.588  19.513  1.00  0.00     0.345 HD
ENDBRANCH   2   3
BRANCH   2   7
ATOM      7  C   UNL     1      29.596  26.257  21.972  1.00  0.00     0.102 C 
ATOM      8  O   UNL     1      29.794  27.478  22.210  1.00  0.00    -0.544 OA
ATOM      9  O   UNL     1      30.645  25.356  22.110  1.00  0.00    -0.544 OA
ENDBRANCH   2   7
ENDBRANCH   1   2
BRANCH   1  10
ATOM     10  O   UNL     1      26.766  27.442  22.530  1.00  0.00    -0.390 OA
ATOM     11  H   UNL     1      27.196  27.942  23.271  1.00  0.00     0.210 HD
ENDBRANCH   1  10
TORSDOF 4
ENDMDL
MODEL 7
REMARK VINA RESULT:    -3.115      1.795      2.313
REMARK INTER + INTRA:          -3.987
REMARK INTER:                  -3.759
REMARK INTRA:                  -0.227
REMARK UNBOUND:                -0.325
REMARK SMILES [NH3+][C@H](CO)C(=O)[O-]
REMARK SMILES IDX 3 1 2 2 1 3 5 7 6 8 7 9 4 10
REMARK H PARENT 1 4 1 5 1 6 4 11
REMARK Flexibility Score: inf
ROOT
ATOM      1  C   UNL     1      19.512  18.403  24.334  1.00  0.00     0.227 C 
ENDROOT
BRANCH   1   2
ATOM      2  C   UNL     1      20.064  17.544  23.184  1.00  0.00     0.253 C 
BRANCH   2   3
ATOM      3  N   UNL     1      19.362  16.256  23.096  1.00  0.00    -0.348 N 
ATOM      4  H   UNL     1      19.676  15.742  22.242  1.00  0.00     0.345 HD
ATOM      5  H   UNL     1      19.593  15.672  23.933  1.00  0.00     0.345 HD
ATOM      6  H   UNL     1      18.326  16.395  23.051  1.00  0.00     0.345 HD
ENDBRANCH   2   3
BRANCH   2   7
ATOM      7  C   UNL     1      19.991  18.289  21.876  1.00  0.00     0.102 C 
ATOM      8  O   UNL     1      19.206  17.913  20.965  1.00  0.00    -0.544 OA
ATOM      9  O   UNL     1      20.767  19.425  21.684  1.00  0.00    -0.544 OA
ENDBRANCH   2   7
ENDBRANCH   1   2
BRANCH   1  10
ATOM     10  O   UNL     1      20.278  19.566  24.498  1.00  0.00    -0.390 OA
ATOM     11  H   UNL     1      19.668  20.325  24.309  1.00  0.00     0.210 HD
ENDBRANCH   1  10
TORSDOF 4
ENDMDL
MODEL 8
REMARK VINA RESULT:    -3.038      1.596      2.319
REMARK INTER + INTRA:          -3.896
REMARK INTER:                  -3.887
REMARK INTRA:                  -0.009
REMARK UNBOUND:                -0.325
REMARK SMILES [NH3+][C@H](CO)C(=O)[O-]
REMARK SMILES IDX 3 1 2 2 1 3 5 7 6 8 7 9 4 10
REMARK H PARENT 1 4 1 5 1 6 4 11
REMARK Flexibility Score: inf
ROOT
ATOM      1  C   UNL     1      21.059  19.697  22.040  1.00  0.00     0.227 C 
ENDROOT
BRANCH   1   2
ATOM      2  C   UNL     1      20.432  18.495  22.766  1.00  0.00     0.253 C 
BRANCH   2   3
ATOM      3  N   UNL     1      19.771  18.910  24.011  1.00  0.00    -0.348 N 
ATOM      4  H   UNL     1      19.841  18.143  24.719  1.00  0.00     0.345 HD
ATOM      5  H   UNL     1      20.249  19.756  24.398  1.00  0.00     0.345 HD
ATOM      6  H   UNL     1      18.763  19.132  23.845  1.00  0.00     0.345 HD
ENDBRANCH   2   3
BRANCH   2   7
ATOM      7  C   UNL     1      19.472  17.765  21.863  1.00  0.00     0.102 C 
ATOM      8  O   UNL     1      19.352  18.094  20.653  1.00  0.00    -0.544 OA
ATOM      9  O   UNL     1      18.739  16.692  22.355  1.00  0.00    -0.544 OA
ENDBRANCH   2   7
ENDBRANCH   1   2
BRANCH   1  10
ATOM     10  O   UNL     1      21.951  20.377  22.881  1.00  0.00    -0.390 OA
ATOM     11  H   UNL     1      21.560  20.330  23.792  1.00  0.00     0.210 HD
ENDBRANCH   1  10
TORSDOF 4
ENDMDL
MODEL 9
REMARK VINA RESULT:    -2.983     10.587     11.453
REMARK INTER + INTRA:          -3.831
REMARK INTER:                  -3.466
REMARK INTRA:                  -0.365
REMARK UNBOUND:                -0.325
REMARK SMILES [NH3+][C@H](CO)C(=O)[O-]
REMARK SMILES IDX 3 1 2 2 1 3 5 7 6 8 7 9 4 10
REMARK H PARENT 1 4 1 5 1 6 4 11
REMARK Flexibility Score: inf
ROOT
ATOM      1  C   UNL     1      28.730  26.435  21.012  1.00  0.00     0.227 C 
ENDROOT
BRANCH   1   2
ATOM      2  C   UNL     1      28.401  26.512  22.512  1.00  0.00     0.253 C 
BRANCH   2   3
ATOM      3  N   UNL     1      28.666  27.854  23.047  1.00  0.00    -0.348 N 
ATOM      4  H   UNL     1      29.432  27.804  23.758  1.00  0.00     0.345 HD
ATOM      5  H   UNL     1      28.978  28.486  22.274  1.00  0.00     0.345 HD
ATOM      6  H   UNL     1      27.810  28.256  23.494  1.00  0.00     0.345 HD
ENDBRANCH   2   3
BRANCH   2   7
ATOM      7  C   UNL     1      26.975  26.100  22.769  1.00  0.00     0.102 C 
ATOM      8  O   UNL     1      26.671  24.885  22.906  1.00  0.00    -0.544 OA
ATOM      9  O   UNL     1      25.987  27.069  22.894  1.00  0.00    -0.544 OA
ENDBRANCH   2   7
ENDBRANCH   1   2
BRANCH   1  10
ATOM     10  O   UNL     1      27.558  26.332  20.250  1.00  0.00    -0.390 OA
ATOM     11  H   UNL     1      27.834  25.977  19.366  1.00  0.00     0.210 HD
ENDBRANCH   1  10
TORSDOF 4
ENDMDL
