MODEL 1
REMARK VINA RESULT:    -3.357      0.000      0.000
REMARK INTER + INTRA:          -3.357
REMARK INTER:                  -3.357
REMARK INTRA:                   0.000
REMARK UNBOUND:                 0.000
REMARK SMILES CC(C)=C1CC[C@H](C)CC1=O
REMARK SMILES IDX 8 1 7 2 6 3 5 4 4 5 2 6 1 7 3 8 10 9 11 10 9 11
REMARK H PARENT
REMARK Flexibility Score: inf
ROOT
ATOM      1  C   UNL     1     -30.446  34.518 -27.102  1.00  0.00     0.008 C 
ATOM      2  C   UNL     1     -30.348  36.047 -27.095  1.00  0.00    -0.006 C 
ATOM      3  C   UNL     1     -31.747  36.680 -27.028  1.00  0.00     0.008 C 
ATOM      4  C   UNL     1     -31.673  38.209 -27.123  1.00  0.00     0.039 C 
ATOM      5  C   UNL     1     -30.710  38.811 -26.109  1.00  0.00    -0.006 C 
ATOM      6  C   UNL     1     -30.928  40.047 -25.569  1.00  0.00    -0.070 C 
ATOM      7  C   UNL     1     -32.125  40.877 -25.972  1.00  0.00     0.039 C 
ATOM      8  C   UNL     1     -30.010  40.630 -24.520  1.00  0.00     0.039 C 
ATOM      9  C   UNL     1     -29.470  38.025 -25.835  1.00  0.00     0.159 C 
ATOM     10  O   UNL     1     -28.384  38.595 -25.545  1.00  0.00    -0.295 OA
ATOM     11  C   UNL     1     -29.499  36.525 -25.908  1.00  0.00     0.084 C 
ENDROOT
TORSDOF 0
ENDMDL
MODEL 2
REMARK VINA RESULT:    -2.686      1.009      4.103
REMARK INTER + INTRA:          -2.686
REMARK INTER:                  -2.686
REMARK INTRA:                   0.000
REMARK UNBOUND:                 0.000
REMARK SMILES CC(C)=C1CC[C@H](C)CC1=O
REMARK SMILES IDX 8 1 7 2 6 3 5 4 4 5 2 6 1 7 3 8 10 9 11 10 9 11
REMARK H PARENT
REMARK Flexibility Score: inf
ROOT
ATOM      1  C   UNL     1     -31.599  42.288 -25.476  1.00  0.00     0.008 C 
ATOM      2  C   UNL     1     -31.376  40.780 -25.315  1.00  0.00    -0.006 C 
ATOM      3  C   UNL     1     -32.115  40.003 -26.416  1.00  0.00     0.008 C 
ATOM      4  C   UNL     1     -31.986  38.488 -26.212  1.00  0.00     0.039 C 
ATOM      5  C   UNL     1     -30.540  38.041 -26.050  1.00  0.00    -0.006 C 
ATOM      6  C   UNL     1     -30.123  36.815 -26.484  1.00  0.00    -0.070 C 
ATOM      7  C   UNL     1     -31.086  35.841 -27.125  1.00  0.00     0.039 C 
ATOM      8  C   UNL     1     -28.678  36.382 -26.380  1.00  0.00     0.039 C 
ATOM      9  C   UNL     1     -29.647  38.968 -25.293  1.00  0.00     0.159 C 
ATOM     10  O   UNL     1     -28.696  38.534 -24.589  1.00  0.00    -0.295 OA
ATOM     11  C   UNL     1     -29.877  40.451 -25.356  1.00  0.00     0.084 C 
ENDROOT
TORSDOF 0
ENDMDL
MODEL 3
REMARK VINA RESULT:    -2.194      1.639      4.722
REMARK INTER + INTRA:          -2.194
REMARK INTER:                  -2.194
REMARK INTRA:                   0.000
REMARK UNBOUND:                 0.000
REMARK SMILES CC(C)=C1CC[C@H](C)CC1=O
REMARK SMILES IDX 8 1 7 2 6 3 5 4 4 5 2 6 1 7 3 8 10 9 11 10 9 11
REMARK H PARENT
REMARK Flexibility Score: inf
ROOT
ATOM      1  C   UNL     1     -29.133  42.362 -24.060  1.00  0.00     0.008 C 
ATOM      2  C   UNL     1     -29.325  41.213 -25.056  1.00  0.00    -0.006 C 
ATOM      3  C   UNL     1     -28.678  39.924 -24.527  1.00  0.00     0.008 C 
ATOM      4  C   UNL     1     -28.772  38.789 -25.555  1.00  0.00     0.039 C 
ATOM      5  C   UNL     1     -30.194  38.568 -26.052  1.00  0.00    -0.006 C 
ATOM      6  C   UNL     1     -30.634  37.328 -26.416  1.00  0.00    -0.070 C 
ATOM      7  C   UNL     1     -29.721  36.124 -26.358  1.00  0.00     0.039 C 
ATOM      8  C   UNL     1     -32.059  37.086 -26.857  1.00  0.00     0.039 C 
ATOM      9  C   UNL     1     -31.026  39.796 -26.226  1.00  0.00     0.159 C 
ATOM     10  O   UNL     1     -31.907  39.869 -27.125  1.00  0.00    -0.295 OA
ATOM     11  C   UNL     1     -30.819  40.979 -25.324  1.00  0.00     0.084 C 
ENDROOT
TORSDOF 0
ENDMDL
MODEL 4
REMARK VINA RESULT:    -2.181      1.717      2.874
REMARK INTER + INTRA:          -2.181
REMARK INTER:                  -2.181
REMARK INTRA:                   0.000
REMARK UNBOUND:                 0.000
REMARK SMILES CC(C)=C1CC[C@H](C)CC1=O
REMARK SMILES IDX 8 1 7 2 6 3 5 4 4 5 2 6 1 7 3 8 10 9 11 10 9 11
REMARK H PARENT
REMARK Flexibility Score: inf
ROOT
ATOM      1  C   UNL     1     -29.103  35.932 -26.392  1.00  0.00     0.008 C 
ATOM      2  C   UNL     1     -29.441  37.225 -25.640  1.00  0.00    -0.006 C 
ATOM      3  C   UNL     1     -28.229  38.169 -25.615  1.00  0.00     0.008 C 
ATOM      4  C   UNL     1     -28.516  39.423 -24.780  1.00  0.00     0.039 C 
ATOM      5  C   UNL     1     -29.797  40.128 -25.205  1.00  0.00    -0.006 C 
ATOM      6  C   UNL     1     -29.930  41.483 -25.104  1.00  0.00    -0.070 C 
ATOM      7  C   UNL     1     -28.815  42.339 -24.547  1.00  0.00     0.039 C 
ATOM      8  C   UNL     1     -31.174  42.199 -25.576  1.00  0.00     0.039 C 
ATOM      9  C   UNL     1     -30.925  39.242 -25.623  1.00  0.00     0.159 C 
ATOM     10  O   UNL     1     -32.125  39.570 -25.422  1.00  0.00    -0.295 OA
ATOM     11  C   UNL     1     -30.640  37.928 -26.292  1.00  0.00     0.084 C 
ENDROOT
TORSDOF 0
ENDMDL
MODEL 5
REMARK VINA RESULT:    -1.626     16.396     17.431
REMARK INTER + INTRA:          -1.626
REMARK INTER:                  -1.626
REMARK INTRA:                   0.000
REMARK UNBOUND:                 0.000
REMARK SMILES CC(C)=C1CC[C@H](C)CC1=O
REMARK SMILES IDX 8 1 7 2 6 3 5 4 4 5 2 6 1 7 3 8 10 9 11 10 9 11
REMARK H PARENT
REMARK Flexibility Score: inf
ROOT
ATOM      1  C   UNL     1     -12.310  33.208 -26.367  1.00  0.00     0.008 C 
ATOM      2  C   UNL     1     -12.930  34.524 -25.885  1.00  0.00    -0.006 C 
ATOM      3  C   UNL     1     -11.877  35.393 -25.180  1.00  0.00     0.008 C 
ATOM      4  C   UNL     1     -12.503  36.669 -24.602  1.00  0.00     0.039 C 
ATOM      5  C   UNL     1     -13.306  37.446 -25.636  1.00  0.00    -0.006 C 
ATOM      6  C   UNL     1     -13.398  38.808 -25.587  1.00  0.00    -0.070 C 
ATOM      7  C   UNL     1     -12.720  39.600 -24.492  1.00  0.00     0.039 C 
ATOM      8  C   UNL     1     -14.145  39.594 -26.640  1.00  0.00     0.039 C 
ATOM      9  C   UNL     1     -14.072  36.627 -26.622  1.00  0.00     0.159 C 
ATOM     10  O   UNL     1     -15.169  37.028 -27.096  1.00  0.00    -0.295 OA
ATOM     11  C   UNL     1     -13.542  35.293 -27.064  1.00  0.00     0.084 C 
ENDROOT
TORSDOF 0
ENDMDL
MODEL 6
REMARK VINA RESULT:    -1.027     16.936     17.828
REMARK INTER + INTRA:          -1.027
REMARK INTER:                  -1.027
REMARK INTRA:                   0.000
REMARK UNBOUND:                 0.000
REMARK SMILES CC(C)=C1CC[C@H](C)CC1=O
REMARK SMILES IDX 8 1 7 2 6 3 5 4 4 5 2 6 1 7 3 8 10 9 11 10 9 11
REMARK H PARENT
REMARK Flexibility Score: inf
ROOT
ATOM      1  C   UNL     1     -11.943  33.406 -25.673  1.00  0.00     0.008 C 
ATOM      2  C   UNL     1     -11.909  34.932 -25.805  1.00  0.00    -0.006 C 
ATOM      3  C   UNL     1     -12.868  35.402 -26.910  1.00  0.00     0.008 C 
ATOM      4  C   UNL     1     -12.772  36.918 -27.125  1.00  0.00     0.039 C 
ATOM      5  C   UNL     1     -12.941  37.704 -25.832  1.00  0.00    -0.006 C 
ATOM      6  C   UNL     1     -13.513  38.943 -25.824  1.00  0.00    -0.070 C 
ATOM      7  C   UNL     1     -13.986  39.596 -27.102  1.00  0.00     0.039 C 
ATOM      8  C   UNL     1     -13.737  39.708 -24.539  1.00  0.00     0.039 C 
ATOM      9  C   UNL     1     -12.342  37.090 -24.609  1.00  0.00     0.159 C 
ATOM     10  O   UNL     1     -11.876  37.802 -23.679  1.00  0.00    -0.295 OA
ATOM     11  C   UNL     1     -12.281  35.595 -24.471  1.00  0.00     0.084 C 
ENDROOT
TORSDOF 0
ENDMDL
