MODEL 1
REMARK VINA RESULT:    -4.538      0.000      0.000
REMARK INTER + INTRA:          -7.313
REMARK INTER:                  -6.263
REMARK INTRA:                  -1.050
REMARK UNBOUND:                -1.050
REMARK SMILES O=C([O-])[C@H]1O[C@H](Oc2cc3oc(-c4ccccc4)cc(=O)c3c(O)c2O)[C@H](O)[C@H](O)[C@H]1O
REMARK SMILES IDX 7 1 6 2 4 3 31 4 5 5 29 6 27 7 2 8 1 9 3 10 32 11 30 13
REMARK SMILES IDX 28 15 8 17 25 18 9 19 23 20 10 21 22 22 11 23 20 24 12 25
REMARK SMILES IDX 19 26 21 27 26 28 24 30 13 32 14 33 18 34 15 35 17 36 16 37
REMARK H PARENT 32 12 30 14 28 16 26 29 24 31
REMARK Flexibility Score: inf
ROOT
ATOM      1  O   UNL     1      -9.273 -13.323  -2.566  1.00  0.00    -0.458 OA
ENDROOT
BRANCH   1   2
ATOM      2  C   UNL     1      -9.579 -14.707  -2.337  1.00  0.00     0.339 C 
ATOM      3  C   UNL     1     -10.382 -14.283  -0.171  1.00  0.00     0.199 C 
ATOM      4  C   UNL     1     -11.846 -14.669  -0.507  1.00  0.00     0.180 C 
ATOM      5  O   UNL     1      -9.457 -15.019  -0.958  1.00  0.00    -0.328 OA
ATOM      6  C   UNL     1     -12.132 -14.516  -2.019  1.00  0.00     0.181 C 
ATOM      7  C   UNL     1     -10.978 -15.105  -2.869  1.00  0.00     0.214 C 
BRANCH   3   8
ATOM      8  C   UNL     1     -10.105 -14.527   1.285  1.00  0.00     0.073 C 
ATOM      9  O   UNL     1     -10.157 -13.581   2.115  1.00  0.00    -0.547 OA
ATOM     10  O   UNL     1      -9.725 -15.792   1.714  1.00  0.00    -0.547 OA
ENDBRANCH   3   8
BRANCH   4  11
ATOM     11  O   UNL     1     -12.148 -15.975  -0.074  1.00  0.00    -0.387 OA
ATOM     12  H   UNL     1     -11.304 -16.494  -0.046  1.00  0.00     0.211 HD
ENDBRANCH   4  11
BRANCH   6  13
ATOM     13  O   UNL     1     -12.411 -13.176  -2.352  1.00  0.00    -0.387 OA
ATOM     14  H   UNL     1     -13.024 -12.807  -1.668  1.00  0.00     0.211 HD
ENDBRANCH   6  13
BRANCH   7  15
ATOM     15  O   UNL     1     -11.121 -14.825  -4.239  1.00  0.00    -0.384 OA
ATOM     16  H   UNL     1     -11.164 -13.842  -4.354  1.00  0.00     0.211 HD
ENDBRANCH   7  15
ENDBRANCH   1   2
BRANCH   1  17
ATOM     17  C   UNL     1      -8.401 -12.848  -3.555  1.00  0.00     0.172 A 
ATOM     18  C   UNL     1      -8.855 -12.448  -4.828  1.00  0.00     0.201 A 
ATOM     19  C   UNL     1      -7.038 -12.819  -3.262  1.00  0.00     0.098 A 
ATOM     20  C   UNL     1      -7.937 -11.906  -5.764  1.00  0.00     0.176 A 
ATOM     21  C   UNL     1      -6.121 -12.322  -4.183  1.00  0.00     0.146 A 
ATOM     22  C   UNL     1      -6.558 -11.849  -5.440  1.00  0.00     0.111 A 
ATOM     23  O   UNL     1      -4.832 -12.289  -3.856  1.00  0.00    -0.456 OA
ATOM     24  C   UNL     1      -5.578 -11.332  -6.316  1.00  0.00     0.197 A 
ATOM     25  C   UNL     1      -3.883 -11.821  -4.662  1.00  0.00     0.138 A 
ATOM     26  C   UNL     1      -4.240 -11.316  -5.923  1.00  0.00     0.100 A 
ATOM     27  O   UNL     1      -5.884 -10.876  -7.450  1.00  0.00    -0.289 OA
BRANCH  18  28
ATOM     28  O   UNL     1     -10.200 -12.650  -5.148  1.00  0.00    -0.502 OA
ATOM     29  H   UNL     1     -10.934 -12.776  -4.469  1.00  0.00     0.293 HD
ENDBRANCH  18  28
BRANCH  20  30
ATOM     30  O   UNL     1      -8.365 -11.421  -7.005  1.00  0.00    -0.504 OA
ATOM     31  H   UNL     1      -8.830 -11.980  -7.708  1.00  0.00     0.293 HD
ENDBRANCH  20  30
BRANCH  25  32
ATOM     32  C   UNL     1      -2.476 -11.831  -4.187  1.00  0.00     0.017 A 
ATOM     33  C   UNL     1      -2.128 -12.303  -2.904  1.00  0.00     0.012 A 
ATOM     34  C   UNL     1      -1.460 -11.329  -5.022  1.00  0.00     0.012 A 
ATOM     35  C   UNL     1      -0.794 -12.290  -2.483  1.00  0.00     0.001 A 
ATOM     36  C   UNL     1      -0.130 -11.320  -4.596  1.00  0.00     0.001 A 
ATOM     37  C   UNL     1       0.204 -11.802  -3.329  1.00  0.00     0.000 A 
ENDBRANCH  25  32
ENDBRANCH   1  17
TORSDOF 9
ENDMDL
MODEL 2
REMARK VINA RESULT:    -3.760      3.120      9.332
REMARK INTER + INTRA:          -6.239
REMARK INTER:                  -5.000
REMARK INTRA:                  -1.239
REMARK UNBOUND:                -1.050
REMARK SMILES O=C([O-])[C@H]1O[C@H](Oc2cc3oc(-c4ccccc4)cc(=O)c3c(O)c2O)[C@H](O)[C@H](O)[C@H]1O
REMARK SMILES IDX 7 1 6 2 4 3 31 4 5 5 29 6 27 7 2 8 1 9 3 10 32 11 30 13
REMARK SMILES IDX 28 15 8 17 25 18 9 19 23 20 10 21 22 22 11 23 20 24 12 25
REMARK SMILES IDX 19 26 21 27 26 28 24 30 13 32 14 33 18 34 15 35 17 36 16 37
REMARK H PARENT 32 12 30 14 28 16 26 29 24 31
REMARK Flexibility Score: inf
ROOT
ATOM      1  O   UNL     1      -2.123 -11.810  -3.984  1.00  0.00    -0.458 OA
ENDROOT
BRANCH   1   2
ATOM      2  C   UNL     1      -1.146 -12.851  -4.132  1.00  0.00     0.339 C 
ATOM      3  C   UNL     1       0.463 -11.366  -4.981  1.00  0.00     0.199 C 
ATOM      4  C   UNL     1       1.417 -11.514  -3.767  1.00  0.00     0.180 C 
ATOM      5  O   UNL     1      -0.273 -12.558  -5.212  1.00  0.00    -0.328 OA
ATOM      6  C   UNL     1       0.648 -11.966  -2.503  1.00  0.00     0.181 C 
ATOM      7  C   UNL     1      -0.345 -13.109  -2.832  1.00  0.00     0.214 C 
BRANCH   3   8
ATOM      8  C   UNL     1       1.247 -11.015  -6.214  1.00  0.00     0.073 C 
ATOM      9  O   UNL     1       0.673 -10.900  -7.329  1.00  0.00    -0.547 OA
ATOM     10  O   UNL     1       2.627 -10.877  -6.139  1.00  0.00    -0.547 OA
ENDBRANCH   3   8
BRANCH   4  11
ATOM     11  O   UNL     1       2.476 -12.400  -4.047  1.00  0.00    -0.387 OA
ATOM     12  H   UNL     1       2.086 -13.265  -4.335  1.00  0.00     0.211 HD
ENDBRANCH   4  11
BRANCH   6  13
ATOM     13  O   UNL     1       0.018 -10.875  -1.873  1.00  0.00    -0.387 OA
ATOM     14  H   UNL     1       0.713 -10.325  -1.434  1.00  0.00     0.211 HD
ENDBRANCH   6  13
BRANCH   7  15
ATOM     15  O   UNL     1      -1.185 -13.421  -1.749  1.00  0.00    -0.384 OA
ATOM     16  H   UNL     1      -1.542 -12.576  -1.377  1.00  0.00     0.211 HD
ENDBRANCH   7  15
ENDBRANCH   1   2
BRANCH   1  17
ATOM     17  C   UNL     1      -3.330 -11.737  -4.694  1.00  0.00     0.172 A 
ATOM     18  C   UNL     1      -3.385 -11.332  -6.043  1.00  0.00     0.201 A 
ATOM     19  C   UNL     1      -4.507 -12.038  -4.009  1.00  0.00     0.098 A 
ATOM     20  C   UNL     1      -4.626 -11.347  -6.732  1.00  0.00     0.176 A 
ATOM     21  C   UNL     1      -5.736 -12.023  -4.662  1.00  0.00     0.146 A 
ATOM     22  C   UNL     1      -5.811 -11.690  -6.033  1.00  0.00     0.111 A 
ATOM     23  O   UNL     1      -6.833 -12.339  -3.980  1.00  0.00    -0.456 OA
ATOM     24  C   UNL     1      -7.085 -11.721  -6.641  1.00  0.00     0.197 A 
ATOM     25  C   UNL     1      -8.049 -12.366  -4.519  1.00  0.00     0.138 A 
ATOM     26  C   UNL     1      -8.204 -12.064  -5.881  1.00  0.00     0.100 A 
ATOM     27  O   UNL     1      -7.238 -11.452  -7.862  1.00  0.00    -0.289 OA
BRANCH  18  28
ATOM     28  O   UNL     1      -2.212 -10.875  -6.648  1.00  0.00    -0.502 OA
ATOM     29  H   UNL     1      -1.346 -11.390  -6.673  1.00  0.00     0.293 HD
ENDBRANCH  18  28
BRANCH  20  30
ATOM     30  O   UNL     1      -4.705 -11.033  -8.092  1.00  0.00    -0.504 OA
ATOM     31  H   UNL     1      -4.930 -10.117  -8.456  1.00  0.00     0.293 HD
ENDBRANCH  20  30
BRANCH  25  32
ATOM     32  C   UNL     1      -9.201 -12.738  -3.659  1.00  0.00     0.017 A 
ATOM     33  C   UNL     1      -9.052 -12.970  -2.276  1.00  0.00     0.012 A 
ATOM     34  C   UNL     1     -10.475 -12.894  -4.237  1.00  0.00     0.012 A 
ATOM     35  C   UNL     1     -10.156 -13.328  -1.495  1.00  0.00     0.001 A 
ATOM     36  C   UNL     1     -11.573 -13.252  -3.451  1.00  0.00     0.001 A 
ATOM     37  C   UNL     1     -11.415 -13.466  -2.081  1.00  0.00     0.000 A 
ENDBRANCH  25  32
ENDBRANCH   1  17
TORSDOF 9
ENDMDL
MODEL 3
REMARK VINA RESULT:    -3.394     10.553     13.721
REMARK INTER + INTRA:          -5.733
REMARK INTER:                  -6.506
REMARK INTRA:                   0.774
REMARK UNBOUND:                -1.050
REMARK SMILES O=C([O-])[C@H]1O[C@H](Oc2cc3oc(-c4ccccc4)cc(=O)c3c(O)c2O)[C@H](O)[C@H](O)[C@H]1O
REMARK SMILES IDX 7 1 6 2 4 3 31 4 5 5 29 6 27 7 2 8 1 9 3 10 32 11 30 13
REMARK SMILES IDX 28 15 8 17 25 18 9 19 23 20 10 21 22 22 11 23 20 24 12 25
REMARK SMILES IDX 19 26 21 27 26 28 24 30 13 32 14 33 18 34 15 35 17 36 16 37
REMARK H PARENT 32 12 30 14 28 16 26 29 24 31
REMARK Flexibility Score: inf
ROOT
ATOM      1  O   UNL     1     -15.420 -17.111 -15.129  1.00  0.00    -0.458 OA
ENDROOT
BRANCH   1   2
ATOM      2  C   UNL     1     -14.711 -18.236 -15.666  1.00  0.00     0.339 C 
ATOM      3  C   UNL     1     -12.624 -17.205 -15.358  1.00  0.00     0.199 C 
ATOM      4  C   UNL     1     -12.144 -18.219 -14.287  1.00  0.00     0.180 C 
ATOM      5  O   UNL     1     -13.509 -17.812 -16.289  1.00  0.00    -0.328 OA
ATOM      6  C   UNL     1     -13.343 -18.894 -13.580  1.00  0.00     0.181 C 
ATOM      7  C   UNL     1     -14.424 -19.325 -14.603  1.00  0.00     0.214 C 
BRANCH   3   8
ATOM      8  C   UNL     1     -11.444 -16.631 -16.091  1.00  0.00     0.073 C 
ATOM      9  O   UNL     1     -10.309 -16.591 -15.547  1.00  0.00    -0.547 OA
ATOM     10  O   UNL     1     -11.616 -16.081 -17.354  1.00  0.00    -0.547 OA
ENDBRANCH   3   8
BRANCH   4  11
ATOM     11  O   UNL     1     -11.284 -19.187 -14.840  1.00  0.00    -0.387 OA
ATOM     12  H   UNL     1     -10.662 -18.728 -15.461  1.00  0.00     0.211 HD
ENDBRANCH   4  11
BRANCH   6  13
ATOM     13  O   UNL     1     -13.866 -18.070 -12.564  1.00  0.00    -0.387 OA
ATOM     14  H   UNL     1     -14.594 -18.561 -12.109  1.00  0.00     0.211 HD
ENDBRANCH   6  13
BRANCH   7  15
ATOM     15  O   UNL     1     -15.602 -19.779 -13.983  1.00  0.00    -0.384 OA
ATOM     16  H   UNL     1     -15.491 -19.694 -13.003  1.00  0.00     0.211 HD
ENDBRANCH   7  15
ENDBRANCH   1   2
BRANCH   1  17
ATOM     17  C   UNL     1     -14.900 -15.814 -15.019  1.00  0.00     0.172 A 
ATOM     18  C   UNL     1     -14.544 -15.048 -16.147  1.00  0.00     0.201 A 
ATOM     19  C   UNL     1     -14.698 -15.300 -13.738  1.00  0.00     0.098 A 
ATOM     20  C   UNL     1     -14.092 -13.714 -15.979  1.00  0.00     0.176 A 
ATOM     21  C   UNL     1     -14.222 -14.005 -13.556  1.00  0.00     0.146 A 
ATOM     22  C   UNL     1     -13.924 -13.192 -14.671  1.00  0.00     0.111 A 
ATOM     23  O   UNL     1     -14.065 -13.544 -12.318  1.00  0.00    -0.456 OA
ATOM     24  C   UNL     1     -13.472 -11.879 -14.415  1.00  0.00     0.197 A 
ATOM     25  C   UNL     1     -13.629 -12.318 -12.043  1.00  0.00     0.138 A 
ATOM     26  C   UNL     1     -13.328 -11.442 -13.098  1.00  0.00     0.100 A 
ATOM     27  O   UNL     1     -13.198 -11.082 -15.353  1.00  0.00    -0.289 OA
BRANCH  18  28
ATOM     28  O   UNL     1     -14.600 -15.653 -17.405  1.00  0.00    -0.502 OA
ATOM     29  H   UNL     1     -13.889 -15.559 -18.115  1.00  0.00     0.293 HD
ENDBRANCH  18  28
BRANCH  20  30
ATOM     30  O   UNL     1     -13.810 -12.897 -17.079  1.00  0.00    -0.504 OA
ATOM     31  H   UNL     1     -13.435 -11.961 -17.015  1.00  0.00     0.293 HD
ENDBRANCH  20  30
BRANCH  25  32
ATOM     32  C   UNL     1     -13.496 -11.912 -10.620  1.00  0.00     0.017 A 
ATOM     33  C   UNL     1     -12.354 -11.234 -10.144  1.00  0.00     0.012 A 
ATOM     34  C   UNL     1     -14.519 -12.236  -9.710  1.00  0.00     0.012 A 
ATOM     35  C   UNL     1     -12.255 -10.875  -8.796  1.00  0.00     0.001 A 
ATOM     36  C   UNL     1     -14.414 -11.873  -8.364  1.00  0.00     0.001 A 
ATOM     37  C   UNL     1     -13.284 -11.191  -7.908  1.00  0.00     0.000 A 
ENDBRANCH  25  32
ENDBRANCH   1  17
TORSDOF 9
ENDMDL
MODEL 4
REMARK VINA RESULT:    -3.234      3.409      9.101
REMARK INTER + INTRA:          -5.513
REMARK INTER:                  -4.408
REMARK INTRA:                  -1.105
REMARK UNBOUND:                -1.050
REMARK SMILES O=C([O-])[C@H]1O[C@H](Oc2cc3oc(-c4ccccc4)cc(=O)c3c(O)c2O)[C@H](O)[C@H](O)[C@H]1O
REMARK SMILES IDX 7 1 6 2 4 3 31 4 5 5 29 6 27 7 2 8 1 9 3 10 32 11 30 13
REMARK SMILES IDX 28 15 8 17 25 18 9 19 23 20 10 21 22 22 11 23 20 24 12 25
REMARK SMILES IDX 19 26 21 27 26 28 24 30 13 32 14 33 18 34 15 35 17 36 16 37
REMARK H PARENT 32 12 30 14 28 16 26 29 24 31
REMARK Flexibility Score: inf
ROOT
ATOM      1  O   UNL     1      -1.600 -11.961  -5.456  1.00  0.00    -0.458 OA
ENDROOT
BRANCH   1   2
ATOM      2  C   UNL     1      -0.713 -10.876  -5.148  1.00  0.00     0.339 C 
ATOM      3  C   UNL     1       0.294 -12.058  -3.386  1.00  0.00     0.199 C 
ATOM      4  C   UNL     1       1.677 -12.157  -4.081  1.00  0.00     0.180 C 
ATOM      5  O   UNL     1      -0.394 -10.875  -3.765  1.00  0.00    -0.328 OA
ATOM      6  C   UNL     1       1.540 -12.041  -5.618  1.00  0.00     0.181 C 
ATOM      7  C   UNL     1       0.575 -10.894  -6.008  1.00  0.00     0.214 C 
BRANCH   3   8
ATOM      8  C   UNL     1       0.464 -12.082  -1.894  1.00  0.00     0.073 C 
ATOM      9  O   UNL     1       0.149 -13.104  -1.228  1.00  0.00    -0.547 OA
ATOM     10  O   UNL     1       0.912 -10.947  -1.231  1.00  0.00    -0.547 OA
ENDBRANCH   3   8
BRANCH   4  11
ATOM     11  O   UNL     1       2.574 -11.189  -3.588  1.00  0.00    -0.387 OA
ATOM     12  H   UNL     1       3.439 -11.303  -4.058  1.00  0.00     0.211 HD
ENDBRANCH   4  11
BRANCH   6  13
ATOM     13  O   UNL     1       1.166 -13.273  -6.190  1.00  0.00    -0.387 OA
ATOM     14  H   UNL     1       1.222 -13.971  -5.491  1.00  0.00     0.211 HD
ENDBRANCH   6  13
BRANCH   7  15
ATOM     15  O   UNL     1       0.289 -10.875  -7.385  1.00  0.00    -0.384 OA
ATOM     16  H   UNL     1       0.301 -11.807  -7.719  1.00  0.00     0.211 HD
ENDBRANCH   7  15
ENDBRANCH   1   2
BRANCH   1  17
ATOM     17  C   UNL     1      -2.937 -11.815  -5.851  1.00  0.00     0.172 A 
ATOM     18  C   UNL     1      -3.297 -11.334  -7.126  1.00  0.00     0.201 A 
ATOM     19  C   UNL     1      -3.928 -12.122  -4.918  1.00  0.00     0.098 A 
ATOM     20  C   UNL     1      -4.666 -11.277  -7.496  1.00  0.00     0.176 A 
ATOM     21  C   UNL     1      -5.276 -12.039  -5.256  1.00  0.00     0.146 A 
ATOM     22  C   UNL     1      -5.662 -11.627  -6.550  1.00  0.00     0.111 A 
ATOM     23  O   UNL     1      -6.190 -12.363  -4.346  1.00  0.00    -0.456 OA
ATOM     24  C   UNL     1      -7.045 -11.590  -6.835  1.00  0.00     0.197 A 
ATOM     25  C   UNL     1      -7.499 -12.327  -4.577  1.00  0.00     0.138 A 
ATOM     26  C   UNL     1      -7.963 -11.945  -5.846  1.00  0.00     0.100 A 
ATOM     27  O   UNL     1      -7.475 -11.249  -7.970  1.00  0.00    -0.289 OA
BRANCH  18  28
ATOM     28  O   UNL     1      -2.285 -10.875  -7.973  1.00  0.00    -0.502 OA
ATOM     29  H   UNL     1      -1.314 -10.801  -7.712  1.00  0.00     0.293 HD
ENDBRANCH  18  28
BRANCH  20  30
ATOM     30  O   UNL     1      -5.055 -10.885  -8.782  1.00  0.00    -0.504 OA
ATOM     31  H   UNL     1      -4.933  -9.954  -9.157  1.00  0.00     0.293 HD
ENDBRANCH  20  30
BRANCH  25  32
ATOM     32  C   UNL     1      -8.427 -12.715  -3.484  1.00  0.00     0.017 A 
ATOM     33  C   UNL     1      -8.880 -11.783  -2.528  1.00  0.00     0.012 A 
ATOM     34  C   UNL     1      -8.845 -14.055  -3.374  1.00  0.00     0.012 A 
ATOM     35  C   UNL     1      -9.745 -12.183  -1.504  1.00  0.00     0.001 A 
ATOM     36  C   UNL     1      -9.710 -14.447  -2.350  1.00  0.00     0.001 A 
ATOM     37  C   UNL     1     -10.162 -13.513  -1.417  1.00  0.00     0.000 A 
ENDBRANCH  25  32
ENDBRANCH   1  17
TORSDOF 9
ENDMDL
MODEL 5
REMARK VINA RESULT:    -3.156      1.483      3.560
REMARK INTER + INTRA:          -5.405
REMARK INTER:                  -4.530
REMARK INTRA:                  -0.874
REMARK UNBOUND:                -1.050
REMARK SMILES O=C([O-])[C@H]1O[C@H](Oc2cc3oc(-c4ccccc4)cc(=O)c3c(O)c2O)[C@H](O)[C@H](O)[C@H]1O
REMARK SMILES IDX 7 1 6 2 4 3 31 4 5 5 29 6 27 7 2 8 1 9 3 10 32 11 30 13
REMARK SMILES IDX 28 15 8 17 25 18 9 19 23 20 10 21 22 22 11 23 20 24 12 25
REMARK SMILES IDX 19 26 21 27 26 28 24 30 13 32 14 33 18 34 15 35 17 36 16 37
REMARK H PARENT 32 12 30 14 28 16 26 29 24 31
REMARK Flexibility Score: inf
ROOT
ATOM      1  O   UNL     1      -9.934 -14.672  -0.995  1.00  0.00    -0.458 OA
ENDROOT
BRANCH   1   2
ATOM      2  C   UNL     1     -10.965 -14.348  -0.050  1.00  0.00     0.339 C 
ATOM      3  C   UNL     1     -11.912 -16.493  -0.186  1.00  0.00     0.199 C 
ATOM      4  C   UNL     1     -11.568 -16.870   1.278  1.00  0.00     0.180 C 
ATOM      5  O   UNL     1     -12.139 -15.097  -0.324  1.00  0.00    -0.328 OA
ATOM      6  C   UNL     1     -10.372 -16.042   1.803  1.00  0.00     0.181 C 
ATOM      7  C   UNL     1     -10.515 -14.548   1.418  1.00  0.00     0.214 C 
BRANCH   3   8
ATOM      8  C   UNL     1     -13.131 -17.245  -0.641  1.00  0.00     0.073 C 
ATOM      9  O   UNL     1     -14.179 -17.250   0.057  1.00  0.00    -0.547 OA
ATOM     10  O   UNL     1     -13.085 -17.995  -1.809  1.00  0.00    -0.547 OA
ENDBRANCH   3   8
BRANCH   4  11
ATOM     11  O   UNL     1     -12.684 -16.724   2.125  1.00  0.00    -0.387 OA
ATOM     12  H   UNL     1     -12.893 -15.757   2.194  1.00  0.00     0.211 HD
ENDBRANCH   4  11
BRANCH   6  13
ATOM     13  O   UNL     1      -9.147 -16.589   1.375  1.00  0.00    -0.387 OA
ATOM     14  H   UNL     1      -8.917 -16.193   0.499  1.00  0.00     0.211 HD
ENDBRANCH   6  13
BRANCH   7  15
ATOM     15  O   UNL     1      -9.364 -13.800   1.723  1.00  0.00    -0.384 OA
ATOM     16  H   UNL     1      -8.689 -14.411   2.111  1.00  0.00     0.211 HD
ENDBRANCH   7  15
ENDBRANCH   1   2
BRANCH   1  17
ATOM     17  C   UNL     1      -9.658 -13.944  -2.160  1.00  0.00     0.172 A 
ATOM     18  C   UNL     1     -10.662 -13.601  -3.089  1.00  0.00     0.201 A 
ATOM     19  C   UNL     1      -8.331 -13.595  -2.411  1.00  0.00     0.098 A 
ATOM     20  C   UNL     1     -10.336 -12.800  -4.214  1.00  0.00     0.176 A 
ATOM     21  C   UNL     1      -7.991 -12.839  -3.528  1.00  0.00     0.146 A 
ATOM     22  C   UNL     1      -8.988 -12.422  -4.437  1.00  0.00     0.111 A 
ATOM     23  O   UNL     1      -6.717 -12.507  -3.719  1.00  0.00    -0.456 OA
ATOM     24  C   UNL     1      -8.578 -11.634  -5.535  1.00  0.00     0.197 A 
ATOM     25  C   UNL     1      -6.296 -11.777  -4.749  1.00  0.00     0.138 A 
ATOM     26  C   UNL     1      -7.230 -11.309  -5.687  1.00  0.00     0.100 A 
ATOM     27  O   UNL     1      -9.406 -11.208  -6.385  1.00  0.00    -0.289 OA
BRANCH  18  28
ATOM     28  O   UNL     1     -11.948 -14.111  -2.895  1.00  0.00    -0.502 OA
ATOM     29  H   UNL     1     -12.465 -14.039  -2.032  1.00  0.00     0.293 HD
ENDBRANCH  18  28
BRANCH  20  30
ATOM     30  O   UNL     1     -11.321 -12.371  -5.109  1.00  0.00    -0.504 OA
ATOM     31  H   UNL     1     -11.695 -12.934  -5.861  1.00  0.00     0.293 HD
ENDBRANCH  20  30
BRANCH  25  32
ATOM     32  C   UNL     1      -4.848 -11.465  -4.856  1.00  0.00     0.017 A 
ATOM     33  C   UNL     1      -4.232 -11.213  -6.100  1.00  0.00     0.012 A 
ATOM     34  C   UNL     1      -4.056 -11.449  -3.694  1.00  0.00     0.012 A 
ATOM     35  C   UNL     1      -2.864 -10.932  -6.168  1.00  0.00     0.001 A 
ATOM     36  C   UNL     1      -2.689 -11.167  -3.769  1.00  0.00     0.001 A 
ATOM     37  C   UNL     1      -2.094 -10.907  -5.004  1.00  0.00     0.000 A 
ENDBRANCH  25  32
ENDBRANCH   1  17
TORSDOF 9
ENDMDL
MODEL 6
REMARK VINA RESULT:    -3.145      3.110      8.746
REMARK INTER + INTRA:          -5.390
REMARK INTER:                  -4.065
REMARK INTRA:                  -1.325
REMARK UNBOUND:                -1.050
REMARK SMILES O=C([O-])[C@H]1O[C@H](Oc2cc3oc(-c4ccccc4)cc(=O)c3c(O)c2O)[C@H](O)[C@H](O)[C@H]1O
REMARK SMILES IDX 7 1 6 2 4 3 31 4 5 5 29 6 27 7 2 8 1 9 3 10 32 11 30 13
REMARK SMILES IDX 28 15 8 17 25 18 9 19 23 20 10 21 22 22 11 23 20 24 12 25
REMARK SMILES IDX 19 26 21 27 26 28 24 30 13 32 14 33 18 34 15 35 17 36 16 37
REMARK H PARENT 32 12 30 14 28 16 26 29 24 31
REMARK Flexibility Score: inf
ROOT
ATOM      1  O   UNL     1      -2.481 -11.957  -5.954  1.00  0.00    -0.458 OA
ENDROOT
BRANCH   1   2
ATOM      2  C   UNL     1      -1.576 -10.890  -5.638  1.00  0.00     0.339 C 
ATOM      3  C   UNL     1      -0.630 -12.078  -3.847  1.00  0.00     0.199 C 
ATOM      4  C   UNL     1       0.763 -12.214  -4.514  1.00  0.00     0.180 C 
ATOM      5  O   UNL     1      -1.285 -10.884  -4.249  1.00  0.00    -0.328 OA
ATOM      6  C   UNL     1       0.659 -12.109  -6.054  1.00  0.00     0.181 C 
ATOM      7  C   UNL     1      -0.273 -10.944  -6.473  1.00  0.00     0.214 C 
BRANCH   3   8
ATOM      8  C   UNL     1      -0.490 -12.093  -2.351  1.00  0.00     0.073 C 
ATOM      9  O   UNL     1      -1.338 -11.515  -1.621  1.00  0.00    -0.547 OA
ATOM     10  O   UNL     1       0.617 -12.694  -1.767  1.00  0.00    -0.547 OA
ENDBRANCH   3   8
BRANCH   4  11
ATOM     11  O   UNL     1       1.671 -11.262  -4.012  1.00  0.00    -0.387 OA
ATOM     12  H   UNL     1       2.483 -11.280  -4.580  1.00  0.00     0.211 HD
ENDBRANCH   4  11
BRANCH   6  13
ATOM     13  O   UNL     1       0.269 -13.337  -6.623  1.00  0.00    -0.387 OA
ATOM     14  H   UNL     1       1.065 -13.921  -6.678  1.00  0.00     0.211 HD
ENDBRANCH   6  13
BRANCH   7  15
ATOM     15  O   UNL     1      -0.531 -10.931  -7.855  1.00  0.00    -0.384 OA
ATOM     16  H   UNL     1       0.205 -11.407  -8.314  1.00  0.00     0.211 HD
ENDBRANCH   7  15
ENDBRANCH   1   2
BRANCH   1  17
ATOM     17  C   UNL     1      -3.861 -11.807  -6.149  1.00  0.00     0.172 A 
ATOM     18  C   UNL     1      -4.402 -11.327  -7.359  1.00  0.00     0.201 A 
ATOM     19  C   UNL     1      -4.706 -12.108  -5.081  1.00  0.00     0.098 A 
ATOM     20  C   UNL     1      -5.810 -11.266  -7.526  1.00  0.00     0.176 A 
ATOM     21  C   UNL     1      -6.088 -12.019  -5.218  1.00  0.00     0.146 A 
ATOM     22  C   UNL     1      -6.658 -11.609  -6.443  1.00  0.00     0.111 A 
ATOM     23  O   UNL     1      -6.860 -12.337  -4.183  1.00  0.00    -0.456 OA
ATOM     24  C   UNL     1      -8.068 -11.567  -6.522  1.00  0.00     0.197 A 
ATOM     25  C   UNL     1      -8.190 -12.297  -4.220  1.00  0.00     0.138 A 
ATOM     26  C   UNL     1      -8.833 -11.915  -5.408  1.00  0.00     0.100 A 
ATOM     27  O   UNL     1      -8.658 -11.226  -7.583  1.00  0.00    -0.289 OA
BRANCH  18  28
ATOM     28  O   UNL     1      -3.523 -10.875  -8.347  1.00  0.00    -0.502 OA
ATOM     29  H   UNL     1      -3.587  -9.976  -8.798  1.00  0.00     0.293 HD
ENDBRANCH  18  28
BRANCH  20  30
ATOM     30  O   UNL     1      -6.382 -10.875  -8.741  1.00  0.00    -0.504 OA
ATOM     31  H   UNL     1      -7.288 -10.437  -8.833  1.00  0.00     0.293 HD
ENDBRANCH  20  30
BRANCH  25  32
ATOM     32  C   UNL     1      -8.949 -12.678  -3.002  1.00  0.00     0.017 A 
ATOM     33  C   UNL     1      -8.962 -11.865  -1.850  1.00  0.00     0.012 A 
ATOM     34  C   UNL     1      -9.650 -13.898  -2.977  1.00  0.00     0.012 A 
ATOM     35  C   UNL     1      -9.679 -12.258  -0.714  1.00  0.00     0.001 A 
ATOM     36  C   UNL     1     -10.364 -14.284  -1.840  1.00  0.00     0.001 A 
ATOM     37  C   UNL     1     -10.381 -13.464  -0.710  1.00  0.00     0.000 A 
ENDBRANCH  25  32
ENDBRANCH   1  17
TORSDOF 9
ENDMDL
MODEL 7
REMARK VINA RESULT:    -3.099      1.520      3.100
REMARK INTER + INTRA:          -5.327
REMARK INTER:                  -4.097
REMARK INTRA:                  -1.229
REMARK UNBOUND:                -1.050
REMARK SMILES O=C([O-])[C@H]1O[C@H](Oc2cc3oc(-c4ccccc4)cc(=O)c3c(O)c2O)[C@H](O)[C@H](O)[C@H]1O
REMARK SMILES IDX 7 1 6 2 4 3 31 4 5 5 29 6 27 7 2 8 1 9 3 10 32 11 30 13
REMARK SMILES IDX 28 15 8 17 25 18 9 19 23 20 10 21 22 22 11 23 20 24 12 25
REMARK SMILES IDX 19 26 21 27 26 28 24 30 13 32 14 33 18 34 15 35 17 36 16 37
REMARK H PARENT 32 12 30 14 28 16 26 29 24 31
REMARK Flexibility Score: inf
ROOT
ATOM      1  O   UNL     1      -8.185 -12.855  -3.360  1.00  0.00    -0.458 OA
ENDROOT
BRANCH   1   2
ATOM      2  C   UNL     1      -9.315 -12.034  -3.033  1.00  0.00     0.339 C 
ATOM      3  C   UNL     1     -10.845 -13.711  -3.636  1.00  0.00     0.199 C 
ATOM      4  C   UNL     1     -11.376 -13.916  -2.194  1.00  0.00     0.180 C 
ATOM      5  O   UNL     1     -10.425 -12.372  -3.851  1.00  0.00    -0.328 OA
ATOM      6  C   UNL     1     -10.331 -13.468  -1.144  1.00  0.00     0.181 C 
ATOM      7  C   UNL     1      -9.695 -12.110  -1.533  1.00  0.00     0.214 C 
BRANCH   3   8
ATOM      8  C   UNL     1     -11.910 -14.068  -4.634  1.00  0.00     0.073 C 
ATOM      9  O   UNL     1     -12.759 -13.214  -5.000  1.00  0.00    -0.547 OA
ATOM     10  O   UNL     1     -12.001 -15.370  -5.111  1.00  0.00    -0.547 OA
ENDBRANCH   3   8
BRANCH   4  11
ATOM     11  O   UNL     1     -12.599 -13.246  -1.994  1.00  0.00    -0.387 OA
ATOM     12  H   UNL     1     -12.888 -13.405  -1.058  1.00  0.00     0.211 HD
ENDBRANCH   4  11
BRANCH   6  13
ATOM     13  O   UNL     1      -9.365 -14.469  -0.928  1.00  0.00    -0.387 OA
ATOM     14  H   UNL     1      -9.023 -14.767  -1.807  1.00  0.00     0.211 HD
ENDBRANCH   6  13
BRANCH   7  15
ATOM     15  O   UNL     1      -8.618 -11.761  -0.699  1.00  0.00    -0.384 OA
ATOM     16  H   UNL     1      -8.978 -11.288   0.093  1.00  0.00     0.211 HD
ENDBRANCH   7  15
ENDBRANCH   1   2
BRANCH   1  17
ATOM     17  C   UNL     1      -7.142 -12.478  -4.218  1.00  0.00     0.172 A 
ATOM     18  C   UNL     1      -7.360 -12.172  -5.577  1.00  0.00     0.201 A 
ATOM     19  C   UNL     1      -5.849 -12.454  -3.698  1.00  0.00     0.098 A 
ATOM     20  C   UNL     1      -6.279 -11.725  -6.380  1.00  0.00     0.176 A 
ATOM     21  C   UNL     1      -4.772 -12.050  -4.483  1.00  0.00     0.146 A 
ATOM     22  C   UNL     1      -4.974 -11.670  -5.828  1.00  0.00     0.111 A 
ATOM     23  O   UNL     1      -3.557 -12.018  -3.944  1.00  0.00    -0.456 OA
ATOM     24  C   UNL     1      -3.843 -11.246  -6.560  1.00  0.00     0.197 A 
ATOM     25  C   UNL     1      -2.470 -11.635  -4.608  1.00  0.00     0.138 A 
ATOM     26  C   UNL     1      -2.590 -11.226  -5.945  1.00  0.00     0.100 A 
ATOM     27  O   UNL     1      -3.936 -10.875  -7.761  1.00  0.00    -0.289 OA
BRANCH  18  28
ATOM     28  O   UNL     1      -8.638 -12.370  -6.106  1.00  0.00    -0.502 OA
ATOM     29  H   UNL     1      -8.933 -12.050  -7.015  1.00  0.00     0.293 HD
ENDBRANCH  18  28
BRANCH  20  30
ATOM     30  O   UNL     1      -6.474 -11.332  -7.708  1.00  0.00    -0.504 OA
ATOM     31  H   UNL     1      -6.125 -10.471  -8.107  1.00  0.00     0.293 HD
ENDBRANCH  20  30
BRANCH  25  32
ATOM     32  C   UNL     1      -1.164 -11.637  -3.899  1.00  0.00     0.017 A 
ATOM     33  C   UNL     1      -1.082 -11.712  -2.494  1.00  0.00     0.012 A 
ATOM     34  C   UNL     1       0.026 -11.528  -4.642  1.00  0.00     0.012 A 
ATOM     35  C   UNL     1       0.163 -11.701  -1.856  1.00  0.00     0.001 A 
ATOM     36  C   UNL     1       1.266 -11.519  -3.999  1.00  0.00     0.001 A 
ATOM     37  C   UNL     1       1.335 -11.607  -2.607  1.00  0.00     0.000 A 
ENDBRANCH  25  32
ENDBRANCH   1  17
TORSDOF 9
ENDMDL
