MODEL 1
REMARK VINA RESULT:    -4.304      0.000      0.000
REMARK INTER + INTRA:          -6.052
REMARK INTER:                  -5.814
REMARK INTRA:                  -0.238
REMARK UNBOUND:                -0.238
REMARK SMILES CCCCCCCC(=O)[O-]
REMARK SMILES IDX 5 1 6 2 7 3 8 4 9 5 10 6 4 7 3 8 2 9 1 10
REMARK H PARENT
REMARK Flexibility Score: inf
ROOT
ATOM      1  C   UNL     1     105.764 107.104 230.093  1.00  0.00     0.000 C 
ENDROOT
BRANCH   1   2
ATOM      2  C   UNL     1     104.968 107.579 231.322  1.00  0.00     0.006 C 
BRANCH   2   3
ATOM      3  C   UNL     1     104.138 106.451 231.949  1.00  0.00     0.053 C 
BRANCH   3   4
ATOM      4  C   UNL     1     104.533 106.193 233.370  1.00  0.00     0.041 C 
ATOM      5  O   UNL     1     103.652 106.066 234.260  1.00  0.00    -0.550 OA
ATOM      6  O   UNL     1     105.875 106.056 233.706  1.00  0.00    -0.550 OA
ENDBRANCH   3   4
ENDBRANCH   2   3
ENDBRANCH   1   2
BRANCH   1   7
ATOM      7  C   UNL     1     104.848 106.519 228.997  1.00  0.00     0.000 C 
BRANCH   7   8
ATOM      8  C   UNL     1     105.383 105.216 228.379  1.00  0.00    -0.000 C 
BRANCH   8   9
ATOM      9  C   UNL     1     104.761 104.906 227.011  1.00  0.00    -0.003 C 
ATOM     10  C   UNL     1     103.388 105.556 226.871  1.00  0.00     0.004 C 
ENDBRANCH   8   9
ENDBRANCH   7   8
ENDBRANCH   1   7
TORSDOF 6
ENDMDL
MODEL 2
REMARK VINA RESULT:    -4.255      2.585      4.350
REMARK INTER + INTRA:          -5.986
REMARK INTER:                  -5.564
REMARK INTRA:                  -0.421
REMARK UNBOUND:                -0.238
REMARK SMILES CCCCCCCC(=O)[O-]
REMARK SMILES IDX 5 1 6 2 7 3 8 4 9 5 10 6 4 7 3 8 2 9 1 10
REMARK H PARENT
REMARK Flexibility Score: inf
ROOT
ATOM      1  C   UNL     1     103.285 106.292 230.365  1.00  0.00     0.000 C 
ENDROOT
BRANCH   1   2
ATOM      2  C   UNL     1     102.354 107.106 231.281  1.00  0.00     0.006 C 
BRANCH   2   3
ATOM      3  C   UNL     1     101.190 106.265 231.822  1.00  0.00     0.053 C 
BRANCH   3   4
ATOM      4  C   UNL     1     101.005 106.454 233.296  1.00  0.00     0.041 C 
ATOM      5  O   UNL     1     101.854 105.998 234.105  1.00  0.00    -0.550 OA
ATOM      6  O   UNL     1      99.912 107.167 233.774  1.00  0.00    -0.550 OA
ENDBRANCH   3   4
ENDBRANCH   2   3
ENDBRANCH   1   2
BRANCH   1   7
ATOM      7  C   UNL     1     104.636 105.978 231.041  1.00  0.00     0.000 C 
BRANCH   7   8
ATOM      8  C   UNL     1     104.913 106.833 232.289  1.00  0.00    -0.000 C 
BRANCH   8   9
ATOM      9  C   UNL     1     105.365 105.998 233.495  1.00  0.00    -0.003 C 
ATOM     10  C   UNL     1     106.349 104.911 233.075  1.00  0.00     0.004 C 
ENDBRANCH   8   9
ENDBRANCH   7   8
ENDBRANCH   1   7
TORSDOF 6
ENDMDL
MODEL 3
REMARK VINA RESULT:    -4.234      3.175      4.864
REMARK INTER + INTRA:          -5.957
REMARK INTER:                  -5.506
REMARK INTRA:                  -0.451
REMARK UNBOUND:                -0.238
REMARK SMILES CCCCCCCC(=O)[O-]
REMARK SMILES IDX 5 1 6 2 7 3 8 4 9 5 10 6 4 7 3 8 2 9 1 10
REMARK H PARENT
REMARK Flexibility Score: inf
ROOT
ATOM      1  C   UNL     1     104.770 107.236 228.555  1.00  0.00     0.000 C 
ENDROOT
BRANCH   1   2
ATOM      2  C   UNL     1     104.764 105.779 228.058  1.00  0.00     0.006 C 
BRANCH   2   3
ATOM      3  C   UNL     1     103.618 105.504 227.076  1.00  0.00     0.053 C 
BRANCH   3   4
ATOM      4  C   UNL     1     102.396 104.995 227.775  1.00  0.00     0.041 C 
ATOM      5  O   UNL     1     101.259 105.150 227.258  1.00  0.00    -0.550 OA
ATOM      6  O   UNL     1     102.516 104.316 228.982  1.00  0.00    -0.550 OA
ENDBRANCH   3   4
ENDBRANCH   2   3
ENDBRANCH   1   2
BRANCH   1   7
ATOM      7  C   UNL     1     105.492 107.385 229.911  1.00  0.00     0.000 C 
BRANCH   7   8
ATOM      8  C   UNL     1     104.546 107.720 231.077  1.00  0.00    -0.000 C 
BRANCH   8   9
ATOM      9  C   UNL     1     103.101 107.965 230.622  1.00  0.00    -0.003 C 
ATOM     10  C   UNL     1     102.136 107.010 231.317  1.00  0.00     0.004 C 
ENDBRANCH   8   9
ENDBRANCH   7   8
ENDBRANCH   1   7
TORSDOF 6
ENDMDL
MODEL 4
REMARK VINA RESULT:    -4.221      3.104      4.874
REMARK INTER + INTRA:          -5.939
REMARK INTER:                  -5.533
REMARK INTRA:                  -0.406
REMARK UNBOUND:                -0.238
REMARK SMILES CCCCCCCC(=O)[O-]
REMARK SMILES IDX 5 1 6 2 7 3 8 4 9 5 10 6 4 7 3 8 2 9 1 10
REMARK H PARENT
REMARK Flexibility Score: inf
ROOT
ATOM      1  C   UNL     1     104.782 106.026 233.492  1.00  0.00     0.000 C 
ENDROOT
BRANCH   1   2
ATOM      2  C   UNL     1     104.989 106.066 231.968  1.00  0.00     0.006 C 
BRANCH   2   3
ATOM      3  C   UNL     1     104.880 107.488 231.403  1.00  0.00     0.053 C 
BRANCH   3   4
ATOM      4  C   UNL     1     103.918 107.561 230.258  1.00  0.00     0.041 C 
ATOM      5  O   UNL     1     102.775 108.062 230.423  1.00  0.00    -0.550 OA
ATOM      6  O   UNL     1     104.296 107.108 229.000  1.00  0.00    -0.550 OA
ENDBRANCH   3   4
ENDBRANCH   2   3
ENDBRANCH   1   2
BRANCH   1   7
ATOM      7  C   UNL     1     103.294 106.162 233.881  1.00  0.00     0.000 C 
BRANCH   7   8
ATOM      8  C   UNL     1     102.340 105.417 232.932  1.00  0.00    -0.000 C 
BRANCH   8   9
ATOM      9  C   UNL     1     101.063 106.210 232.625  1.00  0.00    -0.003 C 
ATOM     10  C   UNL     1     100.572 106.962 233.859  1.00  0.00     0.004 C 
ENDBRANCH   8   9
ENDBRANCH   7   8
ENDBRANCH   1   7
TORSDOF 6
ENDMDL
MODEL 5
REMARK VINA RESULT:    -4.217      2.645      3.160
REMARK INTER + INTRA:          -5.934
REMARK INTER:                  -5.357
REMARK INTRA:                  -0.576
REMARK UNBOUND:                -0.238
REMARK SMILES CCCCCCCC(=O)[O-]
REMARK SMILES IDX 5 1 6 2 7 3 8 4 9 5 10 6 4 7 3 8 2 9 1 10
REMARK H PARENT
REMARK Flexibility Score: inf
ROOT
ATOM      1  C   UNL     1     104.615 107.715 231.034  1.00  0.00     0.000 C 
ENDROOT
BRANCH   1   2
ATOM      2  C   UNL     1     103.153 107.977 230.632  1.00  0.00     0.006 C 
BRANCH   2   3
ATOM      3  C   UNL     1     102.181 106.993 231.296  1.00  0.00     0.053 C 
BRANCH   3   4
ATOM      4  C   UNL     1     101.721 105.935 230.341  1.00  0.00     0.041 C 
ATOM      5  O   UNL     1     102.216 104.779 230.389  1.00  0.00    -0.550 OA
ATOM      6  O   UNL     1     100.718 106.216 229.421  1.00  0.00    -0.550 OA
ENDBRANCH   3   4
ENDBRANCH   2   3
ENDBRANCH   1   2
BRANCH   1   7
ATOM      7  C   UNL     1     105.503 107.385 229.816  1.00  0.00     0.000 C 
BRANCH   7   8
ATOM      8  C   UNL     1     104.710 107.179 228.514  1.00  0.00    -0.000 C 
BRANCH   8   9
ATOM      9  C   UNL     1     104.724 105.722 228.032  1.00  0.00    -0.003 C 
ATOM     10  C   UNL     1     103.635 105.477 226.992  1.00  0.00     0.004 C 
ENDBRANCH   8   9
ENDBRANCH   7   8
ENDBRANCH   1   7
TORSDOF 6
ENDMDL
MODEL 6
REMARK VINA RESULT:    -4.211      3.434      5.287
REMARK INTER + INTRA:          -5.926
REMARK INTER:                  -5.599
REMARK INTRA:                  -0.327
REMARK UNBOUND:                -0.238
REMARK SMILES CCCCCCCC(=O)[O-]
REMARK SMILES IDX 5 1 6 2 7 3 8 4 9 5 10 6 4 7 3 8 2 9 1 10
REMARK H PARENT
REMARK Flexibility Score: inf
ROOT
ATOM      1  C   UNL     1     105.688 107.445 229.829  1.00  0.00     0.000 C 
ENDROOT
BRANCH   1   2
ATOM      2  C   UNL     1     104.633 106.842 228.885  1.00  0.00     0.006 C 
BRANCH   2   3
ATOM      3  C   UNL     1     104.957 105.392 228.501  1.00  0.00     0.053 C 
BRANCH   3   4
ATOM      4  C   UNL     1     104.551 105.085 227.093  1.00  0.00     0.041 C 
ATOM      5  O   UNL     1     103.467 105.531 226.634  1.00  0.00    -0.550 OA
ATOM      6  O   UNL     1     105.387 104.334 226.276  1.00  0.00    -0.550 OA
ENDBRANCH   3   4
ENDBRANCH   2   3
ENDBRANCH   1   2
BRANCH   1   7
ATOM      7  C   UNL     1     105.123 107.710 231.240  1.00  0.00     0.000 C 
BRANCH   7   8
ATOM      8  C   UNL     1     103.763 107.037 231.494  1.00  0.00    -0.000 C 
BRANCH   8   9
ATOM      9  C   UNL     1     103.813 105.997 232.622  1.00  0.00    -0.003 C 
ATOM     10  C   UNL     1     105.126 106.085 233.394  1.00  0.00     0.004 C 
ENDBRANCH   8   9
ENDBRANCH   7   8
ENDBRANCH   1   7
TORSDOF 6
ENDMDL
MODEL 7
REMARK VINA RESULT:    -4.210      2.284      2.930
REMARK INTER + INTRA:          -5.924
REMARK INTER:                  -5.623
REMARK INTRA:                  -0.302
REMARK UNBOUND:                -0.238
REMARK SMILES CCCCCCCC(=O)[O-]
REMARK SMILES IDX 5 1 6 2 7 3 8 4 9 5 10 6 4 7 3 8 2 9 1 10
REMARK H PARENT
REMARK Flexibility Score: inf
ROOT
ATOM      1  C   UNL     1     103.023 107.776 230.382  1.00  0.00     0.000 C 
ENDROOT
BRANCH   1   2
ATOM      2  C   UNL     1     102.282 106.544 230.930  1.00  0.00     0.006 C 
BRANCH   2   3
ATOM      3  C   UNL     1     102.393 106.429 232.456  1.00  0.00     0.053 C 
BRANCH   3   4
ATOM      4  C   UNL     1     101.047 106.410 233.112  1.00  0.00     0.041 C 
ATOM      5  O   UNL     1     100.932 106.706 234.330  1.00  0.00    -0.550 OA
ATOM      6  O   UNL     1      99.914 106.100 232.369  1.00  0.00    -0.550 OA
ENDBRANCH   3   4
ENDBRANCH   2   3
ENDBRANCH   1   2
BRANCH   1   7
ATOM      7  C   UNL     1     104.491 107.460 230.024  1.00  0.00     0.000 C 
BRANCH   7   8
ATOM      8  C   UNL     1     104.721 107.227 228.521  1.00  0.00    -0.000 C 
BRANCH   8   9
ATOM      9  C   UNL     1     104.706 105.741 228.137  1.00  0.00    -0.003 C 
ATOM     10  C   UNL     1     103.655 105.459 227.067  1.00  0.00     0.004 C 
ENDBRANCH   8   9
ENDBRANCH   7   8
ENDBRANCH   1   7
TORSDOF 6
ENDMDL
MODEL 8
REMARK VINA RESULT:    -4.189      2.462      4.204
REMARK INTER + INTRA:          -5.896
REMARK INTER:                  -5.281
REMARK INTRA:                  -0.615
REMARK UNBOUND:                -0.238
REMARK SMILES CCCCCCCC(=O)[O-]
REMARK SMILES IDX 5 1 6 2 7 3 8 4 9 5 10 6 4 7 3 8 2 9 1 10
REMARK H PARENT
REMARK Flexibility Score: inf
ROOT
ATOM      1  C   UNL     1     102.564 107.762 230.777  1.00  0.00     0.000 C 
ENDROOT
BRANCH   1   2
ATOM      2  C   UNL     1     104.046 107.580 230.405  1.00  0.00     0.006 C 
BRANCH   2   3
ATOM      3  C   UNL     1     104.964 107.625 231.633  1.00  0.00     0.053 C 
BRANCH   3   4
ATOM      4  C   UNL     1     105.038 106.297 232.322  1.00  0.00     0.041 C 
ATOM      5  O   UNL     1     104.862 105.235 231.670  1.00  0.00    -0.550 OA
ATOM      6  O   UNL     1     105.337 106.231 233.677  1.00  0.00    -0.550 OA
ENDBRANCH   3   4
ENDBRANCH   2   3
ENDBRANCH   1   2
BRANCH   1   7
ATOM      7  C   UNL     1     101.741 106.479 230.531  1.00  0.00     0.000 C 
BRANCH   7   8
ATOM      8  C   UNL     1     100.975 105.991 231.772  1.00  0.00    -0.000 C 
BRANCH   8   9
ATOM      9  C   UNL     1     101.241 106.853 233.014  1.00  0.00    -0.003 C 
ATOM     10  C   UNL     1     101.849 106.022 234.140  1.00  0.00     0.004 C 
ENDBRANCH   8   9
ENDBRANCH   7   8
ENDBRANCH   1   7
TORSDOF 6
ENDMDL
MODEL 9
REMARK VINA RESULT:    -4.143      1.681      2.309
REMARK INTER + INTRA:          -5.834
REMARK INTER:                  -5.416
REMARK INTRA:                  -0.418
REMARK UNBOUND:                -0.238
REMARK SMILES CCCCCCCC(=O)[O-]
REMARK SMILES IDX 5 1 6 2 7 3 8 4 9 5 10 6 4 7 3 8 2 9 1 10
REMARK H PARENT
REMARK Flexibility Score: inf
ROOT
ATOM      1  C   UNL     1     105.003 107.566 231.500  1.00  0.00     0.000 C 
ENDROOT
BRANCH   1   2
ATOM      2  C   UNL     1     104.493 106.295 232.203  1.00  0.00     0.006 C 
BRANCH   2   3
ATOM      3  C   UNL     1     105.401 105.869 233.364  1.00  0.00     0.053 C 
BRANCH   3   4
ATOM      4  C   UNL     1     106.344 104.778 232.961  1.00  0.00     0.041 C 
ATOM      5  O   UNL     1     106.006 103.939 232.085  1.00  0.00    -0.550 OA
ATOM      6  O   UNL     1     107.612 104.709 233.527  1.00  0.00    -0.550 OA
ENDBRANCH   3   4
ENDBRANCH   2   3
ENDBRANCH   1   2
BRANCH   1   7
ATOM      7  C   UNL     1     105.734 107.245 230.179  1.00  0.00     0.000 C 
BRANCH   7   8
ATOM      8  C   UNL     1     104.914 107.583 228.923  1.00  0.00    -0.000 C 
BRANCH   8   9
ATOM      9  C   UNL     1     104.528 106.339 228.110  1.00  0.00    -0.003 C 
ATOM     10  C   UNL     1     105.197 105.087 228.669  1.00  0.00     0.004 C 
ENDBRANCH   8   9
ENDBRANCH   7   8
ENDBRANCH   1   7
TORSDOF 6
ENDMDL
