MODEL 1
REMARK VINA RESULT:    -6.587      0.000      0.000
REMARK INTER + INTRA:          -8.006
REMARK INTER:                  -7.742
REMARK INTRA:                  -0.264
REMARK UNBOUND:                -0.264
REMARK SMILES O=c1cc(-c2ccc(O)c(O)c2)oc2cc(O)cc(O)c12
REMARK SMILES IDX 4 1 3 2 2 3 1 4 21 5 19 6 18 7 16 8 15 9 14 10 13 11 5 12
REMARK SMILES IDX 6 13 7 14 8 15 12 16 10 17 9 18 11 20 20 22 17 24
REMARK H PARENT 9 19 11 21 20 23 17 25
REMARK Flexibility Score: inf
ROOT
ATOM      1  C   UNL     1      49.000 -41.500  30.737  1.00  0.00     0.138 A 
ATOM      2  C   UNL     1      50.046 -41.995  31.532  1.00  0.00     0.100 A 
ATOM      3  C   UNL     1      51.323 -41.445  31.406  1.00  0.00     0.197 A 
ATOM      4  O   UNL     1      52.256 -41.897  32.125  1.00  0.00    -0.289 OA
ATOM      5  C   UNL     1      51.543 -40.399  30.488  1.00  0.00     0.107 A 
ATOM      6  C   UNL     1      52.804 -39.787  30.298  1.00  0.00     0.134 A 
ATOM      7  C   UNL     1      52.939 -38.746  29.368  1.00  0.00     0.093 A 
ATOM      8  C   UNL     1      51.841 -38.307  28.627  1.00  0.00     0.123 A 
ATOM      9  C   UNL     1      50.590 -38.907  28.810  1.00  0.00     0.094 A 
ATOM     10  C   UNL     1      50.436 -39.947  29.731  1.00  0.00     0.146 A 
ATOM     11  O   UNL     1      49.238 -40.503  29.887  1.00  0.00    -0.456 OA
ENDROOT
BRANCH   1  12
ATOM     12  C   UNL     1      47.622 -42.045  30.828  1.00  0.00     0.021 A 
ATOM     13  C   UNL     1      46.683 -41.417  31.665  1.00  0.00     0.016 A 
ATOM     14  C   UNL     1      45.378 -41.906  31.763  1.00  0.00     0.051 A 
ATOM     15  C   UNL     1      44.986 -43.024  31.018  1.00  0.00     0.157 A 
ATOM     16  C   UNL     1      47.216 -43.163  30.073  1.00  0.00     0.062 A 
ATOM     17  C   UNL     1      45.905 -43.652  30.169  1.00  0.00     0.158 A 
BRANCH  15  18
ATOM     18  O   UNL     1      43.685 -43.516  31.114  1.00  0.00    -0.504 OA
ATOM     19  H   UNL     1      43.229 -43.636  32.011  1.00  0.00     0.293 HD
ENDBRANCH  15  18
BRANCH  17  20
ATOM     20  O   UNL     1      45.508 -44.759  29.421  1.00  0.00    -0.504 OA
ATOM     21  H   UNL     1      44.667 -45.277  29.645  1.00  0.00     0.293 HD
ENDBRANCH  17  20
ENDBRANCH   1  12
BRANCH   6  22
ATOM     22  O   UNL     1      53.921 -40.205  31.025  1.00  0.00    -0.507 OA
ATOM     23  H   UNL     1      53.928 -41.081  31.534  1.00  0.00     0.293 HD
ENDBRANCH   6  22
BRANCH   8  24
ATOM     24  O   UNL     1      52.001 -37.271  27.709  1.00  0.00    -0.508 OA
ATOM     25  H   UNL     1      52.333 -37.443  26.768  1.00  0.00     0.293 HD
ENDBRANCH   8  24
TORSDOF 5
ENDMDL
MODEL 2
REMARK VINA RESULT:    -6.218      2.504      3.993
REMARK INTER + INTRA:          -7.572
REMARK INTER:                  -7.308
REMARK INTRA:                  -0.264
REMARK UNBOUND:                -0.264
REMARK SMILES O=c1cc(-c2ccc(O)c(O)c2)oc2cc(O)cc(O)c12
REMARK SMILES IDX 4 1 3 2 2 3 1 4 21 5 19 6 18 7 16 8 15 9 14 10 13 11 5 12
REMARK SMILES IDX 6 13 7 14 8 15 12 16 10 17 9 18 11 20 20 22 17 24
REMARK H PARENT 9 19 11 21 20 23 17 25
REMARK Flexibility Score: inf
ROOT
ATOM      1  C   UNL     1      47.204 -42.605  30.644  1.00  0.00     0.138 A 
ATOM      2  C   UNL     1      47.471 -41.238  30.820  1.00  0.00     0.100 A 
ATOM      3  C   UNL     1      48.740 -40.835  31.241  1.00  0.00     0.197 A 
ATOM      4  O   UNL     1      48.971 -39.604  31.394  1.00  0.00    -0.289 OA
ATOM      5  C   UNL     1      49.735 -41.804  31.478  1.00  0.00     0.107 A 
ATOM      6  C   UNL     1      51.044 -41.482  31.907  1.00  0.00     0.134 A 
ATOM      7  C   UNL     1      51.979 -42.506  32.116  1.00  0.00     0.093 A 
ATOM      8  C   UNL     1      51.631 -43.842  31.906  1.00  0.00     0.123 A 
ATOM      9  C   UNL     1      50.338 -44.168  31.481  1.00  0.00     0.094 A 
ATOM     10  C   UNL     1      49.391 -43.161  31.269  1.00  0.00     0.146 A 
ATOM     11  O   UNL     1      48.168 -43.495  30.867  1.00  0.00    -0.456 OA
ENDROOT
BRANCH   1  12
ATOM     12  C   UNL     1      45.874 -43.092  30.198  1.00  0.00     0.021 A 
ATOM     13  C   UNL     1      45.685 -43.453  28.852  1.00  0.00     0.016 A 
ATOM     14  C   UNL     1      44.446 -43.921  28.409  1.00  0.00     0.051 A 
ATOM     15  C   UNL     1      43.377 -44.046  29.304  1.00  0.00     0.157 A 
ATOM     16  C   UNL     1      44.797 -43.232  31.095  1.00  0.00     0.062 A 
ATOM     17  C   UNL     1      43.553 -43.704  30.651  1.00  0.00     0.158 A 
BRANCH  15  18
ATOM     18  O   UNL     1      42.139 -44.510  28.865  1.00  0.00    -0.504 OA
ATOM     19  H   UNL     1      41.805 -45.436  29.106  1.00  0.00     0.293 HD
ENDBRANCH  15  18
BRANCH  17  20
ATOM     20  O   UNL     1      42.490 -43.839  31.541  1.00  0.00    -0.504 OA
ATOM     21  H   UNL     1      41.693 -44.427  31.331  1.00  0.00     0.293 HD
ENDBRANCH  17  20
ENDBRANCH   1  12
BRANCH   6  22
ATOM     22  O   UNL     1      51.421 -40.156  32.125  1.00  0.00    -0.507 OA
ATOM     23  H   UNL     1      51.497 -39.770  33.059  1.00  0.00     0.293 HD
ENDBRANCH   6  22
BRANCH   8  24
ATOM     24  O   UNL     1      52.578 -44.841  32.121  1.00  0.00    -0.508 OA
ATOM     25  H   UNL     1      52.896 -45.078  33.053  1.00  0.00     0.293 HD
ENDBRANCH   8  24
TORSDOF 5
ENDMDL
MODEL 3
REMARK VINA RESULT:    -6.081      1.619      7.253
REMARK INTER + INTRA:          -7.411
REMARK INTER:                  -7.132
REMARK INTRA:                  -0.279
REMARK UNBOUND:                -0.264
REMARK SMILES O=c1cc(-c2ccc(O)c(O)c2)oc2cc(O)cc(O)c12
REMARK SMILES IDX 4 1 3 2 2 3 1 4 21 5 19 6 18 7 16 8 15 9 14 10 13 11 5 12
REMARK SMILES IDX 6 13 7 14 8 15 12 16 10 17 9 18 11 20 20 22 17 24
REMARK H PARENT 9 19 11 21 20 23 17 25
REMARK Flexibility Score: inf
ROOT
ATOM      1  C   UNL     1      48.952 -40.181  30.172  1.00  0.00     0.138 A 
ATOM      2  C   UNL     1      48.042 -39.428  30.931  1.00  0.00     0.100 A 
ATOM      3  C   UNL     1      46.844 -40.014  31.345  1.00  0.00     0.197 A 
ATOM      4  O   UNL     1      46.034 -39.330  32.028  1.00  0.00    -0.289 OA
ATOM      5  C   UNL     1      46.568 -41.352  31.000  1.00  0.00     0.107 A 
ATOM      6  C   UNL     1      45.379 -42.019  31.378  1.00  0.00     0.134 A 
ATOM      7  C   UNL     1      45.182 -43.355  30.999  1.00  0.00     0.093 A 
ATOM      8  C   UNL     1      46.147 -44.034  30.251  1.00  0.00     0.123 A 
ATOM      9  C   UNL     1      47.325 -43.379  29.875  1.00  0.00     0.094 A 
ATOM     10  C   UNL     1      47.540 -42.048  30.242  1.00  0.00     0.146 A 
ATOM     11  O   UNL     1      48.666 -41.446  29.871  1.00  0.00    -0.456 OA
ENDROOT
BRANCH   1  12
ATOM     12  C   UNL     1      50.241 -39.612  29.704  1.00  0.00     0.021 A 
ATOM     13  C   UNL     1      51.413 -40.383  29.799  1.00  0.00     0.016 A 
ATOM     14  C   UNL     1      52.637 -39.873  29.359  1.00  0.00     0.051 A 
ATOM     15  C   UNL     1      52.711 -38.588  28.809  1.00  0.00     0.157 A 
ATOM     16  C   UNL     1      50.321 -38.324  29.138  1.00  0.00     0.062 A 
ATOM     17  C   UNL     1      51.550 -37.814  28.695  1.00  0.00     0.158 A 
BRANCH  15  18
ATOM     18  O   UNL     1      53.930 -38.076  28.371  1.00  0.00    -0.504 OA
ATOM     19  H   UNL     1      54.110 -37.904  27.390  1.00  0.00     0.293 HD
ENDBRANCH  15  18
BRANCH  17  20
ATOM     20  O   UNL     1      51.624 -36.539  28.137  1.00  0.00    -0.504 OA
ATOM     21  H   UNL     1      51.952 -35.743  28.673  1.00  0.00     0.293 HD
ENDBRANCH  17  20
ENDBRANCH   1  12
BRANCH   6  22
ATOM     22  O   UNL     1      44.397 -41.368  32.125  1.00  0.00    -0.507 OA
ATOM     23  H   UNL     1      43.578 -41.856  32.468  1.00  0.00     0.293 HD
ENDBRANCH   6  22
BRANCH   8  24
ATOM     24  O   UNL     1      45.927 -45.361  29.888  1.00  0.00    -0.508 OA
ATOM     25  H   UNL     1      45.517 -45.604  28.994  1.00  0.00     0.293 HD
ENDBRANCH   8  24
TORSDOF 5
ENDMDL
MODEL 4
REMARK VINA RESULT:    -5.740      0.629      1.478
REMARK INTER + INTRA:          -7.010
REMARK INTER:                  -6.744
REMARK INTRA:                  -0.266
REMARK UNBOUND:                -0.264
REMARK SMILES O=c1cc(-c2ccc(O)c(O)c2)oc2cc(O)cc(O)c12
REMARK SMILES IDX 4 1 3 2 2 3 1 4 21 5 19 6 18 7 16 8 15 9 14 10 13 11 5 12
REMARK SMILES IDX 6 13 7 14 8 15 12 16 10 17 9 18 11 20 20 22 17 24
REMARK H PARENT 9 19 11 21 20 23 17 25
REMARK Flexibility Score: inf
ROOT
ATOM      1  C   UNL     1      49.135 -41.433  30.667  1.00  0.00     0.138 A 
ATOM      2  C   UNL     1      50.165 -41.939  31.475  1.00  0.00     0.100 A 
ATOM      3  C   UNL     1      51.450 -41.404  31.366  1.00  0.00     0.197 A 
ATOM      4  O   UNL     1      52.368 -41.865  32.097  1.00  0.00    -0.289 OA
ATOM      5  C   UNL     1      51.694 -40.361  30.450  1.00  0.00     0.107 A 
ATOM      6  C   UNL     1      52.965 -39.765  30.276  1.00  0.00     0.134 A 
ATOM      7  C   UNL     1      53.124 -38.727  29.346  1.00  0.00     0.093 A 
ATOM      8  C   UNL     1      52.040 -38.276  28.589  1.00  0.00     0.123 A 
ATOM      9  C   UNL     1      50.781 -38.861  28.757  1.00  0.00     0.094 A 
ATOM     10  C   UNL     1      50.602 -39.898  29.678  1.00  0.00     0.146 A 
ATOM     11  O   UNL     1      49.396 -40.440  29.819  1.00  0.00    -0.456 OA
ENDROOT
BRANCH   1  12
ATOM     12  C   UNL     1      47.750 -41.961  30.740  1.00  0.00     0.021 A 
ATOM     13  C   UNL     1      47.454 -43.209  30.163  1.00  0.00     0.016 A 
ATOM     14  C   UNL     1      46.160 -43.731  30.225  1.00  0.00     0.051 A 
ATOM     15  C   UNL     1      45.141 -43.022  30.871  1.00  0.00     0.157 A 
ATOM     16  C   UNL     1      46.722 -41.258  31.399  1.00  0.00     0.062 A 
ATOM     17  C   UNL     1      45.424 -41.784  31.463  1.00  0.00     0.158 A 
BRANCH  15  18
ATOM     18  O   UNL     1      43.849 -43.539  30.933  1.00  0.00    -0.504 OA
ATOM     19  H   UNL     1      43.607 -44.283  31.577  1.00  0.00     0.293 HD
ENDBRANCH  15  18
BRANCH  17  20
ATOM     20  O   UNL     1      44.410 -41.085  32.115  1.00  0.00    -0.504 OA
ATOM     21  H   UNL     1      43.579 -40.774  31.625  1.00  0.00     0.293 HD
ENDBRANCH  17  20
ENDBRANCH   1  12
BRANCH   6  22
ATOM     22  O   UNL     1      54.067 -40.194  31.018  1.00  0.00    -0.507 OA
ATOM     23  H   UNL     1      53.958 -40.688  31.896  1.00  0.00     0.293 HD
ENDBRANCH   6  22
BRANCH   8  24
ATOM     24  O   UNL     1      52.225 -37.243  27.673  1.00  0.00    -0.508 OA
ATOM     25  H   UNL     1      53.141 -37.020  27.303  1.00  0.00     0.293 HD
ENDBRANCH   8  24
TORSDOF 5
ENDMDL
MODEL 5
REMARK VINA RESULT:    -5.472      1.563      2.501
REMARK INTER + INTRA:          -6.695
REMARK INTER:                  -6.431
REMARK INTRA:                  -0.264
REMARK UNBOUND:                -0.264
REMARK SMILES O=c1cc(-c2ccc(O)c(O)c2)oc2cc(O)cc(O)c12
REMARK SMILES IDX 4 1 3 2 2 3 1 4 21 5 19 6 18 7 16 8 15 9 14 10 13 11 5 12
REMARK SMILES IDX 6 13 7 14 8 15 12 16 10 17 9 18 11 20 20 22 17 24
REMARK H PARENT 9 19 11 21 20 23 17 25
REMARK Flexibility Score: inf
ROOT
ATOM      1  C   UNL     1      47.211 -42.424  30.204  1.00  0.00     0.138 A 
ATOM      2  C   UNL     1      48.209 -43.154  30.872  1.00  0.00     0.100 A 
ATOM      3  C   UNL     1      49.474 -42.589  31.043  1.00  0.00     0.197 A 
ATOM      4  O   UNL     1      50.362 -43.252  31.645  1.00  0.00    -0.289 OA
ATOM      5  C   UNL     1      49.731 -41.294  30.550  1.00  0.00     0.107 A 
ATOM      6  C   UNL     1      50.983 -40.650  30.681  1.00  0.00     0.134 A 
ATOM      7  C   UNL     1      51.157 -39.357  30.167  1.00  0.00     0.093 A 
ATOM      8  C   UNL     1      50.105 -38.698  29.526  1.00  0.00     0.123 A 
ATOM      9  C   UNL     1      48.864 -39.329  29.394  1.00  0.00     0.094 A 
ATOM     10  C   UNL     1      48.672 -40.619  29.898  1.00  0.00     0.146 A 
ATOM     11  O   UNL     1      47.483 -41.200  29.759  1.00  0.00    -0.456 OA
ENDROOT
BRANCH   1  12
ATOM     12  C   UNL     1      45.848 -42.973  29.993  1.00  0.00     0.021 A 
ATOM     13  C   UNL     1      45.470 -43.410  28.711  1.00  0.00     0.016 A 
ATOM     14  C   UNL     1      44.195 -43.937  28.488  1.00  0.00     0.051 A 
ATOM     15  C   UNL     1      43.280 -44.044  29.542  1.00  0.00     0.157 A 
ATOM     16  C   UNL     1      44.926 -43.095  31.051  1.00  0.00     0.062 A 
ATOM     17  C   UNL     1      43.648 -43.626  30.827  1.00  0.00     0.158 A 
BRANCH  15  18
ATOM     18  O   UNL     1      42.008 -44.568  29.322  1.00  0.00    -0.504 OA
ATOM     19  H   UNL     1      41.248 -43.988  28.985  1.00  0.00     0.293 HD
ENDBRANCH  15  18
BRANCH  17  20
ATOM     20  O   UNL     1      42.739 -43.744  31.876  1.00  0.00    -0.504 OA
ATOM     21  H   UNL     1      42.653 -43.027  32.587  1.00  0.00     0.293 HD
ENDBRANCH  17  20
ENDBRANCH   1  12
BRANCH   6  22
ATOM     22  O   UNL     1      52.053 -41.283  31.316  1.00  0.00    -0.507 OA
ATOM     23  H   UNL     1      52.018 -42.264  31.569  1.00  0.00     0.293 HD
ENDBRANCH   6  22
BRANCH   8  24
ATOM     24  O   UNL     1      50.304 -37.413  29.024  1.00  0.00    -0.508 OA
ATOM     25  H   UNL     1      51.061 -37.206  28.384  1.00  0.00     0.293 HD
ENDBRANCH   8  24
TORSDOF 5
ENDMDL
MODEL 6
REMARK VINA RESULT:    -5.316      1.700      2.658
REMARK INTER + INTRA:          -6.511
REMARK INTER:                  -6.206
REMARK INTRA:                  -0.306
REMARK UNBOUND:                -0.264
REMARK SMILES O=c1cc(-c2ccc(O)c(O)c2)oc2cc(O)cc(O)c12
REMARK SMILES IDX 4 1 3 2 2 3 1 4 21 5 19 6 18 7 16 8 15 9 14 10 13 11 5 12
REMARK SMILES IDX 6 13 7 14 8 15 12 16 10 17 9 18 11 20 20 22 17 24
REMARK H PARENT 9 19 11 21 20 23 17 25
REMARK Flexibility Score: inf
ROOT
ATOM      1  C   UNL     1      48.059 -40.212  30.289  1.00  0.00     0.138 A 
ATOM      2  C   UNL     1      47.852 -38.826  30.386  1.00  0.00     0.100 A 
ATOM      3  C   UNL     1      48.864 -37.952  29.984  1.00  0.00     0.197 A 
ATOM      4  O   UNL     1      48.668 -36.709  30.074  1.00  0.00    -0.289 OA
ATOM      5  C   UNL     1      50.074 -38.471  29.483  1.00  0.00     0.107 A 
ATOM      6  C   UNL     1      51.148 -37.656  29.056  1.00  0.00     0.134 A 
ATOM      7  C   UNL     1      52.320 -38.250  28.564  1.00  0.00     0.093 A 
ATOM      8  C   UNL     1      52.437 -39.640  28.491  1.00  0.00     0.123 A 
ATOM      9  C   UNL     1      51.377 -40.452  28.912  1.00  0.00     0.094 A 
ATOM     10  C   UNL     1      50.202 -39.878  29.407  1.00  0.00     0.146 A 
ATOM     11  O   UNL     1      49.210 -40.670  29.802  1.00  0.00    -0.456 OA
ENDROOT
BRANCH   1  12
ATOM     12  C   UNL     1      47.020 -41.189  30.701  1.00  0.00     0.021 A 
ATOM     13  C   UNL     1      46.118 -40.851  31.725  1.00  0.00     0.016 A 
ATOM     14  C   UNL     1      45.127 -41.751  32.125  1.00  0.00     0.051 A 
ATOM     15  C   UNL     1      45.014 -42.999  31.503  1.00  0.00     0.157 A 
ATOM     16  C   UNL     1      46.892 -42.443  30.071  1.00  0.00     0.062 A 
ATOM     17  C   UNL     1      45.895 -43.345  30.472  1.00  0.00     0.158 A 
BRANCH  15  18
ATOM     18  O   UNL     1      44.028 -43.900  31.901  1.00  0.00    -0.504 OA
ATOM     19  H   UNL     1      43.682 -43.920  32.853  1.00  0.00     0.293 HD
ENDBRANCH  15  18
BRANCH  17  20
ATOM     20  O   UNL     1      45.774 -44.585  29.848  1.00  0.00    -0.504 OA
ATOM     21  H   UNL     1      44.875 -45.040  29.740  1.00  0.00     0.293 HD
ENDBRANCH  17  20
ENDBRANCH   1  12
BRANCH   6  22
ATOM     22  O   UNL     1      51.061 -36.264  29.116  1.00  0.00    -0.507 OA
ATOM     23  H   UNL     1      51.511 -35.733  29.853  1.00  0.00     0.293 HD
ENDBRANCH   6  22
BRANCH   8  24
ATOM     24  O   UNL     1      53.610 -40.206  27.999  1.00  0.00    -0.508 OA
ATOM     25  H   UNL     1      54.027 -41.022  28.431  1.00  0.00     0.293 HD
ENDBRANCH   8  24
TORSDOF 5
ENDMDL
MODEL 7
REMARK VINA RESULT:    -5.077      2.662      6.632
REMARK INTER + INTRA:          -6.232
REMARK INTER:                  -5.968
REMARK INTRA:                  -0.264
REMARK UNBOUND:                -0.264
REMARK SMILES O=c1cc(-c2ccc(O)c(O)c2)oc2cc(O)cc(O)c12
REMARK SMILES IDX 4 1 3 2 2 3 1 4 21 5 19 6 18 7 16 8 15 9 14 10 13 11 5 12
REMARK SMILES IDX 6 13 7 14 8 15 12 16 10 17 9 18 11 20 20 22 17 24
REMARK H PARENT 9 19 11 21 20 23 17 25
REMARK Flexibility Score: inf
ROOT
ATOM      1  C   UNL     1      47.949 -40.696  30.568  1.00  0.00     0.138 A 
ATOM      2  C   UNL     1      48.844 -41.721  30.911  1.00  0.00     0.100 A 
ATOM      3  C   UNL     1      48.486 -43.051  30.683  1.00  0.00     0.197 A 
ATOM      4  O   UNL     1      49.298 -43.965  30.993  1.00  0.00    -0.289 OA
ATOM      5  C   UNL     1      47.234 -43.345  30.106  1.00  0.00     0.107 A 
ATOM      6  C   UNL     1      46.793 -44.663  29.842  1.00  0.00     0.134 A 
ATOM      7  C   UNL     1      45.534 -44.871  29.261  1.00  0.00     0.093 A 
ATOM      8  C   UNL     1      44.710 -43.791  28.940  1.00  0.00     0.123 A 
ATOM      9  C   UNL     1      45.140 -42.485  29.198  1.00  0.00     0.094 A 
ATOM     10  C   UNL     1      46.391 -42.256  29.778  1.00  0.00     0.146 A 
ATOM     11  O   UNL     1      46.778 -41.006  30.016  1.00  0.00    -0.456 OA
ENDROOT
BRANCH   1  12
ATOM     12  C   UNL     1      48.275 -39.264  30.788  1.00  0.00     0.021 A 
ATOM     13  C   UNL     1      47.725 -38.590  31.892  1.00  0.00     0.016 A 
ATOM     14  C   UNL     1      48.023 -37.245  32.124  1.00  0.00     0.051 A 
ATOM     15  C   UNL     1      48.882 -36.553  31.264  1.00  0.00     0.157 A 
ATOM     16  C   UNL     1      49.149 -38.564  29.932  1.00  0.00     0.062 A 
ATOM     17  C   UNL     1      49.450 -37.214  30.167  1.00  0.00     0.158 A 
BRANCH  15  18
ATOM     18  O   UNL     1      49.180 -35.211  31.491  1.00  0.00    -0.504 OA
ATOM     19  H   UNL     1      49.806 -34.926  32.235  1.00  0.00     0.293 HD
ENDBRANCH  15  18
BRANCH  17  20
ATOM     20  O   UNL     1      50.313 -36.526  29.318  1.00  0.00    -0.504 OA
ATOM     21  H   UNL     1      51.201 -36.163  29.644  1.00  0.00     0.293 HD
ENDBRANCH  17  20
ENDBRANCH   1  12
BRANCH   6  22
ATOM     22  O   UNL     1      47.595 -45.763  30.152  1.00  0.00    -0.507 OA
ATOM     23  H   UNL     1      47.993 -46.352  29.430  1.00  0.00     0.293 HD
ENDBRANCH   6  22
BRANCH   8  24
ATOM     24  O   UNL     1      43.464 -44.025  28.363  1.00  0.00    -0.508 OA
ATOM     25  H   UNL     1      43.043 -43.362  27.723  1.00  0.00     0.293 HD
ENDBRANCH   8  24
TORSDOF 5
ENDMDL
MODEL 8
REMARK VINA RESULT:    -4.525      6.800     10.747
REMARK INTER + INTRA:          -5.582
REMARK INTER:                  -5.304
REMARK INTRA:                  -0.278
REMARK UNBOUND:                -0.264
REMARK SMILES O=c1cc(-c2ccc(O)c(O)c2)oc2cc(O)cc(O)c12
REMARK SMILES IDX 4 1 3 2 2 3 1 4 21 5 19 6 18 7 16 8 15 9 14 10 13 11 5 12
REMARK SMILES IDX 6 13 7 14 8 15 12 16 10 17 9 18 11 20 20 22 17 24
REMARK H PARENT 9 19 11 21 20 23 17 25
REMARK Flexibility Score: inf
ROOT
ATOM      1  C   UNL     1      54.575 -35.982  24.254  1.00  0.00     0.138 A 
ATOM      2  C   UNL     1      54.772 -36.832  23.155  1.00  0.00     0.100 A 
ATOM      3  C   UNL     1      54.894 -36.284  21.876  1.00  0.00     0.197 A 
ATOM      4  O   UNL     1      55.072 -37.056  20.895  1.00  0.00    -0.289 OA
ATOM      5  C   UNL     1      54.824 -34.887  21.708  1.00  0.00     0.107 A 
ATOM      6  C   UNL     1      54.938 -34.251  20.450  1.00  0.00     0.134 A 
ATOM      7  C   UNL     1      54.862 -32.853  20.368  1.00  0.00     0.093 A 
ATOM      8  C   UNL     1      54.676 -32.081  21.517  1.00  0.00     0.123 A 
ATOM      9  C   UNL     1      54.564 -32.704  22.765  1.00  0.00     0.094 A 
ATOM     10  C   UNL     1      54.635 -34.096  22.867  1.00  0.00     0.146 A 
ATOM     11  O   UNL     1      54.523 -34.666  24.063  1.00  0.00    -0.456 OA
ENDROOT
BRANCH   1  12
ATOM     12  C   UNL     1      54.438 -36.507  25.636  1.00  0.00     0.021 A 
ATOM     13  C   UNL     1      55.124 -35.874  26.688  1.00  0.00     0.016 A 
ATOM     14  C   UNL     1      55.006 -36.345  27.998  1.00  0.00     0.051 A 
ATOM     15  C   UNL     1      54.195 -37.449  28.282  1.00  0.00     0.157 A 
ATOM     16  C   UNL     1      53.614 -37.611  25.931  1.00  0.00     0.062 A 
ATOM     17  C   UNL     1      53.495 -38.082  27.247  1.00  0.00     0.158 A 
BRANCH  15  18
ATOM     18  O   UNL     1      54.077 -37.923  29.587  1.00  0.00    -0.504 OA
ATOM     19  H   UNL     1      54.713 -38.618  29.958  1.00  0.00     0.293 HD
ENDBRANCH  15  18
BRANCH  17  20
ATOM     20  O   UNL     1      52.680 -39.175  27.534  1.00  0.00    -0.504 OA
ATOM     21  H   UNL     1      52.970 -40.123  27.324  1.00  0.00     0.293 HD
ENDBRANCH  17  20
ENDBRANCH   1  12
BRANCH   6  22
ATOM     22  O   UNL     1      55.125 -34.996  19.284  1.00  0.00    -0.507 OA
ATOM     23  H   UNL     1      55.821 -34.740  18.594  1.00  0.00     0.293 HD
ENDBRANCH   6  22
BRANCH   8  24
ATOM     24  O   UNL     1      54.605 -30.694  21.408  1.00  0.00    -0.508 OA
ATOM     25  H   UNL     1      53.944 -30.244  20.786  1.00  0.00     0.293 HD
ENDBRANCH   8  24
TORSDOF 5
ENDMDL
MODEL 9
REMARK VINA RESULT:    -4.079      1.758      3.424
REMARK INTER + INTRA:          -5.057
REMARK INTER:                  -4.793
REMARK INTRA:                  -0.265
REMARK UNBOUND:                -0.264
REMARK SMILES O=c1cc(-c2ccc(O)c(O)c2)oc2cc(O)cc(O)c12
REMARK SMILES IDX 4 1 3 2 2 3 1 4 21 5 19 6 18 7 16 8 15 9 14 10 13 11 5 12
REMARK SMILES IDX 6 13 7 14 8 15 12 16 10 17 9 18 11 20 20 22 17 24
REMARK H PARENT 9 19 11 21 20 23 17 25
REMARK Flexibility Score: inf
ROOT
ATOM      1  C   UNL     1      46.567 -41.495  30.338  1.00  0.00     0.138 A 
ATOM      2  C   UNL     1      46.483 -40.281  29.637  1.00  0.00     0.100 A 
ATOM      3  C   UNL     1      47.637 -39.521  29.440  1.00  0.00     0.197 A 
ATOM      4  O   UNL     1      47.552 -38.433  28.808  1.00  0.00    -0.289 OA
ATOM      5  C   UNL     1      48.870 -39.984  29.942  1.00  0.00     0.107 A 
ATOM      6  C   UNL     1      50.084 -39.276  29.787  1.00  0.00     0.134 A 
ATOM      7  C   UNL     1      51.271 -39.808  30.312  1.00  0.00     0.093 A 
ATOM      8  C   UNL     1      51.266 -41.030  30.987  1.00  0.00     0.123 A 
ATOM      9  C   UNL     1      50.068 -41.736  31.144  1.00  0.00     0.094 A 
ATOM     10  C   UNL     1      48.875 -41.221  30.629  1.00  0.00     0.146 A 
ATOM     11  O   UNL     1      47.748 -41.909  30.791  1.00  0.00    -0.456 OA
ENDROOT
BRANCH   1  12
ATOM     12  C   UNL     1      45.374 -42.345  30.578  1.00  0.00     0.021 A 
ATOM     13  C   UNL     1      44.839 -42.438  31.875  1.00  0.00     0.016 A 
ATOM     14  C   UNL     1      43.713 -43.225  32.125  1.00  0.00     0.051 A 
ATOM     15  C   UNL     1      43.096 -43.927  31.083  1.00  0.00     0.157 A 
ATOM     16  C   UNL     1      44.740 -43.044  29.532  1.00  0.00     0.062 A 
ATOM     17  C   UNL     1      43.608 -43.833  29.783  1.00  0.00     0.158 A 
BRANCH  15  18
ATOM     18  O   UNL     1      41.973 -44.715  31.329  1.00  0.00    -0.504 OA
ATOM     19  H   UNL     1      41.817 -45.146  32.232  1.00  0.00     0.293 HD
ENDBRANCH  15  18
BRANCH  17  20
ATOM     20  O   UNL     1      42.985 -44.524  28.745  1.00  0.00    -0.504 OA
ATOM     21  H   UNL     1      42.644 -45.470  28.867  1.00  0.00     0.293 HD
ENDBRANCH  17  20
ENDBRANCH   1  12
BRANCH   6  22
ATOM     22  O   UNL     1      50.121 -38.052  29.117  1.00  0.00    -0.507 OA
ATOM     23  H   UNL     1      50.811 -37.857  28.400  1.00  0.00     0.293 HD
ENDBRANCH   6  22
BRANCH   8  24
ATOM     24  O   UNL     1      52.459 -41.537  31.499  1.00  0.00    -0.508 OA
ATOM     25  H   UNL     1      53.349 -41.094  31.306  1.00  0.00     0.293 HD
ENDBRANCH   8  24
TORSDOF 5
ENDMDL
