MODEL 1
REMARK VINA RESULT:    -1.865      0.000      0.000
REMARK INTER + INTRA:          -1.919
REMARK INTER:                  -1.919
REMARK INTRA:                   0.000
REMARK UNBOUND:                 0.000
REMARK SMILES C[C@@H]1CC[C@]2(OC1)O[C@H]1C[C@@H]3[C@@H]4CC=C5C[C@H](O)CC[C@@]5(C)[C@H]4CC[C@]3(C)[C@H]1[C@@H]2C
REMARK SMILES IDX 1 1 2 2 3 3 4 4 5 5 29 6 28 7 9 8 8 9 10 10 11 11 26 12
REMARK SMILES IDX 25 13 24 14 23 15 12 16 13 17 14 18 15 19 21 20 20 21 19 22
REMARK SMILES IDX 17 23 16 24 22 25 27 26 30 27 6 28 7 29 18 30
REMARK H PARENT 18 31
REMARK Flexibility Score: inf
ROOT
ATOM      1  C   UNL     1      29.305   3.203   2.875  1.00  0.00     0.010 C 
ATOM      2  C   UNL     1      28.892   2.803   4.299  1.00  0.00     0.012 C 
ATOM      3  C   UNL     1      28.656   4.029   5.198  1.00  0.00     0.011 C 
ATOM      4  C   UNL     1      29.981   4.679   5.606  1.00  0.00     0.066 C 
ATOM      5  C   UNL     1      30.964   3.611   6.170  1.00  0.00     0.171 C 
ATOM      6  C   UNL     1      32.347   4.182   6.535  1.00  0.00     0.052 C 
ATOM      7  C   UNL     1      32.129   4.704   7.951  1.00  0.00     0.033 C 
ATOM      8  C   UNL     1      31.057   3.751   8.453  1.00  0.00     0.126 C 
ATOM      9  O   UNL     1      30.428   3.093   7.371  1.00  0.00    -0.346 OA
ATOM     10  C   UNL     1      31.743   2.724   9.354  1.00  0.00     0.037 C 
ATOM     11  C   UNL     1      33.172   3.225   9.638  1.00  0.00     0.002 C 
ATOM     12  C   UNL     1      33.313   4.625   8.970  1.00  0.00    -0.024 C 
ATOM     13  C   UNL     1      33.204   5.788  10.023  1.00  0.00     0.008 C 
ATOM     14  C   UNL     1      32.258   5.489  11.193  1.00  0.00     0.005 C 
ATOM     15  C   UNL     1      32.649   4.198  11.975  1.00  0.00     0.003 C 
ATOM     16  C   UNL     1      33.553   3.258  11.141  1.00  0.00     0.000 C 
ATOM     17  C   UNL     1      33.556   1.875  11.799  1.00  0.00     0.031 C 
ATOM     18  C   UNL     1      34.007   1.988  13.229  1.00  0.00    -0.027 C 
ATOM     19  C   UNL     1      33.849   3.109  13.977  1.00  0.00    -0.065 C 
ATOM     20  C   UNL     1      33.242   4.416  13.421  1.00  0.00    -0.008 C 
ATOM     21  C   UNL     1      34.377   5.491  13.431  1.00  0.00     0.014 C 
ATOM     22  C   UNL     1      35.125   5.590  14.777  1.00  0.00     0.033 C 
ATOM     23  C   UNL     1      35.670   4.230  15.241  1.00  0.00     0.118 C 
ATOM     24  C   UNL     1      34.546   3.185  15.319  1.00  0.00     0.063 C 
ATOM     25  C   UNL     1      32.081   4.862  14.350  1.00  0.00     0.016 C 
ATOM     26  C   UNL     1      34.707   4.766   8.304  1.00  0.00     0.012 C 
ATOM     27  C   UNL     1      32.894   5.230   5.547  1.00  0.00     0.014 C 
ATOM     28  O   UNL     1      31.151   2.568   5.219  1.00  0.00    -0.349 OA
ATOM     29  C   UNL     1      29.942   1.880   4.944  1.00  0.00     0.167 C 
ENDROOT
BRANCH  23  30
ATOM     30  O   UNL     1      36.268   4.381  16.501  1.00  0.00    -0.393 OA
ATOM     31  H   UNL     1      35.816   5.147  16.943  1.00  0.00     0.210 HD
ENDBRANCH  23  30
TORSDOF 1
ENDMDL
MODEL 2
REMARK VINA RESULT:     0.952      3.194      8.389
REMARK INTER + INTRA:           0.980
REMARK INTER:                   0.980
REMARK INTRA:                   0.000
REMARK UNBOUND:                 0.000
REMARK SMILES C[C@@H]1CC[C@]2(OC1)O[C@H]1C[C@@H]3[C@@H]4CC=C5C[C@H](O)CC[C@@]5(C)[C@H]4CC[C@]3(C)[C@H]1[C@@H]2C
REMARK SMILES IDX 1 1 2 2 3 3 4 4 5 5 29 6 28 7 9 8 8 9 10 10 11 11 26 12
REMARK SMILES IDX 25 13 24 14 23 15 12 16 13 17 14 18 15 19 21 20 20 21 19 22
REMARK SMILES IDX 17 23 16 24 22 25 27 26 30 27 6 28 7 29 18 30
REMARK H PARENT 18 31
REMARK Flexibility Score: inf
ROOT
ATOM      1  C   UNL     1      40.255   7.839  12.569  1.00  0.00     0.010 C 
ATOM      2  C   UNL     1      40.004   6.737  11.528  1.00  0.00     0.012 C 
ATOM      3  C   UNL     1      39.512   7.310  10.188  1.00  0.00     0.011 C 
ATOM      4  C   UNL     1      38.052   7.761  10.281  1.00  0.00     0.066 C 
ATOM      5  C   UNL     1      37.169   6.634  10.894  1.00  0.00     0.171 C 
ATOM      6  C   UNL     1      35.698   7.044  11.085  1.00  0.00     0.052 C 
ATOM      7  C   UNL     1      35.090   6.751   9.718  1.00  0.00     0.033 C 
ATOM      8  C   UNL     1      35.960   5.595   9.252  1.00  0.00     0.126 C 
ATOM      9  O   UNL     1      37.155   5.536  10.004  1.00  0.00    -0.346 OA
ATOM     10  C   UNL     1      35.159   4.309   9.451  1.00  0.00     0.037 C 
ATOM     11  C   UNL     1      33.701   4.704   9.757  1.00  0.00     0.002 C 
ATOM     12  C   UNL     1      33.608   6.254   9.646  1.00  0.00    -0.024 C 
ATOM     13  C   UNL     1      32.947   6.704   8.292  1.00  0.00     0.008 C 
ATOM     14  C   UNL     1      33.251   5.778   7.107  1.00  0.00     0.005 C 
ATOM     15  C   UNL     1      32.814   4.304   7.362  1.00  0.00     0.003 C 
ATOM     16  C   UNL     1      32.645   3.994   8.870  1.00  0.00     0.000 C 
ATOM     17  C   UNL     1      32.617   2.474   9.054  1.00  0.00     0.031 C 
ATOM     18  C   UNL     1      31.520   1.875   8.218  1.00  0.00    -0.027 C 
ATOM     19  C   UNL     1      31.057   2.442   7.075  1.00  0.00    -0.065 C 
ATOM     20  C   UNL     1      31.566   3.798   6.539  1.00  0.00    -0.008 C 
ATOM     21  C   UNL     1      30.369   4.801   6.616  1.00  0.00     0.014 C 
ATOM     22  C   UNL     1      29.063   4.256   6.000  1.00  0.00     0.033 C 
ATOM     23  C   UNL     1      28.663   2.897   6.595  1.00  0.00     0.118 C 
ATOM     24  C   UNL     1      29.801   1.875   6.448  1.00  0.00     0.063 C 
ATOM     25  C   UNL     1      32.012   3.615   5.063  1.00  0.00     0.016 C 
ATOM     26  C   UNL     1      32.715   6.822  10.780  1.00  0.00     0.012 C 
ATOM     27  C   UNL     1      35.487   8.488  11.580  1.00  0.00     0.014 C 
ATOM     28  O   UNL     1      37.689   6.241  12.161  1.00  0.00    -0.349 OA
ATOM     29  C   UNL     1      38.995   5.699  12.051  1.00  0.00     0.167 C 
ENDROOT
BRANCH  23  30
ATOM     30  O   UNL     1      27.515   2.429   5.938  1.00  0.00    -0.393 OA
ATOM     31  H   UNL     1      26.737   2.870   6.371  1.00  0.00     0.210 HD
ENDBRANCH  23  30
TORSDOF 1
ENDMDL
