MODEL 1
REMARK VINA RESULT:    -4.929      0.000      0.000
REMARK INTER + INTRA:          -7.938
REMARK INTER:                  -7.523
REMARK INTRA:                  -0.415
REMARK UNBOUND:                -0.415
REMARK SMILES O=C([O-])CCCCCCCCC(=O)[O-]
REMARK SMILES IDX 7 1 6 2 5 3 4 4 2 5 1 6 3 7 8 8 9 9 10 10 11 11 12 12 13 13
REMARK SMILES IDX 14 14
REMARK H PARENT
REMARK Flexibility Score: inf
ROOT
ATOM      1  C   UNL     1      -9.780  22.729 -26.046  1.00  0.00     0.000 C 
ENDROOT
BRANCH   1   2
ATOM      2  C   UNL     1     -10.313  22.298 -24.672  1.00  0.00     0.000 C 
BRANCH   2   3
ATOM      3  C   UNL     1      -9.378  22.684 -23.513  1.00  0.00     0.006 C 
BRANCH   3   4
ATOM      4  C   UNL     1     -10.105  23.282 -22.295  1.00  0.00     0.053 C 
BRANCH   4   5
ATOM      5  C   UNL     1      -9.548  22.794 -20.992  1.00  0.00     0.041 C 
ATOM      6  O   UNL     1      -8.404  23.157 -20.613  1.00  0.00    -0.550 OA
ATOM      7  O   UNL     1     -10.310  21.963 -20.179  1.00  0.00    -0.550 OA
ENDBRANCH   4   5
ENDBRANCH   3   4
ENDBRANCH   2   3
ENDBRANCH   1   2
BRANCH   1   8
ATOM      8  C   UNL     1      -9.588  24.248 -26.109  1.00  0.00     0.000 C 
BRANCH   8   9
ATOM      9  C   UNL     1      -8.877  24.661 -27.403  1.00  0.00     0.000 C 
BRANCH   9  10
ATOM     10  C   UNL     1      -9.208  26.114 -27.774  1.00  0.00     0.006 C 
BRANCH  10  11
ATOM     11  C   UNL     1      -8.011  27.054 -27.568  1.00  0.00     0.053 C 
BRANCH  11  12
ATOM     12  C   UNL     1      -7.966  27.599 -26.174  1.00  0.00     0.041 C 
ATOM     13  O   UNL     1      -6.865  27.920 -25.654  1.00  0.00    -0.550 OA
ATOM     14  O   UNL     1      -9.144  27.784 -25.460  1.00  0.00    -0.550 OA
ENDBRANCH  11  12
ENDBRANCH  10  11
ENDBRANCH   9  10
ENDBRANCH   8   9
ENDBRANCH   1   8
TORSDOF 9
ENDMDL
MODEL 2
REMARK VINA RESULT:    -4.917      0.216      6.023
REMARK INTER + INTRA:          -7.920
REMARK INTER:                  -7.490
REMARK INTRA:                  -0.429
REMARK UNBOUND:                -0.415
REMARK SMILES O=C([O-])CCCCCCCCC(=O)[O-]
REMARK SMILES IDX 7 1 6 2 5 3 4 4 2 5 1 6 3 7 8 8 9 9 10 10 11 11 12 12 13 13
REMARK SMILES IDX 14 14
REMARK H PARENT
REMARK Flexibility Score: inf
ROOT
ATOM      1  C   UNL     1      -9.493  24.203 -25.952  1.00  0.00     0.000 C 
ENDROOT
BRANCH   1   2
ATOM      2  C   UNL     1      -9.002  24.693 -27.321  1.00  0.00     0.000 C 
BRANCH   2   3
ATOM      3  C   UNL     1      -9.200  26.205 -27.527  1.00  0.00     0.006 C 
BRANCH   3   4
ATOM      4  C   UNL     1      -7.936  27.044 -27.261  1.00  0.00     0.053 C 
BRANCH   4   5
ATOM      5  C   UNL     1      -7.934  27.671 -25.900  1.00  0.00     0.041 C 
ATOM      6  O   UNL     1      -6.860  28.093 -25.395  1.00  0.00    -0.550 OA
ATOM      7  O   UNL     1      -9.126  27.820 -25.201  1.00  0.00    -0.550 OA
ENDBRANCH   4   5
ENDBRANCH   3   4
ENDBRANCH   2   3
ENDBRANCH   1   2
BRANCH   1   8
ATOM      8  C   UNL     1      -9.899  22.725 -26.009  1.00  0.00     0.000 C 
BRANCH   8   9
ATOM      9  C   UNL     1     -10.281  22.203 -24.619  1.00  0.00     0.000 C 
BRANCH   9  10
ATOM     10  C   UNL     1      -9.392  22.827 -23.533  1.00  0.00     0.006 C 
BRANCH  10  11
ATOM     11  C   UNL     1     -10.194  23.239 -22.291  1.00  0.00     0.053 C 
BRANCH  11  12
ATOM     12  C   UNL     1      -9.531  22.790 -21.026  1.00  0.00     0.041 C 
ATOM     13  O   UNL     1      -8.310  23.031 -20.830  1.00  0.00    -0.550 OA
ATOM     14  O   UNL     1     -10.268  22.135 -20.047  1.00  0.00    -0.550 OA
ENDBRANCH  11  12
ENDBRANCH  10  11
ENDBRANCH   9  10
ENDBRANCH   8   9
ENDBRANCH   1   8
TORSDOF 9
ENDMDL
MODEL 3
REMARK VINA RESULT:    -4.628      7.342      8.813
REMARK INTER + INTRA:          -7.478
REMARK INTER:                  -6.849
REMARK INTRA:                  -0.629
REMARK UNBOUND:                -0.415
REMARK SMILES O=C([O-])CCCCCCCCC(=O)[O-]
REMARK SMILES IDX 7 1 6 2 5 3 4 4 2 5 1 6 3 7 8 8 9 9 10 10 11 11 12 12 13 13
REMARK SMILES IDX 14 14
REMARK H PARENT
REMARK Flexibility Score: inf
ROOT
ATOM      1  C   UNL     1      -2.582  29.207 -19.622  1.00  0.00     0.000 C 
ENDROOT
BRANCH   1   2
ATOM      2  C   UNL     1      -3.219  28.195 -20.584  1.00  0.00     0.000 C 
BRANCH   2   3
ATOM      3  C   UNL     1      -3.401  26.800 -19.959  1.00  0.00     0.006 C 
BRANCH   3   4
ATOM      4  C   UNL     1      -4.815  26.216 -20.133  1.00  0.00     0.053 C 
BRANCH   4   5
ATOM      5  C   UNL     1      -5.881  27.269 -20.129  1.00  0.00     0.041 C 
ATOM      6  O   UNL     1      -6.363  27.683 -19.042  1.00  0.00    -0.550 OA
ATOM      7  O   UNL     1      -6.318  27.820 -21.327  1.00  0.00    -0.550 OA
ENDBRANCH   4   5
ENDBRANCH   3   4
ENDBRANCH   2   3
ENDBRANCH   1   2
BRANCH   1   8
ATOM      8  C   UNL     1      -2.896  30.646 -20.050  1.00  0.00     0.000 C 
BRANCH   8   9
ATOM      9  C   UNL     1      -4.147  30.698 -20.933  1.00  0.00     0.000 C 
BRANCH   9  10
ATOM     10  C   UNL     1      -5.164  31.713 -20.389  1.00  0.00     0.006 C 
BRANCH  10  11
ATOM     11  C   UNL     1      -6.446  31.037 -19.882  1.00  0.00     0.053 C 
BRANCH  11  12
ATOM     12  C   UNL     1      -6.827  31.521 -18.517  1.00  0.00     0.041 C 
ATOM     13  O   UNL     1      -6.914  32.756 -18.284  1.00  0.00    -0.550 OA
ATOM     14  O   UNL     1      -7.120  30.609 -17.511  1.00  0.00    -0.550 OA
ENDBRANCH  11  12
ENDBRANCH  10  11
ENDBRANCH   9  10
ENDBRANCH   8   9
ENDBRANCH   1   8
TORSDOF 9
ENDMDL
MODEL 4
REMARK VINA RESULT:    -4.505      5.313      7.858
REMARK INTER + INTRA:          -7.290
REMARK INTER:                  -6.866
REMARK INTRA:                  -0.424
REMARK UNBOUND:                -0.415
REMARK SMILES O=C([O-])CCCCCCCCC(=O)[O-]
REMARK SMILES IDX 7 1 6 2 5 3 4 4 2 5 1 6 3 7 8 8 9 9 10 10 11 11 12 12 13 13
REMARK SMILES IDX 14 14
REMARK H PARENT
REMARK Flexibility Score: inf
ROOT
ATOM      1  C   UNL     1      -5.734  29.322 -22.721  1.00  0.00     0.000 C 
ENDROOT
BRANCH   1   2
ATOM      2  C   UNL     1      -6.990  28.558 -23.158  1.00  0.00     0.000 C 
BRANCH   2   3
ATOM      3  C   UNL     1      -6.969  28.161 -24.646  1.00  0.00     0.006 C 
BRANCH   3   4
ATOM      4  C   UNL     1      -8.338  27.718 -25.194  1.00  0.00     0.053 C 
BRANCH   4   5
ATOM      5  C   UNL     1      -8.261  27.216 -26.604  1.00  0.00     0.041 C 
ATOM      6  O   UNL     1      -7.536  27.803 -27.450  1.00  0.00    -0.550 OA
ATOM      7  O   UNL     1      -8.965  26.077 -26.976  1.00  0.00    -0.550 OA
ENDBRANCH   4   5
ENDBRANCH   3   4
ENDBRANCH   2   3
ENDBRANCH   1   2
BRANCH   1   8
ATOM      8  C   UNL     1      -4.998  28.578 -21.601  1.00  0.00     0.000 C 
BRANCH   8   9
ATOM      9  C   UNL     1      -5.978  27.781 -20.732  1.00  0.00     0.000 C 
BRANCH   9  10
ATOM     10  C   UNL     1      -5.911  28.235 -19.267  1.00  0.00     0.006 C 
BRANCH  10  11
ATOM     11  C   UNL     1      -5.488  29.704 -19.132  1.00  0.00     0.053 C 
BRANCH  11  12
ATOM     12  C   UNL     1      -6.628  30.574 -18.700  1.00  0.00     0.041 C 
ATOM     13  O   UNL     1      -6.959  31.574 -19.391  1.00  0.00    -0.550 OA
ATOM     14  O   UNL     1      -7.348  30.261 -17.554  1.00  0.00    -0.550 OA
ENDBRANCH  11  12
ENDBRANCH  10  11
ENDBRANCH   9  10
ENDBRANCH   8   9
ENDBRANCH   1   8
TORSDOF 9
ENDMDL
MODEL 5
REMARK VINA RESULT:    -4.487      4.627      6.030
REMARK INTER + INTRA:          -7.263
REMARK INTER:                  -6.945
REMARK INTRA:                  -0.318
REMARK UNBOUND:                -0.415
REMARK SMILES O=C([O-])CCCCCCCCC(=O)[O-]
REMARK SMILES IDX 7 1 6 2 5 3 4 4 2 5 1 6 3 7 8 8 9 9 10 10 11 11 12 12 13 13
REMARK SMILES IDX 14 14
REMARK H PARENT
REMARK Flexibility Score: inf
ROOT
ATOM      1  C   UNL     1      -6.024  28.857 -22.726  1.00  0.00     0.000 C 
ENDROOT
BRANCH   1   2
ATOM      2  C   UNL     1      -6.359  29.600 -21.425  1.00  0.00     0.000 C 
BRANCH   2   3
ATOM      3  C   UNL     1      -6.167  28.732 -20.168  1.00  0.00     0.006 C 
BRANCH   3   4
ATOM      4  C   UNL     1      -5.517  27.364 -20.445  1.00  0.00     0.053 C 
BRANCH   4   5
ATOM      5  C   UNL     1      -4.117  27.273 -19.920  1.00  0.00     0.041 C 
ATOM      6  O   UNL     1      -3.417  26.250 -20.148  1.00  0.00    -0.550 OA
ATOM      7  O   UNL     1      -3.571  28.332 -19.207  1.00  0.00    -0.550 OA
ENDBRANCH   4   5
ENDBRANCH   3   4
ENDBRANCH   2   3
ENDBRANCH   1   2
BRANCH   1   8
ATOM      8  C   UNL     1      -7.298  28.496 -23.497  1.00  0.00     0.000 C 
BRANCH   8   9
ATOM      9  C   UNL     1      -6.981  28.159 -24.959  1.00  0.00     0.000 C 
BRANCH   9  10
ATOM     10  C   UNL     1      -8.217  27.594 -25.675  1.00  0.00     0.006 C 
BRANCH  10  11
ATOM     11  C   UNL     1      -7.966  27.358 -27.171  1.00  0.00     0.053 C 
BRANCH  11  12
ATOM     12  C   UNL     1      -8.490  26.030 -27.620  1.00  0.00     0.041 C 
ATOM     13  O   UNL     1      -9.131  25.298 -26.821  1.00  0.00    -0.550 OA
ATOM     14  O   UNL     1      -8.302  25.614 -28.933  1.00  0.00    -0.550 OA
ENDBRANCH  11  12
ENDBRANCH  10  11
ENDBRANCH   9  10
ENDBRANCH   8   9
ENDBRANCH   1   8
TORSDOF 9
ENDMDL
MODEL 6
REMARK VINA RESULT:    -4.482      5.234      8.036
REMARK INTER + INTRA:          -7.256
REMARK INTER:                  -7.033
REMARK INTRA:                  -0.222
REMARK UNBOUND:                -0.415
REMARK SMILES O=C([O-])CCCCCCCCC(=O)[O-]
REMARK SMILES IDX 7 1 6 2 5 3 4 4 2 5 1 6 3 7 8 8 9 9 10 10 11 11 12 12 13 13
REMARK SMILES IDX 14 14
REMARK H PARENT
REMARK Flexibility Score: inf
ROOT
ATOM      1  C   UNL     1      -6.127  28.805 -23.000  1.00  0.00     0.000 C 
ENDROOT
BRANCH   1   2
ATOM      2  C   UNL     1      -7.417  28.375 -23.710  1.00  0.00     0.000 C 
BRANCH   2   3
ATOM      3  C   UNL     1      -7.198  28.004 -25.187  1.00  0.00     0.006 C 
BRANCH   3   4
ATOM      4  C   UNL     1      -8.467  27.501 -25.901  1.00  0.00     0.053 C 
BRANCH   4   5
ATOM      5  C   UNL     1      -8.205  27.069 -27.311  1.00  0.00     0.041 C 
ATOM      6  O   UNL     1      -7.268  27.589 -27.973  1.00  0.00    -0.550 OA
ATOM      7  O   UNL     1      -8.976  26.066 -27.886  1.00  0.00    -0.550 OA
ENDBRANCH   4   5
ENDBRANCH   3   4
ENDBRANCH   2   3
ENDBRANCH   1   2
BRANCH   1   8
ATOM      8  C   UNL     1      -6.192  28.490 -21.500  1.00  0.00     0.000 C 
BRANCH   8   9
ATOM      9  C   UNL     1      -6.263  29.776 -20.669  1.00  0.00     0.000 C 
BRANCH   9  10
ATOM     10  C   UNL     1      -5.186  29.785 -19.573  1.00  0.00     0.006 C 
BRANCH  10  11
ATOM     11  C   UNL     1      -4.915  28.381 -19.014  1.00  0.00     0.053 C 
BRANCH  11  12
ATOM     12  C   UNL     1      -3.497  27.956 -19.244  1.00  0.00     0.041 C 
ATOM     13  O   UNL     1      -3.227  26.745 -19.464  1.00  0.00    -0.550 OA
ATOM     14  O   UNL     1      -2.479  28.901 -19.249  1.00  0.00    -0.550 OA
ENDBRANCH  11  12
ENDBRANCH  10  11
ENDBRANCH   9  10
ENDBRANCH   8   9
ENDBRANCH   1   8
TORSDOF 9
ENDMDL
MODEL 7
REMARK VINA RESULT:    -4.450      7.579      9.481
REMARK INTER + INTRA:          -7.207
REMARK INTER:                  -6.342
REMARK INTRA:                  -0.865
REMARK UNBOUND:                -0.415
REMARK SMILES O=C([O-])CCCCCCCCC(=O)[O-]
REMARK SMILES IDX 7 1 6 2 5 3 4 4 2 5 1 6 3 7 8 8 9 9 10 10 11 11 12 12 13 13
REMARK SMILES IDX 14 14
REMARK H PARENT
REMARK Flexibility Score: inf
ROOT
ATOM      1  C   UNL     1      -3.200  30.844 -20.833  1.00  0.00     0.000 C 
ENDROOT
BRANCH   1   2
ATOM      2  C   UNL     1      -4.213  31.838 -20.249  1.00  0.00     0.000 C 
BRANCH   2   3
ATOM      3  C   UNL     1      -5.661  31.320 -20.292  1.00  0.00     0.006 C 
BRANCH   3   4
ATOM      4  C   UNL     1      -6.064  30.486 -19.061  1.00  0.00     0.053 C 
BRANCH   4   5
ATOM      5  C   UNL     1      -6.801  31.290 -18.033  1.00  0.00     0.041 C 
ATOM      6  O   UNL     1      -6.990  32.523 -18.206  1.00  0.00    -0.550 OA
ATOM      7  O   UNL     1      -7.309  30.670 -16.899  1.00  0.00    -0.550 OA
ENDBRANCH   4   5
ENDBRANCH   3   4
ENDBRANCH   2   3
ENDBRANCH   1   2
BRANCH   1   8
ATOM      8  C   UNL     1      -2.282  30.287 -19.739  1.00  0.00     0.000 C 
BRANCH   8   9
ATOM      9  C   UNL     1      -2.598  28.816 -19.449  1.00  0.00     0.000 C 
BRANCH   9  10
ATOM     10  C   UNL     1      -3.254  28.143 -20.664  1.00  0.00     0.006 C 
BRANCH  10  11
ATOM     11  C   UNL     1      -4.021  26.870 -20.280  1.00  0.00     0.053 C 
BRANCH  11  12
ATOM     12  C   UNL     1      -5.504  27.081 -20.321  1.00  0.00     0.041 C 
ATOM     13  O   UNL     1      -6.024  27.742 -21.258  1.00  0.00    -0.550 OA
ATOM     14  O   UNL     1      -6.314  26.519 -19.343  1.00  0.00    -0.550 OA
ENDBRANCH  11  12
ENDBRANCH  10  11
ENDBRANCH   9  10
ENDBRANCH   8   9
ENDBRANCH   1   8
TORSDOF 9
ENDMDL
MODEL 8
REMARK VINA RESULT:    -4.438      4.224      7.283
REMARK INTER + INTRA:          -7.188
REMARK INTER:                  -6.861
REMARK INTRA:                  -0.327
REMARK UNBOUND:                -0.415
REMARK SMILES O=C([O-])CCCCCCCCC(=O)[O-]
REMARK SMILES IDX 7 1 6 2 5 3 4 4 2 5 1 6 3 7 8 8 9 9 10 10 11 11 12 12 13 13
REMARK SMILES IDX 14 14
REMARK H PARENT
REMARK Flexibility Score: inf
ROOT
ATOM      1  C   UNL     1      -6.999  28.400 -24.431  1.00  0.00     0.000 C 
ENDROOT
BRANCH   1   2
ATOM      2  C   UNL     1      -8.350  27.700 -24.635  1.00  0.00     0.000 C 
BRANCH   2   3
ATOM      3  C   UNL     1      -8.846  27.757 -26.091  1.00  0.00     0.006 C 
BRANCH   3   4
ATOM      4  C   UNL     1      -7.829  27.229 -27.119  1.00  0.00     0.053 C 
BRANCH   4   5
ATOM      5  C   UNL     1      -8.373  26.105 -27.946  1.00  0.00     0.041 C 
ATOM      6  O   UNL     1      -9.616  25.923 -28.034  1.00  0.00    -0.550 OA
ATOM      7  O   UNL     1      -7.507  25.276 -28.649  1.00  0.00    -0.550 OA
ENDBRANCH   4   5
ENDBRANCH   3   4
ENDBRANCH   2   3
ENDBRANCH   1   2
BRANCH   1   8
ATOM      8  C   UNL     1      -6.698  28.592 -22.940  1.00  0.00     0.000 C 
BRANCH   8   9
ATOM      9  C   UNL     1      -5.327  29.246 -22.734  1.00  0.00     0.000 C 
BRANCH   9  10
ATOM     10  C   UNL     1      -5.030  29.446 -21.240  1.00  0.00     0.006 C 
BRANCH  10  11
ATOM     11  C   UNL     1      -6.283  29.271 -20.370  1.00  0.00     0.053 C 
BRANCH  11  12
ATOM     12  C   UNL     1      -6.104  28.190 -19.348  1.00  0.00     0.041 C 
ATOM     13  O   UNL     1      -6.024  28.482 -18.125  1.00  0.00    -0.550 OA
ATOM     14  O   UNL     1      -6.059  26.859 -19.742  1.00  0.00    -0.550 OA
ENDBRANCH  11  12
ENDBRANCH  10  11
ENDBRANCH   9  10
ENDBRANCH   8   9
ENDBRANCH   1   8
TORSDOF 9
ENDMDL
MODEL 9
REMARK VINA RESULT:    -4.354      7.603      9.794
REMARK INTER + INTRA:          -7.059
REMARK INTER:                  -6.185
REMARK INTRA:                  -0.874
REMARK UNBOUND:                -0.415
REMARK SMILES O=C([O-])CCCCCCCCC(=O)[O-]
REMARK SMILES IDX 7 1 6 2 5 3 4 4 2 5 1 6 3 7 8 8 9 9 10 10 11 11 12 12 13 13
REMARK SMILES IDX 14 14
REMARK H PARENT
REMARK Flexibility Score: inf
ROOT
ATOM      1  C   UNL     1      -3.251  28.049 -20.549  1.00  0.00     0.000 C 
ENDROOT
BRANCH   1   2
ATOM      2  C   UNL     1      -2.584  29.075 -19.623  1.00  0.00     0.000 C 
BRANCH   2   3
ATOM      3  C   UNL     1      -2.878  30.531 -20.025  1.00  0.00     0.006 C 
BRANCH   3   4
ATOM      4  C   UNL     1      -3.736  30.669 -21.295  1.00  0.00     0.053 C 
BRANCH   4   5
ATOM      5  C   UNL     1      -3.966  32.096 -21.687  1.00  0.00     0.041 C 
ATOM      6  O   UNL     1      -3.651  32.499 -22.838  1.00  0.00    -0.550 OA
ATOM      7  O   UNL     1      -4.560  32.976 -20.791  1.00  0.00    -0.550 OA
ENDBRANCH   4   5
ENDBRANCH   3   4
ENDBRANCH   2   3
ENDBRANCH   1   2
BRANCH   1   8
ATOM      8  C   UNL     1      -3.936  26.940 -19.740  1.00  0.00     0.000 C 
BRANCH   8   9
ATOM      9  C   UNL     1      -5.418  26.819 -20.114  1.00  0.00     0.000 C 
BRANCH   9  10
ATOM     10  C   UNL     1      -6.143  28.161 -19.933  1.00  0.00     0.006 C 
BRANCH  10  11
ATOM     11  C   UNL     1      -6.183  28.608 -18.465  1.00  0.00     0.053 C 
BRANCH  11  12
ATOM     12  C   UNL     1      -6.671  30.017 -18.326  1.00  0.00     0.041 C 
ATOM     13  O   UNL     1      -6.534  30.832 -19.276  1.00  0.00    -0.550 OA
ATOM     14  O   UNL     1      -7.309  30.421 -17.159  1.00  0.00    -0.550 OA
ENDBRANCH  11  12
ENDBRANCH  10  11
ENDBRANCH   9  10
ENDBRANCH   8   9
ENDBRANCH   1   8
TORSDOF 9
ENDMDL
