MODEL 1
REMARK VINA RESULT:    -4.444      0.000      0.000
REMARK INTER + INTRA:          -4.704
REMARK INTER:                  -4.704
REMARK INTRA:                   0.000
REMARK UNBOUND:                 0.000
REMARK SMILES O=c1ccc2cc(O)c(O)cc2o1
REMARK SMILES IDX 4 1 3 2 2 3 1 4 13 5 12 6 11 7 9 8 7 9 6 10 5 11 8 12 10 14
REMARK H PARENT 8 13 10 15
REMARK Flexibility Score: inf
ROOT
ATOM      1  C   UNL     1      -3.642  -2.829  -3.869  1.00  0.00     0.019 A 
ATOM      2  C   UNL     1      -4.125  -3.897  -3.114  1.00  0.00     0.094 A 
ATOM      3  C   UNL     1      -5.277  -4.563  -3.544  1.00  0.00     0.336 A 
ATOM      4  O   UNL     1      -5.729  -5.531  -2.875  1.00  0.00    -0.246 OA
ATOM      5  O   UNL     1      -5.902  -4.183  -4.656  1.00  0.00    -0.423 OA
ATOM      6  C   UNL     1      -5.474  -3.170  -5.405  1.00  0.00     0.142 A 
ATOM      7  C   UNL     1      -6.171  -2.814  -6.564  1.00  0.00     0.098 A 
ATOM      8  C   UNL     1      -5.726  -1.747  -7.357  1.00  0.00     0.161 A 
ATOM      9  C   UNL     1      -4.572  -1.031  -6.987  1.00  0.00     0.158 A 
ATOM     10  C   UNL     1      -3.873  -1.384  -5.827  1.00  0.00     0.062 A 
ATOM     11  C   UNL     1      -4.318  -2.450  -5.034  1.00  0.00     0.022 A 
ENDROOT
BRANCH   9  12
ATOM     12  O   UNL     1      -4.108   0.035  -7.758  1.00  0.00    -0.504 OA
ATOM     13  H   UNL     1      -3.754   0.887  -7.339  1.00  0.00     0.293 HD
ENDBRANCH   9  12
BRANCH   8  14
ATOM     14  O   UNL     1      -6.424  -1.396  -8.512  1.00  0.00    -0.504 OA
ATOM     15  H   UNL     1      -7.163  -0.704  -8.496  1.00  0.00     0.293 HD
ENDBRANCH   8  14
TORSDOF 2
ENDMDL
MODEL 2
REMARK VINA RESULT:    -4.104     21.214     22.228
REMARK INTER + INTRA:          -4.344
REMARK INTER:                  -4.344
REMARK INTRA:                   0.000
REMARK UNBOUND:                 0.000
REMARK SMILES O=c1ccc2cc(O)c(O)cc2o1
REMARK SMILES IDX 4 1 3 2 2 3 1 4 13 5 12 6 11 7 9 8 7 9 6 10 5 11 8 12 10 14
REMARK H PARENT 8 13 10 15
REMARK Flexibility Score: inf
ROOT
ATOM      1  C   UNL     1      -3.840 -16.796 -21.622  1.00  0.00     0.019 A 
ATOM      2  C   UNL     1      -3.282 -18.012 -22.014  1.00  0.00     0.094 A 
ATOM      3  C   UNL     1      -4.060 -18.904 -22.760  1.00  0.00     0.336 A 
ATOM      4  O   UNL     1      -3.574 -20.007 -23.125  1.00  0.00    -0.246 OA
ATOM      5  O   UNL     1      -5.312 -18.595 -23.088  1.00  0.00    -0.423 OA
ATOM      6  C   UNL     1      -5.881 -17.446 -22.733  1.00  0.00     0.142 A 
ATOM      7  C   UNL     1      -7.202 -17.176 -23.107  1.00  0.00     0.098 A 
ATOM      8  C   UNL     1      -7.808 -15.967 -22.735  1.00  0.00     0.161 A 
ATOM      9  C   UNL     1      -7.086 -15.020 -21.985  1.00  0.00     0.158 A 
ATOM     10  C   UNL     1      -5.764 -15.289 -21.610  1.00  0.00     0.062 A 
ATOM     11  C   UNL     1      -5.158 -16.497 -21.980  1.00  0.00     0.022 A 
ENDROOT
BRANCH   9  12
ATOM     12  O   UNL     1      -7.665 -13.811 -21.602  1.00  0.00    -0.504 OA
ATOM     13  H   UNL     1      -7.107 -13.006 -21.343  1.00  0.00     0.293 HD
ENDBRANCH   9  12
BRANCH   8  14
ATOM     14  O   UNL     1      -9.125 -15.701 -23.110  1.00  0.00    -0.504 OA
ATOM     15  H   UNL     1      -9.903 -15.900 -22.493  1.00  0.00     0.293 HD
ENDBRANCH   8  14
TORSDOF 2
ENDMDL
MODEL 3
REMARK VINA RESULT:    -4.094     14.526     16.323
REMARK INTER + INTRA:          -4.333
REMARK INTER:                  -4.333
REMARK INTRA:                   0.000
REMARK UNBOUND:                 0.000
REMARK SMILES O=c1ccc2cc(O)c(O)cc2o1
REMARK SMILES IDX 4 1 3 2 2 3 1 4 13 5 12 6 11 7 9 8 7 9 6 10 5 11 8 12 10 14
REMARK H PARENT 8 13 10 15
REMARK Flexibility Score: inf
ROOT
ATOM      1  C   UNL     1      -5.060 -19.666  -9.962  1.00  0.00     0.019 A 
ATOM      2  C   UNL     1      -6.066 -19.591 -10.925  1.00  0.00     0.094 A 
ATOM      3  C   UNL     1      -7.099 -18.664 -10.755  1.00  0.00     0.336 A 
ATOM      4  O   UNL     1      -8.016 -18.582 -11.615  1.00  0.00    -0.246 OA
ATOM      5  O   UNL     1      -7.122 -17.867  -9.690  1.00  0.00    -0.423 OA
ATOM      6  C   UNL     1      -6.182 -17.906  -8.748  1.00  0.00     0.142 A 
ATOM      7  C   UNL     1      -6.258 -17.044  -7.650  1.00  0.00     0.098 A 
ATOM      8  C   UNL     1      -5.271 -17.081  -6.653  1.00  0.00     0.161 A 
ATOM      9  C   UNL     1      -4.200 -17.987  -6.759  1.00  0.00     0.158 A 
ATOM     10  C   UNL     1      -4.123 -18.852  -7.857  1.00  0.00     0.062 A 
ATOM     11  C   UNL     1      -5.108 -18.816  -8.853  1.00  0.00     0.022 A 
ENDROOT
BRANCH   9  12
ATOM     12  O   UNL     1      -3.206 -18.045  -5.782  1.00  0.00    -0.504 OA
ATOM     13  H   UNL     1      -2.405 -17.425  -5.793  1.00  0.00     0.293 HD
ENDBRANCH   9  12
BRANCH   8  14
ATOM     14  O   UNL     1      -5.350 -16.219  -5.560  1.00  0.00    -0.504 OA
ATOM     15  H   UNL     1      -4.531 -15.751  -5.193  1.00  0.00     0.293 HD
ENDBRANCH   8  14
TORSDOF 2
ENDMDL
MODEL 4
REMARK VINA RESULT:    -3.991     14.656     16.141
REMARK INTER + INTRA:          -4.225
REMARK INTER:                  -4.225
REMARK INTRA:                   0.000
REMARK UNBOUND:                 0.000
REMARK SMILES O=c1ccc2cc(O)c(O)cc2o1
REMARK SMILES IDX 4 1 3 2 2 3 1 4 13 5 12 6 11 7 9 8 7 9 6 10 5 11 8 12 10 14
REMARK H PARENT 8 13 10 15
REMARK Flexibility Score: inf
ROOT
ATOM      1  C   UNL     1      -4.138 -18.232  -7.946  1.00  0.00     0.019 A 
ATOM      2  C   UNL     1      -4.246 -17.475  -6.780  1.00  0.00     0.094 A 
ATOM      3  C   UNL     1      -5.490 -16.938  -6.434  1.00  0.00     0.336 A 
ATOM      4  O   UNL     1      -5.608 -16.252  -5.384  1.00  0.00    -0.246 OA
ATOM      5  O   UNL     1      -6.553 -17.146  -7.208  1.00  0.00    -0.423 OA
ATOM      6  C   UNL     1      -6.493 -17.862  -8.327  1.00  0.00     0.142 A 
ATOM      7  C   UNL     1      -7.643 -18.047  -9.101  1.00  0.00     0.098 A 
ATOM      8  C   UNL     1      -7.586 -18.800 -10.283  1.00  0.00     0.161 A 
ATOM      9  C   UNL     1      -6.368 -19.372 -10.693  1.00  0.00     0.158 A 
ATOM     10  C   UNL     1      -5.215 -19.188  -9.921  1.00  0.00     0.062 A 
ATOM     11  C   UNL     1      -5.271 -18.435  -8.740  1.00  0.00     0.022 A 
ENDROOT
BRANCH   9  12
ATOM     12  O   UNL     1      -6.283 -20.125 -11.864  1.00  0.00    -0.504 OA
ATOM     13  H   UNL     1      -7.105 -20.498 -12.324  1.00  0.00     0.293 HD
ENDBRANCH   9  12
BRANCH   8  14
ATOM     14  O   UNL     1      -8.736 -18.983 -11.051  1.00  0.00    -0.504 OA
ATOM     15  H   UNL     1      -9.661 -18.899 -10.649  1.00  0.00     0.293 HD
ENDBRANCH   8  14
TORSDOF 2
ENDMDL
MODEL 5
REMARK VINA RESULT:    -3.986     12.615     14.064
REMARK INTER + INTRA:          -4.219
REMARK INTER:                  -4.219
REMARK INTRA:                   0.000
REMARK UNBOUND:                 0.000
REMARK SMILES O=c1ccc2cc(O)c(O)cc2o1
REMARK SMILES IDX 4 1 3 2 2 3 1 4 13 5 12 6 11 7 9 8 7 9 6 10 5 11 8 12 10 14
REMARK H PARENT 8 13 10 15
REMARK Flexibility Score: inf
ROOT
ATOM      1  C   UNL     1      -4.031 -17.117  -7.122  1.00  0.00     0.019 A 
ATOM      2  C   UNL     1      -4.845 -17.721  -8.079  1.00  0.00     0.094 A 
ATOM      3  C   UNL     1      -6.234 -17.628  -7.943  1.00  0.00     0.336 A 
ATOM      4  O   UNL     1      -6.986 -18.166  -8.798  1.00  0.00    -0.246 OA
ATOM      5  O   UNL     1      -6.769 -16.974  -6.915  1.00  0.00    -0.423 OA
ATOM      6  C   UNL     1      -6.028 -16.384  -5.980  1.00  0.00     0.142 A 
ATOM      7  C   UNL     1      -6.646 -15.710  -4.921  1.00  0.00     0.098 A 
ATOM      8  C   UNL     1      -5.870 -15.087  -3.932  1.00  0.00     0.161 A 
ATOM      9  C   UNL     1      -4.466 -15.138  -4.005  1.00  0.00     0.158 A 
ATOM     10  C   UNL     1      -3.846 -15.812  -5.063  1.00  0.00     0.062 A 
ATOM     11  C   UNL     1      -4.620 -16.436  -6.051  1.00  0.00     0.022 A 
ENDROOT
BRANCH   9  12
ATOM     12  O   UNL     1      -3.672 -14.528  -3.034  1.00  0.00    -0.504 OA
ATOM     13  H   UNL     1      -3.611 -14.884  -2.088  1.00  0.00     0.293 HD
ENDBRANCH   9  12
BRANCH   8  14
ATOM     14  O   UNL     1      -6.490 -14.416  -2.878  1.00  0.00    -0.504 OA
ATOM     15  H   UNL     1      -7.424 -14.035  -2.968  1.00  0.00     0.293 HD
ENDBRANCH   8  14
TORSDOF 2
ENDMDL
MODEL 6
REMARK VINA RESULT:    -3.942     14.617     16.456
REMARK INTER + INTRA:          -4.172
REMARK INTER:                  -4.172
REMARK INTRA:                   0.000
REMARK UNBOUND:                 0.000
REMARK SMILES O=c1ccc2cc(O)c(O)cc2o1
REMARK SMILES IDX 4 1 3 2 2 3 1 4 13 5 12 6 11 7 9 8 7 9 6 10 5 11 8 12 10 14
REMARK H PARENT 8 13 10 15
REMARK Flexibility Score: inf
ROOT
ATOM      1  C   UNL     1      -7.644 -18.015  -9.396  1.00  0.00     0.019 A 
ATOM      2  C   UNL     1      -7.576 -18.762 -10.571  1.00  0.00     0.094 A 
ATOM      3  C   UNL     1      -6.393 -19.445 -10.872  1.00  0.00     0.336 A 
ATOM      4  O   UNL     1      -6.313 -20.125 -11.929  1.00  0.00    -0.246 OA
ATOM      5  O   UNL     1      -5.350 -19.381 -10.049  1.00  0.00    -0.423 OA
ATOM      6  C   UNL     1      -5.373 -18.680  -8.918  1.00  0.00     0.142 A 
ATOM      7  C   UNL     1      -4.246 -18.650  -8.091  1.00  0.00     0.098 A 
ATOM      8  C   UNL     1      -4.264 -17.913  -6.897  1.00  0.00     0.161 A 
ATOM      9  C   UNL     1      -5.421 -17.201  -6.529  1.00  0.00     0.158 A 
ATOM     10  C   UNL     1      -6.551 -17.230  -7.356  1.00  0.00     0.062 A 
ATOM     11  C   UNL     1      -6.533 -17.966  -8.548  1.00  0.00     0.022 A 
ENDROOT
BRANCH   9  12
ATOM     12  O   UNL     1      -5.466 -16.460  -5.349  1.00  0.00    -0.504 OA
ATOM     13  H   UNL     1      -6.335 -16.104  -4.970  1.00  0.00     0.293 HD
ENDBRANCH   9  12
BRANCH   8  14
ATOM     14  O   UNL     1      -3.138 -17.886  -6.076  1.00  0.00    -0.504 OA
ATOM     15  H   UNL     1      -3.172 -17.499  -5.140  1.00  0.00     0.293 HD
ENDBRANCH   8  14
TORSDOF 2
ENDMDL
MODEL 7
REMARK VINA RESULT:    -3.886     14.874     16.344
REMARK INTER + INTRA:          -4.113
REMARK INTER:                  -4.113
REMARK INTRA:                   0.000
REMARK UNBOUND:                 0.000
REMARK SMILES O=c1ccc2cc(O)c(O)cc2o1
REMARK SMILES IDX 4 1 3 2 2 3 1 4 13 5 12 6 11 7 9 8 7 9 6 10 5 11 8 12 10 14
REMARK H PARENT 8 13 10 15
REMARK Flexibility Score: inf
ROOT
ATOM      1  C   UNL     1      -6.745 -17.215  -7.097  1.00  0.00     0.019 A 
ATOM      2  C   UNL     1      -5.644 -17.107  -6.248  1.00  0.00     0.094 A 
ATOM      3  C   UNL     1      -4.444 -17.726  -6.614  1.00  0.00     0.336 A 
ATOM      4  O   UNL     1      -3.439 -17.639  -5.861  1.00  0.00    -0.246 OA
ATOM      5  O   UNL     1      -4.357 -18.406  -7.754  1.00  0.00    -0.423 OA
ATOM      6  C   UNL     1      -5.383 -18.533  -8.592  1.00  0.00     0.142 A 
ATOM      7  C   UNL     1      -5.232 -19.261  -9.776  1.00  0.00     0.098 A 
ATOM      8  C   UNL     1      -6.310 -19.398 -10.663  1.00  0.00     0.161 A 
ATOM      9  C   UNL     1      -7.548 -18.802 -10.361  1.00  0.00     0.158 A 
ATOM     10  C   UNL     1      -7.702 -18.073  -9.176  1.00  0.00     0.062 A 
ATOM     11  C   UNL     1      -6.625 -17.936  -8.289  1.00  0.00     0.022 A 
ENDROOT
BRANCH   9  12
ATOM     12  O   UNL     1      -8.636 -18.924 -11.225  1.00  0.00    -0.504 OA
ATOM     13  H   UNL     1      -8.996 -18.136 -11.751  1.00  0.00     0.293 HD
ENDBRANCH   9  12
BRANCH   8  14
ATOM     14  O   UNL     1      -6.155 -20.124 -11.844  1.00  0.00    -0.504 OA
ATOM     15  H   UNL     1      -5.294 -20.613 -12.057  1.00  0.00     0.293 HD
ENDBRANCH   8  14
TORSDOF 2
ENDMDL
MODEL 8
REMARK VINA RESULT:    -3.844     12.636     14.352
REMARK INTER + INTRA:          -4.068
REMARK INTER:                  -4.068
REMARK INTRA:                   0.000
REMARK UNBOUND:                 0.000
REMARK SMILES O=c1ccc2cc(O)c(O)cc2o1
REMARK SMILES IDX 4 1 3 2 2 3 1 4 13 5 12 6 11 7 9 8 7 9 6 10 5 11 8 12 10 14
REMARK H PARENT 8 13 10 15
REMARK Flexibility Score: inf
ROOT
ATOM      1  C   UNL     1      -6.674 -17.283  -7.122  1.00  0.00     0.019 A 
ATOM      2  C   UNL     1      -5.949 -17.993  -8.078  1.00  0.00     0.094 A 
ATOM      3  C   UNL     1      -4.552 -17.984  -8.012  1.00  0.00     0.336 A 
ATOM      4  O   UNL     1      -3.879 -18.620  -8.866  1.00  0.00    -0.246 OA
ATOM      5  O   UNL     1      -3.926 -17.308  -7.052  1.00  0.00    -0.423 OA
ATOM      6  C   UNL     1      -4.580 -16.618  -6.121  1.00  0.00     0.142 A 
ATOM      7  C   UNL     1      -3.869 -15.926  -5.135  1.00  0.00     0.098 A 
ATOM      8  C   UNL     1      -4.553 -15.196  -4.151  1.00  0.00     0.161 A 
ATOM      9  C   UNL     1      -5.960 -15.161  -4.154  1.00  0.00     0.158 A 
ATOM     10  C   UNL     1      -6.674 -15.853  -5.140  1.00  0.00     0.062 A 
ATOM     11  C   UNL     1      -5.991 -16.581  -6.123  1.00  0.00     0.022 A 
ENDROOT
BRANCH   9  12
ATOM     12  O   UNL     1      -6.664 -14.443  -3.188  1.00  0.00    -0.504 OA
ATOM     13  H   UNL     1      -6.212 -14.062  -2.366  1.00  0.00     0.293 HD
ENDBRANCH   9  12
BRANCH   8  14
ATOM     14  O   UNL     1      -3.840 -14.508  -3.171  1.00  0.00    -0.504 OA
ATOM     15  H   UNL     1      -2.900 -14.778  -2.910  1.00  0.00     0.293 HD
ENDBRANCH   8  14
TORSDOF 2
ENDMDL
MODEL 9
REMARK VINA RESULT:    -3.801     13.813     15.603
REMARK INTER + INTRA:          -4.023
REMARK INTER:                  -4.023
REMARK INTRA:                   0.000
REMARK UNBOUND:                 0.000
REMARK SMILES O=c1ccc2cc(O)c(O)cc2o1
REMARK SMILES IDX 4 1 3 2 2 3 1 4 13 5 12 6 11 7 9 8 7 9 6 10 5 11 8 12 10 14
REMARK H PARENT 8 13 10 15
REMARK Flexibility Score: inf
ROOT
ATOM      1  C   UNL     1      -3.885 -18.649  -8.850  1.00  0.00     0.019 A 
ATOM      2  C   UNL     1      -4.569 -19.397  -9.808  1.00  0.00     0.094 A 
ATOM      3  C   UNL     1      -5.967 -19.367  -9.820  1.00  0.00     0.336 A 
ATOM      4  O   UNL     1      -6.602 -20.035 -10.678  1.00  0.00    -0.246 OA
ATOM      5  O   UNL     1      -6.633 -18.637  -8.929  1.00  0.00    -0.423 OA
ATOM      6  C   UNL     1      -6.020 -17.909  -7.999  1.00  0.00     0.142 A 
ATOM      7  C   UNL     1      -6.773 -17.161  -7.088  1.00  0.00     0.098 A 
ATOM      8  C   UNL     1      -6.132 -16.392  -6.105  1.00  0.00     0.161 A 
ATOM      9  C   UNL     1      -4.727 -16.373  -6.034  1.00  0.00     0.158 A 
ATOM     10  C   UNL     1      -3.971 -17.122  -6.944  1.00  0.00     0.062 A 
ATOM     11  C   UNL     1      -4.611 -17.890  -7.926  1.00  0.00     0.022 A 
ENDROOT
BRANCH   9  12
ATOM     12  O   UNL     1      -4.065 -15.618  -5.065  1.00  0.00    -0.504 OA
ATOM     13  H   UNL     1      -4.149 -14.610  -5.019  1.00  0.00     0.293 HD
ENDBRANCH   9  12
BRANCH   8  14
ATOM     14  O   UNL     1      -6.886 -15.648  -5.199  1.00  0.00    -0.504 OA
ATOM     15  H   UNL     1      -6.801 -15.783  -4.199  1.00  0.00     0.293 HD
ENDBRANCH   8  14
TORSDOF 2
ENDMDL
