MODEL 1
REMARK VINA RESULT:    -4.529      0.000      0.000
REMARK INTER + INTRA:          -6.442
REMARK INTER:                  -7.044
REMARK INTRA:                   0.601
REMARK UNBOUND:                 0.601
REMARK SMILES C[C@@]12C[C@@]3(O)O[C@@H](O1)[C@]1(COC(=O)c4ccccc4)[C@H]3C[C@@]12O[C@@H]1O[C@@H](CO)[C@@H](O)[C@@H](O)[C@@H]1O
REMARK SMILES IDX 1 1 2 2 3 3 4 4 20 5 21 6 22 7 9 8 7 9 8 10 6 11 23 12 24 13
REMARK SMILES IDX 33 14 25 15 31 16 26 17 29 18 34 19 32 21 27 23 28 24 30 26
REMARK SMILES IDX 5 28 10 30 11 31 12 32 13 33 14 34 15 35 19 36 16 37 18 38
REMARK SMILES IDX 17 39
REMARK H PARENT 34 20 32 22 28 25 30 27 5 29
REMARK Flexibility Score: inf
ROOT
ATOM      1  C   UNL     1      25.342  20.529   8.133  1.00  0.00     0.046 C 
ATOM      2  C   UNL     1      24.722  19.848   6.910  1.00  0.00     0.104 C 
ATOM      3  C   UNL     1      24.755  20.814   5.665  1.00  0.00     0.104 C 
ATOM      4  C   UNL     1      24.014  20.002   4.545  1.00  0.00     0.175 C 
ATOM      5  C   UNL     1      22.667  19.428   5.085  1.00  0.00     0.070 C 
ATOM      6  C   UNL     1      22.204  20.124   6.369  1.00  0.00     0.050 C 
ATOM      7  C   UNL     1      23.255  19.282   7.110  1.00  0.00     0.115 C 
ATOM      8  C   UNL     1      23.228  18.292   5.938  1.00  0.00     0.096 C 
ATOM      9  C   UNL     1      24.675  18.113   5.501  1.00  0.00     0.267 C 
ATOM     10  O   UNL     1      25.475  18.716   6.512  1.00  0.00    -0.342 OA
ATOM     11  O   UNL     1      24.810  18.860   4.302  1.00  0.00    -0.320 OA
ENDROOT
BRANCH   7  12
ATOM     12  O   UNL     1      22.786  18.887   8.401  1.00  0.00    -0.339 OA
BRANCH  12  13
ATOM     13  C   UNL     1      22.921  19.858   9.431  1.00  0.00     0.282 C 
ATOM     14  C   UNL     1      21.538  20.471   9.773  1.00  0.00     0.202 C 
ATOM     15  O   UNL     1      23.505  19.294  10.598  1.00  0.00    -0.341 OA
ATOM     16  C   UNL     1      20.627  19.429  10.450  1.00  0.00     0.179 C 
ATOM     17  C   UNL     1      22.718  18.239  11.134  1.00  0.00     0.178 C 
ATOM     18  C   UNL     1      21.355  18.772  11.627  1.00  0.00     0.177 C 
BRANCH  14  19
ATOM     19  O   UNL     1      20.913  20.932   8.603  1.00  0.00    -0.385 OA
ATOM     20  H   UNL     1      20.068  21.383   8.874  1.00  0.00     0.211 HD
ENDBRANCH  14  19
BRANCH  16  21
ATOM     21  O   UNL     1      19.449  20.038  10.913  1.00  0.00    -0.387 OA
ATOM     22  H   UNL     1      19.256  19.651  11.807  1.00  0.00     0.211 HD
ENDBRANCH  16  21
BRANCH  17  23
ATOM     23  C   UNL     1      23.499  17.544  12.258  1.00  0.00     0.191 C 
BRANCH  23  24
ATOM     24  O   UNL     1      23.467  16.153  12.095  1.00  0.00    -0.394 OA
ATOM     25  H   UNL     1      24.409  15.870  11.961  1.00  0.00     0.210 HD
ENDBRANCH  23  24
ENDBRANCH  17  23
BRANCH  18  26
ATOM     26  O   UNL     1      21.537  19.717  12.654  1.00  0.00    -0.387 OA
ATOM     27  H   UNL     1      20.646  19.883  13.060  1.00  0.00     0.211 HD
ENDBRANCH  18  26
ENDBRANCH  12  13
ENDBRANCH   7  12
BRANCH   4  28
ATOM     28  O   UNL     1      23.849  20.745   3.368  1.00  0.00    -0.365 OA
ATOM     29  H   UNL     1      24.365  20.276   2.661  1.00  0.00     0.214 HD
ENDBRANCH   4  28
BRANCH   8  30
ATOM     30  C   UNL     1      22.356  17.024   5.993  1.00  0.00     0.249 C 
BRANCH  30  31
ATOM     31  O   UNL     1      22.703  16.132   4.933  1.00  0.00    -0.461 OA
BRANCH  31  32
ATOM     32  C   UNL     1      21.957  15.978   3.756  1.00  0.00     0.338 C 
ATOM     33  O   UNL     1      22.164  16.735   2.770  1.00  0.00    -0.246 OA
BRANCH  32  34
ATOM     34  C   UNL     1      20.926  14.920   3.677  1.00  0.00     0.060 A 
ATOM     35  C   UNL     1      19.740  15.029   4.425  1.00  0.00     0.015 A 
ATOM     36  C   UNL     1      21.115  13.791   2.858  1.00  0.00     0.015 A 
ATOM     37  C   UNL     1      18.763  14.031   4.353  1.00  0.00     0.001 A 
ATOM     38  C   UNL     1      20.137  12.795   2.790  1.00  0.00     0.001 A 
ATOM     39  C   UNL     1      18.960  12.915   3.534  1.00  0.00     0.000 A 
ENDBRANCH  32  34
ENDBRANCH  31  32
ENDBRANCH  30  31
ENDBRANCH   8  30
TORSDOF 12
ENDMDL
MODEL 2
REMARK VINA RESULT:    -3.528      2.313      7.176
REMARK INTER + INTRA:          -4.886
REMARK INTER:                  -5.142
REMARK INTRA:                   0.257
REMARK UNBOUND:                 0.601
REMARK SMILES C[C@@]12C[C@@]3(O)O[C@@H](O1)[C@]1(COC(=O)c4ccccc4)[C@H]3C[C@@]12O[C@@H]1O[C@@H](CO)[C@@H](O)[C@@H](O)[C@@H]1O
REMARK SMILES IDX 1 1 2 2 3 3 4 4 20 5 21 6 22 7 9 8 7 9 8 10 6 11 23 12 24 13
REMARK SMILES IDX 33 14 25 15 31 16 26 17 29 18 34 19 32 21 27 23 28 24 30 26
REMARK SMILES IDX 5 28 10 30 11 31 12 32 13 33 14 34 15 35 19 36 16 37 18 38
REMARK SMILES IDX 17 39
REMARK H PARENT 34 20 32 22 28 25 30 27 5 29
REMARK Flexibility Score: inf
ROOT
ATOM      1  C   UNL     1      21.443  16.890   1.875  1.00  0.00     0.046 C 
ATOM      2  C   UNL     1      22.417  17.405   2.939  1.00  0.00     0.104 C 
ATOM      3  C   UNL     1      23.889  17.422   2.377  1.00  0.00     0.104 C 
ATOM      4  C   UNL     1      24.750  17.885   3.604  1.00  0.00     0.175 C 
ATOM      5  C   UNL     1      24.382  17.057   4.875  1.00  0.00     0.070 C 
ATOM      6  C   UNL     1      23.628  15.766   4.537  1.00  0.00     0.050 C 
ATOM      7  C   UNL     1      22.383  16.642   4.328  1.00  0.00     0.115 C 
ATOM      8  C   UNL     1      23.044  17.718   5.199  1.00  0.00     0.096 C 
ATOM      9  C   UNL     1      23.004  19.005   4.386  1.00  0.00     0.267 C 
ATOM     10  O   UNL     1      22.143  18.752   3.281  1.00  0.00    -0.342 OA
ATOM     11  O   UNL     1      24.324  19.198   3.905  1.00  0.00    -0.320 OA
ENDROOT
BRANCH   7  12
ATOM     12  O   UNL     1      21.200  15.976   4.775  1.00  0.00    -0.339 OA
BRANCH  12  13
ATOM     13  C   UNL     1      20.191  15.781   3.791  1.00  0.00     0.282 C 
ATOM     14  C   UNL     1      20.136  14.290   3.370  1.00  0.00     0.202 C 
ATOM     15  O   UNL     1      18.919  16.199   4.269  1.00  0.00    -0.341 OA
ATOM     16  C   UNL     1      19.615  13.411   4.523  1.00  0.00     0.179 C 
ATOM     17  C   UNL     1      18.513  15.470   5.418  1.00  0.00     0.178 C 
ATOM     18  C   UNL     1      18.302  13.980   5.073  1.00  0.00     0.177 C 
BRANCH  14  19
ATOM     19  O   UNL     1      21.416  13.846   3.001  1.00  0.00    -0.385 OA
ATOM     20  H   UNL     1      21.482  12.885   3.251  1.00  0.00     0.211 HD
ENDBRANCH  14  19
BRANCH  16  21
ATOM     21  O   UNL     1      19.402  12.096   4.078  1.00  0.00    -0.387 OA
ATOM     22  H   UNL     1      19.728  11.492   4.795  1.00  0.00     0.211 HD
ENDBRANCH  16  21
BRANCH  17  23
ATOM     23  C   UNL     1      17.241  16.106   5.999  1.00  0.00     0.191 C 
BRANCH  23  24
ATOM     24  O   UNL     1      17.156  17.457   5.642  1.00  0.00    -0.394 OA
ATOM     25  H   UNL     1      16.707  17.914   6.400  1.00  0.00     0.210 HD
ENDBRANCH  23  24
ENDBRANCH  17  23
BRANCH  18  26
ATOM     26  O   UNL     1      17.287  13.835   4.109  1.00  0.00    -0.387 OA
ATOM     27  H   UNL     1      17.552  14.378   3.322  1.00  0.00     0.211 HD
ENDBRANCH  18  26
ENDBRANCH  12  13
ENDBRANCH   7  12
BRANCH   4  28
ATOM     28  O   UNL     1      26.125  17.865   3.329  1.00  0.00    -0.365 OA
ATOM     29  H   UNL     1      26.338  16.949   3.010  1.00  0.00     0.214 HD
ENDBRANCH   4  28
BRANCH   8  30
ATOM     30  C   UNL     1      22.718  17.832   6.699  1.00  0.00     0.249 C 
BRANCH  30  31
ATOM     31  O   UNL     1      22.867  19.182   7.142  1.00  0.00    -0.461 OA
BRANCH  31  32
ATOM     32  C   UNL     1      23.416  19.549   8.379  1.00  0.00     0.338 C 
ATOM     33  O   UNL     1      24.599  19.980   8.446  1.00  0.00    -0.246 OA
BRANCH  32  34
ATOM     34  C   UNL     1      22.599  19.430   9.606  1.00  0.00     0.060 A 
ATOM     35  C   UNL     1      21.368  20.104   9.707  1.00  0.00     0.015 A 
ATOM     36  C   UNL     1      23.038  18.647  10.690  1.00  0.00     0.015 A 
ATOM     37  C   UNL     1      20.593  19.994  10.865  1.00  0.00     0.001 A 
ATOM     38  C   UNL     1      22.261  18.540  11.847  1.00  0.00     0.001 A 
ATOM     39  C   UNL     1      21.037  19.211  11.935  1.00  0.00     0.000 A 
ENDBRANCH  32  34
ENDBRANCH  31  32
ENDBRANCH  30  31
ENDBRANCH   8  30
TORSDOF 12
ENDMDL
MODEL 3
REMARK VINA RESULT:    -3.335     11.046     14.276
REMARK INTER + INTRA:          -4.585
REMARK INTER:                  -4.610
REMARK INTRA:                   0.025
REMARK UNBOUND:                 0.601
REMARK SMILES C[C@@]12C[C@@]3(O)O[C@@H](O1)[C@]1(COC(=O)c4ccccc4)[C@H]3C[C@@]12O[C@@H]1O[C@@H](CO)[C@@H](O)[C@@H](O)[C@@H]1O
REMARK SMILES IDX 1 1 2 2 3 3 4 4 20 5 21 6 22 7 9 8 7 9 8 10 6 11 23 12 24 13
REMARK SMILES IDX 33 14 25 15 31 16 26 17 29 18 34 19 32 21 27 23 28 24 30 26
REMARK SMILES IDX 5 28 10 30 11 31 12 32 13 33 14 34 15 35 19 36 16 37 18 38
REMARK SMILES IDX 17 39
REMARK H PARENT 34 20 32 22 28 25 30 27 5 29
REMARK Flexibility Score: inf
ROOT
ATOM      1  C   UNL     1      14.377  19.705  18.365  1.00  0.00     0.046 C 
ATOM      2  C   UNL     1      14.093  19.483  16.877  1.00  0.00     0.104 C 
ATOM      3  C   UNL     1      15.438  19.473  16.055  1.00  0.00     0.104 C 
ATOM      4  C   UNL     1      14.963  19.325  14.567  1.00  0.00     0.175 C 
ATOM      5  C   UNL     1      13.831  20.351  14.249  1.00  0.00     0.070 C 
ATOM      6  C   UNL     1      13.764  21.490  15.272  1.00  0.00     0.050 C 
ATOM      7  C   UNL     1      13.068  20.494  16.214  1.00  0.00     0.115 C 
ATOM      8  C   UNL     1      12.684  19.662  14.985  1.00  0.00     0.096 C 
ATOM      9  C   UNL     1      13.159  18.243  15.268  1.00  0.00     0.267 C 
ATOM     10  O   UNL     1      13.517  18.210  16.645  1.00  0.00    -0.342 OA
ATOM     11  O   UNL     1      14.329  18.065  14.485  1.00  0.00    -0.320 OA
ENDROOT
BRANCH   7  12
ATOM     12  O   UNL     1      12.059  21.140  16.995  1.00  0.00    -0.339 OA
BRANCH  12  13
ATOM     13  C   UNL     1      11.675  20.466  18.187  1.00  0.00     0.282 C 
ATOM     14  C   UNL     1      11.176  21.487  19.241  1.00  0.00     0.202 C 
ATOM     15  O   UNL     1      10.666  19.499  17.929  1.00  0.00    -0.341 OA
ATOM     16  C   UNL     1       9.842  22.122  18.803  1.00  0.00     0.179 C 
ATOM     17  C   UNL     1       9.487  20.085  17.395  1.00  0.00     0.178 C 
ATOM     18  C   UNL     1       8.833  21.031  18.425  1.00  0.00     0.177 C 
BRANCH  14  19
ATOM     19  O   UNL     1      12.128  22.503  19.417  1.00  0.00    -0.385 OA
ATOM     20  H   UNL     1      12.796  22.417  18.683  1.00  0.00     0.211 HD
ENDBRANCH  14  19
BRANCH  16  21
ATOM     21  O   UNL     1       9.310  22.908  19.839  1.00  0.00    -0.387 OA
ATOM     22  H   UNL     1       9.076  23.788  19.443  1.00  0.00     0.211 HD
ENDBRANCH  16  21
BRANCH  17  23
ATOM     23  C   UNL     1       8.525  18.974  16.950  1.00  0.00     0.191 C 
BRANCH  23  24
ATOM     24  O   UNL     1       8.684  18.699  15.586  1.00  0.00    -0.394 OA
ATOM     25  H   UNL     1       9.623  18.933  15.367  1.00  0.00     0.210 HD
ENDBRANCH  23  24
ENDBRANCH  17  23
BRANCH  18  26
ATOM     26  O   UNL     1       8.456  20.319  19.580  1.00  0.00    -0.387 OA
ATOM     27  H   UNL     1       8.480  19.354  19.349  1.00  0.00     0.211 HD
ENDBRANCH  18  26
ENDBRANCH  12  13
ENDBRANCH   7  12
BRANCH   4  28
ATOM     28  O   UNL     1      16.028  19.399  13.658  1.00  0.00    -0.365 OA
ATOM     29  H   UNL     1      16.287  18.463  13.446  1.00  0.00     0.214 HD
ENDBRANCH   4  28
BRANCH   8  30
ATOM     30  C   UNL     1      11.300  19.814  14.327  1.00  0.00     0.249 C 
BRANCH  30  31
ATOM     31  O   UNL     1      11.438  20.195  12.956  1.00  0.00    -0.461 OA
BRANCH  31  32
ATOM     32  C   UNL     1      10.806  19.541  11.890  1.00  0.00     0.338 C 
ATOM     33  O   UNL     1      10.738  18.282  11.867  1.00  0.00    -0.246 OA
BRANCH  32  34
ATOM     34  C   UNL     1      10.216  20.336  10.790  1.00  0.00     0.060 A 
ATOM     35  C   UNL     1      10.780  20.294   9.502  1.00  0.00     0.015 A 
ATOM     36  C   UNL     1       9.088  21.148  11.014  1.00  0.00     0.015 A 
ATOM     37  C   UNL     1      10.226  21.044   8.461  1.00  0.00     0.001 A 
ATOM     38  C   UNL     1       8.538  21.898   9.971  1.00  0.00     0.001 A 
ATOM     39  C   UNL     1       9.104  21.845   8.694  1.00  0.00     0.000 A 
ENDBRANCH  32  34
ENDBRANCH  31  32
ENDBRANCH  30  31
ENDBRANCH   8  30
TORSDOF 12
ENDMDL
MODEL 4
REMARK VINA RESULT:    -2.583      2.175      7.342
REMARK INTER + INTRA:          -3.416
REMARK INTER:                  -5.514
REMARK INTRA:                   2.098
REMARK UNBOUND:                 0.601
REMARK SMILES C[C@@]12C[C@@]3(O)O[C@@H](O1)[C@]1(COC(=O)c4ccccc4)[C@H]3C[C@@]12O[C@@H]1O[C@@H](CO)[C@@H](O)[C@@H](O)[C@@H]1O
REMARK SMILES IDX 1 1 2 2 3 3 4 4 20 5 21 6 22 7 9 8 7 9 8 10 6 11 23 12 24 13
REMARK SMILES IDX 33 14 25 15 31 16 26 17 29 18 34 19 32 21 27 23 28 24 30 26
REMARK SMILES IDX 5 28 10 30 11 31 12 32 13 33 14 34 15 35 19 36 16 37 18 38
REMARK SMILES IDX 17 39
REMARK H PARENT 34 20 32 22 28 25 30 27 5 29
REMARK Flexibility Score: inf
ROOT
ATOM      1  C   UNL     1      22.080  16.427   1.875  1.00  0.00     0.046 C 
ATOM      2  C   UNL     1      22.727  17.088   3.096  1.00  0.00     0.104 C 
ATOM      3  C   UNL     1      24.281  16.826   3.106  1.00  0.00     0.104 C 
ATOM      4  C   UNL     1      24.760  17.488   4.446  1.00  0.00     0.175 C 
ATOM      5  C   UNL     1      23.858  17.032   5.634  1.00  0.00     0.070 C 
ATOM      6  C   UNL     1      23.042  15.777   5.307  1.00  0.00     0.050 C 
ATOM      7  C   UNL     1      22.108  16.692   4.500  1.00  0.00     0.115 C 
ATOM      8  C   UNL     1      22.625  17.878   5.323  1.00  0.00     0.096 C 
ATOM      9  C   UNL     1      23.079  18.927   4.317  1.00  0.00     0.267 C 
ATOM     10  O   UNL     1      22.597  18.498   3.049  1.00  0.00    -0.342 OA
ATOM     11  O   UNL     1      24.496  18.869   4.313  1.00  0.00    -0.320 OA
ENDROOT
BRANCH   7  12
ATOM     12  O   UNL     1      20.746  16.271   4.614  1.00  0.00    -0.339 OA
BRANCH  12  13
ATOM     13  C   UNL     1      20.543  14.985   5.185  1.00  0.00     0.282 C 
ATOM     14  C   UNL     1      19.101  14.493   4.895  1.00  0.00     0.202 C 
ATOM     15  O   UNL     1      21.487  14.046   4.688  1.00  0.00    -0.341 OA
ATOM     16  C   UNL     1      18.912  14.197   3.395  1.00  0.00     0.179 C 
ATOM     17  C   UNL     1      21.391  13.885   3.280  1.00  0.00     0.178 C 
ATOM     18  C   UNL     1      20.028  13.274   2.891  1.00  0.00     0.177 C 
BRANCH  14  19
ATOM     19  O   UNL     1      18.171  15.468   5.288  1.00  0.00    -0.385 OA
ATOM     20  H   UNL     1      17.375  14.993   5.650  1.00  0.00     0.211 HD
ENDBRANCH  14  19
BRANCH  16  21
ATOM     21  O   UNL     1      17.667  13.587   3.169  1.00  0.00    -0.387 OA
ATOM     22  H   UNL     1      17.447  13.069   3.987  1.00  0.00     0.211 HD
ENDBRANCH  16  21
BRANCH  17  23
ATOM     23  C   UNL     1      22.563  13.024   2.787  1.00  0.00     0.191 C 
BRANCH  23  24
ATOM     24  O   UNL     1      22.249  11.663   2.877  1.00  0.00    -0.394 OA
ATOM     25  H   UNL     1      22.192  11.331   1.944  1.00  0.00     0.210 HD
ENDBRANCH  23  24
ENDBRANCH  17  23
BRANCH  18  26
ATOM     26  O   UNL     1      19.877  11.998   3.465  1.00  0.00    -0.387 OA
ATOM     27  H   UNL     1      19.888  11.340   2.721  1.00  0.00     0.211 HD
ENDBRANCH  18  26
ENDBRANCH  12  13
ENDBRANCH   7  12
BRANCH   4  28
ATOM     28  O   UNL     1      26.123  17.269   4.690  1.00  0.00    -0.365 OA
ATOM     29  H   UNL     1      26.206  17.036   5.652  1.00  0.00     0.214 HD
ENDBRANCH   4  28
BRANCH   8  30
ATOM     30  C   UNL     1      21.852  18.384   6.555  1.00  0.00     0.249 C 
BRANCH  30  31
ATOM     31  O   UNL     1      22.436  19.589   7.052  1.00  0.00    -0.461 OA
BRANCH  31  32
ATOM     32  C   UNL     1      23.145  19.682   8.258  1.00  0.00     0.338 C 
ATOM     33  O   UNL     1      24.384  19.912   8.250  1.00  0.00    -0.246 OA
BRANCH  32  34
ATOM     34  C   UNL     1      22.430  19.510   9.542  1.00  0.00     0.060 A 
ATOM     35  C   UNL     1      22.859  18.541  10.468  1.00  0.00     0.015 A 
ATOM     36  C   UNL     1      21.313  20.306   9.856  1.00  0.00     0.015 A 
ATOM     37  C   UNL     1      22.186  18.376  11.682  1.00  0.00     0.001 A 
ATOM     38  C   UNL     1      20.642  20.136  11.070  1.00  0.00     0.001 A 
ATOM     39  C   UNL     1      21.079  19.173  11.985  1.00  0.00     0.000 A 
ENDBRANCH  32  34
ENDBRANCH  31  32
ENDBRANCH  30  31
ENDBRANCH   8  30
TORSDOF 12
ENDMDL
MODEL 5
REMARK VINA RESULT:    -2.414     11.962     15.514
REMARK INTER + INTRA:          -3.154
REMARK INTER:                  -4.054
REMARK INTRA:                   0.900
REMARK UNBOUND:                 0.601
REMARK SMILES C[C@@]12C[C@@]3(O)O[C@@H](O1)[C@]1(COC(=O)c4ccccc4)[C@H]3C[C@@]12O[C@@H]1O[C@@H](CO)[C@@H](O)[C@@H](O)[C@@H]1O
REMARK SMILES IDX 1 1 2 2 3 3 4 4 20 5 21 6 22 7 9 8 7 9 8 10 6 11 23 12 24 13
REMARK SMILES IDX 33 14 25 15 31 16 26 17 29 18 34 19 32 21 27 23 28 24 30 26
REMARK SMILES IDX 5 28 10 30 11 31 12 32 13 33 14 34 15 35 19 36 16 37 18 38
REMARK SMILES IDX 17 39
REMARK H PARENT 34 20 32 22 28 25 30 27 5 29
REMARK Flexibility Score: inf
ROOT
ATOM      1  C   UNL     1      11.682  20.391  14.838  1.00  0.00     0.046 C 
ATOM      2  C   UNL     1      12.946  19.737  15.404  1.00  0.00     0.104 C 
ATOM      3  C   UNL     1      13.130  18.288  14.812  1.00  0.00     0.104 C 
ATOM      4  C   UNL     1      14.402  17.743  15.553  1.00  0.00     0.175 C 
ATOM      5  C   UNL     1      14.281  17.977  17.091  1.00  0.00     0.070 C 
ATOM      6  C   UNL     1      12.842  18.264  17.532  1.00  0.00     0.050 C 
ATOM      7  C   UNL     1      13.044  19.687  16.985  1.00  0.00     0.115 C 
ATOM      8  C   UNL     1      14.558  19.479  17.117  1.00  0.00     0.096 C 
ATOM      9  C   UNL     1      15.153  19.819  15.757  1.00  0.00     0.267 C 
ATOM     10  O   UNL     1      14.111  20.440  15.011  1.00  0.00    -0.342 OA
ATOM     11  O   UNL     1      15.471  18.576  15.153  1.00  0.00    -0.320 OA
ENDROOT
BRANCH   7  12
ATOM     12  O   UNL     1      12.373  20.653  17.797  1.00  0.00    -0.339 OA
BRANCH  12  13
ATOM     13  C   UNL     1      11.601  20.129  18.871  1.00  0.00     0.282 C 
ATOM     14  C   UNL     1      11.052  21.284  19.747  1.00  0.00     0.202 C 
ATOM     15  O   UNL     1      10.528  19.330  18.391  1.00  0.00    -0.341 OA
ATOM     16  C   UNL     1       9.996  22.103  18.980  1.00  0.00     0.179 C 
ATOM     17  C   UNL     1       9.635  20.069  17.570  1.00  0.00     0.178 C 
ATOM     18  C   UNL     1       8.931  21.173  18.386  1.00  0.00     0.177 C 
BRANCH  14  19
ATOM     19  O   UNL     1      12.098  22.137  20.132  1.00  0.00    -0.385 OA
ATOM     20  H   UNL     1      12.925  21.587  20.194  1.00  0.00     0.211 HD
ENDBRANCH  14  19
BRANCH  16  21
ATOM     21  O   UNL     1       9.379  23.031  19.835  1.00  0.00    -0.387 OA
ATOM     22  H   UNL     1       8.455  23.165  19.497  1.00  0.00     0.211 HD
ENDBRANCH  16  21
BRANCH  17  23
ATOM     23  C   UNL     1       8.627  19.107  16.924  1.00  0.00     0.191 C 
BRANCH  23  24
ATOM     24  O   UNL     1       8.883  18.970  15.554  1.00  0.00    -0.394 OA
ATOM     25  H   UNL     1       9.871  18.988  15.455  1.00  0.00     0.210 HD
ENDBRANCH  23  24
ENDBRANCH  17  23
BRANCH  18  26
ATOM     26  O   UNL     1       8.168  20.609  19.426  1.00  0.00    -0.387 OA
ATOM     27  H   UNL     1       8.747  20.583  20.232  1.00  0.00     0.211 HD
ENDBRANCH  18  26
ENDBRANCH  12  13
ENDBRANCH   7  12
BRANCH   4  28
ATOM     28  O   UNL     1      14.673  16.406  15.231  1.00  0.00    -0.365 OA
ATOM     29  H   UNL     1      14.361  16.269  14.298  1.00  0.00     0.214 HD
ENDBRANCH   4  28
BRANCH   8  30
ATOM     30  C   UNL     1      15.321  19.982  18.356  1.00  0.00     0.249 C 
BRANCH  30  31
ATOM     31  O   UNL     1      16.669  19.509  18.338  1.00  0.00    -0.461 OA
BRANCH  31  32
ATOM     32  C   UNL     1      17.275  18.815  19.395  1.00  0.00     0.338 C 
ATOM     33  O   UNL     1      16.788  17.726  19.802  1.00  0.00    -0.246 OA
BRANCH  32  34
ATOM     34  C   UNL     1      18.490  19.368  20.032  1.00  0.00     0.060 A 
ATOM     35  C   UNL     1      19.737  18.744  19.841  1.00  0.00     0.015 A 
ATOM     36  C   UNL     1      18.420  20.519  20.839  1.00  0.00     0.015 A 
ATOM     37  C   UNL     1      20.888  19.263  20.441  1.00  0.00     0.001 A 
ATOM     38  C   UNL     1      19.574  21.034  21.438  1.00  0.00     0.001 A 
ATOM     39  C   UNL     1      20.808  20.408  21.238  1.00  0.00     0.000 A 
ENDBRANCH  32  34
ENDBRANCH  31  32
ENDBRANCH  30  31
ENDBRANCH   8  30
TORSDOF 12
ENDMDL
MODEL 6
REMARK VINA RESULT:    -2.359      1.253      2.113
REMARK INTER + INTRA:          -3.068
REMARK INTER:                  -4.811
REMARK INTRA:                   1.743
REMARK UNBOUND:                 0.601
REMARK SMILES C[C@@]12C[C@@]3(O)O[C@@H](O1)[C@]1(COC(=O)c4ccccc4)[C@H]3C[C@@]12O[C@@H]1O[C@@H](CO)[C@@H](O)[C@@H](O)[C@@H]1O
REMARK SMILES IDX 1 1 2 2 3 3 4 4 20 5 21 6 22 7 9 8 7 9 8 10 6 11 23 12 24 13
REMARK SMILES IDX 33 14 25 15 31 16 26 17 29 18 34 19 32 21 27 23 28 24 30 26
REMARK SMILES IDX 5 28 10 30 11 31 12 32 13 33 14 34 15 35 19 36 16 37 18 38
REMARK SMILES IDX 17 39
REMARK H PARENT 34 20 32 22 28 25 30 27 5 29
REMARK Flexibility Score: inf
ROOT
ATOM      1  C   UNL     1      25.242  21.269   7.526  1.00  0.00     0.046 C 
ATOM      2  C   UNL     1      24.574  20.303   6.543  1.00  0.00     0.104 C 
ATOM      3  C   UNL     1      24.749  20.815   5.062  1.00  0.00     0.104 C 
ATOM      4  C   UNL     1      23.945  19.771   4.211  1.00  0.00     0.175 C 
ATOM      5  C   UNL     1      22.528  19.541   4.823  1.00  0.00     0.070 C 
ATOM      6  C   UNL     1      22.119  20.652   5.795  1.00  0.00     0.050 C 
ATOM      7  C   UNL     1      23.047  19.985   6.823  1.00  0.00     0.115 C 
ATOM      8  C   UNL     1      22.932  18.683   6.020  1.00  0.00     0.096 C 
ATOM      9  C   UNL     1      24.358  18.225   5.746  1.00  0.00     0.267 C 
ATOM     10  O   UNL     1      25.199  19.032   6.563  1.00  0.00    -0.342 OA
ATOM     11  O   UNL     1      24.607  18.535   4.384  1.00  0.00    -0.320 OA
ENDROOT
BRANCH   7  12
ATOM     12  O   UNL     1      22.505  20.071   8.143  1.00  0.00    -0.339 OA
BRANCH  12  13
ATOM     13  C   UNL     1      22.780  18.967   8.997  1.00  0.00     0.282 C 
ATOM     14  C   UNL     1      23.894  19.339  10.008  1.00  0.00     0.202 C 
ATOM     15  O   UNL     1      21.612  18.550   9.691  1.00  0.00    -0.341 OA
ATOM     16  C   UNL     1      23.394  20.391  11.017  1.00  0.00     0.179 C 
ATOM     17  C   UNL     1      21.082  19.580  10.514  1.00  0.00     0.178 C 
ATOM     18  C   UNL     1      22.070  19.938  11.644  1.00  0.00     0.177 C 
BRANCH  14  19
ATOM     19  O   UNL     1      25.010  19.854   9.329  1.00  0.00    -0.385 OA
ATOM     20  H   UNL     1      24.671  20.437   8.598  1.00  0.00     0.211 HD
ENDBRANCH  14  19
BRANCH  16  21
ATOM     21  O   UNL     1      24.345  20.589  12.031  1.00  0.00    -0.387 OA
ATOM     22  H   UNL     1      25.133  20.031  11.800  1.00  0.00     0.211 HD
ENDBRANCH  16  21
BRANCH  17  23
ATOM     23  C   UNL     1      19.720  19.137  11.068  1.00  0.00     0.191 C 
BRANCH  23  24
ATOM     24  O   UNL     1      18.676  19.727  10.345  1.00  0.00    -0.394 OA
ATOM     25  H   UNL     1      17.910  19.795  10.972  1.00  0.00     0.210 HD
ENDBRANCH  23  24
ENDBRANCH  17  23
BRANCH  18  26
ATOM     26  O   UNL     1      22.300  18.823  12.472  1.00  0.00    -0.387 OA
ATOM     27  H   UNL     1      22.428  18.039  11.876  1.00  0.00     0.211 HD
ENDBRANCH  18  26
ENDBRANCH  12  13
ENDBRANCH   7  12
BRANCH   4  28
ATOM     28  O   UNL     1      23.895  20.115   2.853  1.00  0.00    -0.365 OA
ATOM     29  H   UNL     1      23.201  20.821   2.764  1.00  0.00     0.214 HD
ENDBRANCH   4  28
BRANCH   8  30
ATOM     30  C   UNL     1      21.916  17.595   6.417  1.00  0.00     0.249 C 
BRANCH  30  31
ATOM     31  O   UNL     1      21.882  16.560   5.433  1.00  0.00    -0.461 OA
BRANCH  31  32
ATOM     32  C   UNL     1      20.846  16.392   4.503  1.00  0.00     0.338 C 
ATOM     33  O   UNL     1      20.185  17.387   4.101  1.00  0.00    -0.246 OA
BRANCH  32  34
ATOM     34  C   UNL     1      20.534  15.039   3.993  1.00  0.00     0.060 A 
ATOM     35  C   UNL     1      19.377  14.367   4.427  1.00  0.00     0.015 A 
ATOM     36  C   UNL     1      21.387  14.402   3.072  1.00  0.00     0.015 A 
ATOM     37  C   UNL     1      19.078  13.088   3.948  1.00  0.00     0.001 A 
ATOM     38  C   UNL     1      21.085  13.123   2.596  1.00  0.00     0.001 A 
ATOM     39  C   UNL     1      19.931  12.466   3.031  1.00  0.00     0.000 A 
ENDBRANCH  32  34
ENDBRANCH  31  32
ENDBRANCH  30  31
ENDBRANCH   8  30
TORSDOF 12
ENDMDL
MODEL 7
REMARK VINA RESULT:    -2.032      9.661     14.008
REMARK INTER + INTRA:          -2.560
REMARK INTER:                  -3.078
REMARK INTRA:                   0.518
REMARK UNBOUND:                 0.601
REMARK SMILES C[C@@]12C[C@@]3(O)O[C@@H](O1)[C@]1(COC(=O)c4ccccc4)[C@H]3C[C@@]12O[C@@H]1O[C@@H](CO)[C@@H](O)[C@@H](O)[C@@H]1O
REMARK SMILES IDX 1 1 2 2 3 3 4 4 20 5 21 6 22 7 9 8 7 9 8 10 6 11 23 12 24 13
REMARK SMILES IDX 33 14 25 15 31 16 26 17 29 18 34 19 32 21 27 23 28 24 30 26
REMARK SMILES IDX 5 28 10 30 11 31 12 32 13 33 14 34 15 35 19 36 16 37 18 38
REMARK SMILES IDX 17 39
REMARK H PARENT 34 20 32 22 28 25 30 27 5 29
REMARK Flexibility Score: inf
ROOT
ATOM      1  C   UNL     1      12.938  18.416  20.232  1.00  0.00     0.046 C 
ATOM      2  C   UNL     1      13.962  18.498  19.096  1.00  0.00     0.104 C 
ATOM      3  C   UNL     1      15.287  19.189  19.597  1.00  0.00     0.104 C 
ATOM      4  C   UNL     1      16.176  19.268  18.307  1.00  0.00     0.175 C 
ATOM      5  C   UNL     1      15.360  19.858  17.115  1.00  0.00     0.070 C 
ATOM      6  C   UNL     1      14.094  20.590  17.573  1.00  0.00     0.050 C 
ATOM      7  C   UNL     1      13.460  19.203  17.768  1.00  0.00     0.115 C 
ATOM      8  C   UNL     1      14.502  18.635  16.797  1.00  0.00     0.096 C 
ATOM      9  C   UNL     1      15.158  17.464  17.515  1.00  0.00     0.267 C 
ATOM     10  O   UNL     1      14.365  17.209  18.669  1.00  0.00    -0.342 OA
ATOM     11  O   UNL     1      16.432  17.931  17.929  1.00  0.00    -0.320 OA
ENDROOT
BRANCH   7  12
ATOM     12  O   UNL     1      12.074  19.213  17.417  1.00  0.00    -0.339 OA
BRANCH  12  13
ATOM     13  C   UNL     1      11.525  20.489  17.109  1.00  0.00     0.282 C 
ATOM     14  C   UNL     1      10.143  20.324  16.425  1.00  0.00     0.202 C 
ATOM     15  O   UNL     1      11.398  21.290  18.275  1.00  0.00    -0.341 OA
ATOM     16  C   UNL     1       9.101  19.771  17.417  1.00  0.00     0.179 C 
ATOM     17  C   UNL     1      10.539  20.700  19.240  1.00  0.00     0.178 C 
ATOM     18  C   UNL     1       9.095  20.607  18.702  1.00  0.00     0.177 C 
BRANCH  14  19
ATOM     19  O   UNL     1      10.245  19.445  15.336  1.00  0.00    -0.385 OA
ATOM     20  H   UNL     1      10.781  19.902  14.632  1.00  0.00     0.211 HD
ENDBRANCH  14  19
BRANCH  16  21
ATOM     21  O   UNL     1       7.819  19.793  16.843  1.00  0.00    -0.387 OA
ATOM     22  H   UNL     1       7.433  20.688  17.032  1.00  0.00     0.211 HD
ENDBRANCH  16  21
BRANCH  17  23
ATOM     23  C   UNL     1      10.610  21.507  20.545  1.00  0.00     0.191 C 
BRANCH  23  24
ATOM     24  O   UNL     1      10.135  20.749  21.622  1.00  0.00    -0.394 OA
ATOM     25  H   UNL     1      10.376  19.807  21.424  1.00  0.00     0.210 HD
ENDBRANCH  23  24
ENDBRANCH  17  23
BRANCH  18  26
ATOM     26  O   UNL     1       8.588  21.891  18.426  1.00  0.00    -0.387 OA
ATOM     27  H   UNL     1       8.250  21.876  17.493  1.00  0.00     0.211 HD
ENDBRANCH  18  26
ENDBRANCH  12  13
ENDBRANCH   7  12
BRANCH   4  28
ATOM     28  O   UNL     1      17.378  19.955  18.529  1.00  0.00    -0.365 OA
ATOM     29  H   UNL     1      17.317  20.805  18.019  1.00  0.00     0.214 HD
ENDBRANCH   4  28
BRANCH   8  30
ATOM     30  C   UNL     1      14.171  18.439  15.306  1.00  0.00     0.249 C 
BRANCH  30  31
ATOM     31  O   UNL     1      15.364  18.471  14.520  1.00  0.00    -0.461 OA
BRANCH  31  32
ATOM     32  C   UNL     1      15.671  19.477  13.594  1.00  0.00     0.338 C 
ATOM     33  O   UNL     1      14.915  20.478  13.470  1.00  0.00    -0.246 OA
BRANCH  32  34
ATOM     34  C   UNL     1      16.890  19.360  12.764  1.00  0.00     0.060 A 
ATOM     35  C   UNL     1      16.793  19.352  11.360  1.00  0.00     0.015 A 
ATOM     36  C   UNL     1      18.160  19.250  13.361  1.00  0.00     0.015 A 
ATOM     37  C   UNL     1      17.943  19.242  10.572  1.00  0.00     0.001 A 
ATOM     38  C   UNL     1      19.306  19.138  12.569  1.00  0.00     0.001 A 
ATOM     39  C   UNL     1      19.199  19.136  11.175  1.00  0.00     0.000 A 
ENDBRANCH  32  34
ENDBRANCH  31  32
ENDBRANCH  30  31
ENDBRANCH   8  30
TORSDOF 12
ENDMDL
MODEL 8
REMARK VINA RESULT:    -1.803      2.215      7.734
REMARK INTER + INTRA:          -2.203
REMARK INTER:                  -2.600
REMARK INTRA:                   0.396
REMARK UNBOUND:                 0.601
REMARK SMILES C[C@@]12C[C@@]3(O)O[C@@H](O1)[C@]1(COC(=O)c4ccccc4)[C@H]3C[C@@]12O[C@@H]1O[C@@H](CO)[C@@H](O)[C@@H](O)[C@@H]1O
REMARK SMILES IDX 1 1 2 2 3 3 4 4 20 5 21 6 22 7 9 8 7 9 8 10 6 11 23 12 24 13
REMARK SMILES IDX 33 14 25 15 31 16 26 17 29 18 34 19 32 21 27 23 28 24 30 26
REMARK SMILES IDX 5 28 10 30 11 31 12 32 13 33 14 34 15 35 19 36 16 37 18 38
REMARK SMILES IDX 17 39
REMARK H PARENT 34 20 32 22 28 25 30 27 5 29
REMARK Flexibility Score: inf
ROOT
ATOM      1  C   UNL     1      22.933  17.886   1.896  1.00  0.00     0.046 C 
ATOM      2  C   UNL     1      23.091  18.522   3.280  1.00  0.00     0.104 C 
ATOM      3  C   UNL     1      23.905  19.868   3.179  1.00  0.00     0.104 C 
ATOM      4  C   UNL     1      24.045  20.330   4.671  1.00  0.00     0.175 C 
ATOM      5  C   UNL     1      24.542  19.152   5.565  1.00  0.00     0.070 C 
ATOM      6  C   UNL     1      25.164  18.014   4.748  1.00  0.00     0.050 C 
ATOM      7  C   UNL     1      23.728  17.593   4.394  1.00  0.00     0.115 C 
ATOM      8  C   UNL     1      23.243  18.353   5.635  1.00  0.00     0.096 C 
ATOM      9  C   UNL     1      22.146  19.293   5.154  1.00  0.00     0.267 C 
ATOM     10  O   UNL     1      21.837  18.897   3.822  1.00  0.00    -0.342 OA
ATOM     11  O   UNL     1      22.731  20.585   5.124  1.00  0.00    -0.320 OA
ENDROOT
BRANCH   7  12
ATOM     12  O   UNL     1      23.609  16.169   4.325  1.00  0.00    -0.339 OA
BRANCH  12  13
ATOM     13  C   UNL     1      23.670  15.607   3.020  1.00  0.00     0.282 C 
ATOM     14  C   UNL     1      24.686  14.436   2.990  1.00  0.00     0.202 C 
ATOM     15  O   UNL     1      22.392  15.153   2.595  1.00  0.00    -0.341 OA
ATOM     16  C   UNL     1      24.174  13.241   3.817  1.00  0.00     0.179 C 
ATOM     17  C   UNL     1      21.871  14.145   3.448  1.00  0.00     0.178 C 
ATOM     18  C   UNL     1      22.747  12.875   3.392  1.00  0.00     0.177 C 
BRANCH  14  19
ATOM     19  O   UNL     1      25.920  14.855   3.512  1.00  0.00    -0.385 OA
ATOM     20  H   UNL     1      26.188  15.680   3.022  1.00  0.00     0.211 HD
ENDBRANCH  14  19
BRANCH  16  21
ATOM     21  O   UNL     1      25.012  12.128   3.639  1.00  0.00    -0.387 OA
ATOM     22  H   UNL     1      25.500  11.995   4.493  1.00  0.00     0.211 HD
ENDBRANCH  16  21
BRANCH  17  23
ATOM     23  C   UNL     1      20.415  13.851   3.056  1.00  0.00     0.191 C 
BRANCH  23  24
ATOM     24  O   UNL     1      20.112  12.499   3.258  1.00  0.00    -0.394 OA
ATOM     25  H   UNL     1      19.141  12.404   3.074  1.00  0.00     0.210 HD
ENDBRANCH  23  24
ENDBRANCH  17  23
BRANCH  18  26
ATOM     26  O   UNL     1      22.766  12.346   2.088  1.00  0.00    -0.387 OA
ATOM     27  H   UNL     1      23.533  12.762   1.615  1.00  0.00     0.211 HD
ENDBRANCH  18  26
ENDBRANCH  12  13
ENDBRANCH   7  12
BRANCH   4  28
ATOM     28  O   UNL     1      24.841  21.478   4.801  1.00  0.00    -0.365 OA
ATOM     29  H   UNL     1      25.784  21.168   4.828  1.00  0.00     0.214 HD
ENDBRANCH   4  28
BRANCH   8  30
ATOM     30  C   UNL     1      22.997  17.620   6.966  1.00  0.00     0.249 C 
BRANCH  30  31
ATOM     31  O   UNL     1      22.431  18.510   7.930  1.00  0.00    -0.461 OA
BRANCH  31  32
ATOM     32  C   UNL     1      23.180  19.245   8.859  1.00  0.00     0.338 C 
ATOM     33  O   UNL     1      24.378  19.548   8.612  1.00  0.00    -0.246 OA
BRANCH  32  34
ATOM     34  C   UNL     1      22.555  19.666  10.132  1.00  0.00     0.060 A 
ATOM     35  C   UNL     1      23.353  19.921  11.263  1.00  0.00     0.015 A 
ATOM     36  C   UNL     1      21.159  19.814  10.235  1.00  0.00     0.015 A 
ATOM     37  C   UNL     1      22.767  20.320  12.468  1.00  0.00     0.001 A 
ATOM     38  C   UNL     1      20.577  20.211  11.442  1.00  0.00     0.001 A 
ATOM     39  C   UNL     1      21.380  20.466  12.558  1.00  0.00     0.000 A 
ENDBRANCH  32  34
ENDBRANCH  31  32
ENDBRANCH  30  31
ENDBRANCH   8  30
TORSDOF 12
ENDMDL
