MODEL 1
REMARK VINA RESULT:    -5.174      0.000      0.000
REMARK INTER + INTRA:          -5.808
REMARK INTER:                  -5.628
REMARK INTRA:                  -0.180
REMARK UNBOUND:                -0.180
REMARK SMILES C=C1C[C@]2(O)O[C@]3(C[C@H]2C(C)C)[C@H](C)CC[C@@H]13
REMARK SMILES IDX 14 1 13 2 15 3 16 4 17 5 7 6 8 7 9 8 4 9 6 10 3 11 2 12 1 13
REMARK SMILES IDX 10 14 11 15 12 16 5 17
REMARK H PARENT 5 18
REMARK Flexibility Score: inf
ROOT
ATOM      1  C   UNL     1      18.894 -39.540 148.599  1.00  0.00     0.011 C 
ATOM      2  C   UNL     1      17.916 -38.395 148.286  1.00  0.00     0.019 C 
ATOM      3  C   UNL     1      18.389 -37.550 147.074  1.00  0.00     0.007 C 
ATOM      4  C   UNL     1      18.862 -36.187 147.617  1.00  0.00     0.011 C 
ATOM      5  C   UNL     1      18.947 -36.397 149.120  1.00  0.00     0.047 C 
ATOM      6  C   UNL     1      17.811 -37.369 149.430  1.00  0.00     0.081 C 
ATOM      7  C   UNL     1      16.412 -36.686 149.460  1.00  0.00     0.046 C 
ATOM      8  C   UNL     1      16.136 -36.498 150.952  1.00  0.00     0.054 C 
ATOM      9  C   UNL     1      17.520 -36.832 151.557  1.00  0.00     0.173 C 
ATOM     10  O   UNL     1      18.039 -37.861 150.732  1.00  0.00    -0.342 OA
ATOM     11  C   UNL     1      18.469 -35.573 151.504  1.00  0.00     0.096 C 
ATOM     12  C   UNL     1      18.871 -35.231 150.075  1.00  0.00    -0.066 C 
ATOM     13  C   UNL     1      19.332 -34.014 149.759  1.00  0.00     0.008 C 
ENDROOT
BRANCH   8  14
ATOM     14  C   UNL     1      14.927 -37.379 151.422  1.00  0.00    -0.009 C 
ATOM     15  C   UNL     1      14.108 -36.771 152.576  1.00  0.00     0.008 C 
ATOM     16  C   UNL     1      14.005 -37.791 150.264  1.00  0.00     0.008 C 
ENDBRANCH   8  14
BRANCH   9  17
ATOM     17  O   UNL     1      17.433 -37.300 152.879  1.00  0.00    -0.365 OA
ATOM     18  H   UNL     1      18.350 -37.287 153.260  1.00  0.00     0.214 HD
ENDBRANCH   9  17
TORSDOF 2
ENDMDL
MODEL 2
REMARK VINA RESULT:    -5.046      7.989      9.993
REMARK INTER + INTRA:          -5.668
REMARK INTER:                  -5.444
REMARK INTRA:                  -0.224
REMARK UNBOUND:                -0.180
REMARK SMILES C=C1C[C@]2(O)O[C@]3(C[C@H]2C(C)C)[C@H](C)CC[C@@H]13
REMARK SMILES IDX 14 1 13 2 15 3 16 4 17 5 7 6 8 7 9 8 4 9 6 10 3 11 2 12 1 13
REMARK SMILES IDX 10 14 11 15 12 16 5 17
REMARK H PARENT 5 18
REMARK Flexibility Score: inf
ROOT
ATOM      1  C   UNL     1      18.638 -40.550 158.639  1.00  0.00     0.011 C 
ATOM      2  C   UNL     1      19.349 -39.531 159.546  1.00  0.00     0.019 C 
ATOM      3  C   UNL     1      18.754 -39.524 160.978  1.00  0.00     0.007 C 
ATOM      4  C   UNL     1      17.965 -38.210 161.144  1.00  0.00     0.011 C 
ATOM      5  C   UNL     1      17.863 -37.659 159.731  1.00  0.00     0.047 C 
ATOM      6  C   UNL     1      19.172 -38.079 159.066  1.00  0.00     0.081 C 
ATOM      7  C   UNL     1      20.381 -37.188 159.478  1.00  0.00     0.046 C 
ATOM      8  C   UNL     1      20.542 -36.231 158.297  1.00  0.00     0.054 C 
ATOM      9  C   UNL     1      19.241 -36.510 157.506  1.00  0.00     0.173 C 
ATOM     10  O   UNL     1      19.001 -37.896 157.678  1.00  0.00    -0.342 OA
ATOM     11  C   UNL     1      18.039 -35.681 158.104  1.00  0.00     0.096 C 
ATOM     12  C   UNL     1      17.635 -36.188 159.482  1.00  0.00    -0.066 C 
ATOM     13  C   UNL     1      16.929 -35.420 160.322  1.00  0.00     0.008 C 
ENDROOT
BRANCH   8  14
ATOM     14  C   UNL     1      21.894 -36.479 157.544  1.00  0.00    -0.009 C 
ATOM     15  C   UNL     1      22.963 -35.397 157.783  1.00  0.00     0.008 C 
ATOM     16  C   UNL     1      22.473 -37.878 157.808  1.00  0.00     0.008 C 
ENDBRANCH   8  14
BRANCH   9  17
ATOM     17  O   UNL     1      19.371 -36.229 156.136  1.00  0.00    -0.365 OA
ATOM     18  H   UNL     1      18.465 -36.022 155.788  1.00  0.00     0.214 HD
ENDBRANCH   9  17
TORSDOF 2
ENDMDL
MODEL 3
REMARK VINA RESULT:    -4.891      8.677     10.849
REMARK INTER + INTRA:          -5.500
REMARK INTER:                  -5.330
REMARK INTRA:                  -0.169
REMARK UNBOUND:                -0.180
REMARK SMILES C=C1C[C@]2(O)O[C@]3(C[C@H]2C(C)C)[C@H](C)CC[C@@H]13
REMARK SMILES IDX 14 1 13 2 15 3 16 4 17 5 7 6 8 7 9 8 4 9 6 10 3 11 2 12 1 13
REMARK SMILES IDX 10 14 11 15 12 16 5 17
REMARK H PARENT 5 18
REMARK Flexibility Score: inf
ROOT
ATOM      1  C   UNL     1      22.068 -40.628 160.517  1.00  0.00     0.011 C 
ATOM      2  C   UNL     1      21.792 -39.126 160.701  1.00  0.00     0.019 C 
ATOM      3  C   UNL     1      21.663 -38.746 162.200  1.00  0.00     0.007 C 
ATOM      4  C   UNL     1      20.178 -38.434 162.471  1.00  0.00     0.011 C 
ATOM      5  C   UNL     1      19.460 -38.942 161.231  1.00  0.00     0.047 C 
ATOM      6  C   UNL     1      20.447 -38.687 160.093  1.00  0.00     0.081 C 
ATOM      7  C   UNL     1      20.484 -37.198 159.638  1.00  0.00     0.046 C 
ATOM      8  C   UNL     1      19.625 -37.188 158.373  1.00  0.00     0.054 C 
ATOM      9  C   UNL     1      18.985 -38.597 158.434  1.00  0.00     0.173 C 
ATOM     10  O   UNL     1      19.991 -39.429 158.985  1.00  0.00    -0.342 OA
ATOM     11  C   UNL     1      17.720 -38.591 159.377  1.00  0.00     0.096 C 
ATOM     12  C   UNL     1      18.107 -38.403 160.838  1.00  0.00    -0.066 C 
ATOM     13  C   UNL     1      17.212 -37.985 161.742  1.00  0.00     0.008 C 
ENDROOT
BRANCH   8  14
ATOM     14  C   UNL     1      20.485 -36.857 157.104  1.00  0.00    -0.009 C 
ATOM     15  C   UNL     1      20.431 -35.382 156.667  1.00  0.00     0.008 C 
ATOM     16  C   UNL     1      21.942 -37.330 157.233  1.00  0.00     0.008 C 
ENDBRANCH   8  14
BRANCH   9  17
ATOM     17  O   UNL     1      18.626 -39.081 157.166  1.00  0.00    -0.365 OA
ATOM     18  H   UNL     1      18.176 -39.956 157.300  1.00  0.00     0.214 HD
ENDBRANCH   9  17
TORSDOF 2
ENDMDL
MODEL 4
REMARK VINA RESULT:    -4.882     17.124     18.872
REMARK INTER + INTRA:          -5.491
REMARK INTER:                  -5.241
REMARK INTRA:                  -0.250
REMARK UNBOUND:                -0.180
REMARK SMILES C=C1C[C@]2(O)O[C@]3(C[C@H]2C(C)C)[C@H](C)CC[C@@H]13
REMARK SMILES IDX 14 1 13 2 15 3 16 4 17 5 7 6 8 7 9 8 4 9 6 10 3 11 2 12 1 13
REMARK SMILES IDX 10 14 11 15 12 16 5 17
REMARK H PARENT 5 18
REMARK Flexibility Score: inf
ROOT
ATOM      1  C   UNL     1      20.239 -50.841 162.310  1.00  0.00     0.011 C 
ATOM      2  C   UNL     1      21.244 -49.985 161.520  1.00  0.00     0.019 C 
ATOM      3  C   UNL     1      20.528 -49.000 160.559  1.00  0.00     0.007 C 
ATOM      4  C   UNL     1      20.757 -49.509 159.122  1.00  0.00     0.011 C 
ATOM      5  C   UNL     1      21.310 -50.912 159.309  1.00  0.00     0.047 C 
ATOM      6  C   UNL     1      22.140 -50.822 160.589  1.00  0.00     0.081 C 
ATOM      7  C   UNL     1      23.527 -50.149 160.372  1.00  0.00     0.046 C 
ATOM      8  C   UNL     1      24.492 -51.332 160.293  1.00  0.00     0.054 C 
ATOM      9  C   UNL     1      23.504 -52.519 160.189  1.00  0.00     0.173 C 
ATOM     10  O   UNL     1      22.402 -52.146 160.998  1.00  0.00    -0.342 OA
ATOM     11  C   UNL     1      23.029 -52.717 158.697  1.00  0.00     0.096 C 
ATOM     12  C   UNL     1      22.136 -51.574 158.234  1.00  0.00    -0.066 C 
ATOM     13  C   UNL     1      21.942 -51.333 156.931  1.00  0.00     0.008 C 
ENDROOT
BRANCH   8  14
ATOM     14  C   UNL     1      25.482 -51.342 161.509  1.00  0.00    -0.009 C 
ATOM     15  C   UNL     1      26.951 -51.073 161.136  1.00  0.00     0.008 C 
ATOM     16  C   UNL     1      25.034 -50.410 162.647  1.00  0.00     0.008 C 
ENDBRANCH   8  14
BRANCH   9  17
ATOM     17  O   UNL     1      24.049 -53.719 160.673  1.00  0.00    -0.365 OA
ATOM     18  H   UNL     1      24.867 -53.488 161.186  1.00  0.00     0.214 HD
ENDBRANCH   9  17
TORSDOF 2
ENDMDL
MODEL 5
REMARK VINA RESULT:    -4.740     16.903     18.207
REMARK INTER + INTRA:          -5.336
REMARK INTER:                  -5.725
REMARK INTRA:                   0.390
REMARK UNBOUND:                -0.180
REMARK SMILES C=C1C[C@]2(O)O[C@]3(C[C@H]2C(C)C)[C@H](C)CC[C@@H]13
REMARK SMILES IDX 14 1 13 2 15 3 16 4 17 5 7 6 8 7 9 8 4 9 6 10 3 11 2 12 1 13
REMARK SMILES IDX 10 14 11 15 12 16 5 17
REMARK H PARENT 5 18
REMARK Flexibility Score: inf
ROOT
ATOM      1  C   UNL     1      23.136 -54.125 151.397  1.00  0.00     0.011 C 
ATOM      2  C   UNL     1      23.453 -52.850 150.597  1.00  0.00     0.019 C 
ATOM      3  C   UNL     1      22.604 -52.758 149.302  1.00  0.00     0.007 C 
ATOM      4  C   UNL     1      23.549 -53.012 148.111  1.00  0.00     0.011 C 
ATOM      5  C   UNL     1      24.819 -53.547 148.754  1.00  0.00     0.047 C 
ATOM      6  C   UNL     1      24.906 -52.810 150.088  1.00  0.00     0.081 C 
ATOM      7  C   UNL     1      25.424 -51.348 149.947  1.00  0.00     0.046 C 
ATOM      8  C   UNL     1      26.895 -51.447 150.350  1.00  0.00     0.054 C 
ATOM      9  C   UNL     1      27.092 -52.982 150.390  1.00  0.00     0.173 C 
ATOM     10  O   UNL     1      25.860 -53.494 150.869  1.00  0.00    -0.342 OA
ATOM     11  C   UNL     1      27.378 -53.543 148.944  1.00  0.00     0.096 C 
ATOM     12  C   UNL     1      26.150 -53.449 148.049  1.00  0.00    -0.066 C 
ATOM     13  C   UNL     1      26.260 -53.496 146.716  1.00  0.00     0.008 C 
ENDROOT
BRANCH   8  14
ATOM     14  C   UNL     1      27.174 -50.663 151.679  1.00  0.00    -0.009 C 
ATOM     15  C   UNL     1      26.598 -51.328 152.943  1.00  0.00     0.008 C 
ATOM     16  C   UNL     1      28.663 -50.334 151.873  1.00  0.00     0.008 C 
ENDBRANCH   8  14
BRANCH   9  17
ATOM     17  O   UNL     1      28.124 -53.370 151.260  1.00  0.00    -0.365 OA
ATOM     18  H   UNL     1      28.985 -53.156 150.813  1.00  0.00     0.214 HD
ENDBRANCH   9  17
TORSDOF 2
ENDMDL
MODEL 6
REMARK VINA RESULT:    -4.707      9.093     11.377
REMARK INTER + INTRA:          -5.300
REMARK INTER:                  -5.088
REMARK INTRA:                  -0.212
REMARK UNBOUND:                -0.180
REMARK SMILES C=C1C[C@]2(O)O[C@]3(C[C@H]2C(C)C)[C@H](C)CC[C@@H]13
REMARK SMILES IDX 14 1 13 2 15 3 16 4 17 5 7 6 8 7 9 8 4 9 6 10 3 11 2 12 1 13
REMARK SMILES IDX 10 14 11 15 12 16 5 17
REMARK H PARENT 5 18
REMARK Flexibility Score: inf
ROOT
ATOM      1  C   UNL     1      22.143 -39.490 162.395  1.00  0.00     0.011 C 
ATOM      2  C   UNL     1      21.177 -38.337 162.074  1.00  0.00     0.019 C 
ATOM      3  C   UNL     1      19.753 -38.611 162.624  1.00  0.00     0.007 C 
ATOM      4  C   UNL     1      18.841 -38.907 161.417  1.00  0.00     0.011 C 
ATOM      5  C   UNL     1      19.808 -39.107 160.262  1.00  0.00     0.047 C 
ATOM      6  C   UNL     1      20.957 -38.146 160.562  1.00  0.00     0.081 C 
ATOM      7  C   UNL     1      20.623 -36.666 160.214  1.00  0.00     0.046 C 
ATOM      8  C   UNL     1      21.311 -36.449 158.866  1.00  0.00     0.054 C 
ATOM      9  C   UNL     1      21.699 -37.900 158.491  1.00  0.00     0.173 C 
ATOM     10  O   UNL     1      22.028 -38.518 159.723  1.00  0.00    -0.342 OA
ATOM     11  C   UNL     1      20.478 -38.647 157.827  1.00  0.00     0.096 C 
ATOM     12  C   UNL     1      19.365 -38.912 158.832  1.00  0.00    -0.066 C 
ATOM     13  C   UNL     1      18.115 -39.170 158.428  1.00  0.00     0.008 C 
ENDROOT
BRANCH   8  14
ATOM     14  C   UNL     1      22.482 -35.413 158.984  1.00  0.00    -0.009 C 
ATOM     15  C   UNL     1      22.666 -34.518 157.745  1.00  0.00     0.008 C 
ATOM     16  C   UNL     1      22.393 -34.558 160.259  1.00  0.00     0.008 C 
ENDBRANCH   8  14
BRANCH   9  17
ATOM     17  O   UNL     1      22.809 -37.957 157.633  1.00  0.00    -0.365 OA
ATOM     18  H   UNL     1      22.927 -37.053 157.240  1.00  0.00     0.214 HD
ENDBRANCH   9  17
TORSDOF 2
ENDMDL
MODEL 7
REMARK VINA RESULT:    -4.666      2.271      4.603
REMARK INTER + INTRA:          -5.256
REMARK INTER:                  -5.004
REMARK INTRA:                  -0.252
REMARK UNBOUND:                -0.180
REMARK SMILES C=C1C[C@]2(O)O[C@]3(C[C@H]2C(C)C)[C@H](C)CC[C@@H]13
REMARK SMILES IDX 14 1 13 2 15 3 16 4 17 5 7 6 8 7 9 8 4 9 6 10 3 11 2 12 1 13
REMARK SMILES IDX 10 14 11 15 12 16 5 17
REMARK H PARENT 5 18
REMARK Flexibility Score: inf
ROOT
ATOM      1  C   UNL     1      17.482 -34.054 147.068  1.00  0.00     0.011 C 
ATOM      2  C   UNL     1      18.627 -35.039 147.359  1.00  0.00     0.019 C 
ATOM      3  C   UNL     1      18.415 -36.395 146.636  1.00  0.00     0.007 C 
ATOM      4  C   UNL     1      18.054 -37.440 147.710  1.00  0.00     0.011 C 
ATOM      5  C   UNL     1      17.760 -36.610 148.950  1.00  0.00     0.047 C 
ATOM      6  C   UNL     1      18.719 -35.426 148.846  1.00  0.00     0.081 C 
ATOM      7  C   UNL     1      20.178 -35.782 149.256  1.00  0.00     0.046 C 
ATOM      8  C   UNL     1      20.292 -35.248 150.684  1.00  0.00     0.054 C 
ATOM      9  C   UNL     1      18.812 -34.919 150.999  1.00  0.00     0.173 C 
ATOM     10  O   UNL     1      18.273 -34.459 149.772  1.00  0.00    -0.342 OA
ATOM     11  C   UNL     1      18.043 -36.213 151.470  1.00  0.00     0.096 C 
ATOM     12  C   UNL     1      17.865 -37.209 150.331  1.00  0.00    -0.066 C 
ATOM     13  C   UNL     1      17.603 -38.499 150.575  1.00  0.00     0.008 C 
ENDROOT
BRANCH   8  14
ATOM     14  C   UNL     1      21.313 -34.062 150.768  1.00  0.00    -0.009 C 
ATOM     15  C   UNL     1      22.236 -34.104 152.001  1.00  0.00     0.008 C 
ATOM     16  C   UNL     1      22.138 -33.895 149.482  1.00  0.00     0.008 C 
ENDBRANCH   8  14
BRANCH   9  17
ATOM     17  O   UNL     1      18.679 -33.912 151.969  1.00  0.00    -0.365 OA
ATOM     18  H   UNL     1      19.324 -33.193 151.741  1.00  0.00     0.214 HD
ENDBRANCH   9  17
TORSDOF 2
ENDMDL
MODEL 8
REMARK VINA RESULT:    -4.635      7.280      9.224
REMARK INTER + INTRA:          -5.221
REMARK INTER:                  -4.964
REMARK INTRA:                  -0.257
REMARK UNBOUND:                -0.180
REMARK SMILES C=C1C[C@]2(O)O[C@]3(C[C@H]2C(C)C)[C@H](C)CC[C@@H]13
REMARK SMILES IDX 14 1 13 2 15 3 16 4 17 5 7 6 8 7 9 8 4 9 6 10 3 11 2 12 1 13
REMARK SMILES IDX 10 14 11 15 12 16 5 17
REMARK H PARENT 5 18
REMARK Flexibility Score: inf
ROOT
ATOM      1  C   UNL     1      22.168 -35.113 160.258  1.00  0.00     0.011 C 
ATOM      2  C   UNL     1      22.161 -36.070 159.054  1.00  0.00     0.019 C 
ATOM      3  C   UNL     1      22.934 -35.479 157.847  1.00  0.00     0.007 C 
ATOM      4  C   UNL     1      21.895 -35.094 156.775  1.00  0.00     0.011 C 
ATOM      5  C   UNL     1      20.564 -35.174 157.506  1.00  0.00     0.047 C 
ATOM      6  C   UNL     1      20.747 -36.320 158.498  1.00  0.00     0.081 C 
ATOM      7  C   UNL     1      20.631 -37.726 157.838  1.00  0.00     0.046 C 
ATOM      8  C   UNL     1      19.210 -38.170 158.184  1.00  0.00     0.054 C 
ATOM      9  C   UNL     1      18.613 -36.856 158.743  1.00  0.00     0.173 C 
ATOM     10  O   UNL     1      19.687 -36.230 159.424  1.00  0.00    -0.342 OA
ATOM     11  C   UNL     1      18.112 -35.930 157.568  1.00  0.00     0.096 C 
ATOM     12  C   UNL     1      19.273 -35.377 156.752  1.00  0.00    -0.066 C 
ATOM     13  C   UNL     1      19.084 -34.905 155.513  1.00  0.00     0.008 C 
ENDROOT
BRANCH   8  14
ATOM     14  C   UNL     1      19.220 -39.407 159.147  1.00  0.00    -0.009 C 
ATOM     15  C   UNL     1      18.598 -40.683 158.549  1.00  0.00     0.008 C 
ATOM     16  C   UNL     1      20.615 -39.705 159.720  1.00  0.00     0.008 C 
ENDBRANCH   8  14
BRANCH   9  17
ATOM     17  O   UNL     1      17.561 -37.082 159.646  1.00  0.00    -0.365 OA
ATOM     18  H   UNL     1      17.784 -36.603 160.487  1.00  0.00     0.214 HD
ENDBRANCH   9  17
TORSDOF 2
ENDMDL
MODEL 9
REMARK VINA RESULT:    -4.596      8.283     10.326
REMARK INTER + INTRA:          -5.180
REMARK INTER:                  -4.937
REMARK INTRA:                  -0.243
REMARK UNBOUND:                -0.180
REMARK SMILES C=C1C[C@]2(O)O[C@]3(C[C@H]2C(C)C)[C@H](C)CC[C@@H]13
REMARK SMILES IDX 14 1 13 2 15 3 16 4 17 5 7 6 8 7 9 8 4 9 6 10 3 11 2 12 1 13
REMARK SMILES IDX 10 14 11 15 12 16 5 17
REMARK H PARENT 5 18
REMARK Flexibility Score: inf
ROOT
ATOM      1  C   UNL     1      18.607 -34.202 160.469  1.00  0.00     0.011 C 
ATOM      2  C   UNL     1      19.561 -35.321 160.918  1.00  0.00     0.019 C 
ATOM      3  C   UNL     1      20.861 -34.751 161.542  1.00  0.00     0.007 C 
ATOM      4  C   UNL     1      22.005 -35.009 160.541  1.00  0.00     0.011 C 
ATOM      5  C   UNL     1      21.292 -35.421 159.263  1.00  0.00     0.047 C 
ATOM      6  C   UNL     1      20.062 -36.186 159.747  1.00  0.00     0.081 C 
ATOM      7  C   UNL     1      20.386 -37.638 160.204  1.00  0.00     0.046 C 
ATOM      8  C   UNL     1      19.965 -38.494 159.009  1.00  0.00     0.054 C 
ATOM      9  C   UNL     1      19.728 -37.407 157.932  1.00  0.00     0.173 C 
ATOM     10  O   UNL     1      19.195 -36.302 158.641  1.00  0.00    -0.342 OA
ATOM     11  C   UNL     1      21.089 -36.997 157.247  1.00  0.00     0.096 C 
ATOM     12  C   UNL     1      21.996 -36.238 158.207  1.00  0.00    -0.066 C 
ATOM     13  C   UNL     1      23.312 -36.137 157.981  1.00  0.00     0.008 C 
ENDROOT
BRANCH   8  14
ATOM     14  C   UNL     1      18.746 -39.411 159.367  1.00  0.00    -0.009 C 
ATOM     15  C   UNL     1      18.823 -40.831 158.777  1.00  0.00     0.008 C 
ATOM     16  C   UNL     1      18.468 -39.469 160.878  1.00  0.00     0.008 C 
ENDBRANCH   8  14
BRANCH   9  17
ATOM     17  O   UNL     1      18.810 -37.813 156.949  1.00  0.00    -0.365 OA
ATOM     18  H   UNL     1      17.954 -37.344 157.131  1.00  0.00     0.214 HD
ENDBRANCH   9  17
TORSDOF 2
ENDMDL
