MODEL 1
REMARK VINA RESULT:    -5.701      0.000      0.000
REMARK INTER + INTRA:          -8.243
REMARK INTER:                  -7.701
REMARK INTRA:                  -0.541
REMARK UNBOUND:                -0.541
REMARK SMILES COc1ccc(-c2cc(=O)c3c(OC)c(OC)c(OC)c(OC)c3o2)cc1
REMARK SMILES IDX 7 1 8 2 9 3 10 4 11 5 24 6 25 7 21 8 18 9 15 10 12 11 6 12
REMARK SMILES IDX 3 13 4 14 27 15 5 16 26 17 2 18 1 19 22 20 23 21 13 22 14 23
REMARK SMILES IDX 19 24 20 25 16 26 17 27
REMARK H PARENT
REMARK Flexibility Score: inf
ROOT
ATOM      1  C   UNL     1     137.285 134.253 147.846  1.00  0.00     0.138 A 
ATOM      2  C   UNL     1     137.907 133.519 146.827  1.00  0.00     0.100 A 
ATOM      3  C   UNL     1     138.819 134.154 145.985  1.00  0.00     0.197 A 
ATOM      4  O   UNL     1     139.366 133.478 145.071  1.00  0.00    -0.289 OA
ATOM      5  C   UNL     1     139.104 135.528 146.164  1.00  0.00     0.115 A 
ATOM      6  C   UNL     1     138.432 136.198 147.211  1.00  0.00     0.188 A 
ATOM      7  O   UNL     1     137.569 135.544 147.984  1.00  0.00    -0.452 OA
ATOM      8  C   UNL     1     138.664 137.554 147.465  1.00  0.00     0.209 A 
ATOM      9  C   UNL     1     139.592 138.261 146.669  1.00  0.00     0.211 A 
ATOM     10  C   UNL     1     140.208 137.624 145.568  1.00  0.00     0.208 A 
ATOM     11  C   UNL     1     140.009 136.240 145.339  1.00  0.00     0.179 A 
ENDROOT
BRANCH   1  12
ATOM     12  C   UNL     1     136.305 133.634 148.773  1.00  0.00     0.018 A 
ATOM     13  C   UNL     1     134.391 132.500 150.515  1.00  0.00     0.118 A 
ATOM     14  C   UNL     1     133.986 133.181 149.363  1.00  0.00     0.047 A 
ATOM     15  C   UNL     1     135.764 132.395 150.801  1.00  0.00     0.047 A 
ATOM     16  C   UNL     1     134.930 133.747 148.503  1.00  0.00     0.016 A 
ATOM     17  C   UNL     1     136.711 132.960 149.941  1.00  0.00     0.016 A 
BRANCH  13  18
ATOM     18  O   UNL     1     133.404 131.949 151.346  1.00  0.00    -0.497 OA
ATOM     19  C   UNL     1     133.662 131.350 152.612  1.00  0.00     0.278 C 
ENDBRANCH  13  18
ENDBRANCH   1  12
BRANCH   8  20
ATOM     20  O   UNL     1     137.948 138.130 148.533  1.00  0.00    -0.490 OA
ATOM     21  C   UNL     1     138.437 138.381 149.846  1.00  0.00     0.278 C 
ENDBRANCH   8  20
BRANCH  11  22
ATOM     22  O   UNL     1     140.667 135.537 144.308  1.00  0.00    -0.492 OA
ATOM     23  C   UNL     1     142.057 135.243 144.222  1.00  0.00     0.278 C 
ENDBRANCH  11  22
BRANCH   9  24
ATOM     24  O   UNL     1     139.908 139.587 146.976  1.00  0.00    -0.490 OA
ATOM     25  C   UNL     1     139.143 140.690 146.497  1.00  0.00     0.279 C 
ENDBRANCH   9  24
BRANCH  10  26
ATOM     26  O   UNL     1     140.999 138.371 144.690  1.00  0.00    -0.490 OA
ATOM     27  C   UNL     1     142.312 138.806 145.027  1.00  0.00     0.278 C 
ENDBRANCH  10  26
TORSDOF 6
ENDMDL
MODEL 2
REMARK VINA RESULT:    -5.496     11.028     17.950
REMARK INTER + INTRA:          -7.965
REMARK INTER:                  -7.458
REMARK INTRA:                  -0.507
REMARK UNBOUND:                -0.541
REMARK SMILES COc1ccc(-c2cc(=O)c3c(OC)c(OC)c(OC)c(OC)c3o2)cc1
REMARK SMILES IDX 7 1 8 2 9 3 10 4 11 5 24 6 25 7 21 8 18 9 15 10 12 11 6 12
REMARK SMILES IDX 3 13 4 14 27 15 5 16 26 17 2 18 1 19 22 20 23 21 13 22 14 23
REMARK SMILES IDX 19 24 20 25 16 26 17 27
REMARK H PARENT
REMARK Flexibility Score: inf
ROOT
ATOM      1  C   UNL     1     135.619 126.056 158.945  1.00  0.00     0.138 A 
ATOM      2  C   UNL     1     137.000 125.894 159.112  1.00  0.00     0.100 A 
ATOM      3  C   UNL     1     137.480 124.807 159.842  1.00  0.00     0.197 A 
ATOM      4  O   UNL     1     138.726 124.680 159.985  1.00  0.00    -0.289 OA
ATOM      5  C   UNL     1     136.570 123.884 160.408  1.00  0.00     0.115 A 
ATOM      6  C   UNL     1     135.192 124.120 160.199  1.00  0.00     0.188 A 
ATOM      7  O   UNL     1     134.789 125.174 159.495  1.00  0.00    -0.452 OA
ATOM      8  C   UNL     1     134.225 123.250 160.713  1.00  0.00     0.209 A 
ATOM      9  C   UNL     1     134.633 122.113 161.445  1.00  0.00     0.211 A 
ATOM     10  C   UNL     1     136.002 121.911 161.731  1.00  0.00     0.208 A 
ATOM     11  C   UNL     1     136.984 122.765 161.171  1.00  0.00     0.179 A 
ENDROOT
BRANCH   1  12
ATOM     12  C   UNL     1     135.047 127.193 158.181  1.00  0.00     0.018 A 
ATOM     13  C   UNL     1     134.020 129.366 156.695  1.00  0.00     0.118 A 
ATOM     14  C   UNL     1     135.126 128.648 156.229  1.00  0.00     0.047 A 
ATOM     15  C   UNL     1     133.431 128.998 157.918  1.00  0.00     0.047 A 
ATOM     16  C   UNL     1     135.639 127.576 156.964  1.00  0.00     0.016 A 
ATOM     17  C   UNL     1     133.942 127.926 158.655  1.00  0.00     0.016 A 
BRANCH  13  18
ATOM     18  O   UNL     1     133.542 130.432 155.919  1.00  0.00    -0.497 OA
ATOM     19  C   UNL     1     134.219 131.674 155.755  1.00  0.00     0.278 C 
ENDBRANCH  13  18
ENDBRANCH   1  12
BRANCH   8  20
ATOM     20  O   UNL     1     132.879 123.570 160.447  1.00  0.00    -0.490 OA
ATOM     21  C   UNL     1     132.019 124.368 161.254  1.00  0.00     0.278 C 
ENDBRANCH   8  20
BRANCH  11  22
ATOM     22  O   UNL     1     138.367 122.556 161.354  1.00  0.00    -0.492 OA
ATOM     23  C   UNL     1     139.122 122.805 162.535  1.00  0.00     0.278 C 
ENDBRANCH  11  22
BRANCH   9  24
ATOM     24  O   UNL     1     133.683 121.182 161.876  1.00  0.00    -0.490 OA
ATOM     25  C   UNL     1     132.990 121.311 163.115  1.00  0.00     0.279 C 
ENDBRANCH   9  24
BRANCH  10  26
ATOM     26  O   UNL     1     136.383 120.875 162.589  1.00  0.00    -0.490 OA
ATOM     27  C   UNL     1     136.448 121.039 164.002  1.00  0.00     0.278 C 
ENDBRANCH  10  26
TORSDOF 6
ENDMDL
MODEL 3
REMARK VINA RESULT:    -5.482      9.499     14.212
REMARK INTER + INTRA:          -7.946
REMARK INTER:                  -7.436
REMARK INTRA:                  -0.511
REMARK UNBOUND:                -0.541
REMARK SMILES COc1ccc(-c2cc(=O)c3c(OC)c(OC)c(OC)c(OC)c3o2)cc1
REMARK SMILES IDX 7 1 8 2 9 3 10 4 11 5 24 6 25 7 21 8 18 9 15 10 12 11 6 12
REMARK SMILES IDX 3 13 4 14 27 15 5 16 26 17 2 18 1 19 22 20 23 21 13 22 14 23
REMARK SMILES IDX 19 24 20 25 16 26 17 27
REMARK H PARENT
REMARK Flexibility Score: inf
ROOT
ATOM      1  C   UNL     1     136.947 125.914 158.977  1.00  0.00     0.138 A 
ATOM      2  C   UNL     1     135.551 126.017 158.923  1.00  0.00     0.100 A 
ATOM      3  C   UNL     1     134.963 126.905 158.023  1.00  0.00     0.197 A 
ATOM      4  O   UNL     1     133.705 126.986 157.991  1.00  0.00    -0.289 OA
ATOM      5  C   UNL     1     135.779 127.693 157.179  1.00  0.00     0.115 A 
ATOM      6  C   UNL     1     137.179 127.535 157.297  1.00  0.00     0.188 A 
ATOM      7  O   UNL     1     137.687 126.674 158.175  1.00  0.00    -0.452 OA
ATOM      8  C   UNL     1     138.058 128.267 156.493  1.00  0.00     0.209 A 
ATOM      9  C   UNL     1     137.538 129.171 155.540  1.00  0.00     0.211 A 
ATOM     10  C   UNL     1     136.146 129.398 155.469  1.00  0.00     0.208 A 
ATOM     11  C   UNL     1     135.253 128.624 156.250  1.00  0.00     0.179 A 
ENDROOT
BRANCH   1  12
ATOM     12  C   UNL     1     137.631 124.989 159.915  1.00  0.00     0.018 A 
ATOM     13  C   UNL     1     138.879 123.187 161.699  1.00  0.00     0.118 A 
ATOM     14  C   UNL     1     137.848 122.755 160.859  1.00  0.00     0.047 A 
ATOM     15  C   UNL     1     139.280 124.535 161.651  1.00  0.00     0.047 A 
ATOM     16  C   UNL     1     137.226 123.644 159.979  1.00  0.00     0.016 A 
ATOM     17  C   UNL     1     138.660 125.427 160.771  1.00  0.00     0.016 A 
BRANCH  13  18
ATOM     18  O   UNL     1     139.472 122.255 162.562  1.00  0.00    -0.497 OA
ATOM     19  C   UNL     1     138.747 121.326 163.362  1.00  0.00     0.278 C 
ENDBRANCH  13  18
ENDBRANCH   1  12
BRANCH   8  20
ATOM     20  O   UNL     1     139.435 128.035 156.684  1.00  0.00    -0.490 OA
ATOM     21  C   UNL     1     140.314 128.780 157.520  1.00  0.00     0.278 C 
ENDBRANCH   8  20
BRANCH  11  22
ATOM     22  O   UNL     1     133.852 128.752 156.154  1.00  0.00    -0.492 OA
ATOM     23  C   UNL     1     133.051 129.815 156.657  1.00  0.00     0.278 C 
ENDBRANCH  11  22
BRANCH   9  24
ATOM     24  O   UNL     1     138.402 129.832 154.661  1.00  0.00    -0.490 OA
ATOM     25  C   UNL     1     139.064 131.046 155.003  1.00  0.00     0.279 C 
ENDBRANCH   9  24
BRANCH  10  26
ATOM     26  O   UNL     1     135.652 130.409 154.638  1.00  0.00    -0.490 OA
ATOM     27  C   UNL     1     135.530 131.761 155.070  1.00  0.00     0.278 C 
ENDBRANCH  10  26
TORSDOF 6
ENDMDL
MODEL 4
REMARK VINA RESULT:    -5.469      7.424     10.641
REMARK INTER + INTRA:          -7.929
REMARK INTER:                  -7.237
REMARK INTRA:                  -0.692
REMARK UNBOUND:                -0.541
REMARK SMILES COc1ccc(-c2cc(=O)c3c(OC)c(OC)c(OC)c(OC)c3o2)cc1
REMARK SMILES IDX 7 1 8 2 9 3 10 4 11 5 24 6 25 7 21 8 18 9 15 10 12 11 6 12
REMARK SMILES IDX 3 13 4 14 27 15 5 16 26 17 2 18 1 19 22 20 23 21 13 22 14 23
REMARK SMILES IDX 19 24 20 25 16 26 17 27
REMARK H PARENT
REMARK Flexibility Score: inf
ROOT
ATOM      1  C   UNL     1     132.387 138.229 156.987  1.00  0.00     0.138 A 
ATOM      2  C   UNL     1     133.175 139.387 156.998  1.00  0.00     0.100 A 
ATOM      3  C   UNL     1     134.055 139.628 155.943  1.00  0.00     0.197 A 
ATOM      4  O   UNL     1     134.758 140.673 155.971  1.00  0.00    -0.289 OA
ATOM      5  C   UNL     1     134.144 138.701 154.877  1.00  0.00     0.115 A 
ATOM      6  C   UNL     1     133.320 137.555 154.943  1.00  0.00     0.188 A 
ATOM      7  O   UNL     1     132.500 137.374 155.975  1.00  0.00    -0.452 OA
ATOM      8  C   UNL     1     133.337 136.594 153.927  1.00  0.00     0.209 A 
ATOM      9  C   UNL     1     134.185 136.778 152.813  1.00  0.00     0.211 A 
ATOM     10  C   UNL     1     135.074 137.876 152.774  1.00  0.00     0.208 A 
ATOM     11  C   UNL     1     135.023 138.873 153.780  1.00  0.00     0.179 A 
ENDROOT
BRANCH   1  12
ATOM     12  C   UNL     1     131.434 137.917 158.082  1.00  0.00     0.018 A 
ATOM     13  C   UNL     1     129.634 137.258 160.158  1.00  0.00     0.118 A 
ATOM     14  C   UNL     1     130.667 136.382 159.809  1.00  0.00     0.047 A 
ATOM     15  C   UNL     1     129.498 138.469 159.455  1.00  0.00     0.047 A 
ATOM     16  C   UNL     1     131.555 136.703 158.780  1.00  0.00     0.016 A 
ATOM     17  C   UNL     1     130.386 138.793 158.425  1.00  0.00     0.016 A 
BRANCH  13  18
ATOM     18  O   UNL     1     128.770 136.890 161.200  1.00  0.00    -0.497 OA
ATOM     19  C   UNL     1     129.061 135.888 162.169  1.00  0.00     0.278 C 
ENDBRANCH  13  18
ENDBRANCH   1  12
BRANCH   8  20
ATOM     20  O   UNL     1     132.476 135.490 154.083  1.00  0.00    -0.490 OA
ATOM     21  C   UNL     1     132.789 134.250 154.707  1.00  0.00     0.278 C 
ENDBRANCH   8  20
BRANCH  11  22
ATOM     22  O   UNL     1     135.827 140.031 153.744  1.00  0.00    -0.492 OA
ATOM     23  C   UNL     1     135.744 141.104 152.812  1.00  0.00     0.278 C 
ENDBRANCH  11  22
BRANCH   9  24
ATOM     24  O   UNL     1     134.138 135.879 151.743  1.00  0.00    -0.490 OA
ATOM     25  C   UNL     1     134.875 134.660 151.731  1.00  0.00     0.279 C 
ENDBRANCH   9  24
BRANCH  10  26
ATOM     26  O   UNL     1     136.021 137.964 151.750  1.00  0.00    -0.490 OA
ATOM     27  C   UNL     1     137.358 137.499 151.904  1.00  0.00     0.278 C 
ENDBRANCH  10  26
TORSDOF 6
ENDMDL
MODEL 5
REMARK VINA RESULT:    -5.458     11.214     17.854
REMARK INTER + INTRA:          -7.914
REMARK INTER:                  -7.323
REMARK INTRA:                  -0.591
REMARK UNBOUND:                -0.541
REMARK SMILES COc1ccc(-c2cc(=O)c3c(OC)c(OC)c(OC)c(OC)c3o2)cc1
REMARK SMILES IDX 7 1 8 2 9 3 10 4 11 5 24 6 25 7 21 8 18 9 15 10 12 11 6 12
REMARK SMILES IDX 3 13 4 14 27 15 5 16 26 17 2 18 1 19 22 20 23 21 13 22 14 23
REMARK SMILES IDX 19 24 20 25 16 26 17 27
REMARK H PARENT
REMARK Flexibility Score: inf
ROOT
ATOM      1  C   UNL     1     135.552 125.701 158.826  1.00  0.00     0.138 A 
ATOM      2  C   UNL     1     134.363 125.009 159.090  1.00  0.00     0.100 A 
ATOM      3  C   UNL     1     134.384 123.912 159.950  1.00  0.00     0.197 A 
ATOM      4  O   UNL     1     133.305 123.299 160.173  1.00  0.00    -0.289 OA
ATOM      5  C   UNL     1     135.604 123.508 160.544  1.00  0.00     0.115 A 
ATOM      6  C   UNL     1     136.760 124.255 160.223  1.00  0.00     0.188 A 
ATOM      7  O   UNL     1     136.682 125.292 159.394  1.00  0.00    -0.452 OA
ATOM      8  C   UNL     1     138.004 123.930 160.774  1.00  0.00     0.209 A 
ATOM      9  C   UNL     1     138.103 122.846 161.673  1.00  0.00     0.211 A 
ATOM     10  C   UNL     1     136.972 122.042 161.938  1.00  0.00     0.208 A 
ATOM     11  C   UNL     1     135.703 122.397 161.417  1.00  0.00     0.179 A 
ENDROOT
BRANCH   1  12
ATOM     12  C   UNL     1     135.593 126.875 157.918  1.00  0.00     0.018 A 
ATOM     13  C   UNL     1     135.608 129.094 156.169  1.00  0.00     0.118 A 
ATOM     14  C   UNL     1     134.400 128.559 156.626  1.00  0.00     0.047 A 
ATOM     15  C   UNL     1     136.817 128.506 156.584  1.00  0.00     0.047 A 
ATOM     16  C   UNL     1     134.389 127.459 157.487  1.00  0.00     0.016 A 
ATOM     17  C   UNL     1     136.809 127.406 157.446  1.00  0.00     0.016 A 
BRANCH  13  18
ATOM     18  O   UNL     1     135.565 130.200 155.308  1.00  0.00    -0.497 OA
ATOM     19  C   UNL     1     134.368 130.755 154.771  1.00  0.00     0.278 C 
ENDBRANCH  13  18
ENDBRANCH   1  12
BRANCH   8  20
ATOM     20  O   UNL     1     139.095 124.738 160.396  1.00  0.00    -0.490 OA
ATOM     21  C   UNL     1     139.581 125.886 161.083  1.00  0.00     0.278 C 
ENDBRANCH   8  20
BRANCH  11  22
ATOM     22  O   UNL     1     134.528 121.678 161.719  1.00  0.00    -0.492 OA
ATOM     23  C   UNL     1     133.793 121.710 162.938  1.00  0.00     0.278 C 
ENDBRANCH  11  22
BRANCH   9  24
ATOM     24  O   UNL     1     139.318 122.575 162.310  1.00  0.00    -0.490 OA
ATOM     25  C   UNL     1     139.714 123.222 163.516  1.00  0.00     0.279 C 
ENDBRANCH   9  24
BRANCH  10  26
ATOM     26  O   UNL     1     137.114 120.877 162.699  1.00  0.00    -0.490 OA
ATOM     27  C   UNL     1     137.007 120.875 164.119  1.00  0.00     0.278 C 
ENDBRANCH  10  26
TORSDOF 6
ENDMDL
MODEL 6
REMARK VINA RESULT:    -5.384      7.770     10.801
REMARK INTER + INTRA:          -7.813
REMARK INTER:                  -7.089
REMARK INTRA:                  -0.725
REMARK UNBOUND:                -0.541
REMARK SMILES COc1ccc(-c2cc(=O)c3c(OC)c(OC)c(OC)c(OC)c3o2)cc1
REMARK SMILES IDX 7 1 8 2 9 3 10 4 11 5 24 6 25 7 21 8 18 9 15 10 12 11 6 12
REMARK SMILES IDX 3 13 4 14 27 15 5 16 26 17 2 18 1 19 22 20 23 21 13 22 14 23
REMARK SMILES IDX 19 24 20 25 16 26 17 27
REMARK H PARENT
REMARK Flexibility Score: inf
ROOT
ATOM      1  C   UNL     1     131.297 138.714 156.171  1.00  0.00     0.138 A 
ATOM      2  C   UNL     1     132.244 139.620 156.664  1.00  0.00     0.100 A 
ATOM      3  C   UNL     1     133.520 139.653 156.100  1.00  0.00     0.197 A 
ATOM      4  O   UNL     1     134.360 140.473 156.559  1.00  0.00    -0.289 OA
ATOM      5  C   UNL     1     133.844 138.772 155.042  1.00  0.00     0.115 A 
ATOM      6  C   UNL     1     132.834 137.884 154.605  1.00  0.00     0.188 A 
ATOM      7  O   UNL     1     131.635 137.894 155.180  1.00  0.00    -0.452 OA
ATOM      8  C   UNL     1     133.067 136.988 153.557  1.00  0.00     0.209 A 
ATOM      9  C   UNL     1     134.327 136.977 152.920  1.00  0.00     0.211 A 
ATOM     10  C   UNL     1     135.369 137.800 153.401  1.00  0.00     0.208 A 
ATOM     11  C   UNL     1     135.121 138.741 154.431  1.00  0.00     0.179 A 
ENDROOT
BRANCH   1  12
ATOM     12  C   UNL     1     129.924 138.630 156.730  1.00  0.00     0.018 A 
ATOM     13  C   UNL     1     127.290 138.446 157.735  1.00  0.00     0.118 A 
ATOM     14  C   UNL     1     127.693 137.659 156.653  1.00  0.00     0.047 A 
ATOM     15  C   UNL     1     128.211 139.339 158.312  1.00  0.00     0.047 A 
ATOM     16  C   UNL     1     128.993 137.751 156.150  1.00  0.00     0.016 A 
ATOM     17  C   UNL     1     129.513 139.433 157.812  1.00  0.00     0.016 A 
BRANCH  13  18
ATOM     18  O   UNL     1     125.974 138.315 158.203  1.00  0.00    -0.497 OA
ATOM     19  C   UNL     1     124.943 137.614 157.516  1.00  0.00     0.278 C 
ENDBRANCH  13  18
ENDBRANCH   1  12
BRANCH   8  20
ATOM     20  O   UNL     1     131.996 136.148 153.192  1.00  0.00    -0.490 OA
ATOM     21  C   UNL     1     131.726 134.847 153.702  1.00  0.00     0.278 C 
ENDBRANCH   8  20
BRANCH  11  22
ATOM     22  O   UNL     1     136.102 139.645 154.888  1.00  0.00    -0.492 OA
ATOM     23  C   UNL     1     136.669 140.734 154.167  1.00  0.00     0.278 C 
ENDBRANCH  11  22
BRANCH   9  24
ATOM     24  O   UNL     1     134.539 136.159 151.805  1.00  0.00    -0.490 OA
ATOM     25  C   UNL     1     134.955 134.801 151.919  1.00  0.00     0.279 C 
ENDBRANCH   9  24
BRANCH  10  26
ATOM     26  O   UNL     1     136.656 137.668 152.871  1.00  0.00    -0.490 OA
ATOM     27  C   UNL     1     137.654 136.856 153.482  1.00  0.00     0.278 C 
ENDBRANCH  10  26
TORSDOF 6
ENDMDL
MODEL 7
REMARK VINA RESULT:    -5.273      9.406     14.321
REMARK INTER + INTRA:          -7.664
REMARK INTER:                  -6.981
REMARK INTRA:                  -0.684
REMARK UNBOUND:                -0.541
REMARK SMILES COc1ccc(-c2cc(=O)c3c(OC)c(OC)c(OC)c(OC)c3o2)cc1
REMARK SMILES IDX 7 1 8 2 9 3 10 4 11 5 24 6 25 7 21 8 18 9 15 10 12 11 6 12
REMARK SMILES IDX 3 13 4 14 27 15 5 16 26 17 2 18 1 19 22 20 23 21 13 22 14 23
REMARK SMILES IDX 19 24 20 25 16 26 17 27
REMARK H PARENT
REMARK Flexibility Score: inf
ROOT
ATOM      1  C   UNL     1     135.750 125.692 158.858  1.00  0.00     0.138 A 
ATOM      2  C   UNL     1     134.573 126.095 158.214  1.00  0.00     0.100 A 
ATOM      3  C   UNL     1     134.586 127.236 157.413  1.00  0.00     0.197 A 
ATOM      4  O   UNL     1     133.516 127.585 156.844  1.00  0.00    -0.289 OA
ATOM      5  C   UNL     1     135.783 127.975 157.261  1.00  0.00     0.115 A 
ATOM      6  C   UNL     1     136.926 127.506 157.947  1.00  0.00     0.188 A 
ATOM      7  O   UNL     1     136.857 126.412 158.700  1.00  0.00    -0.452 OA
ATOM      8  C   UNL     1     138.152 128.171 157.843  1.00  0.00     0.209 A 
ATOM      9  C   UNL     1     138.251 129.322 157.031  1.00  0.00     0.211 A 
ATOM     10  C   UNL     1     137.098 129.847 156.406  1.00  0.00     0.208 A 
ATOM     11  C   UNL     1     135.867 129.150 156.474  1.00  0.00     0.179 A 
ENDROOT
BRANCH   1  12
ATOM     12  C   UNL     1     135.800 124.488 159.725  1.00  0.00     0.018 A 
ATOM     13  C   UNL     1     135.953 122.179 161.346  1.00  0.00     0.118 A 
ATOM     14  C   UNL     1     137.111 122.741 160.802  1.00  0.00     0.047 A 
ATOM     15  C   UNL     1     134.708 122.773 161.069  1.00  0.00     0.047 A 
ATOM     16  C   UNL     1     137.038 123.880 159.995  1.00  0.00     0.016 A 
ATOM     17  C   UNL     1     134.632 123.913 160.263  1.00  0.00     0.016 A 
BRANCH  13  18
ATOM     18  O   UNL     1     136.080 121.037 162.151  1.00  0.00    -0.497 OA
ATOM     19  C   UNL     1     137.064 120.876 163.167  1.00  0.00     0.278 C 
ENDBRANCH  13  18
ENDBRANCH   1  12
BRANCH   8  20
ATOM     20  O   UNL     1     139.233 127.623 158.561  1.00  0.00    -0.490 OA
ATOM     21  C   UNL     1     139.755 128.092 159.800  1.00  0.00     0.278 C 
ENDBRANCH   8  20
BRANCH  11  22
ATOM     22  O   UNL     1     134.708 129.585 155.798  1.00  0.00    -0.492 OA
ATOM     23  C   UNL     1     133.942 130.753 156.073  1.00  0.00     0.278 C 
ENDBRANCH  11  22
BRANCH   9  24
ATOM     24  O   UNL     1     139.493 129.935 156.836  1.00  0.00    -0.490 OA
ATOM     25  C   UNL     1     140.414 129.505 155.838  1.00  0.00     0.279 C 
ENDBRANCH   9  24
BRANCH  10  26
ATOM     26  O   UNL     1     137.171 131.074 155.739  1.00  0.00    -0.490 OA
ATOM     27  C   UNL     1     137.404 131.168 154.337  1.00  0.00     0.278 C 
ENDBRANCH  10  26
TORSDOF 6
ENDMDL
MODEL 8
REMARK VINA RESULT:    -5.262      7.789     13.562
REMARK INTER + INTRA:          -7.650
REMARK INTER:                  -6.932
REMARK INTRA:                  -0.718
REMARK UNBOUND:                -0.541
REMARK SMILES COc1ccc(-c2cc(=O)c3c(OC)c(OC)c(OC)c(OC)c3o2)cc1
REMARK SMILES IDX 7 1 8 2 9 3 10 4 11 5 24 6 25 7 21 8 18 9 15 10 12 11 6 12
REMARK SMILES IDX 3 13 4 14 27 15 5 16 26 17 2 18 1 19 22 20 23 21 13 22 14 23
REMARK SMILES IDX 19 24 20 25 16 26 17 27
REMARK H PARENT
REMARK Flexibility Score: inf
ROOT
ATOM      1  C   UNL     1     131.500 137.501 154.659  1.00  0.00     0.138 A 
ATOM      2  C   UNL     1     130.913 136.442 153.955  1.00  0.00     0.100 A 
ATOM      3  C   UNL     1     129.969 135.635 154.590  1.00  0.00     0.197 A 
ATOM      4  O   UNL     1     129.454 134.685 153.941  1.00  0.00    -0.289 OA
ATOM      5  C   UNL     1     129.618 135.892 155.936  1.00  0.00     0.115 A 
ATOM      6  C   UNL     1     130.259 136.975 156.579  1.00  0.00     0.188 A 
ATOM      7  O   UNL     1     131.153 137.711 155.926  1.00  0.00    -0.452 OA
ATOM      8  C   UNL     1     129.961 137.305 157.905  1.00  0.00     0.209 A 
ATOM      9  C   UNL     1     128.998 136.549 158.609  1.00  0.00     0.211 A 
ATOM     10  C   UNL     1     128.412 135.414 158.006  1.00  0.00     0.208 A 
ATOM     11  C   UNL     1     128.677 135.108 156.648  1.00  0.00     0.179 A 
ENDROOT
BRANCH   1  12
ATOM     12  C   UNL     1     132.512 138.392 154.038  1.00  0.00     0.018 A 
ATOM     13  C   UNL     1     134.454 140.112 152.919  1.00  0.00     0.118 A 
ATOM     14  C   UNL     1     134.564 139.686 154.246  1.00  0.00     0.047 A 
ATOM     15  C   UNL     1     133.358 139.679 152.150  1.00  0.00     0.047 A 
ATOM     16  C   UNL     1     133.602 138.840 154.804  1.00  0.00     0.016 A 
ATOM     17  C   UNL     1     132.395 138.832 152.706  1.00  0.00     0.016 A 
BRANCH  13  18
ATOM     18  O   UNL     1     135.447 140.959 152.405  1.00  0.00    -0.497 OA
ATOM     19  C   UNL     1     136.610 140.510 151.717  1.00  0.00     0.278 C 
ENDBRANCH  13  18
ENDBRANCH   1  12
BRANCH   8  20
ATOM     20  O   UNL     1     130.650 138.404 158.455  1.00  0.00    -0.490 OA
ATOM     21  C   UNL     1     130.171 139.740 158.562  1.00  0.00     0.278 C 
ENDBRANCH   8  20
BRANCH  11  22
ATOM     22  O   UNL     1     128.052 134.038 155.973  1.00  0.00    -0.492 OA
ATOM     23  C   UNL     1     126.677 133.932 155.622  1.00  0.00     0.278 C 
ENDBRANCH  11  22
BRANCH   9  24
ATOM     24  O   UNL     1     128.618 136.930 159.900  1.00  0.00    -0.490 OA
ATOM     25  C   UNL     1     129.344 136.537 161.061  1.00  0.00     0.279 C 
ENDBRANCH   9  24
BRANCH  10  26
ATOM     26  O   UNL     1     127.584 134.579 158.762  1.00  0.00    -0.490 OA
ATOM     27  C   UNL     1     128.070 133.414 159.421  1.00  0.00     0.278 C 
ENDBRANCH  10  26
TORSDOF 6
ENDMDL
MODEL 9
REMARK VINA RESULT:    -5.260      2.637      8.292
REMARK INTER + INTRA:          -7.647
REMARK INTER:                  -6.932
REMARK INTRA:                  -0.715
REMARK UNBOUND:                -0.541
REMARK SMILES COc1ccc(-c2cc(=O)c3c(OC)c(OC)c(OC)c(OC)c3o2)cc1
REMARK SMILES IDX 7 1 8 2 9 3 10 4 11 5 24 6 25 7 21 8 18 9 15 10 12 11 6 12
REMARK SMILES IDX 3 13 4 14 27 15 5 16 26 17 2 18 1 19 22 20 23 21 13 22 14 23
REMARK SMILES IDX 19 24 20 25 16 26 17 27
REMARK H PARENT
REMARK Flexibility Score: inf
ROOT
ATOM      1  C   UNL     1     138.801 136.070 149.451  1.00  0.00     0.138 A 
ATOM      2  C   UNL     1     139.725 135.910 150.492  1.00  0.00     0.100 A 
ATOM      3  C   UNL     1     139.498 134.939 151.467  1.00  0.00     0.197 A 
ATOM      4  O   UNL     1     140.338 134.812 152.398  1.00  0.00    -0.289 OA
ATOM      5  C   UNL     1     138.339 134.130 151.397  1.00  0.00     0.115 A 
ATOM      6  C   UNL     1     137.454 134.357 150.318  1.00  0.00     0.188 A 
ATOM      7  O   UNL     1     137.719 135.299 149.417  1.00  0.00    -0.452 OA
ATOM      8  C   UNL     1     136.292 133.594 150.167  1.00  0.00     0.209 A 
ATOM      9  C   UNL     1     136.004 132.575 151.101  1.00  0.00     0.211 A 
ATOM     10  C   UNL     1     136.837 132.393 152.228  1.00  0.00     0.208 A 
ATOM     11  C   UNL     1     138.038 133.133 152.357  1.00  0.00     0.179 A 
ENDROOT
BRANCH   1  12
ATOM     12  C   UNL     1     138.987 137.087 148.386  1.00  0.00     0.018 A 
ATOM     13  C   UNL     1     139.353 139.070 146.406  1.00  0.00     0.118 A 
ATOM     14  C   UNL     1     139.944 139.207 147.665  1.00  0.00     0.047 A 
ATOM     15  C   UNL     1     138.565 137.935 146.140  1.00  0.00     0.047 A 
ATOM     16  C   UNL     1     139.761 138.231 148.648  1.00  0.00     0.016 A 
ATOM     17  C   UNL     1     138.381 136.957 147.121  1.00  0.00     0.016 A 
BRANCH  13  18
ATOM     18  O   UNL     1     139.570 140.077 145.454  1.00  0.00    -0.497 OA
ATOM     19  C   UNL     1     140.778 140.819 145.330  1.00  0.00     0.278 C 
ENDBRANCH  13  18
ENDBRANCH   1  12
BRANCH   8  20
ATOM     20  O   UNL     1     135.477 133.894 149.057  1.00  0.00    -0.490 OA
ATOM     21  C   UNL     1     135.463 133.216 147.806  1.00  0.00     0.278 C 
ENDBRANCH   8  20
BRANCH  11  22
ATOM     22  O   UNL     1     138.946 132.930 153.416  1.00  0.00    -0.492 OA
ATOM     23  C   UNL     1     139.798 131.806 153.612  1.00  0.00     0.278 C 
ENDBRANCH  11  22
BRANCH   9  24
ATOM     24  O   UNL     1     134.900 131.739 150.904  1.00  0.00    -0.490 OA
ATOM     25  C   UNL     1     133.591 132.077 151.354  1.00  0.00     0.279 C 
ENDBRANCH   9  24
BRANCH  10  26
ATOM     26  O   UNL     1     136.458 131.494 153.230  1.00  0.00    -0.490 OA
ATOM     27  C   UNL     1     135.732 131.899 154.385  1.00  0.00     0.278 C 
ENDBRANCH  10  26
TORSDOF 6
ENDMDL
