MODEL 1
REMARK VINA RESULT:    -3.421      0.000      0.000
REMARK INTER + INTRA:          -4.753
REMARK INTER:                  -4.421
REMARK INTRA:                  -0.331
REMARK UNBOUND:                -0.331
REMARK SMILES CCCCCCC(=O)[O-]
REMARK SMILES IDX 5 1 6 2 7 3 8 4 9 5 4 6 3 7 2 8 1 9
REMARK H PARENT
REMARK Flexibility Score: inf
ROOT
ATOM      1  C   UNL     1       7.383  -5.384 -23.667  1.00  0.00     0.006 C 
ENDROOT
BRANCH   1   2
ATOM      2  C   UNL     1       7.866  -4.191 -22.836  1.00  0.00     0.053 C 
BRANCH   2   3
ATOM      3  C   UNL     1       9.336  -4.290 -22.581  1.00  0.00     0.041 C 
ATOM      4  O   UNL     1       9.778  -5.096 -21.720  1.00  0.00    -0.550 OA
ATOM      5  O   UNL     1      10.217  -3.457 -23.259  1.00  0.00    -0.550 OA
ENDBRANCH   2   3
ENDBRANCH   1   2
BRANCH   1   6
ATOM      6  C   UNL     1       7.676  -5.171 -25.157  1.00  0.00     0.000 C 
BRANCH   6   7
ATOM      7  C   UNL     1       7.192  -3.792 -25.621  1.00  0.00    -0.000 C 
BRANCH   7   8
ATOM      8  C   UNL     1       5.704  -3.827 -25.985  1.00  0.00    -0.003 C 
ATOM      9  C   UNL     1       4.968  -2.617 -25.412  1.00  0.00     0.004 C 
ENDBRANCH   7   8
ENDBRANCH   6   7
ENDBRANCH   1   6
TORSDOF 5
ENDMDL
MODEL 2
REMARK VINA RESULT:    -3.420      1.959      2.422
REMARK INTER + INTRA:          -4.752
REMARK INTER:                  -4.509
REMARK INTRA:                  -0.242
REMARK UNBOUND:                -0.331
REMARK SMILES CCCCCCC(=O)[O-]
REMARK SMILES IDX 5 1 6 2 7 3 8 4 9 5 4 6 3 7 2 8 1 9
REMARK H PARENT
REMARK Flexibility Score: inf
ROOT
ATOM      1  C   UNL     1       8.796  -4.037 -23.851  1.00  0.00     0.006 C 
ENDROOT
BRANCH   1   2
ATOM      2  C   UNL     1       9.398  -3.338 -25.073  1.00  0.00     0.053 C 
BRANCH   2   3
ATOM      3  C   UNL     1      10.844  -3.693 -25.222  1.00  0.00     0.041 C 
ATOM      4  O   UNL     1      11.710  -3.144 -24.492  1.00  0.00    -0.550 OA
ATOM      5  O   UNL     1      11.241  -4.594 -26.201  1.00  0.00    -0.550 OA
ENDBRANCH   2   3
ENDBRANCH   1   2
BRANCH   1   6
ATOM      6  C   UNL     1       7.266  -4.076 -23.937  1.00  0.00     0.000 C 
BRANCH   6   7
ATOM      7  C   UNL     1       6.802  -4.956 -25.103  1.00  0.00    -0.000 C 
BRANCH   7   8
ATOM      8  C   UNL     1       5.942  -4.155 -26.087  1.00  0.00    -0.003 C 
ATOM      9  C   UNL     1       5.348  -2.917 -25.419  1.00  0.00     0.004 C 
ENDBRANCH   7   8
ENDBRANCH   6   7
ENDBRANCH   1   6
TORSDOF 5
ENDMDL
MODEL 3
REMARK VINA RESULT:    -3.399      2.721      3.841
REMARK INTER + INTRA:          -4.724
REMARK INTER:                  -4.536
REMARK INTRA:                  -0.188
REMARK UNBOUND:                -0.331
REMARK SMILES CCCCCCC(=O)[O-]
REMARK SMILES IDX 5 1 6 2 7 3 8 4 9 5 4 6 3 7 2 8 1 9
REMARK H PARENT
REMARK Flexibility Score: inf
ROOT
ATOM      1  C   UNL     1       9.720  -3.887 -24.801  1.00  0.00     0.006 C 
ENDROOT
BRANCH   1   2
ATOM      2  C   UNL     1      10.321  -5.137 -25.450  1.00  0.00     0.053 C 
BRANCH   2   3
ATOM      3  C   UNL     1      11.680  -4.840 -26.000  1.00  0.00     0.041 C 
ATOM      4  O   UNL     1      11.870  -4.820 -27.244  1.00  0.00    -0.550 OA
ATOM      5  O   UNL     1      12.750  -4.635 -25.137  1.00  0.00    -0.550 OA
ENDBRANCH   2   3
ENDBRANCH   1   2
BRANCH   1   6
ATOM      6  C   UNL     1       8.267  -3.679 -25.247  1.00  0.00     0.000 C 
BRANCH   6   7
ATOM      7  C   UNL     1       7.294  -3.957 -24.096  1.00  0.00    -0.000 C 
BRANCH   7   8
ATOM      8  C   UNL     1       8.050  -4.238 -22.792  1.00  0.00    -0.003 C 
ATOM      9  C   UNL     1       7.459  -5.440 -22.059  1.00  0.00     0.004 C 
ENDBRANCH   7   8
ENDBRANCH   6   7
ENDBRANCH   1   6
TORSDOF 5
ENDMDL
MODEL 4
REMARK VINA RESULT:    -3.353      1.227      1.801
REMARK INTER + INTRA:          -4.664
REMARK INTER:                  -4.417
REMARK INTRA:                  -0.247
REMARK UNBOUND:                -0.331
REMARK SMILES CCCCCCC(=O)[O-]
REMARK SMILES IDX 5 1 6 2 7 3 8 4 9 5 4 6 3 7 2 8 1 9
REMARK H PARENT
REMARK Flexibility Score: inf
ROOT
ATOM      1  C   UNL     1       8.428  -3.773 -24.705  1.00  0.00     0.006 C 
ENDROOT
BRANCH   1   2
ATOM      2  C   UNL     1       7.724  -4.106 -23.386  1.00  0.00     0.053 C 
BRANCH   2   3
ATOM      3  C   UNL     1       8.689  -4.709 -22.414  1.00  0.00     0.041 C 
ATOM      4  O   UNL     1       8.337  -5.675 -21.688  1.00  0.00    -0.550 OA
ATOM      5  O   UNL     1       9.962  -4.171 -22.274  1.00  0.00    -0.550 OA
ENDBRANCH   2   3
ENDBRANCH   1   2
BRANCH   1   6
ATOM      6  C   UNL     1       7.433  -3.238 -25.741  1.00  0.00     0.000 C 
BRANCH   6   7
ATOM      7  C   UNL     1       6.010  -3.724 -25.439  1.00  0.00    -0.000 C 
BRANCH   7   8
ATOM      8  C   UNL     1       5.421  -4.475 -26.638  1.00  0.00    -0.003 C 
ATOM      9  C   UNL     1       5.665  -5.978 -26.522  1.00  0.00     0.004 C 
ENDBRANCH   7   8
ENDBRANCH   6   7
ENDBRANCH   1   6
TORSDOF 5
ENDMDL
MODEL 5
REMARK VINA RESULT:    -3.350      2.439      3.107
REMARK INTER + INTRA:          -4.660
REMARK INTER:                  -4.498
REMARK INTRA:                  -0.162
REMARK UNBOUND:                -0.331
REMARK SMILES CCCCCCC(=O)[O-]
REMARK SMILES IDX 5 1 6 2 7 3 8 4 9 5 4 6 3 7 2 8 1 9
REMARK H PARENT
REMARK Flexibility Score: inf
ROOT
ATOM      1  C   UNL     1       7.322  -5.764 -22.907  1.00  0.00     0.006 C 
ENDROOT
BRANCH   1   2
ATOM      2  C   UNL     1       7.194  -6.038 -21.406  1.00  0.00     0.053 C 
BRANCH   2   3
ATOM      3  C   UNL     1       7.470  -7.479 -21.111  1.00  0.00     0.041 C 
ATOM      4  O   UNL     1       6.603  -8.356 -21.365  1.00  0.00    -0.550 OA
ATOM      5  O   UNL     1       8.665  -7.848 -20.507  1.00  0.00    -0.550 OA
ENDBRANCH   2   3
ENDBRANCH   1   2
BRANCH   1   6
ATOM      6  C   UNL     1       7.567  -4.275 -23.176  1.00  0.00     0.000 C 
BRANCH   6   7
ATOM      7  C   UNL     1       6.882  -3.829 -24.473  1.00  0.00    -0.000 C 
BRANCH   7   8
ATOM      8  C   UNL     1       6.454  -5.039 -25.311  1.00  0.00    -0.003 C 
ATOM      9  C   UNL     1       5.665  -4.605 -26.544  1.00  0.00     0.004 C 
ENDBRANCH   7   8
ENDBRANCH   6   7
ENDBRANCH   1   6
TORSDOF 5
ENDMDL
MODEL 6
REMARK VINA RESULT:    -3.345      2.540      3.216
REMARK INTER + INTRA:          -4.655
REMARK INTER:                  -4.320
REMARK INTRA:                  -0.334
REMARK UNBOUND:                -0.331
REMARK SMILES CCCCCCC(=O)[O-]
REMARK SMILES IDX 5 1 6 2 7 3 8 4 9 5 4 6 3 7 2 8 1 9
REMARK H PARENT
REMARK Flexibility Score: inf
ROOT
ATOM      1  C   UNL     1       8.243  -5.344 -22.075  1.00  0.00     0.006 C 
ENDROOT
BRANCH   1   2
ATOM      2  C   UNL     1       7.011  -6.085 -21.549  1.00  0.00     0.053 C 
BRANCH   2   3
ATOM      3  C   UNL     1       7.003  -7.500 -22.033  1.00  0.00     0.041 C 
ATOM      4  O   UNL     1       6.686  -8.435 -21.252  1.00  0.00    -0.550 OA
ATOM      5  O   UNL     1       7.395  -7.792 -23.334  1.00  0.00    -0.550 OA
ENDBRANCH   2   3
ENDBRANCH   1   2
BRANCH   1   6
ATOM      6  C   UNL     1       7.836  -4.134 -22.925  1.00  0.00     0.000 C 
BRANCH   6   7
ATOM      7  C   UNL     1       8.334  -4.282 -24.367  1.00  0.00    -0.000 C 
BRANCH   7   8
ATOM      8  C   UNL     1       7.210  -3.988 -25.368  1.00  0.00    -0.003 C 
ATOM      9  C   UNL     1       6.264  -5.179 -25.501  1.00  0.00     0.004 C 
ENDBRANCH   7   8
ENDBRANCH   6   7
ENDBRANCH   1   6
TORSDOF 5
ENDMDL
MODEL 7
REMARK VINA RESULT:    -3.331      2.607      3.864
REMARK INTER + INTRA:          -4.636
REMARK INTER:                  -4.426
REMARK INTRA:                  -0.209
REMARK UNBOUND:                -0.331
REMARK SMILES CCCCCCC(=O)[O-]
REMARK SMILES IDX 5 1 6 2 7 3 8 4 9 5 4 6 3 7 2 8 1 9
REMARK H PARENT
REMARK Flexibility Score: inf
ROOT
ATOM      1  C   UNL     1       7.607  -3.813 -24.140  1.00  0.00     0.006 C 
ENDROOT
BRANCH   1   2
ATOM      2  C   UNL     1       8.113  -4.303 -22.781  1.00  0.00     0.053 C 
BRANCH   2   3
ATOM      3  C   UNL     1       7.429  -5.577 -22.395  1.00  0.00     0.041 C 
ATOM      4  O   UNL     1       7.252  -6.485 -23.249  1.00  0.00    -0.550 OA
ATOM      5  O   UNL     1       6.942  -5.742 -21.104  1.00  0.00    -0.550 OA
ENDBRANCH   2   3
ENDBRANCH   1   2
BRANCH   1   6
ATOM      6  C   UNL     1       8.776  -3.473 -25.072  1.00  0.00     0.000 C 
BRANCH   6   7
ATOM      7  C   UNL     1       9.713  -4.674 -25.241  1.00  0.00    -0.000 C 
BRANCH   7   8
ATOM      8  C   UNL     1      11.165  -4.216 -25.421  1.00  0.00    -0.003 C 
ATOM      9  C   UNL     1      11.803  -4.875 -26.642  1.00  0.00     0.004 C 
ENDBRANCH   7   8
ENDBRANCH   6   7
ENDBRANCH   1   6
TORSDOF 5
ENDMDL
MODEL 8
REMARK VINA RESULT:    -3.324      2.163      3.894
REMARK INTER + INTRA:          -4.627
REMARK INTER:                  -4.222
REMARK INTRA:                  -0.406
REMARK UNBOUND:                -0.331
REMARK SMILES CCCCCCC(=O)[O-]
REMARK SMILES IDX 5 1 6 2 7 3 8 4 9 5 4 6 3 7 2 8 1 9
REMARK H PARENT
REMARK Flexibility Score: inf
ROOT
ATOM      1  C   UNL     1       7.613  -4.189 -24.272  1.00  0.00     0.006 C 
ENDROOT
BRANCH   1   2
ATOM      2  C   UNL     1       8.617  -3.386 -25.104  1.00  0.00     0.053 C 
BRANCH   2   3
ATOM      3  C   UNL     1       9.940  -4.084 -25.145  1.00  0.00     0.041 C 
ATOM      4  O   UNL     1       9.997  -5.320 -25.376  1.00  0.00    -0.550 OA
ATOM      5  O   UNL     1      11.106  -3.378 -24.880  1.00  0.00    -0.550 OA
ENDBRANCH   2   3
ENDBRANCH   1   2
BRANCH   1   6
ATOM      6  C   UNL     1       7.960  -4.127 -22.780  1.00  0.00     0.000 C 
BRANCH   6   7
ATOM      7  C   UNL     1       7.635  -5.454 -22.084  1.00  0.00    -0.000 C 
BRANCH   7   8
ATOM      8  C   UNL     1       8.917  -6.216 -21.728  1.00  0.00    -0.003 C 
ATOM      9  C   UNL     1      10.104  -5.265 -21.596  1.00  0.00     0.004 C 
ENDBRANCH   7   8
ENDBRANCH   6   7
ENDBRANCH   1   6
TORSDOF 5
ENDMDL
MODEL 9
REMARK VINA RESULT:    -3.306      2.214      4.037
REMARK INTER + INTRA:          -4.603
REMARK INTER:                  -4.320
REMARK INTRA:                  -0.283
REMARK UNBOUND:                -0.331
REMARK SMILES CCCCCCC(=O)[O-]
REMARK SMILES IDX 5 1 6 2 7 3 8 4 9 5 4 6 3 7 2 8 1 9
REMARK H PARENT
REMARK Flexibility Score: inf
ROOT
ATOM      1  C   UNL     1       8.903  -4.434 -22.540  1.00  0.00     0.006 C 
ENDROOT
BRANCH   1   2
ATOM      2  C   UNL     1       7.714  -4.097 -23.444  1.00  0.00     0.053 C 
BRANCH   2   3
ATOM      3  C   UNL     1       8.187  -3.707 -24.808  1.00  0.00     0.041 C 
ATOM      4  O   UNL     1       7.358  -3.366 -25.693  1.00  0.00    -0.550 OA
ATOM      5  O   UNL     1       9.539  -3.767 -25.119  1.00  0.00    -0.550 OA
ENDBRANCH   2   3
ENDBRANCH   1   2
BRANCH   1   6
ATOM      6  C   UNL     1       8.655  -5.735 -21.766  1.00  0.00     0.000 C 
BRANCH   6   7
ATOM      7  C   UNL     1       7.160  -5.937 -21.495  1.00  0.00    -0.000 C 
BRANCH   7   8
ATOM      8  C   UNL     1       6.761  -7.405 -21.688  1.00  0.00    -0.003 C 
ATOM      9  C   UNL     1       7.303  -7.954 -23.006  1.00  0.00     0.004 C 
ENDBRANCH   7   8
ENDBRANCH   6   7
ENDBRANCH   1   6
TORSDOF 5
ENDMDL
