MODEL 1
REMARK VINA RESULT:    -4.008      0.000      0.000
REMARK INTER + INTRA:          -4.825
REMARK INTER:                  -4.711
REMARK INTRA:                  -0.114
REMARK UNBOUND:                -0.114
REMARK SMILES O=C([O-])CCC(=O)[O-]
REMARK SMILES IDX 4 1 2 2 1 3 3 4 5 5 6 6 7 7 8 8
REMARK H PARENT
REMARK Flexibility Score: inf
ROOT
ATOM      1  C   UNL     1       1.382  22.086 -19.116  1.00  0.00     0.059 C 
ENDROOT
BRANCH   1   2
ATOM      2  C   UNL     1       2.071  22.166 -17.788  1.00  0.00     0.042 C 
ATOM      3  O   UNL     1       1.738  21.392 -16.853  1.00  0.00    -0.550 OA
ATOM      4  O   UNL     1       3.108  23.071 -17.597  1.00  0.00    -0.550 OA
ENDBRANCH   1   2
BRANCH   1   5
ATOM      5  C   UNL     1       1.358  20.651 -19.653  1.00  0.00     0.059 C 
BRANCH   5   6
ATOM      6  C   UNL     1       2.571  20.353 -20.481  1.00  0.00     0.042 C 
ATOM      7  O   UNL     1       2.893  19.161 -20.729  1.00  0.00    -0.550 OA
ATOM      8  O   UNL     1       3.324  21.394 -21.011  1.00  0.00    -0.550 OA
ENDBRANCH   5   6
ENDBRANCH   1   5
TORSDOF 3
ENDMDL
MODEL 2
REMARK VINA RESULT:    -4.000      0.070      3.487
REMARK INTER + INTRA:          -4.816
REMARK INTER:                  -4.693
REMARK INTRA:                  -0.122
REMARK UNBOUND:                -0.114
REMARK SMILES O=C([O-])CCC(=O)[O-]
REMARK SMILES IDX 4 1 2 2 1 3 3 4 5 5 6 6 7 7 8 8
REMARK H PARENT
REMARK Flexibility Score: inf
ROOT
ATOM      1  C   UNL     1       1.344  20.649 -19.663  1.00  0.00     0.059 C 
ENDROOT
BRANCH   1   2
ATOM      2  C   UNL     1       2.563  20.347 -20.479  1.00  0.00     0.042 C 
ATOM      3  O   UNL     1       2.889  19.153 -20.715  1.00  0.00    -0.550 OA
ATOM      4  O   UNL     1       3.318  21.384 -21.011  1.00  0.00    -0.550 OA
ENDBRANCH   1   2
BRANCH   1   5
ATOM      5  C   UNL     1       1.387  22.070 -19.090  1.00  0.00     0.059 C 
BRANCH   5   6
ATOM      6  C   UNL     1       2.112  22.112 -17.779  1.00  0.00     0.042 C 
ATOM      7  O   UNL     1       1.740  21.379 -16.825  1.00  0.00    -0.550 OA
ATOM      8  O   UNL     1       3.222  22.934 -17.624  1.00  0.00    -0.550 OA
ENDBRANCH   5   6
ENDBRANCH   1   5
TORSDOF 3
ENDMDL
MODEL 3
REMARK VINA RESULT:    -3.951      0.154      1.627
REMARK INTER + INTRA:          -4.759
REMARK INTER:                  -4.657
REMARK INTRA:                  -0.102
REMARK UNBOUND:                -0.114
REMARK SMILES O=C([O-])CCC(=O)[O-]
REMARK SMILES IDX 4 1 2 2 1 3 3 4 5 5 6 6 7 7 8 8
REMARK H PARENT
REMARK Flexibility Score: inf
ROOT
ATOM      1  C   UNL     1       1.510  22.273 -19.063  1.00  0.00     0.059 C 
ENDROOT
BRANCH   1   2
ATOM      2  C   UNL     1       2.199  22.279 -17.732  1.00  0.00     0.042 C 
ATOM      3  O   UNL     1       3.123  23.102 -17.501  1.00  0.00    -0.550 OA
ATOM      4  O   UNL     1       1.791  21.402 -16.735  1.00  0.00    -0.550 OA
ENDBRANCH   1   2
BRANCH   1   5
ATOM      5  C   UNL     1       1.356  20.849 -19.611  1.00  0.00     0.059 C 
BRANCH   5   6
ATOM      6  C   UNL     1       2.524  20.458 -20.464  1.00  0.00     0.042 C 
ATOM      7  O   UNL     1       3.277  21.342 -20.952  1.00  0.00    -0.550 OA
ATOM      8  O   UNL     1       2.803  19.116 -20.688  1.00  0.00    -0.550 OA
ENDBRANCH   5   6
ENDBRANCH   1   5
TORSDOF 3
ENDMDL
MODEL 4
REMARK VINA RESULT:    -3.861      0.248      3.869
REMARK INTER + INTRA:          -4.652
REMARK INTER:                  -4.559
REMARK INTRA:                  -0.093
REMARK UNBOUND:                -0.114
REMARK SMILES O=C([O-])CCC(=O)[O-]
REMARK SMILES IDX 4 1 2 2 1 3 3 4 5 5 6 6 7 7 8 8
REMARK H PARENT
REMARK Flexibility Score: inf
ROOT
ATOM      1  C   UNL     1       1.651  20.456 -19.584  1.00  0.00     0.059 C 
ENDROOT
BRANCH   1   2
ATOM      2  C   UNL     1       2.749  20.349 -20.597  1.00  0.00     0.042 C 
ATOM      3  O   UNL     1       3.320  21.387 -21.026  1.00  0.00    -0.550 OA
ATOM      4  O   UNL     1       3.169  19.101 -21.038  1.00  0.00    -0.550 OA
ENDBRANCH   1   2
BRANCH   1   5
ATOM      5  C   UNL     1       1.428  21.908 -19.146  1.00  0.00     0.059 C 
BRANCH   5   6
ATOM      6  C   UNL     1       2.127  22.207 -17.855  1.00  0.00     0.042 C 
ATOM      7  O   UNL     1       2.952  23.155 -17.785  1.00  0.00    -0.550 OA
ATOM      8  O   UNL     1       1.837  21.461 -16.719  1.00  0.00    -0.550 OA
ENDBRANCH   5   6
ENDBRANCH   1   5
TORSDOF 3
ENDMDL
MODEL 5
REMARK VINA RESULT:    -3.553      1.393      3.540
REMARK INTER + INTRA:          -4.290
REMARK INTER:                  -4.160
REMARK INTRA:                  -0.130
REMARK UNBOUND:                -0.114
REMARK SMILES O=C([O-])CCC(=O)[O-]
REMARK SMILES IDX 4 1 2 2 1 3 3 4 5 5 6 6 7 7 8 8
REMARK H PARENT
REMARK Flexibility Score: inf
ROOT
ATOM      1  C   UNL     1       0.924  22.033 -18.282  1.00  0.00     0.059 C 
ENDROOT
BRANCH   1   2
ATOM      2  C   UNL     1       1.691  21.355 -19.376  1.00  0.00     0.042 C 
ATOM      3  O   UNL     1       1.323  20.230 -19.805  1.00  0.00    -0.550 OA
ATOM      4  O   UNL     1       2.789  21.985 -19.948  1.00  0.00    -0.550 OA
ENDBRANCH   1   2
BRANCH   1   5
ATOM      5  C   UNL     1       1.839  22.893 -17.402  1.00  0.00     0.059 C 
BRANCH   5   6
ATOM      6  C   UNL     1       2.709  22.047 -16.522  1.00  0.00     0.042 C 
ATOM      7  O   UNL     1       2.201  21.138 -15.815  1.00  0.00    -0.550 OA
ATOM      8  O   UNL     1       4.085  22.240 -16.512  1.00  0.00    -0.550 OA
ENDBRANCH   5   6
ENDBRANCH   1   5
TORSDOF 3
ENDMDL
MODEL 6
REMARK VINA RESULT:    -3.490     12.418     13.751
REMARK INTER + INTRA:          -4.216
REMARK INTER:                  -4.058
REMARK INTRA:                  -0.158
REMARK UNBOUND:                -0.114
REMARK SMILES O=C([O-])CCC(=O)[O-]
REMARK SMILES IDX 4 1 2 2 1 3 3 4 5 5 6 6 7 7 8 8
REMARK H PARENT
REMARK Flexibility Score: inf
ROOT
ATOM      1  C   UNL     1      -4.601  31.625 -18.796  1.00  0.00     0.059 C 
ENDROOT
BRANCH   1   2
ATOM      2  C   UNL     1      -3.519  32.608 -18.469  1.00  0.00     0.042 C 
ATOM      3  O   UNL     1      -2.464  32.224 -17.898  1.00  0.00    -0.550 OA
ATOM      4  O   UNL     1      -3.660  33.942 -18.829  1.00  0.00    -0.550 OA
ENDBRANCH   1   2
BRANCH   1   5
ATOM      5  C   UNL     1      -5.994  32.224 -18.570  1.00  0.00     0.059 C 
BRANCH   5   6
ATOM      6  C   UNL     1      -6.290  32.392 -17.111  1.00  0.00     0.042 C 
ATOM      7  O   UNL     1      -6.474  31.383 -16.381  1.00  0.00    -0.550 OA
ATOM      8  O   UNL     1      -6.325  33.663 -16.550  1.00  0.00    -0.550 OA
ENDBRANCH   5   6
ENDBRANCH   1   5
TORSDOF 3
ENDMDL
MODEL 7
REMARK VINA RESULT:    -3.482      8.914     10.204
REMARK INTER + INTRA:          -4.207
REMARK INTER:                  -4.122
REMARK INTRA:                  -0.085
REMARK UNBOUND:                -0.114
REMARK SMILES O=C([O-])CCC(=O)[O-]
REMARK SMILES IDX 4 1 2 2 1 3 3 4 5 5 6 6 7 7 8 8
REMARK H PARENT
REMARK Flexibility Score: inf
ROOT
ATOM      1  C   UNL     1       8.780  24.633 -10.985  1.00  0.00     0.059 C 
ENDROOT
BRANCH   1   2
ATOM      2  C   UNL     1       8.321  23.330 -10.404  1.00  0.00     0.042 C 
ATOM      3  O   UNL     1       8.464  22.260 -11.053  1.00  0.00    -0.550 OA
ATOM      4  O   UNL     1       7.771  23.293  -9.129  1.00  0.00    -0.550 OA
ENDBRANCH   1   2
BRANCH   1   5
ATOM      5  C   UNL     1       8.424  24.742 -12.472  1.00  0.00     0.059 C 
BRANCH   5   6
ATOM      6  C   UNL     1       7.069  25.351 -12.671  1.00  0.00     0.042 C 
ATOM      7  O   UNL     1       6.033  24.645 -12.554  1.00  0.00    -0.550 OA
ATOM      8  O   UNL     1       6.951  26.708 -12.947  1.00  0.00    -0.550 OA
ENDBRANCH   5   6
ENDBRANCH   1   5
TORSDOF 3
ENDMDL
MODEL 8
REMARK VINA RESULT:    -3.461     12.476     13.625
REMARK INTER + INTRA:          -4.182
REMARK INTER:                  -4.003
REMARK INTRA:                  -0.180
REMARK UNBOUND:                -0.114
REMARK SMILES O=C([O-])CCC(=O)[O-]
REMARK SMILES IDX 4 1 2 2 1 3 3 4 5 5 6 6 7 7 8 8
REMARK H PARENT
REMARK Flexibility Score: inf
ROOT
ATOM      1  C   UNL     1      -6.000  32.230 -18.629  1.00  0.00     0.059 C 
ENDROOT
BRANCH   1   2
ATOM      2  C   UNL     1      -6.349  32.406 -17.183  1.00  0.00     0.042 C 
ATOM      3  O   UNL     1      -6.386  31.410 -16.414  1.00  0.00    -0.550 OA
ATOM      4  O   UNL     1      -6.596  33.676 -16.677  1.00  0.00    -0.550 OA
ENDBRANCH   1   2
BRANCH   1   5
ATOM      5  C   UNL     1      -4.575  31.693 -18.803  1.00  0.00     0.059 C 
BRANCH   5   6
ATOM      6  C   UNL     1      -3.553  32.678 -18.322  1.00  0.00     0.042 C 
ATOM      7  O   UNL     1      -2.622  32.306 -17.561  1.00  0.00    -0.550 OA
ATOM      8  O   UNL     1      -3.609  34.001 -18.745  1.00  0.00    -0.550 OA
ENDBRANCH   5   6
ENDBRANCH   1   5
TORSDOF 3
ENDMDL
MODEL 9
REMARK VINA RESULT:    -3.441      8.959     10.268
REMARK INTER + INTRA:          -4.158
REMARK INTER:                  -4.100
REMARK INTRA:                  -0.058
REMARK UNBOUND:                -0.114
REMARK SMILES O=C([O-])CCC(=O)[O-]
REMARK SMILES IDX 4 1 2 2 1 3 3 4 5 5 6 6 7 7 8 8
REMARK H PARENT
REMARK Flexibility Score: inf
ROOT
ATOM      1  C   UNL     1       8.363  24.921 -12.692  1.00  0.00     0.059 C 
ENDROOT
BRANCH   1   2
ATOM      2  C   UNL     1       6.982  25.502 -12.732  1.00  0.00     0.042 C 
ATOM      3  O   UNL     1       6.803  26.684 -13.126  1.00  0.00    -0.550 OA
ATOM      4  O   UNL     1       5.890  24.723 -12.369  1.00  0.00    -0.550 OA
ENDBRANCH   1   2
BRANCH   1   5
ATOM      5  C   UNL     1       8.876  24.785 -11.254  1.00  0.00     0.059 C 
BRANCH   5   6
ATOM      6  C   UNL     1       8.421  23.502 -10.627  1.00  0.00     0.042 C 
ATOM      7  O   UNL     1       8.575  22.410 -11.236  1.00  0.00    -0.550 OA
ATOM      8  O   UNL     1       7.864  23.509  -9.355  1.00  0.00    -0.550 OA
ENDBRANCH   5   6
ENDBRANCH   1   5
TORSDOF 3
ENDMDL
