MODEL 1
REMARK VINA RESULT:    -4.528      0.000      0.000
REMARK INTER + INTRA:          -4.960
REMARK INTER:                  -4.793
REMARK INTRA:                  -0.167
REMARK UNBOUND:                -0.167
REMARK SMILES Cc1ccc(C(C)C)cc1
REMARK SMILES IDX 1 1 2 2 3 3 4 4 5 5 9 6 10 7 6 8 7 9 8 10
REMARK H PARENT
REMARK Flexibility Score: inf
ROOT
ATOM      1  C   UNL     1      51.657 -13.652 133.368  1.00  0.00     0.044 C 
ATOM      2  C   UNL     1      53.081 -13.214 133.190  1.00  0.00    -0.051 A 
ATOM      3  C   UNL     1      54.018 -14.079 132.607  1.00  0.00     0.004 A 
ATOM      4  C   UNL     1      55.337 -13.660 132.407  1.00  0.00     0.004 A 
ATOM      5  C   UNL     1      55.739 -12.364 132.776  1.00  0.00    -0.045 A 
ATOM      6  C   UNL     1      54.789 -11.494 133.344  1.00  0.00     0.004 A 
ATOM      7  C   UNL     1      53.471 -11.914 133.542  1.00  0.00     0.004 A 
ENDROOT
BRANCH   5   8
ATOM      8  C   UNL     1      57.172 -11.921 132.553  1.00  0.00     0.013 C 
ATOM      9  C   UNL     1      57.684 -11.087 133.733  1.00  0.00     0.012 C 
ATOM     10  C   UNL     1      58.087 -13.123 132.288  1.00  0.00     0.012 C 
ENDBRANCH   5   8
TORSDOF 1
ENDMDL
MODEL 2
REMARK VINA RESULT:    -4.507      6.473      8.507
REMARK INTER + INTRA:          -4.937
REMARK INTER:                  -4.780
REMARK INTRA:                  -0.157
REMARK UNBOUND:                -0.167
REMARK SMILES Cc1ccc(C(C)C)cc1
REMARK SMILES IDX 1 1 2 2 3 3 4 4 5 5 9 6 10 7 6 8 7 9 8 10
REMARK H PARENT
REMARK Flexibility Score: inf
ROOT
ATOM      1  C   UNL     1      48.097 -20.729 135.292  1.00  0.00     0.044 C 
ATOM      2  C   UNL     1      48.288 -19.450 134.531  1.00  0.00    -0.051 A 
ATOM      3  C   UNL     1      49.537 -18.814 134.522  1.00  0.00     0.004 A 
ATOM      4  C   UNL     1      49.729 -17.642 133.784  1.00  0.00     0.004 A 
ATOM      5  C   UNL     1      48.675 -17.093 133.031  1.00  0.00    -0.045 A 
ATOM      6  C   UNL     1      47.428 -17.747 133.028  1.00  0.00     0.004 A 
ATOM      7  C   UNL     1      47.240 -18.918 133.767  1.00  0.00     0.004 A 
ENDROOT
BRANCH   5   8
ATOM      8  C   UNL     1      48.895 -15.822 132.233  1.00  0.00     0.013 C 
ATOM      9  C   UNL     1      48.903 -14.590 133.146  1.00  0.00     0.012 C 
ATOM     10  C   UNL     1      50.184 -15.904 131.406  1.00  0.00     0.012 C 
ENDBRANCH   5   8
TORSDOF 1
ENDMDL
MODEL 3
REMARK VINA RESULT:    -4.495      6.457      8.490
REMARK INTER + INTRA:          -4.924
REMARK INTER:                  -4.770
REMARK INTRA:                  -0.155
REMARK UNBOUND:                -0.167
REMARK SMILES Cc1ccc(C(C)C)cc1
REMARK SMILES IDX 1 1 2 2 3 3 4 4 5 5 9 6 10 7 6 8 7 9 8 10
REMARK H PARENT
REMARK Flexibility Score: inf
ROOT
ATOM      1  C   UNL     1      48.018 -20.636 135.378  1.00  0.00     0.044 C 
ATOM      2  C   UNL     1      48.262 -19.411 134.547  1.00  0.00    -0.051 A 
ATOM      3  C   UNL     1      47.225 -18.860 133.780  1.00  0.00     0.004 A 
ATOM      4  C   UNL     1      47.440 -17.697 133.034  1.00  0.00     0.004 A 
ATOM      5  C   UNL     1      48.692 -17.059 133.051  1.00  0.00    -0.045 A 
ATOM      6  C   UNL     1      49.724 -17.606 133.838  1.00  0.00     0.004 A 
ATOM      7  C   UNL     1      49.507 -18.768 134.584  1.00  0.00     0.004 A 
ENDROOT
BRANCH   5   8
ATOM      8  C   UNL     1      48.912 -15.797 132.239  1.00  0.00     0.013 C 
ATOM      9  C   UNL     1      48.940 -14.556 133.140  1.00  0.00     0.012 C 
ATOM     10  C   UNL     1      50.190 -15.897 131.397  1.00  0.00     0.012 C 
ENDBRANCH   5   8
TORSDOF 1
ENDMDL
MODEL 4
REMARK VINA RESULT:    -4.488      2.901      6.426
REMARK INTER + INTRA:          -4.917
REMARK INTER:                  -4.751
REMARK INTRA:                  -0.167
REMARK UNBOUND:                -0.167
REMARK SMILES Cc1ccc(C(C)C)cc1
REMARK SMILES IDX 1 1 2 2 3 3 4 4 5 5 9 6 10 7 6 8 7 9 8 10
REMARK H PARENT
REMARK Flexibility Score: inf
ROOT
ATOM      1  C   UNL     1      55.232 -14.717 133.371  1.00  0.00     0.044 C 
ATOM      2  C   UNL     1      53.845 -15.259 133.188  1.00  0.00    -0.051 A 
ATOM      3  C   UNL     1      52.844 -14.460 132.618  1.00  0.00     0.004 A 
ATOM      4  C   UNL     1      51.561 -14.975 132.413  1.00  0.00     0.004 A 
ATOM      5  C   UNL     1      51.259 -16.303 132.764  1.00  0.00    -0.045 A 
ATOM      6  C   UNL     1      52.273 -17.106 133.319  1.00  0.00     0.004 A 
ATOM      7  C   UNL     1      53.556 -16.590 133.522  1.00  0.00     0.004 A 
ENDROOT
BRANCH   5   8
ATOM      8  C   UNL     1      49.863 -16.850 132.535  1.00  0.00     0.013 C 
ATOM      9  C   UNL     1      49.383 -17.663 133.743  1.00  0.00     0.012 C 
ATOM     10  C   UNL     1      48.877 -15.726 132.198  1.00  0.00     0.012 C 
ENDBRANCH   5   8
TORSDOF 1
ENDMDL
MODEL 5
REMARK VINA RESULT:    -4.397      1.356      4.831
REMARK INTER + INTRA:          -4.821
REMARK INTER:                  -4.655
REMARK INTRA:                  -0.165
REMARK UNBOUND:                -0.167
REMARK SMILES Cc1ccc(C(C)C)cc1
REMARK SMILES IDX 1 1 2 2 3 3 4 4 5 5 9 6 10 7 6 8 7 9 8 10
REMARK H PARENT
REMARK Flexibility Score: inf
ROOT
ATOM      1  C   UNL     1      60.275 -10.224 134.491  1.00  0.00     0.044 C 
ATOM      2  C   UNL     1      58.939 -10.708 134.008  1.00  0.00    -0.051 A 
ATOM      3  C   UNL     1      58.863 -11.691 133.011  1.00  0.00     0.004 A 
ATOM      4  C   UNL     1      57.620 -12.170 132.585  1.00  0.00     0.004 A 
ATOM      5  C   UNL     1      56.432 -11.681 133.158  1.00  0.00    -0.045 A 
ATOM      6  C   UNL     1      56.516 -10.708 134.171  1.00  0.00     0.004 A 
ATOM      7  C   UNL     1      57.759 -10.231 134.596  1.00  0.00     0.004 A 
ENDROOT
BRANCH   5   8
ATOM      8  C   UNL     1      55.090 -12.210 132.688  1.00  0.00     0.013 C 
ATOM      9  C   UNL     1      55.077 -13.743 132.664  1.00  0.00     0.012 C 
ATOM     10  C   UNL     1      53.947 -11.661 133.550  1.00  0.00     0.012 C 
ENDBRANCH   5   8
TORSDOF 1
ENDMDL
MODEL 6
REMARK VINA RESULT:    -4.351      3.000      5.084
REMARK INTER + INTRA:          -4.772
REMARK INTER:                  -4.618
REMARK INTRA:                  -0.154
REMARK UNBOUND:                -0.167
REMARK SMILES Cc1ccc(C(C)C)cc1
REMARK SMILES IDX 1 1 2 2 3 3 4 4 5 5 9 6 10 7 6 8 7 9 8 10
REMARK H PARENT
REMARK Flexibility Score: inf
ROOT
ATOM      1  C   UNL     1      58.699  -8.094 135.729  1.00  0.00     0.044 C 
ATOM      2  C   UNL     1      58.538  -9.317 134.875  1.00  0.00    -0.051 A 
ATOM      3  C   UNL     1      59.633  -9.833 134.166  1.00  0.00     0.004 A 
ATOM      4  C   UNL     1      59.494 -10.994 133.399  1.00  0.00     0.004 A 
ATOM      5  C   UNL     1      58.260 -11.666 133.337  1.00  0.00    -0.045 A 
ATOM      6  C   UNL     1      57.170 -11.153 134.066  1.00  0.00     0.004 A 
ATOM      7  C   UNL     1      57.311  -9.993 134.832  1.00  0.00     0.004 A 
ENDROOT
BRANCH   5   8
ATOM      8  C   UNL     1      58.123 -12.925 132.503  1.00  0.00     0.013 C 
ATOM      9  C   UNL     1      58.050 -14.172 133.392  1.00  0.00     0.012 C 
ATOM     10  C   UNL     1      56.910 -12.840 131.568  1.00  0.00     0.012 C 
ENDBRANCH   5   8
TORSDOF 1
ENDMDL
MODEL 7
REMARK VINA RESULT:    -4.322      1.539      4.548
REMARK INTER + INTRA:          -4.742
REMARK INTER:                  -4.575
REMARK INTRA:                  -0.167
REMARK UNBOUND:                -0.167
REMARK SMILES Cc1ccc(C(C)C)cc1
REMARK SMILES IDX 1 1 2 2 3 3 4 4 5 5 9 6 10 7 6 8 7 9 8 10
REMARK H PARENT
REMARK Flexibility Score: inf
ROOT
ATOM      1  C   UNL     1      58.899 -11.636 133.021  1.00  0.00     0.044 C 
ATOM      2  C   UNL     1      57.689 -12.519 133.115  1.00  0.00    -0.051 A 
ATOM      3  C   UNL     1      56.623 -12.354 132.220  1.00  0.00     0.004 A 
ATOM      4  C   UNL     1      55.511 -13.199 132.283  1.00  0.00     0.004 A 
ATOM      5  C   UNL     1      55.451 -14.232 133.235  1.00  0.00    -0.045 A 
ATOM      6  C   UNL     1      56.533 -14.404 134.119  1.00  0.00     0.004 A 
ATOM      7  C   UNL     1      57.644 -13.559 134.054  1.00  0.00     0.004 A 
ENDROOT
BRANCH   5   8
ATOM      8  C   UNL     1      54.240 -15.143 133.292  1.00  0.00     0.013 C 
ATOM      9  C   UNL     1      53.903 -15.525 134.739  1.00  0.00     0.012 C 
ATOM     10  C   UNL     1      53.034 -14.504 132.594  1.00  0.00     0.012 C 
ENDBRANCH   5   8
TORSDOF 1
ENDMDL
MODEL 8
REMARK VINA RESULT:    -4.268      3.823      6.089
REMARK INTER + INTRA:          -4.684
REMARK INTER:                  -4.523
REMARK INTRA:                  -0.161
REMARK UNBOUND:                -0.167
REMARK SMILES Cc1ccc(C(C)C)cc1
REMARK SMILES IDX 1 1 2 2 3 3 4 4 5 5 9 6 10 7 6 8 7 9 8 10
REMARK H PARENT
REMARK Flexibility Score: inf
ROOT
ATOM      1  C   UNL     1      47.268 -18.147 133.395  1.00  0.00     0.044 C 
ATOM      2  C   UNL     1      48.529 -17.348 133.242  1.00  0.00    -0.051 A 
ATOM      3  C   UNL     1      49.690 -17.722 133.933  1.00  0.00     0.004 A 
ATOM      4  C   UNL     1      50.876 -17.002 133.763  1.00  0.00     0.004 A 
ATOM      5  C   UNL     1      50.924 -15.901 132.889  1.00  0.00    -0.045 A 
ATOM      6  C   UNL     1      49.759 -15.541 132.184  1.00  0.00     0.004 A 
ATOM      7  C   UNL     1      48.575 -16.264 132.354  1.00  0.00     0.004 A 
ENDROOT
BRANCH   5   8
ATOM      8  C   UNL     1      52.217 -15.128 132.713  1.00  0.00     0.013 C 
ATOM      9  C   UNL     1      52.106 -13.720 133.313  1.00  0.00     0.012 C 
ATOM     10  C   UNL     1      53.404 -15.892 133.311  1.00  0.00     0.012 C 
ENDBRANCH   5   8
TORSDOF 1
ENDMDL
MODEL 9
REMARK VINA RESULT:    -4.219      4.060      6.463
REMARK INTER + INTRA:          -4.632
REMARK INTER:                  -4.469
REMARK INTRA:                  -0.164
REMARK UNBOUND:                -0.167
REMARK SMILES Cc1ccc(C(C)C)cc1
REMARK SMILES IDX 1 1 2 2 3 3 4 4 5 5 9 6 10 7 6 8 7 9 8 10
REMARK H PARENT
REMARK Flexibility Score: inf
ROOT
ATOM      1  C   UNL     1      47.213 -18.505 133.740  1.00  0.00     0.044 C 
ATOM      2  C   UNL     1      48.472 -17.746 133.441  1.00  0.00    -0.051 A 
ATOM      3  C   UNL     1      48.433 -16.606 132.626  1.00  0.00     0.004 A 
ATOM      4  C   UNL     1      49.599 -15.876 132.376  1.00  0.00     0.004 A 
ATOM      5  C   UNL     1      50.823 -16.267 132.948  1.00  0.00    -0.045 A 
ATOM      6  C   UNL     1      50.852 -17.402 133.781  1.00  0.00     0.004 A 
ATOM      7  C   UNL     1      49.685 -18.129 134.030  1.00  0.00     0.004 A 
ENDROOT
BRANCH   5   8
ATOM      8  C   UNL     1      52.080 -15.466 132.670  1.00  0.00     0.013 C 
ATOM      9  C   UNL     1      51.898 -13.995 133.065  1.00  0.00     0.012 C 
ATOM     10  C   UNL     1      53.295 -16.081 133.376  1.00  0.00     0.012 C 
ENDBRANCH   5   8
TORSDOF 1
ENDMDL
