MODEL 1
REMARK VINA RESULT:    -6.466      0.000      0.000
REMARK INTER + INTRA:         -20.000
REMARK INTER:                 -17.050
REMARK INTRA:                  -2.950
REMARK UNBOUND:                -2.950
REMARK SMILES CCCCCCCCCCCCCCCCCCCCCCCCCCCCCC(=O)[O-]
REMARK SMILES IDX 16 1 17 2 18 3 19 4 20 5 21 6 22 7 23 8 24 9 25 10 26 11
REMARK SMILES IDX 27 12 28 13 29 14 30 15 31 16 32 17 15 18 14 19 13 20 12 21
REMARK SMILES IDX 11 22 10 23 9 24 8 25 7 26 6 27 5 28 4 29 3 30 2 31 1 32
REMARK H PARENT
REMARK Flexibility Score: inf
ROOT
ATOM      1  C   UNL     1     -13.348  -9.545  -7.260  1.00  0.00     0.000 C 
ENDROOT
BRANCH   1   2
ATOM      2  C   UNL     1     -13.972  -8.143  -7.129  1.00  0.00     0.000 C 
BRANCH   2   3
ATOM      3  C   UNL     1     -15.456  -8.177  -6.741  1.00  0.00     0.000 C 
BRANCH   3   4
ATOM      4  C   UNL     1     -16.344  -8.356  -7.981  1.00  0.00     0.000 C 
BRANCH   4   5
ATOM      5  C   UNL     1     -17.445  -9.418  -7.792  1.00  0.00     0.000 C 
BRANCH   5   6
ATOM      6  C   UNL     1     -17.430 -10.139  -6.431  1.00  0.00     0.000 C 
BRANCH   6   7
ATOM      7  C   UNL     1     -16.983 -11.608  -6.533  1.00  0.00     0.000 C 
BRANCH   7   8
ATOM      8  C   UNL     1     -15.519 -11.749  -6.980  1.00  0.00     0.000 C 
BRANCH   8   9
ATOM      9  C   UNL     1     -15.336 -12.838  -8.051  1.00  0.00     0.000 C 
BRANCH   9  10
ATOM     10  C   UNL     1     -14.628 -12.323  -9.315  1.00  0.00     0.000 C 
BRANCH  10  11
ATOM     11  C   UNL     1     -15.399 -11.201 -10.043  1.00  0.00     0.000 C 
BRANCH  11  12
ATOM     12  C   UNL     1     -16.395 -11.756 -11.075  1.00  0.00     0.000 C 
BRANCH  12  13
ATOM     13  C   UNL     1     -17.729 -10.985 -11.104  1.00  0.00     0.006 C 
BRANCH  13  14
ATOM     14  C   UNL     1     -18.942 -11.850 -11.482  1.00  0.00     0.053 C 
BRANCH  14  15
ATOM     15  C   UNL     1     -19.874 -11.161 -12.431  1.00  0.00     0.041 C 
ATOM     16  O   UNL     1     -20.189 -11.707 -13.522  1.00  0.00    -0.550 OA
ATOM     17  O   UNL     1     -20.363  -9.895 -12.127  1.00  0.00    -0.550 OA
ENDBRANCH  14  15
ENDBRANCH  13  14
ENDBRANCH  12  13
ENDBRANCH  11  12
ENDBRANCH  10  11
ENDBRANCH   9  10
ENDBRANCH   8   9
ENDBRANCH   7   8
ENDBRANCH   6   7
ENDBRANCH   5   6
ENDBRANCH   4   5
ENDBRANCH   3   4
ENDBRANCH   2   3
ENDBRANCH   1   2
BRANCH   1  18
ATOM     18  C   UNL     1     -12.252  -9.877  -6.229  1.00  0.00     0.000 C 
BRANCH  18  19
ATOM     19  C   UNL     1     -12.514 -11.120  -5.359  1.00  0.00     0.000 C 
BRANCH  19  20
ATOM     20  C   UNL     1     -11.883 -11.049  -3.952  1.00  0.00     0.000 C 
BRANCH  20  21
ATOM     21  C   UNL     1     -11.203 -12.363  -3.536  1.00  0.00     0.000 C 
BRANCH  21  22
ATOM     22  C   UNL     1     -11.408 -12.643  -2.043  1.00  0.00     0.000 C 
BRANCH  22  23
ATOM     23  C   UNL     1     -11.750 -11.353  -1.282  1.00  0.00     0.000 C 
BRANCH  23  24
ATOM     24  C   UNL     1     -10.760 -11.047  -0.148  1.00  0.00    -0.000 C 
BRANCH  24  25
ATOM     25  C   UNL     1      -9.850 -12.239   0.189  1.00  0.00    -0.000 C 
BRANCH  25  26
ATOM     26  C   UNL     1      -8.375 -11.880  -0.045  1.00  0.00    -0.000 C 
BRANCH  26  27
ATOM     27  C   UNL     1      -7.721 -12.748  -1.131  1.00  0.00    -0.000 C 
BRANCH  27  28
ATOM     28  C   UNL     1      -6.680 -13.727  -0.559  1.00  0.00    -0.000 C 
BRANCH  28  29
ATOM     29  C   UNL     1      -6.664 -15.072  -1.315  1.00  0.00    -0.000 C 
BRANCH  29  30
ATOM     30  C   UNL     1      -8.067 -15.585  -1.685  1.00  0.00    -0.000 C 
BRANCH  30  31
ATOM     31  C   UNL     1      -8.119 -17.110  -1.853  1.00  0.00    -0.003 C 
ATOM     32  C   UNL     1      -8.084 -17.813  -0.499  1.00  0.00     0.004 C 
ENDBRANCH  30  31
ENDBRANCH  29  30
ENDBRANCH  28  29
ENDBRANCH  27  28
ENDBRANCH  26  27
ENDBRANCH  25  26
ENDBRANCH  24  25
ENDBRANCH  23  24
ENDBRANCH  22  23
ENDBRANCH  21  22
ENDBRANCH  20  21
ENDBRANCH  19  20
ENDBRANCH  18  19
ENDBRANCH   1  18
TORSDOF 28
ENDMDL
MODEL 2
REMARK VINA RESULT:    -6.368      4.628     11.822
REMARK INTER + INTRA:         -19.742
REMARK INTER:                 -16.728
REMARK INTRA:                  -3.014
REMARK UNBOUND:                -2.950
REMARK SMILES CCCCCCCCCCCCCCCCCCCCCCCCCCCCCC(=O)[O-]
REMARK SMILES IDX 16 1 17 2 18 3 19 4 20 5 21 6 22 7 23 8 24 9 25 10 26 11
REMARK SMILES IDX 27 12 28 13 29 14 30 15 31 16 32 17 15 18 14 19 13 20 12 21
REMARK SMILES IDX 11 22 10 23 9 24 8 25 7 26 6 27 5 28 4 29 3 30 2 31 1 32
REMARK H PARENT
REMARK Flexibility Score: inf
ROOT
ATOM      1  C   UNL     1     -14.264  -8.778  -6.668  1.00  0.00     0.000 C 
ENDROOT
BRANCH   1   2
ATOM      2  C   UNL     1     -12.913  -9.251  -7.240  1.00  0.00     0.000 C 
BRANCH   2   3
ATOM      3  C   UNL     1     -11.955  -9.779  -6.163  1.00  0.00     0.000 C 
BRANCH   3   4
ATOM      4  C   UNL     1     -12.606 -10.913  -5.358  1.00  0.00     0.000 C 
BRANCH   4   5
ATOM      5  C   UNL     1     -11.597 -11.719  -4.518  1.00  0.00     0.000 C 
BRANCH   5   6
ATOM      6  C   UNL     1     -12.141 -12.254  -3.180  1.00  0.00     0.000 C 
BRANCH   6   7
ATOM      7  C   UNL     1     -11.086 -12.263  -2.060  1.00  0.00     0.000 C 
BRANCH   7   8
ATOM      8  C   UNL     1     -11.444 -11.313  -0.905  1.00  0.00     0.000 C 
BRANCH   8   9
ATOM      9  C   UNL     1     -10.312 -11.195   0.130  1.00  0.00     0.000 C 
BRANCH   9  10
ATOM     10  C   UNL     1      -9.508 -12.497   0.291  1.00  0.00     0.000 C 
BRANCH  10  11
ATOM     11  C   UNL     1      -8.036 -12.376  -0.157  1.00  0.00     0.000 C 
BRANCH  11  12
ATOM     12  C   UNL     1      -7.655 -13.446  -1.194  1.00  0.00     0.000 C 
BRANCH  12  13
ATOM     13  C   UNL     1      -8.537 -14.708  -1.112  1.00  0.00     0.006 C 
BRANCH  13  14
ATOM     14  C   UNL     1      -8.375 -15.660  -2.308  1.00  0.00     0.053 C 
BRANCH  14  15
ATOM     15  C   UNL     1      -7.850 -17.006  -1.912  1.00  0.00     0.041 C 
ATOM     16  O   UNL     1      -7.227 -17.716  -2.746  1.00  0.00    -0.550 OA
ATOM     17  O   UNL     1      -8.085 -17.493  -0.630  1.00  0.00    -0.550 OA
ENDBRANCH  14  15
ENDBRANCH  13  14
ENDBRANCH  12  13
ENDBRANCH  11  12
ENDBRANCH  10  11
ENDBRANCH   9  10
ENDBRANCH   8   9
ENDBRANCH   7   8
ENDBRANCH   6   7
ENDBRANCH   5   6
ENDBRANCH   4   5
ENDBRANCH   3   4
ENDBRANCH   2   3
ENDBRANCH   1   2
BRANCH   1  18
ATOM     18  C   UNL     1     -15.274  -8.258  -7.709  1.00  0.00     0.000 C 
BRANCH  18  19
ATOM     19  C   UNL     1     -16.758  -8.469  -7.355  1.00  0.00     0.000 C 
BRANCH  19  20
ATOM     20  C   UNL     1     -17.006  -9.587  -6.319  1.00  0.00     0.000 C 
BRANCH  20  21
ATOM     21  C   UNL     1     -17.050 -10.986  -6.950  1.00  0.00     0.000 C 
BRANCH  21  22
ATOM     22  C   UNL     1     -15.774 -11.775  -6.636  1.00  0.00     0.000 C 
BRANCH  22  23
ATOM     23  C   UNL     1     -15.277 -12.535  -7.876  1.00  0.00     0.000 C 
BRANCH  23  24
ATOM     24  C   UNL     1     -14.629 -11.615  -8.922  1.00  0.00    -0.000 C 
BRANCH  24  25
ATOM     25  C   UNL     1     -14.959 -12.026 -10.365  1.00  0.00    -0.000 C 
BRANCH  25  26
ATOM     26  C   UNL     1     -16.432 -11.735 -10.691  1.00  0.00    -0.000 C 
BRANCH  26  27
ATOM     27  C   UNL     1     -16.827 -10.281 -10.394  1.00  0.00    -0.000 C 
BRANCH  27  28
ATOM     28  C   UNL     1     -18.348 -10.054 -10.461  1.00  0.00    -0.000 C 
BRANCH  28  29
ATOM     29  C   UNL     1     -18.846  -9.851 -11.907  1.00  0.00    -0.000 C 
BRANCH  29  30
ATOM     30  C   UNL     1     -20.235 -10.460 -12.170  1.00  0.00    -0.000 C 
BRANCH  30  31
ATOM     31  C   UNL     1     -20.178 -11.721 -13.043  1.00  0.00    -0.003 C 
ATOM     32  C   UNL     1     -21.312 -11.735 -14.064  1.00  0.00     0.004 C 
ENDBRANCH  30  31
ENDBRANCH  29  30
ENDBRANCH  28  29
ENDBRANCH  27  28
ENDBRANCH  26  27
ENDBRANCH  25  26
ENDBRANCH  24  25
ENDBRANCH  23  24
ENDBRANCH  22  23
ENDBRANCH  21  22
ENDBRANCH  20  21
ENDBRANCH  19  20
ENDBRANCH  18  19
ENDBRANCH   1  18
TORSDOF 28
ENDMDL
MODEL 3
REMARK VINA RESULT:    -5.897      3.026      4.938
REMARK INTER + INTRA:         -18.501
REMARK INTER:                 -16.098
REMARK INTRA:                  -2.403
REMARK UNBOUND:                -2.950
REMARK SMILES CCCCCCCCCCCCCCCCCCCCCCCCCCCCCC(=O)[O-]
REMARK SMILES IDX 16 1 17 2 18 3 19 4 20 5 21 6 22 7 23 8 24 9 25 10 26 11
REMARK SMILES IDX 27 12 28 13 29 14 30 15 31 16 32 17 15 18 14 19 13 20 12 21
REMARK SMILES IDX 11 22 10 23 9 24 8 25 7 26 6 27 5 28 4 29 3 30 2 31 1 32
REMARK H PARENT
REMARK Flexibility Score: inf
ROOT
ATOM      1  C   UNL     1     -12.698 -10.932  -5.149  1.00  0.00     0.000 C 
ENDROOT
BRANCH   1   2
ATOM      2  C   UNL     1     -12.451 -10.058  -6.394  1.00  0.00     0.000 C 
BRANCH   2   3
ATOM      3  C   UNL     1     -13.620 -10.084  -7.390  1.00  0.00     0.000 C 
BRANCH   3   4
ATOM      4  C   UNL     1     -14.228 -11.491  -7.484  1.00  0.00     0.000 C 
BRANCH   4   5
ATOM      5  C   UNL     1     -15.694 -11.552  -7.011  1.00  0.00     0.000 C 
BRANCH   5   6
ATOM      6  C   UNL     1     -16.271 -10.218  -6.503  1.00  0.00     0.000 C 
BRANCH   6   7
ATOM      7  C   UNL     1     -17.769 -10.051  -6.817  1.00  0.00     0.000 C 
BRANCH   7   8
ATOM      8  C   UNL     1     -18.031  -8.977  -7.886  1.00  0.00     0.000 C 
BRANCH   8   9
ATOM      9  C   UNL     1     -16.730  -8.432  -8.501  1.00  0.00     0.000 C 
BRANCH   9  10
ATOM     10  C   UNL     1     -16.583  -8.776  -9.993  1.00  0.00     0.000 C 
BRANCH  10  11
ATOM     11  C   UNL     1     -16.273 -10.265 -10.258  1.00  0.00     0.000 C 
BRANCH  11  12
ATOM     12  C   UNL     1     -17.551 -11.099 -10.450  1.00  0.00     0.000 C 
BRANCH  12  13
ATOM     13  C   UNL     1     -18.166 -10.947 -11.855  1.00  0.00     0.006 C 
BRANCH  13  14
ATOM     14  C   UNL     1     -19.431 -11.792 -12.076  1.00  0.00     0.053 C 
BRANCH  14  15
ATOM     15  C   UNL     1     -20.481 -11.070 -12.864  1.00  0.00     0.041 C 
ATOM     16  O   UNL     1     -20.873  -9.927 -12.505  1.00  0.00    -0.550 OA
ATOM     17  O   UNL     1     -21.057 -11.679 -13.974  1.00  0.00    -0.550 OA
ENDBRANCH  14  15
ENDBRANCH  13  14
ENDBRANCH  12  13
ENDBRANCH  11  12
ENDBRANCH  10  11
ENDBRANCH   9  10
ENDBRANCH   8   9
ENDBRANCH   7   8
ENDBRANCH   6   7
ENDBRANCH   5   6
ENDBRANCH   4   5
ENDBRANCH   3   4
ENDBRANCH   2   3
ENDBRANCH   1   2
BRANCH   1  18
ATOM     18  C   UNL     1     -11.447 -11.615  -4.566  1.00  0.00     0.000 C 
BRANCH  18  19
ATOM     19  C   UNL     1     -11.687 -12.483  -3.316  1.00  0.00     0.000 C 
BRANCH  19  20
ATOM     20  C   UNL     1     -11.761 -11.682  -1.998  1.00  0.00     0.000 C 
BRANCH  20  21
ATOM     21  C   UNL     1     -11.128 -12.425  -0.812  1.00  0.00     0.000 C 
BRANCH  21  22
ATOM     22  C   UNL     1      -9.650 -12.733  -1.078  1.00  0.00     0.000 C 
BRANCH  22  23
ATOM     23  C   UNL     1      -8.745 -11.976  -0.095  1.00  0.00     0.000 C 
BRANCH  23  24
ATOM     24  C   UNL     1      -9.493 -10.890   0.693  1.00  0.00    -0.000 C 
BRANCH  24  25
ATOM     25  C   UNL     1      -9.144  -9.467   0.229  1.00  0.00    -0.000 C 
BRANCH  25  26
ATOM     26  C   UNL     1      -8.008  -8.880   1.080  1.00  0.00    -0.000 C 
BRANCH  26  27
ATOM     27  C   UNL     1      -7.435  -7.584   0.487  1.00  0.00    -0.000 C 
BRANCH  27  28
ATOM     28  C   UNL     1      -5.904  -7.629   0.334  1.00  0.00    -0.000 C 
BRANCH  28  29
ATOM     29  C   UNL     1      -5.326  -6.288  -0.164  1.00  0.00    -0.000 C 
BRANCH  29  30
ATOM     30  C   UNL     1      -6.280  -5.096   0.033  1.00  0.00    -0.000 C 
BRANCH  30  31
ATOM     31  C   UNL     1      -6.613  -4.375  -1.280  1.00  0.00    -0.003 C 
ATOM     32  C   UNL     1      -5.910  -5.034  -2.464  1.00  0.00     0.004 C 
ENDBRANCH  30  31
ENDBRANCH  29  30
ENDBRANCH  28  29
ENDBRANCH  27  28
ENDBRANCH  26  27
ENDBRANCH  25  26
ENDBRANCH  24  25
ENDBRANCH  23  24
ENDBRANCH  22  23
ENDBRANCH  21  22
ENDBRANCH  20  21
ENDBRANCH  19  20
ENDBRANCH  18  19
ENDBRANCH   1  18
TORSDOF 28
ENDMDL
MODEL 4
REMARK VINA RESULT:    -5.754      5.618     12.610
REMARK INTER + INTRA:         -18.122
REMARK INTER:                 -15.472
REMARK INTRA:                  -2.650
REMARK UNBOUND:                -2.950
REMARK SMILES CCCCCCCCCCCCCCCCCCCCCCCCCCCCCC(=O)[O-]
REMARK SMILES IDX 16 1 17 2 18 3 19 4 20 5 21 6 22 7 23 8 24 9 25 10 26 11
REMARK SMILES IDX 27 12 28 13 29 14 30 15 31 16 32 17 15 18 14 19 13 20 12 21
REMARK SMILES IDX 11 22 10 23 9 24 8 25 7 26 6 27 5 28 4 29 3 30 2 31 1 32
REMARK H PARENT
REMARK Flexibility Score: inf
ROOT
ATOM      1  C   UNL     1     -11.734 -11.885  -4.249  1.00  0.00     0.000 C 
ENDROOT
BRANCH   1   2
ATOM      2  C   UNL     1     -11.803 -11.716  -2.719  1.00  0.00     0.000 C 
BRANCH   2   3
ATOM      3  C   UNL     1     -11.208 -12.906  -1.954  1.00  0.00     0.000 C 
BRANCH   3   4
ATOM      4  C   UNL     1      -9.675 -12.907  -2.047  1.00  0.00     0.000 C 
BRANCH   4   5
ATOM      5  C   UNL     1      -8.983 -12.925  -0.670  1.00  0.00     0.000 C 
BRANCH   5   6
ATOM      6  C   UNL     1      -9.842 -12.409   0.499  1.00  0.00     0.000 C 
BRANCH   6   7
ATOM      7  C   UNL     1      -9.864 -10.874   0.599  1.00  0.00     0.000 C 
BRANCH   7   8
ATOM      8  C   UNL     1      -8.457 -10.258   0.517  1.00  0.00     0.000 C 
BRANCH   8   9
ATOM      9  C   UNL     1      -8.476  -8.728   0.679  1.00  0.00     0.000 C 
BRANCH   9  10
ATOM     10  C   UNL     1      -7.152  -8.064   0.267  1.00  0.00     0.000 C 
BRANCH  10  11
ATOM     11  C   UNL     1      -6.642  -7.018   1.281  1.00  0.00     0.000 C 
BRANCH  11  12
ATOM     12  C   UNL     1      -5.240  -6.495   0.920  1.00  0.00     0.000 C 
BRANCH  12  13
ATOM     13  C   UNL     1      -5.058  -4.996   1.226  1.00  0.00     0.006 C 
BRANCH  13  14
ATOM     14  C   UNL     1      -5.982  -4.077   0.412  1.00  0.00     0.053 C 
BRANCH  14  15
ATOM     15  C   UNL     1      -5.952  -4.375  -1.056  1.00  0.00     0.041 C 
ATOM     16  O   UNL     1      -6.930  -4.944  -1.610  1.00  0.00    -0.550 OA
ATOM     17  O   UNL     1      -4.823  -4.060  -1.805  1.00  0.00    -0.550 OA
ENDBRANCH  14  15
ENDBRANCH  13  14
ENDBRANCH  12  13
ENDBRANCH  11  12
ENDBRANCH  10  11
ENDBRANCH   9  10
ENDBRANCH   8   9
ENDBRANCH   7   8
ENDBRANCH   6   7
ENDBRANCH   5   6
ENDBRANCH   4   5
ENDBRANCH   3   4
ENDBRANCH   2   3
ENDBRANCH   1   2
BRANCH   1  18
ATOM     18  C   UNL     1     -12.137 -10.643  -5.068  1.00  0.00     0.000 C 
BRANCH  18  19
ATOM     19  C   UNL     1     -13.253 -10.867  -6.105  1.00  0.00     0.000 C 
BRANCH  19  20
ATOM     20  C   UNL     1     -13.241  -9.856  -7.272  1.00  0.00     0.000 C 
BRANCH  20  21
ATOM     21  C   UNL     1     -14.132  -8.632  -7.010  1.00  0.00     0.000 C 
BRANCH  21  22
ATOM     22  C   UNL     1     -15.489  -8.777  -7.708  1.00  0.00     0.000 C 
BRANCH  22  23
ATOM     23  C   UNL     1     -16.505  -9.484  -6.796  1.00  0.00     0.000 C 
BRANCH  23  24
ATOM     24  C   UNL     1     -17.829  -9.801  -7.508  1.00  0.00    -0.000 C 
BRANCH  24  25
ATOM     25  C   UNL     1     -18.085  -8.895  -8.723  1.00  0.00    -0.000 C 
BRANCH  25  26
ATOM     26  C   UNL     1     -18.989  -9.600  -9.746  1.00  0.00    -0.000 C 
BRANCH  26  27
ATOM     27  C   UNL     1     -18.309  -9.778 -11.112  1.00  0.00    -0.000 C 
BRANCH  27  28
ATOM     28  C   UNL     1     -18.146 -11.258 -11.504  1.00  0.00    -0.000 C 
BRANCH  28  29
ATOM     29  C   UNL     1     -17.147 -11.999 -10.591  1.00  0.00    -0.000 C 
BRANCH  29  30
ATOM     30  C   UNL     1     -15.811 -11.256 -10.413  1.00  0.00    -0.000 C 
BRANCH  30  31
ATOM     31  C   UNL     1     -14.701 -12.152  -9.846  1.00  0.00    -0.003 C 
ATOM     32  C   UNL     1     -15.111 -12.756  -8.507  1.00  0.00     0.004 C 
ENDBRANCH  30  31
ENDBRANCH  29  30
ENDBRANCH  28  29
ENDBRANCH  27  28
ENDBRANCH  26  27
ENDBRANCH  25  26
ENDBRANCH  24  25
ENDBRANCH  23  24
ENDBRANCH  22  23
ENDBRANCH  21  22
ENDBRANCH  20  21
ENDBRANCH  19  20
ENDBRANCH  18  19
ENDBRANCH   1  18
TORSDOF 28
ENDMDL
MODEL 5
REMARK VINA RESULT:    -5.749      3.762      5.772
REMARK INTER + INTRA:         -18.109
REMARK INTER:                 -15.586
REMARK INTRA:                  -2.523
REMARK UNBOUND:                -2.950
REMARK SMILES CCCCCCCCCCCCCCCCCCCCCCCCCCCCCC(=O)[O-]
REMARK SMILES IDX 16 1 17 2 18 3 19 4 20 5 21 6 22 7 23 8 24 9 25 10 26 11
REMARK SMILES IDX 27 12 28 13 29 14 30 15 31 16 32 17 15 18 14 19 13 20 12 21
REMARK SMILES IDX 11 22 10 23 9 24 8 25 7 26 6 27 5 28 4 29 3 30 2 31 1 32
REMARK H PARENT
REMARK Flexibility Score: inf
ROOT
ATOM      1  C   UNL     1     -11.647 -11.751  -4.393  1.00  0.00     0.000 C 
ENDROOT
BRANCH   1   2
ATOM      2  C   UNL     1     -12.477 -10.551  -4.889  1.00  0.00     0.000 C 
BRANCH   2   3
ATOM      3  C   UNL     1     -13.110 -10.786  -6.268  1.00  0.00     0.000 C 
BRANCH   3   4
ATOM      4  C   UNL     1     -13.155  -9.484  -7.080  1.00  0.00     0.000 C 
BRANCH   4   5
ATOM      5  C   UNL     1     -14.567  -9.135  -7.590  1.00  0.00     0.000 C 
BRANCH   5   6
ATOM      6  C   UNL     1     -15.521  -8.559  -6.528  1.00  0.00     0.000 C 
BRANCH   6   7
ATOM      7  C   UNL     1     -16.588  -9.567  -6.065  1.00  0.00     0.000 C 
BRANCH   7   8
ATOM      8  C   UNL     1     -17.491 -10.039  -7.216  1.00  0.00     0.000 C 
BRANCH   8   9
ATOM      9  C   UNL     1     -18.184  -8.869  -7.936  1.00  0.00     0.000 C 
BRANCH   9  10
ATOM     10  C   UNL     1     -18.344  -9.105  -9.448  1.00  0.00     0.000 C 
BRANCH  10  11
ATOM     11  C   UNL     1     -17.102  -9.737 -10.111  1.00  0.00     0.000 C 
BRANCH  11  12
ATOM     12  C   UNL     1     -17.413 -11.106 -10.740  1.00  0.00     0.000 C 
BRANCH  12  13
ATOM     13  C   UNL     1     -16.149 -11.940 -11.026  1.00  0.00     0.006 C 
BRANCH  13  14
ATOM     14  C   UNL     1     -15.014 -11.719 -10.012  1.00  0.00     0.053 C 
BRANCH  14  15
ATOM     15  C   UNL     1     -14.932 -12.808  -8.985  1.00  0.00     0.041 C 
ATOM     16  O   UNL     1     -14.486 -13.944  -9.298  1.00  0.00    -0.550 OA
ATOM     17  O   UNL     1     -15.388 -12.577  -7.692  1.00  0.00    -0.550 OA
ENDBRANCH  14  15
ENDBRANCH  13  14
ENDBRANCH  12  13
ENDBRANCH  11  12
ENDBRANCH  10  11
ENDBRANCH   9  10
ENDBRANCH   8   9
ENDBRANCH   7   8
ENDBRANCH   6   7
ENDBRANCH   5   6
ENDBRANCH   4   5
ENDBRANCH   3   4
ENDBRANCH   2   3
ENDBRANCH   1   2
BRANCH   1  18
ATOM     18  C   UNL     1     -12.111 -12.365  -3.058  1.00  0.00     0.000 C 
BRANCH  18  19
ATOM     19  C   UNL     1     -11.674 -11.605  -1.791  1.00  0.00     0.000 C 
BRANCH  19  20
ATOM     20  C   UNL     1     -10.937 -12.480  -0.754  1.00  0.00     0.000 C 
BRANCH  20  21
ATOM     21  C   UNL     1      -9.481 -12.772  -1.148  1.00  0.00     0.000 C 
BRANCH  21  22
ATOM     22  C   UNL     1      -8.504 -12.216  -0.106  1.00  0.00     0.000 C 
BRANCH  22  23
ATOM     23  C   UNL     1      -9.011 -10.884   0.468  1.00  0.00     0.000 C 
BRANCH  23  24
ATOM     24  C   UNL     1      -7.980  -9.751   0.351  1.00  0.00    -0.000 C 
BRANCH  24  25
ATOM     25  C   UNL     1      -8.506  -8.408   0.881  1.00  0.00    -0.000 C 
BRANCH  25  26
ATOM     26  C   UNL     1      -7.345  -7.445   1.173  1.00  0.00    -0.000 C 
BRANCH  26  27
ATOM     27  C   UNL     1      -6.136  -7.684   0.256  1.00  0.00    -0.000 C 
BRANCH  27  28
ATOM     28  C   UNL     1      -5.008  -6.661   0.484  1.00  0.00    -0.000 C 
BRANCH  28  29
ATOM     29  C   UNL     1      -5.297  -5.309  -0.201  1.00  0.00    -0.000 C 
BRANCH  29  30
ATOM     30  C   UNL     1      -5.808  -5.449  -1.645  1.00  0.00    -0.000 C 
BRANCH  30  31
ATOM     31  C   UNL     1      -6.929  -4.455  -1.980  1.00  0.00    -0.003 C 
ATOM     32  C   UNL     1      -7.719  -4.076  -0.731  1.00  0.00     0.004 C 
ENDBRANCH  30  31
ENDBRANCH  29  30
ENDBRANCH  28  29
ENDBRANCH  27  28
ENDBRANCH  26  27
ENDBRANCH  25  26
ENDBRANCH  24  25
ENDBRANCH  23  24
ENDBRANCH  22  23
ENDBRANCH  21  22
ENDBRANCH  20  21
ENDBRANCH  19  20
ENDBRANCH  18  19
ENDBRANCH   1  18
TORSDOF 28
ENDMDL
MODEL 6
REMARK VINA RESULT:    -5.749      5.334     12.733
REMARK INTER + INTRA:         -18.109
REMARK INTER:                 -16.030
REMARK INTRA:                  -2.079
REMARK UNBOUND:                -2.950
REMARK SMILES CCCCCCCCCCCCCCCCCCCCCCCCCCCCCC(=O)[O-]
REMARK SMILES IDX 16 1 17 2 18 3 19 4 20 5 21 6 22 7 23 8 24 9 25 10 26 11
REMARK SMILES IDX 27 12 28 13 29 14 30 15 31 16 32 17 15 18 14 19 13 20 12 21
REMARK SMILES IDX 11 22 10 23 9 24 8 25 7 26 6 27 5 28 4 29 3 30 2 31 1 32
REMARK H PARENT
REMARK Flexibility Score: inf
ROOT
ATOM      1  C   UNL     1     -12.120 -11.619  -4.496  1.00  0.00     0.000 C 
ENDROOT
BRANCH   1   2
ATOM      2  C   UNL     1     -11.785 -11.518  -2.995  1.00  0.00     0.000 C 
BRANCH   2   3
ATOM      3  C   UNL     1     -11.248 -12.832  -2.409  1.00  0.00     0.000 C 
BRANCH   3   4
ATOM      4  C   UNL     1      -9.724 -12.922  -2.573  1.00  0.00     0.000 C 
BRANCH   4   5
ATOM      5  C   UNL     1      -8.965 -12.882  -1.233  1.00  0.00     0.000 C 
BRANCH   5   6
ATOM      6  C   UNL     1      -9.857 -12.810   0.020  1.00  0.00     0.000 C 
BRANCH   6   7
ATOM      7  C   UNL     1     -10.049 -11.375   0.543  1.00  0.00     0.000 C 
BRANCH   7   8
ATOM      8  C   UNL     1      -8.730 -10.587   0.595  1.00  0.00     0.000 C 
BRANCH   8   9
ATOM      9  C   UNL     1      -8.956  -9.065   0.598  1.00  0.00     0.000 C 
BRANCH   9  10
ATOM     10  C   UNL     1      -7.647  -8.263   0.510  1.00  0.00     0.000 C 
BRANCH  10  11
ATOM     11  C   UNL     1      -7.632  -7.003   1.401  1.00  0.00     0.000 C 
BRANCH  11  12
ATOM     12  C   UNL     1      -6.201  -6.535   1.721  1.00  0.00     0.000 C 
BRANCH  12  13
ATOM     13  C   UNL     1      -5.785  -5.280   0.930  1.00  0.00     0.006 C 
BRANCH  13  14
ATOM     14  C   UNL     1      -5.294  -5.577  -0.497  1.00  0.00     0.053 C 
BRANCH  14  15
ATOM     15  C   UNL     1      -6.189  -4.999  -1.550  1.00  0.00     0.041 C 
ATOM     16  O   UNL     1      -5.872  -5.079  -2.768  1.00  0.00    -0.550 OA
ATOM     17  O   UNL     1      -7.355  -4.335  -1.183  1.00  0.00    -0.550 OA
ENDBRANCH  14  15
ENDBRANCH  13  14
ENDBRANCH  12  13
ENDBRANCH  11  12
ENDBRANCH  10  11
ENDBRANCH   9  10
ENDBRANCH   8   9
ENDBRANCH   7   8
ENDBRANCH   6   7
ENDBRANCH   5   6
ENDBRANCH   4   5
ENDBRANCH   3   4
ENDBRANCH   2   3
ENDBRANCH   1   2
BRANCH   1  18
ATOM     18  C   UNL     1     -11.672 -10.418  -5.352  1.00  0.00     0.000 C 
BRANCH  18  19
ATOM     19  C   UNL     1     -12.640 -10.009  -6.478  1.00  0.00     0.000 C 
BRANCH  19  20
ATOM     20  C   UNL     1     -13.959 -10.812  -6.497  1.00  0.00     0.000 C 
BRANCH  20  21
ATOM     21  C   UNL     1     -14.310 -11.349  -7.893  1.00  0.00     0.000 C 
BRANCH  21  22
ATOM     22  C   UNL     1     -15.816 -11.602  -8.025  1.00  0.00     0.000 C 
BRANCH  22  23
ATOM     23  C   UNL     1     -16.536 -11.354  -6.691  1.00  0.00     0.000 C 
BRANCH  23  24
ATOM     24  C   UNL     1     -17.488 -10.149  -6.739  1.00  0.00    -0.000 C 
BRANCH  24  25
ATOM     25  C   UNL     1     -16.766  -8.831  -7.061  1.00  0.00    -0.000 C 
BRANCH  25  26
ATOM     26  C   UNL     1     -17.445  -8.111  -8.237  1.00  0.00    -0.000 C 
BRANCH  26  27
ATOM     27  C   UNL     1     -18.209  -9.076  -9.157  1.00  0.00    -0.000 C 
BRANCH  27  28
ATOM     28  C   UNL     1     -17.381  -9.507 -10.381  1.00  0.00    -0.000 C 
BRANCH  28  29
ATOM     29  C   UNL     1     -17.901 -10.818 -11.007  1.00  0.00    -0.000 C 
BRANCH  29  30
ATOM     30  C   UNL     1     -19.354 -10.728 -11.505  1.00  0.00    -0.000 C 
BRANCH  30  31
ATOM     31  C   UNL     1     -19.746 -11.897 -12.418  1.00  0.00    -0.003 C 
ATOM     32  C   UNL     1     -20.719 -11.446 -13.503  1.00  0.00     0.004 C 
ENDBRANCH  30  31
ENDBRANCH  29  30
ENDBRANCH  28  29
ENDBRANCH  27  28
ENDBRANCH  26  27
ENDBRANCH  25  26
ENDBRANCH  24  25
ENDBRANCH  23  24
ENDBRANCH  22  23
ENDBRANCH  21  22
ENDBRANCH  20  21
ENDBRANCH  19  20
ENDBRANCH  18  19
ENDBRANCH   1  18
TORSDOF 28
ENDMDL
MODEL 7
REMARK VINA RESULT:    -5.740      2.078      3.148
REMARK INTER + INTRA:         -18.086
REMARK INTER:                 -15.601
REMARK INTRA:                  -2.485
REMARK UNBOUND:                -2.950
REMARK SMILES CCCCCCCCCCCCCCCCCCCCCCCCCCCCCC(=O)[O-]
REMARK SMILES IDX 16 1 17 2 18 3 19 4 20 5 21 6 22 7 23 8 24 9 25 10 26 11
REMARK SMILES IDX 27 12 28 13 29 14 30 15 31 16 32 17 15 18 14 19 13 20 12 21
REMARK SMILES IDX 11 22 10 23 9 24 8 25 7 26 6 27 5 28 4 29 3 30 2 31 1 32
REMARK H PARENT
REMARK Flexibility Score: inf
ROOT
ATOM      1  C   UNL     1     -12.828  -8.776  -7.110  1.00  0.00     0.000 C 
ENDROOT
BRANCH   1   2
ATOM      2  C   UNL     1     -14.359  -8.932  -7.036  1.00  0.00     0.000 C 
BRANCH   2   3
ATOM      3  C   UNL     1     -15.116  -7.739  -7.636  1.00  0.00     0.000 C 
BRANCH   3   4
ATOM      4  C   UNL     1     -16.633  -7.969  -7.582  1.00  0.00     0.000 C 
BRANCH   4   5
ATOM      5  C   UNL     1     -17.021  -9.320  -6.951  1.00  0.00     0.000 C 
BRANCH   5   6
ATOM      6  C   UNL     1     -18.138 -10.085  -7.684  1.00  0.00     0.000 C 
BRANCH   6   7
ATOM      7  C   UNL     1     -18.832  -9.245  -8.771  1.00  0.00     0.000 C 
BRANCH   7   8
ATOM      8  C   UNL     1     -18.315  -9.566 -10.183  1.00  0.00     0.000 C 
BRANCH   8   9
ATOM      9  C   UNL     1     -19.304 -10.428 -10.987  1.00  0.00     0.000 C 
BRANCH   9  10
ATOM     10  C   UNL     1     -18.683 -11.742 -11.490  1.00  0.00     0.000 C 
BRANCH  10  11
ATOM     11  C   UNL     1     -17.215 -11.598 -11.947  1.00  0.00     0.000 C 
BRANCH  11  12
ATOM     12  C   UNL     1     -16.230 -12.209 -10.935  1.00  0.00     0.000 C 
BRANCH  12  13
ATOM     13  C   UNL     1     -15.471 -11.148 -10.116  1.00  0.00     0.006 C 
BRANCH  13  14
ATOM     14  C   UNL     1     -14.451 -11.737  -9.127  1.00  0.00     0.053 C 
BRANCH  14  15
ATOM     15  C   UNL     1     -15.086 -12.610  -8.088  1.00  0.00     0.041 C 
ATOM     16  O   UNL     1     -15.349 -12.149  -6.945  1.00  0.00    -0.550 OA
ATOM     17  O   UNL     1     -15.352 -13.945  -8.372  1.00  0.00    -0.550 OA
ENDBRANCH  14  15
ENDBRANCH  13  14
ENDBRANCH  12  13
ENDBRANCH  11  12
ENDBRANCH  10  11
ENDBRANCH   9  10
ENDBRANCH   8   9
ENDBRANCH   7   8
ENDBRANCH   6   7
ENDBRANCH   5   6
ENDBRANCH   4   5
ENDBRANCH   3   4
ENDBRANCH   2   3
ENDBRANCH   1   2
BRANCH   1  18
ATOM     18  C   UNL     1     -12.019  -9.892  -6.421  1.00  0.00     0.000 C 
BRANCH  18  19
ATOM     19  C   UNL     1     -12.780 -10.701  -5.353  1.00  0.00     0.000 C 
BRANCH  19  20
ATOM     20  C   UNL     1     -11.907 -11.724  -4.596  1.00  0.00     0.000 C 
BRANCH  20  21
ATOM     21  C   UNL     1     -11.934 -11.519  -3.073  1.00  0.00     0.000 C 
BRANCH  21  22
ATOM     22  C   UNL     1     -10.909 -12.420  -2.376  1.00  0.00     0.000 C 
BRANCH  22  23
ATOM     23  C   UNL     1     -11.362 -12.768  -0.949  1.00  0.00     0.000 C 
BRANCH  23  24
ATOM     24  C   UNL     1     -10.187 -12.938   0.027  1.00  0.00    -0.000 C 
BRANCH  24  25
ATOM     25  C   UNL     1      -9.444 -11.621   0.301  1.00  0.00    -0.000 C 
BRANCH  25  26
ATOM     26  C   UNL     1      -7.973 -11.726  -0.129  1.00  0.00    -0.000 C 
BRANCH  26  27
ATOM     27  C   UNL     1      -7.718 -12.909  -1.076  1.00  0.00    -0.000 C 
BRANCH  27  28
ATOM     28  C   UNL     1      -6.494 -13.746  -0.662  1.00  0.00    -0.000 C 
BRANCH  28  29
ATOM     29  C   UNL     1      -6.555 -15.185  -1.215  1.00  0.00    -0.000 C 
BRANCH  29  30
ATOM     30  C   UNL     1      -7.986 -15.676  -1.495  1.00  0.00    -0.000 C 
BRANCH  30  31
ATOM     31  C   UNL     1      -8.063 -17.191  -1.727  1.00  0.00    -0.003 C 
ATOM     32  C   UNL     1      -7.215 -17.608  -2.924  1.00  0.00     0.004 C 
ENDBRANCH  30  31
ENDBRANCH  29  30
ENDBRANCH  28  29
ENDBRANCH  27  28
ENDBRANCH  26  27
ENDBRANCH  25  26
ENDBRANCH  24  25
ENDBRANCH  23  24
ENDBRANCH  22  23
ENDBRANCH  21  22
ENDBRANCH  20  21
ENDBRANCH  19  20
ENDBRANCH  18  19
ENDBRANCH   1  18
TORSDOF 28
ENDMDL
MODEL 8
REMARK VINA RESULT:    -5.713      5.244     12.096
REMARK INTER + INTRA:         -18.014
REMARK INTER:                 -15.772
REMARK INTRA:                  -2.242
REMARK UNBOUND:                -2.950
REMARK SMILES CCCCCCCCCCCCCCCCCCCCCCCCCCCCCC(=O)[O-]
REMARK SMILES IDX 16 1 17 2 18 3 19 4 20 5 21 6 22 7 23 8 24 9 25 10 26 11
REMARK SMILES IDX 27 12 28 13 29 14 30 15 31 16 32 17 15 18 14 19 13 20 12 21
REMARK SMILES IDX 11 22 10 23 9 24 8 25 7 26 6 27 5 28 4 29 3 30 2 31 1 32
REMARK H PARENT
REMARK Flexibility Score: inf
ROOT
ATOM      1  C   UNL     1     -12.596  -9.501  -6.922  1.00  0.00     0.000 C 
ENDROOT
BRANCH   1   2
ATOM      2  C   UNL     1     -12.851 -10.797  -6.129  1.00  0.00     0.000 C 
BRANCH   2   3
ATOM      3  C   UNL     1     -12.508 -10.668  -4.638  1.00  0.00     0.000 C 
BRANCH   3   4
ATOM      4  C   UNL     1     -11.536 -11.773  -4.201  1.00  0.00     0.000 C 
BRANCH   4   5
ATOM      5  C   UNL     1     -11.960 -12.474  -2.895  1.00  0.00     0.000 C 
BRANCH   5   6
ATOM      6  C   UNL     1     -11.227 -11.992  -1.629  1.00  0.00     0.000 C 
BRANCH   6   7
ATOM      7  C   UNL     1     -10.028 -12.880  -1.252  1.00  0.00     0.000 C 
BRANCH   7   8
ATOM      8  C   UNL     1      -9.399 -12.481   0.092  1.00  0.00     0.000 C 
BRANCH   8   9
ATOM      9  C   UNL     1      -9.718 -11.026   0.480  1.00  0.00     0.000 C 
BRANCH   9  10
ATOM     10  C   UNL     1      -8.461 -10.149   0.607  1.00  0.00     0.000 C 
BRANCH  10  11
ATOM     11  C   UNL     1      -8.756  -8.635   0.561  1.00  0.00     0.000 C 
BRANCH  11  12
ATOM     12  C   UNL     1      -7.590  -7.800   1.119  1.00  0.00     0.000 C 
BRANCH  12  13
ATOM     13  C   UNL     1      -6.419  -7.660   0.128  1.00  0.00     0.006 C 
BRANCH  13  14
ATOM     14  C   UNL     1      -6.638  -6.585  -0.949  1.00  0.00     0.053 C 
BRANCH  14  15
ATOM     15  C   UNL     1      -6.595  -5.193  -0.397  1.00  0.00     0.041 C 
ATOM     16  O   UNL     1      -7.623  -4.683   0.124  1.00  0.00    -0.550 OA
ATOM     17  O   UNL     1      -5.427  -4.443  -0.496  1.00  0.00    -0.550 OA
ENDBRANCH  14  15
ENDBRANCH  13  14
ENDBRANCH  12  13
ENDBRANCH  11  12
ENDBRANCH  10  11
ENDBRANCH   9  10
ENDBRANCH   8   9
ENDBRANCH   7   8
ENDBRANCH   6   7
ENDBRANCH   5   6
ENDBRANCH   4   5
ENDBRANCH   3   4
ENDBRANCH   2   3
ENDBRANCH   1   2
BRANCH   1  18
ATOM     18  C   UNL     1     -13.746  -8.476  -6.894  1.00  0.00     0.000 C 
BRANCH  18  19
ATOM     19  C   UNL     1     -14.841  -8.679  -7.958  1.00  0.00     0.000 C 
BRANCH  19  20
ATOM     20  C   UNL     1     -16.243  -8.205  -7.518  1.00  0.00     0.000 C 
BRANCH  20  21
ATOM     21  C   UNL     1     -17.218  -9.368  -7.281  1.00  0.00     0.000 C 
BRANCH  21  22
ATOM     22  C   UNL     1     -16.732 -10.275  -6.145  1.00  0.00     0.000 C 
BRANCH  22  23
ATOM     23  C   UNL     1     -16.605 -11.731  -6.618  1.00  0.00     0.000 C 
BRANCH  23  24
ATOM     24  C   UNL     1     -15.256 -12.027  -7.290  1.00  0.00    -0.000 C 
BRANCH  24  25
ATOM     25  C   UNL     1     -15.397 -12.866  -8.569  1.00  0.00    -0.000 C 
BRANCH  25  26
ATOM     26  C   UNL     1     -14.639 -12.213  -9.736  1.00  0.00    -0.000 C 
BRANCH  26  27
ATOM     27  C   UNL     1     -15.437 -11.077 -10.395  1.00  0.00    -0.000 C 
BRANCH  27  28
ATOM     28  C   UNL     1     -16.929 -11.418 -10.556  1.00  0.00    -0.000 C 
BRANCH  28  29
ATOM     29  C   UNL     1     -17.836 -10.188 -10.345  1.00  0.00    -0.000 C 
BRANCH  29  30
ATOM     30  C   UNL     1     -19.168 -10.267 -11.112  1.00  0.00    -0.000 C 
BRANCH  30  31
ATOM     31  C   UNL     1     -19.428 -11.655 -11.713  1.00  0.00    -0.003 C 
ATOM     32  C   UNL     1     -19.928 -11.547 -13.150  1.00  0.00     0.004 C 
ENDBRANCH  30  31
ENDBRANCH  29  30
ENDBRANCH  28  29
ENDBRANCH  27  28
ENDBRANCH  26  27
ENDBRANCH  25  26
ENDBRANCH  24  25
ENDBRANCH  23  24
ENDBRANCH  22  23
ENDBRANCH  21  22
ENDBRANCH  20  21
ENDBRANCH  19  20
ENDBRANCH  18  19
ENDBRANCH   1  18
TORSDOF 28
ENDMDL
MODEL 9
REMARK VINA RESULT:    -5.654      4.596     11.269
REMARK INTER + INTRA:         -17.860
REMARK INTER:                 -14.351
REMARK INTRA:                  -3.508
REMARK UNBOUND:                -2.950
REMARK SMILES CCCCCCCCCCCCCCCCCCCCCCCCCCCCCC(=O)[O-]
REMARK SMILES IDX 16 1 17 2 18 3 19 4 20 5 21 6 22 7 23 8 24 9 25 10 26 11
REMARK SMILES IDX 27 12 28 13 29 14 30 15 31 16 32 17 15 18 14 19 13 20 12 21
REMARK SMILES IDX 11 22 10 23 9 24 8 25 7 26 6 27 5 28 4 29 3 30 2 31 1 32
REMARK H PARENT
REMARK Flexibility Score: inf
ROOT
ATOM      1  C   UNL     1     -14.275  -8.799  -7.053  1.00  0.00     0.000 C 
ENDROOT
BRANCH   1   2
ATOM      2  C   UNL     1     -12.901  -9.476  -7.223  1.00  0.00     0.000 C 
BRANCH   2   3
ATOM      3  C   UNL     1     -12.200  -9.758  -5.887  1.00  0.00     0.000 C 
BRANCH   3   4
ATOM      4  C   UNL     1     -12.580 -11.146  -5.351  1.00  0.00     0.000 C 
BRANCH   4   5
ATOM      5  C   UNL     1     -11.543 -11.723  -4.367  1.00  0.00     0.000 C 
BRANCH   5   6
ATOM      6  C   UNL     1     -12.136 -12.407  -3.122  1.00  0.00     0.000 C 
BRANCH   6   7
ATOM      7  C   UNL     1     -11.161 -12.442  -1.932  1.00  0.00     0.000 C 
BRANCH   7   8
ATOM      8  C   UNL     1     -11.460 -11.350  -0.892  1.00  0.00     0.000 C 
BRANCH   8   9
ATOM      9  C   UNL     1     -10.273 -11.099   0.054  1.00  0.00     0.000 C 
BRANCH   9  10
ATOM     10  C   UNL     1      -9.381 -12.337   0.239  1.00  0.00     0.000 C 
BRANCH  10  11
ATOM     11  C   UNL     1      -7.937 -12.142  -0.272  1.00  0.00     0.000 C 
BRANCH  11  12
ATOM     12  C   UNL     1      -7.388 -13.406  -0.957  1.00  0.00     0.000 C 
BRANCH  12  13
ATOM     13  C   UNL     1      -8.391 -14.576  -0.958  1.00  0.00     0.006 C 
BRANCH  13  14
ATOM     14  C   UNL     1      -8.431 -15.361  -2.280  1.00  0.00     0.053 C 
BRANCH  14  15
ATOM     15  C   UNL     1      -7.698 -16.665  -2.203  1.00  0.00     0.041 C 
ATOM     16  O   UNL     1      -6.635 -16.837  -2.858  1.00  0.00    -0.550 OA
ATOM     17  O   UNL     1      -8.212 -17.707  -1.438  1.00  0.00    -0.550 OA
ENDBRANCH  14  15
ENDBRANCH  13  14
ENDBRANCH  12  13
ENDBRANCH  11  12
ENDBRANCH  10  11
ENDBRANCH   9  10
ENDBRANCH   8   9
ENDBRANCH   7   8
ENDBRANCH   6   7
ENDBRANCH   5   6
ENDBRANCH   4   5
ENDBRANCH   3   4
ENDBRANCH   2   3
ENDBRANCH   1   2
BRANCH   1  18
ATOM     18  C   UNL     1     -15.052  -8.550  -8.360  1.00  0.00     0.000 C 
BRANCH  18  19
ATOM     19  C   UNL     1     -16.554  -8.253  -8.191  1.00  0.00     0.000 C 
BRANCH  19  20
ATOM     20  C   UNL     1     -17.423  -8.701  -9.386  1.00  0.00     0.000 C 
BRANCH  20  21
ATOM     21  C   UNL     1     -18.862  -9.054  -8.978  1.00  0.00     0.000 C 
BRANCH  21  22
ATOM     22  C   UNL     1     -19.578  -9.827 -10.092  1.00  0.00     0.000 C 
BRANCH  22  23
ATOM     23  C   UNL     1     -18.748  -9.825 -11.385  1.00  0.00     0.000 C 
BRANCH  23  24
ATOM     24  C   UNL     1     -18.798 -11.169 -12.128  1.00  0.00    -0.000 C 
BRANCH  24  25
ATOM     25  C   UNL     1     -17.816 -12.204 -11.557  1.00  0.00    -0.000 C 
BRANCH  25  26
ATOM     26  C   UNL     1     -16.555 -11.516 -11.012  1.00  0.00    -0.000 C 
BRANCH  26  27
ATOM     27  C   UNL     1     -15.465 -12.520 -10.605  1.00  0.00    -0.000 C 
BRANCH  27  28
ATOM     28  C   UNL     1     -14.529 -11.967  -9.515  1.00  0.00    -0.000 C 
BRANCH  28  29
ATOM     29  C   UNL     1     -14.936 -12.436  -8.102  1.00  0.00    -0.000 C 
BRANCH  29  30
ATOM     30  C   UNL     1     -16.288 -11.872  -7.633  1.00  0.00    -0.000 C 
BRANCH  30  31
ATOM     31  C   UNL     1     -16.303 -11.521  -6.139  1.00  0.00    -0.003 C 
ATOM     32  C   UNL     1     -17.372 -10.478  -5.829  1.00  0.00     0.004 C 
ENDBRANCH  30  31
ENDBRANCH  29  30
ENDBRANCH  28  29
ENDBRANCH  27  28
ENDBRANCH  26  27
ENDBRANCH  25  26
ENDBRANCH  24  25
ENDBRANCH  23  24
ENDBRANCH  22  23
ENDBRANCH  21  22
ENDBRANCH  20  21
ENDBRANCH  19  20
ENDBRANCH  18  19
ENDBRANCH   1  18
TORSDOF 28
ENDMDL
