MODEL 1
REMARK VINA RESULT:    -2.962      0.000      0.000
REMARK INTER + INTRA:          -2.962
REMARK INTER:                  -2.962
REMARK INTRA:                   0.000
REMARK UNBOUND:                 0.000
REMARK SMILES CC1(C)O[C@]2(C)CC[C@H]1CC2
REMARK SMILES IDX 1 1 2 2 9 3 10 4 11 5 5 6 4 7 7 8 8 9 6 10 3 11
REMARK H PARENT
REMARK Flexibility Score: inf
ROOT
ATOM      1  C   UNL     1     -25.679  57.719  34.791  1.00  0.00     0.042 C 
ATOM      2  C   UNL     1     -26.767  57.379  35.832  1.00  0.00     0.066 C 
ATOM      3  C   UNL     1     -26.140  57.259  37.275  1.00  0.00     0.021 C 
ATOM      4  C   UNL     1     -25.557  58.636  37.672  1.00  0.00     0.009 C 
ATOM      5  C   UNL     1     -26.639  59.724  37.469  1.00  0.00     0.035 C 
ATOM      6  C   UNL     1     -27.975  59.061  37.023  1.00  0.00     0.066 C 
ATOM      7  O   UNL     1     -27.775  58.398  35.773  1.00  0.00    -0.369 OA
ATOM      8  C   UNL     1     -28.402  58.016  38.093  1.00  0.00     0.035 C 
ATOM      9  C   UNL     1     -27.279  56.969  38.281  1.00  0.00     0.009 C 
ATOM     10  C   UNL     1     -29.065  60.123  36.850  1.00  0.00     0.042 C 
ATOM     11  C   UNL     1     -27.410  56.042  35.404  1.00  0.00     0.042 C 
ENDROOT
TORSDOF 0
ENDMDL
MODEL 2
REMARK VINA RESULT:    -2.933      1.474      2.653
REMARK INTER + INTRA:          -2.933
REMARK INTER:                  -2.933
REMARK INTRA:                   0.000
REMARK UNBOUND:                 0.000
REMARK SMILES CC1(C)O[C@]2(C)CC[C@H]1CC2
REMARK SMILES IDX 1 1 2 2 9 3 10 4 11 5 5 6 4 7 7 8 8 9 6 10 3 11
REMARK H PARENT
REMARK Flexibility Score: inf
ROOT
ATOM      1  C   UNL     1     -26.158  57.157  38.362  1.00  0.00     0.042 C 
ATOM      2  C   UNL     1     -27.404  57.891  37.820  1.00  0.00     0.066 C 
ATOM      3  C   UNL     1     -27.321  59.435  38.132  1.00  0.00     0.021 C 
ATOM      4  C   UNL     1     -26.099  60.021  37.385  1.00  0.00     0.009 C 
ATOM      5  C   UNL     1     -26.170  59.611  35.894  1.00  0.00     0.035 C 
ATOM      6  C   UNL     1     -27.488  58.829  35.625  1.00  0.00     0.066 C 
ATOM      7  O   UNL     1     -27.495  57.636  36.411  1.00  0.00    -0.369 OA
ATOM      8  C   UNL     1     -28.696  59.719  36.036  1.00  0.00     0.035 C 
ATOM      9  C   UNL     1     -28.566  60.125  37.524  1.00  0.00     0.009 C 
ATOM     10  C   UNL     1     -27.588  58.446  34.145  1.00  0.00     0.042 C 
ATOM     11  C   UNL     1     -28.639  57.262  38.501  1.00  0.00     0.042 C 
ENDROOT
TORSDOF 0
ENDMDL
MODEL 3
REMARK VINA RESULT:    -2.843      7.738      9.349
REMARK INTER + INTRA:          -2.843
REMARK INTER:                  -2.843
REMARK INTRA:                   0.000
REMARK UNBOUND:                 0.000
REMARK SMILES CC1(C)O[C@]2(C)CC[C@H]1CC2
REMARK SMILES IDX 1 1 2 2 9 3 10 4 11 5 5 6 4 7 7 8 8 9 6 10 3 11
REMARK H PARENT
REMARK Flexibility Score: inf
ROOT
ATOM      1  C   UNL     1     -24.178  52.643  46.288  1.00  0.00     0.042 C 
ATOM      2  C   UNL     1     -24.698  52.492  44.842  1.00  0.00     0.066 C 
ATOM      3  C   UNL     1     -26.274  52.559  44.806  1.00  0.00     0.021 C 
ATOM      4  C   UNL     1     -26.717  53.958  45.295  1.00  0.00     0.009 C 
ATOM      5  C   UNL     1     -25.953  55.041  44.495  1.00  0.00     0.035 C 
ATOM      6  C   UNL     1     -25.067  54.366  43.408  1.00  0.00     0.066 C 
ATOM      7  O   UNL     1     -24.103  53.525  44.044  1.00  0.00    -0.369 OA
ATOM      8  C   UNL     1     -25.972  53.500  42.486  1.00  0.00     0.035 C 
ATOM      9  C   UNL     1     -26.735  52.454  43.333  1.00  0.00     0.009 C 
ATOM     10  C   UNL     1     -24.331  55.429  42.586  1.00  0.00     0.042 C 
ATOM     11  C   UNL     1     -24.197  51.130  44.314  1.00  0.00     0.042 C 
ENDROOT
TORSDOF 0
ENDMDL
MODEL 4
REMARK VINA RESULT:    -2.840      8.106      9.885
REMARK INTER + INTRA:          -2.840
REMARK INTER:                  -2.840
REMARK INTRA:                   0.000
REMARK UNBOUND:                 0.000
REMARK SMILES CC1(C)O[C@]2(C)CC[C@H]1CC2
REMARK SMILES IDX 1 1 2 2 9 3 10 4 11 5 5 6 4 7 7 8 8 9 6 10 3 11
REMARK H PARENT
REMARK Flexibility Score: inf
ROOT
ATOM      1  C   UNL     1     -25.560  53.772  42.191  1.00  0.00     0.042 C 
ATOM      2  C   UNL     1     -25.310  54.120  43.675  1.00  0.00     0.066 C 
ATOM      3  C   UNL     1     -26.645  54.001  44.508  1.00  0.00     0.021 C 
ATOM      4  C   UNL     1     -27.117  52.528  44.469  1.00  0.00     0.009 C 
ATOM      5  C   UNL     1     -25.946  51.608  44.889  1.00  0.00     0.035 C 
ATOM      6  C   UNL     1     -24.718  52.471  45.298  1.00  0.00     0.066 C 
ATOM      7  O   UNL     1     -24.291  53.243  44.174  1.00  0.00    -0.369 OA
ATOM      8  C   UNL     1     -25.136  53.432  46.448  1.00  0.00     0.035 C 
ATOM      9  C   UNL     1     -26.326  54.310  45.990  1.00  0.00     0.009 C 
ATOM     10  C   UNL     1     -23.562  51.573  45.749  1.00  0.00     0.042 C 
ATOM     11  C   UNL     1     -24.765  55.564  43.722  1.00  0.00     0.042 C 
ENDROOT
TORSDOF 0
ENDMDL
MODEL 5
REMARK VINA RESULT:    -2.833      7.996      9.585
REMARK INTER + INTRA:          -2.833
REMARK INTER:                  -2.833
REMARK INTRA:                   0.000
REMARK UNBOUND:                 0.000
REMARK SMILES CC1(C)O[C@]2(C)CC[C@H]1CC2
REMARK SMILES IDX 1 1 2 2 9 3 10 4 11 5 5 6 4 7 7 8 8 9 6 10 3 11
REMARK H PARENT
REMARK Flexibility Score: inf
ROOT
ATOM      1  C   UNL     1     -25.226  50.871  45.498  1.00  0.00     0.042 C 
ATOM      2  C   UNL     1     -24.966  51.863  44.344  1.00  0.00     0.066 C 
ATOM      3  C   UNL     1     -26.280  52.094  43.501  1.00  0.00     0.021 C 
ATOM      4  C   UNL     1     -27.342  52.746  44.418  1.00  0.00     0.009 C 
ATOM      5  C   UNL     1     -26.726  53.987  45.108  1.00  0.00     0.035 C 
ATOM      6  C   UNL     1     -25.280  54.219  44.581  1.00  0.00     0.066 C 
ATOM      7  O   UNL     1     -24.474  53.086  44.909  1.00  0.00    -0.369 OA
ATOM      8  C   UNL     1     -25.326  54.383  43.035  1.00  0.00     0.035 C 
ATOM      9  C   UNL     1     -25.975  53.132  42.394  1.00  0.00     0.009 C 
ATOM     10  C   UNL     1     -24.670  55.465  45.231  1.00  0.00     0.042 C 
ATOM     11  C   UNL     1     -23.851  51.260  43.462  1.00  0.00     0.042 C 
ENDROOT
TORSDOF 0
ENDMDL
MODEL 6
REMARK VINA RESULT:    -2.756      7.979      9.608
REMARK INTER + INTRA:          -2.756
REMARK INTER:                  -2.756
REMARK INTRA:                   0.000
REMARK UNBOUND:                 0.000
REMARK SMILES CC1(C)O[C@]2(C)CC[C@H]1CC2
REMARK SMILES IDX 1 1 2 2 9 3 10 4 11 5 5 6 4 7 7 8 8 9 6 10 3 11
REMARK H PARENT
REMARK Flexibility Score: inf
ROOT
ATOM      1  C   UNL     1     -22.915  53.342  44.683  1.00  0.00     0.042 C 
ATOM      2  C   UNL     1     -24.385  52.992  45.001  1.00  0.00     0.066 C 
ATOM      3  C   UNL     1     -25.310  54.259  44.830  1.00  0.00     0.021 C 
ATOM      4  C   UNL     1     -25.267  54.699  43.347  1.00  0.00     0.009 C 
ATOM      5  C   UNL     1     -25.578  53.480  42.445  1.00  0.00     0.035 C 
ATOM      6  C   UNL     1     -25.918  52.245  43.329  1.00  0.00     0.066 C 
ATOM      7  O   UNL     1     -24.786  51.920  44.137  1.00  0.00    -0.369 OA
ATOM      8  C   UNL     1     -27.119  52.600  44.252  1.00  0.00     0.035 C 
ATOM      9  C   UNL     1     -26.772  53.839  45.111  1.00  0.00     0.009 C 
ATOM     10  C   UNL     1     -26.261  51.039  42.449  1.00  0.00     0.042 C 
ATOM     11  C   UNL     1     -24.429  52.478  46.457  1.00  0.00     0.042 C 
ENDROOT
TORSDOF 0
ENDMDL
MODEL 7
REMARK VINA RESULT:    -2.714      8.065      9.673
REMARK INTER + INTRA:          -2.714
REMARK INTER:                  -2.714
REMARK INTRA:                   0.000
REMARK UNBOUND:                 0.000
REMARK SMILES CC1(C)O[C@]2(C)CC[C@H]1CC2
REMARK SMILES IDX 1 1 2 2 9 3 10 4 11 5 5 6 4 7 7 8 8 9 6 10 3 11
REMARK H PARENT
REMARK Flexibility Score: inf
ROOT
ATOM      1  C   UNL     1     -24.810  55.489  43.650  1.00  0.00     0.042 C 
ATOM      2  C   UNL     1     -25.568  54.306  44.292  1.00  0.00     0.066 C 
ATOM      3  C   UNL     1     -26.304  53.452  43.189  1.00  0.00     0.021 C 
ATOM      4  C   UNL     1     -25.238  52.841  42.249  1.00  0.00     0.009 C 
ATOM      5  C   UNL     1     -24.168  52.113  43.099  1.00  0.00     0.035 C 
ATOM      6  C   UNL     1     -24.569  52.159  44.602  1.00  0.00     0.066 C 
ATOM      7  O   UNL     1     -24.623  53.520  45.032  1.00  0.00    -0.369 OA
ATOM      8  C   UNL     1     -25.975  51.514  44.770  1.00  0.00     0.035 C 
ATOM      9  C   UNL     1     -27.001  52.256  43.881  1.00  0.00     0.009 C 
ATOM     10  C   UNL     1     -23.536  51.413  45.452  1.00  0.00     0.042 C 
ATOM     11  C   UNL     1     -26.584  54.901  45.291  1.00  0.00     0.042 C 
ENDROOT
TORSDOF 0
ENDMDL
MODEL 8
REMARK VINA RESULT:    -2.710      6.885      8.695
REMARK INTER + INTRA:          -2.710
REMARK INTER:                  -2.710
REMARK INTRA:                   0.000
REMARK UNBOUND:                 0.000
REMARK SMILES CC1(C)O[C@]2(C)CC[C@H]1CC2
REMARK SMILES IDX 1 1 2 2 9 3 10 4 11 5 5 6 4 7 7 8 8 9 6 10 3 11
REMARK H PARENT
REMARK Flexibility Score: inf
ROOT
ATOM      1  C   UNL     1     -26.891  48.930  31.744  1.00  0.00     0.042 C 
ATOM      2  C   UNL     1     -28.200  49.727  31.935  1.00  0.00     0.066 C 
ATOM      3  C   UNL     1     -28.820  49.447  33.359  1.00  0.00     0.021 C 
ATOM      4  C   UNL     1     -27.828  49.955  34.433  1.00  0.00     0.009 C 
ATOM      5  C   UNL     1     -27.439  51.419  34.115  1.00  0.00     0.035 C 
ATOM      6  C   UNL     1     -28.242  51.920  32.880  1.00  0.00     0.066 C 
ATOM      7  O   UNL     1     -27.908  51.118  31.746  1.00  0.00    -0.369 OA
ATOM      8  C   UNL     1     -29.763  51.779  33.174  1.00  0.00     0.035 C 
ATOM      9  C   UNL     1     -30.097  50.307  33.514  1.00  0.00     0.009 C 
ATOM     10  C   UNL     1     -27.892  53.380  32.573  1.00  0.00     0.042 C 
ATOM     11  C   UNL     1     -29.173  49.285  30.821  1.00  0.00     0.042 C 
ENDROOT
TORSDOF 0
ENDMDL
MODEL 9
REMARK VINA RESULT:    -2.675      7.574      9.010
REMARK INTER + INTRA:          -2.675
REMARK INTER:                  -2.675
REMARK INTRA:                   0.000
REMARK UNBOUND:                 0.000
REMARK SMILES CC1(C)O[C@]2(C)CC[C@H]1CC2
REMARK SMILES IDX 1 1 2 2 9 3 10 4 11 5 5 6 4 7 7 8 8 9 6 10 3 11
REMARK H PARENT
REMARK Flexibility Score: inf
ROOT
ATOM      1  C   UNL     1     -23.402  53.940  42.686  1.00  0.00     0.042 C 
ATOM      2  C   UNL     1     -24.878  53.543  42.907  1.00  0.00     0.066 C 
ATOM      3  C   UNL     1     -24.981  52.080  43.488  1.00  0.00     0.021 C 
ATOM      4  C   UNL     1     -24.300  52.055  44.877  1.00  0.00     0.009 C 
ATOM      5  C   UNL     1     -24.880  53.196  45.748  1.00  0.00     0.035 C 
ATOM      6  C   UNL     1     -26.014  53.926  44.972  1.00  0.00     0.066 C 
ATOM      7  O   UNL     1     -25.472  54.508  43.786  1.00  0.00    -0.369 OA
ATOM      8  C   UNL     1     -27.106  52.889  44.580  1.00  0.00     0.035 C 
ATOM      9  C   UNL     1     -26.473  51.756  43.736  1.00  0.00     0.009 C 
ATOM     10  C   UNL     1     -26.621  55.036  45.836  1.00  0.00     0.042 C 
ATOM     11  C   UNL     1     -25.588  53.638  41.539  1.00  0.00     0.042 C 
ENDROOT
TORSDOF 0
ENDMDL
