MODEL 1
REMARK VINA RESULT:    71.148      0.000      0.000
REMARK INTER + INTRA:         120.098
REMARK INTER:                 116.901
REMARK INTRA:                   3.197
REMARK UNBOUND:                 3.197
REMARK SMILES COc1ccc([C@H]2CC(=O)c3c(O)cc(O[C@H]4O[C@@H](CO[C@H]5O[C@H](C)[C@H](O)[C@@H](O)[C@H]5O)[C@H](O)[C@H](O)[C@H]4O)cc3O2)cc1O
REMARK SMILES IDX 19 1 32 2 34 3 36 4 17 5 18 6 20 7 21 8 22 9 25 10 24 11
REMARK SMILES IDX 26 12 23 13 28 14 30 15 27 16 29 18 31 20 33 22 35 24 16 26
REMARK SMILES IDX 15 27 14 28 38 29 12 30 39 31 11 32 40 33 9 34 7 35 10 36
REMARK SMILES IDX 8 37 13 38 6 40 41 41 5 42 42 43 4 44 3 45 43 46 2 48 1 49
REMARK SMILES IDX 37 50
REMARK H PARENT 27 17 29 19 31 21 33 23 35 25 13 39 43 47 37 51
REMARK Flexibility Score: inf
ROOT
ATOM      1  C   UNL     1      11.126  77.695   3.920  1.00  0.00     0.180 C 
ATOM      2  C   UNL     1       9.640  77.361   3.688  1.00  0.00     0.177 C 
ATOM      3  C   UNL     1       9.269  75.993   4.310  1.00  0.00     0.180 C 
ATOM      4  C   UNL     1       9.795  75.885   5.779  1.00  0.00     0.214 C 
ATOM      5  C   UNL     1      11.239  76.416   5.948  1.00  0.00     0.339 C 
ATOM      6  O   UNL     1      11.464  77.662   5.300  1.00  0.00    -0.332 OA
ENDROOT
BRANCH   1   7
ATOM      7  C   UNL     1      12.076  76.872   3.030  1.00  0.00     0.198 C 
BRANCH   7   8
ATOM      8  O   UNL     1      11.477  76.697   1.762  1.00  0.00    -0.347 OA
BRANCH   8   9
ATOM      9  C   UNL     1      11.115  75.345   1.449  1.00  0.00     0.281 C 
ATOM     10  C   UNL     1       8.007  75.055  -0.583  1.00  0.00     0.041 C 
ATOM     11  C   UNL     1       9.515  75.173  -0.311  1.00  0.00     0.150 C 
ATOM     12  C   UNL     1      10.323  74.065  -1.019  1.00  0.00     0.174 C 
ATOM     13  O   UNL     1       9.743  75.135   1.086  1.00  0.00    -0.344 OA
ATOM     14  C   UNL     1      11.791  74.447  -0.932  1.00  0.00     0.179 C 
ATOM     15  C   UNL     1      12.208  74.697   0.534  1.00  0.00     0.202 C 
BRANCH  12  16
ATOM     16  O   UNL     1      10.118  72.811  -0.418  1.00  0.00    -0.388 OA
ATOM     17  H   UNL     1       9.338  72.885   0.196  1.00  0.00     0.211 HD
ENDBRANCH  12  16
BRANCH  14  18
ATOM     18  O   UNL     1      12.031  75.594  -1.720  1.00  0.00    -0.387 OA
ATOM     19  H   UNL     1      11.151  76.034  -1.857  1.00  0.00     0.211 HD
ENDBRANCH  14  18
BRANCH  15  20
ATOM     20  O   UNL     1      13.387  75.477   0.579  1.00  0.00    -0.385 OA
ATOM     21  H   UNL     1      13.469  75.859   1.497  1.00  0.00     0.211 HD
ENDBRANCH  15  20
ENDBRANCH   8   9
ENDBRANCH   7   8
ENDBRANCH   1   7
BRANCH   2  22
ATOM     22  O   UNL     1       8.841  78.421   4.171  1.00  0.00    -0.387 OA
ATOM     23  H   UNL     1       8.075  78.556   3.555  1.00  0.00     0.211 HD
ENDBRANCH   2  22
BRANCH   3  24
ATOM     24  O   UNL     1       7.865  75.834   4.227  1.00  0.00    -0.387 OA
ATOM     25  H   UNL     1       7.434  76.421   4.907  1.00  0.00     0.211 HD
ENDBRANCH   3  24
BRANCH   5  26
ATOM     26  O   UNL     1      12.222  75.419   5.609  1.00  0.00    -0.462 OA
BRANCH  26  27
ATOM     27  C   UNL     1      12.014  74.027   5.563  1.00  0.00     0.130 A 
ATOM     28  C   UNL     1      12.984  73.173   6.126  1.00  0.00     0.093 A 
ATOM     29  C   UNL     1      10.837  73.453   5.032  1.00  0.00     0.094 A 
ATOM     30  C   UNL     1      12.837  71.778   6.043  1.00  0.00     0.133 A 
ATOM     31  C   UNL     1      10.647  72.075   5.043  1.00  0.00     0.138 A 
ATOM     32  C   UNL     1      11.669  71.219   5.478  1.00  0.00     0.102 A 
ATOM     33  O   UNL     1       9.416  71.564   4.616  1.00  0.00    -0.484 OA
ATOM     34  C   UNL     1      11.476  69.777   5.293  1.00  0.00     0.174 C 
ATOM     35  C   UNL     1       9.183  70.176   4.323  1.00  0.00     0.211 C 
ATOM     36  O   UNL     1      12.461  68.992   5.272  1.00  0.00    -0.294 OA
ATOM     37  C   UNL     1      10.104  69.230   5.110  1.00  0.00     0.131 C 
BRANCH  30  38
ATOM     38  O   UNL     1      13.850  70.939   6.513  1.00  0.00    -0.507 OA
ATOM     39  H   UNL     1      13.727  69.932   6.558  1.00  0.00     0.293 HD
ENDBRANCH  30  38
BRANCH  35  40
ATOM     40  C   UNL     1       9.251  69.944   2.830  1.00  0.00    -0.003 A 
ATOM     41  C   UNL     1       8.634  70.824   1.920  1.00  0.00     0.057 A 
ATOM     42  C   UNL     1       9.852  68.776   2.342  1.00  0.00     0.011 A 
ATOM     43  C   UNL     1       8.515  70.490   0.567  1.00  0.00     0.158 A 
ATOM     44  C   UNL     1       9.755  68.458   0.987  1.00  0.00     0.051 A 
ATOM     45  C   UNL     1       9.058  69.288   0.095  1.00  0.00     0.160 A 
BRANCH  43  46
ATOM     46  O   UNL     1       7.844  71.367  -0.280  1.00  0.00    -0.504 OA
ATOM     47  H   UNL     1       7.472  71.083  -1.176  1.00  0.00     0.293 HD
ENDBRANCH  43  46
BRANCH  45  48
ATOM     48  O   UNL     1       8.873  68.945  -1.253  1.00  0.00    -0.493 OA
ATOM     49  C   UNL     1       7.692  68.378  -1.779  1.00  0.00     0.278 C 
ENDBRANCH  45  48
ENDBRANCH  35  40
ENDBRANCH  26  27
ENDBRANCH   5  26
BRANCH   4  50
ATOM     50  O   UNL     1       9.762  74.548   6.222  1.00  0.00    -0.384 OA
ATOM     51  H   UNL     1       9.771  74.562   7.209  1.00  0.00     0.211 HD
ENDBRANCH   4  50
TORSDOF 15
ENDMDL
MODEL 2
REMARK VINA RESULT:    73.164      1.685      2.702
REMARK INTER + INTRA:         123.409
REMARK INTER:                 123.999
REMARK INTRA:                  -0.590
REMARK UNBOUND:                 3.197
REMARK SMILES COc1ccc([C@H]2CC(=O)c3c(O)cc(O[C@H]4O[C@@H](CO[C@H]5O[C@H](C)[C@H](O)[C@@H](O)[C@H]5O)[C@H](O)[C@H](O)[C@H]4O)cc3O2)cc1O
REMARK SMILES IDX 19 1 32 2 34 3 36 4 17 5 18 6 20 7 21 8 22 9 25 10 24 11
REMARK SMILES IDX 26 12 23 13 28 14 30 15 27 16 29 18 31 20 33 22 35 24 16 26
REMARK SMILES IDX 15 27 14 28 38 29 12 30 39 31 11 32 40 33 9 34 7 35 10 36
REMARK SMILES IDX 8 37 13 38 6 40 41 41 5 42 42 43 4 44 3 45 43 46 2 48 1 49
REMARK SMILES IDX 37 50
REMARK H PARENT 27 17 29 19 31 21 33 23 35 25 13 39 43 47 37 51
REMARK Flexibility Score: inf
ROOT
ATOM      1  C   UNL     1      11.852  76.617   4.510  1.00  0.00     0.180 C 
ATOM      2  C   UNL     1      11.058  77.927   4.337  1.00  0.00     0.177 C 
ATOM      3  C   UNL     1       9.535  77.654   4.273  1.00  0.00     0.180 C 
ATOM      4  C   UNL     1       9.087  76.706   5.433  1.00  0.00     0.214 C 
ATOM      5  C   UNL     1      10.050  75.515   5.651  1.00  0.00     0.339 C 
ATOM      6  O   UNL     1      11.423  75.889   5.653  1.00  0.00    -0.332 OA
ENDROOT
BRANCH   1   7
ATOM      7  C   UNL     1      11.912  75.773   3.224  1.00  0.00     0.198 C 
BRANCH   7   8
ATOM      8  O   UNL     1      10.714  75.961   2.498  1.00  0.00    -0.347 OA
BRANCH   8   9
ATOM      9  C   UNL     1      10.884  76.087   1.080  1.00  0.00     0.281 C 
ATOM     10  C   UNL     1      13.517  73.854  -0.320  1.00  0.00     0.041 C 
ATOM     11  C   UNL     1      12.104  74.284   0.106  1.00  0.00     0.150 C 
ATOM     12  C   UNL     1      11.078  74.129  -1.037  1.00  0.00     0.174 C 
ATOM     13  O   UNL     1      12.139  75.625   0.559  1.00  0.00    -0.344 OA
ATOM     14  C   UNL     1       9.694  74.290  -0.432  1.00  0.00     0.179 C 
ATOM     15  C   UNL     1       9.585  75.622   0.341  1.00  0.00     0.202 C 
BRANCH  12  16
ATOM     16  O   UNL     1      11.275  75.090  -2.044  1.00  0.00    -0.388 OA
ATOM     17  H   UNL     1      12.236  75.352  -2.038  1.00  0.00     0.211 HD
ENDBRANCH  12  16
BRANCH  14  18
ATOM     18  O   UNL     1       9.417  73.196   0.419  1.00  0.00    -0.387 OA
ATOM     19  H   UNL     1       9.580  72.373  -0.115  1.00  0.00     0.211 HD
ENDBRANCH  14  18
BRANCH  15  20
ATOM     20  O   UNL     1       8.511  75.564   1.261  1.00  0.00    -0.385 OA
ATOM     21  H   UNL     1       7.840  74.916   0.909  1.00  0.00     0.211 HD
ENDBRANCH  15  20
ENDBRANCH   8   9
ENDBRANCH   7   8
ENDBRANCH   1   7
BRANCH   2  22
ATOM     22  O   UNL     1      11.414  78.829   5.363  1.00  0.00    -0.387 OA
ATOM     23  H   UNL     1      11.314  79.758   5.027  1.00  0.00     0.211 HD
ENDBRANCH   2  22
BRANCH   3  24
ATOM     24  O   UNL     1       8.861  78.899   4.302  1.00  0.00    -0.387 OA
ATOM     25  H   UNL     1       8.190  78.917   3.566  1.00  0.00     0.211 HD
ENDBRANCH   3  24
BRANCH   5  26
ATOM     26  O   UNL     1       9.765  74.422   4.757  1.00  0.00    -0.462 OA
BRANCH  26  27
ATOM     27  C   UNL     1      10.080  73.067   4.970  1.00  0.00     0.130 A 
ATOM     28  C   UNL     1      11.390  72.724   5.363  1.00  0.00     0.093 A 
ATOM     29  C   UNL     1       9.116  72.039   4.870  1.00  0.00     0.094 A 
ATOM     30  C   UNL     1      11.754  71.377   5.525  1.00  0.00     0.133 A 
ATOM     31  C   UNL     1       9.454  70.715   5.130  1.00  0.00     0.138 A 
ATOM     32  C   UNL     1      10.784  70.358   5.388  1.00  0.00     0.102 A 
ATOM     33  O   UNL     1       8.438  69.752   5.135  1.00  0.00    -0.484 OA
ATOM     34  C   UNL     1      11.103  68.928   5.472  1.00  0.00     0.174 C 
ATOM     35  C   UNL     1       8.678  68.335   5.120  1.00  0.00     0.211 C 
ATOM     36  O   UNL     1      12.282  68.519   5.296  1.00  0.00    -0.294 OA
ATOM     37  C   UNL     1      10.024  67.943   5.752  1.00  0.00     0.131 C 
BRANCH  30  38
ATOM     38  O   UNL     1      13.078  71.040   5.815  1.00  0.00    -0.507 OA
ATOM     39  H   UNL     1      13.504  71.281   6.706  1.00  0.00     0.293 HD
ENDBRANCH  30  38
BRANCH  35  40
ATOM     40  C   UNL     1       8.520  67.798   3.715  1.00  0.00    -0.003 A 
ATOM     41  C   UNL     1       7.532  66.845   3.399  1.00  0.00     0.057 A 
ATOM     42  C   UNL     1       9.436  68.176   2.725  1.00  0.00     0.011 A 
ATOM     43  C   UNL     1       7.530  66.196   2.160  1.00  0.00     0.158 A 
ATOM     44  C   UNL     1       9.416  67.547   1.480  1.00  0.00     0.051 A 
ATOM     45  C   UNL     1       8.492  66.529   1.197  1.00  0.00     0.160 A 
BRANCH  43  46
ATOM     46  O   UNL     1       6.568  65.218   1.920  1.00  0.00    -0.504 OA
ATOM     47  H   UNL     1       6.661  64.269   2.255  1.00  0.00     0.293 HD
ENDBRANCH  43  46
BRANCH  45  48
ATOM     48  O   UNL     1       8.509  65.821  -0.014  1.00  0.00    -0.493 OA
ATOM     49  C   UNL     1       7.667  66.095  -1.114  1.00  0.00     0.278 C 
ENDBRANCH  45  48
ENDBRANCH  35  40
ENDBRANCH  26  27
ENDBRANCH   5  26
BRANCH   4  50
ATOM     50  O   UNL     1       7.798  76.193   5.185  1.00  0.00    -0.384 OA
ATOM     51  H   UNL     1       7.875  75.543   4.446  1.00  0.00     0.211 HD
ENDBRANCH   4  50
TORSDOF 15
ENDMDL
MODEL 3
REMARK VINA RESULT:    73.164      3.793      6.484
REMARK INTER + INTRA:         123.409
REMARK INTER:                 118.645
REMARK INTRA:                   4.764
REMARK UNBOUND:                 3.197
REMARK SMILES COc1ccc([C@H]2CC(=O)c3c(O)cc(O[C@H]4O[C@@H](CO[C@H]5O[C@H](C)[C@H](O)[C@@H](O)[C@H]5O)[C@H](O)[C@H](O)[C@H]4O)cc3O2)cc1O
REMARK SMILES IDX 19 1 32 2 34 3 36 4 17 5 18 6 20 7 21 8 22 9 25 10 24 11
REMARK SMILES IDX 26 12 23 13 28 14 30 15 27 16 29 18 31 20 33 22 35 24 16 26
REMARK SMILES IDX 15 27 14 28 38 29 12 30 39 31 11 32 40 33 9 34 7 35 10 36
REMARK SMILES IDX 8 37 13 38 6 40 41 41 5 42 42 43 4 44 3 45 43 46 2 48 1 49
REMARK SMILES IDX 37 50
REMARK H PARENT 27 17 29 19 31 21 33 23 35 25 13 39 43 47 37 51
REMARK Flexibility Score: inf
ROOT
ATOM      1  C   UNL     1       8.206  79.416   5.114  1.00  0.00     0.180 C 
ATOM      2  C   UNL     1       9.412  79.990   5.884  1.00  0.00     0.177 C 
ATOM      3  C   UNL     1      10.488  78.905   6.130  1.00  0.00     0.180 C 
ATOM      4  C   UNL     1      10.801  78.119   4.814  1.00  0.00     0.214 C 
ATOM      5  C   UNL     1       9.531  77.743   4.014  1.00  0.00     0.339 C 
ATOM      6  O   UNL     1       8.602  78.814   3.889  1.00  0.00    -0.332 OA
ENDROOT
BRANCH   1   7
ATOM      7  C   UNL     1       7.307  78.518   5.983  1.00  0.00     0.198 C 
BRANCH   7   8
ATOM      8  O   UNL     1       6.004  79.065   6.009  1.00  0.00    -0.347 OA
BRANCH   8   9
ATOM      9  C   UNL     1       5.222  78.700   7.154  1.00  0.00     0.281 C 
ATOM     10  C   UNL     1       5.466  81.125   9.972  1.00  0.00     0.041 C 
ATOM     11  C   UNL     1       4.896  80.494   8.692  1.00  0.00     0.150 C 
ATOM     12  C   UNL     1       3.386  80.195   8.813  1.00  0.00     0.174 C 
ATOM     13  O   UNL     1       5.611  79.309   8.395  1.00  0.00    -0.344 OA
ATOM     14  C   UNL     1       2.875  79.864   7.421  1.00  0.00     0.179 C 
ATOM     15  C   UNL     1       3.699  78.719   6.792  1.00  0.00     0.202 C 
BRANCH  12  16
ATOM     16  O   UNL     1       3.139  79.119   9.682  1.00  0.00    -0.388 OA
ATOM     17  H   UNL     1       2.410  79.386  10.307  1.00  0.00     0.211 HD
ENDBRANCH  12  16
BRANCH  14  18
ATOM     18  O   UNL     1       2.926  81.019   6.608  1.00  0.00    -0.387 OA
ATOM     19  H   UNL     1       2.568  81.767   7.156  1.00  0.00     0.211 HD
ENDBRANCH  14  18
BRANCH  15  20
ATOM     20  O   UNL     1       3.547  78.726   5.385  1.00  0.00    -0.385 OA
ATOM     21  H   UNL     1       2.599  78.495   5.177  1.00  0.00     0.211 HD
ENDBRANCH  15  20
ENDBRANCH   8   9
ENDBRANCH   7   8
ENDBRANCH   1   7
BRANCH   2  22
ATOM     22  O   UNL     1       9.912  81.118   5.196  1.00  0.00    -0.387 OA
ATOM     23  H   UNL     1      10.767  80.875   4.755  1.00  0.00     0.211 HD
ENDBRANCH   2  22
BRANCH   3  24
ATOM     24  O   UNL     1      11.636  79.534   6.669  1.00  0.00    -0.387 OA
ATOM     25  H   UNL     1      11.359  80.108   7.434  1.00  0.00     0.211 HD
ENDBRANCH   3  24
BRANCH   5  26
ATOM     26  O   UNL     1       8.929  76.529   4.500  1.00  0.00    -0.462 OA
BRANCH  26  27
ATOM     27  C   UNL     1       9.611  75.376   4.933  1.00  0.00     0.130 A 
ATOM     28  C   UNL     1      10.988  75.466   5.225  1.00  0.00     0.093 A 
ATOM     29  C   UNL     1       8.955  74.144   5.152  1.00  0.00     0.094 A 
ATOM     30  C   UNL     1      11.711  74.322   5.602  1.00  0.00     0.133 A 
ATOM     31  C   UNL     1       9.653  73.037   5.623  1.00  0.00     0.138 A 
ATOM     32  C   UNL     1      11.045  73.089   5.783  1.00  0.00     0.102 A 
ATOM     33  O   UNL     1       8.937  71.876   5.938  1.00  0.00    -0.484 OA
ATOM     34  C   UNL     1      11.741  71.838   6.105  1.00  0.00     0.174 C 
ATOM     35  C   UNL     1       9.549  70.596   6.170  1.00  0.00     0.211 C 
ATOM     36  O   UNL     1      12.973  71.708   5.871  1.00  0.00    -0.294 OA
ATOM     37  C   UNL     1      10.988  70.702   6.700  1.00  0.00     0.131 C 
BRANCH  30  38
ATOM     38  O   UNL     1      13.093  74.399   5.791  1.00  0.00    -0.507 OA
ATOM     39  H   UNL     1      13.628  75.201   5.472  1.00  0.00     0.293 HD
ENDBRANCH  30  38
BRANCH  35  40
ATOM     40  C   UNL     1       9.450  69.741   4.926  1.00  0.00    -0.003 A 
ATOM     41  C   UNL     1       9.908  70.204   3.677  1.00  0.00     0.057 A 
ATOM     42  C   UNL     1       8.798  68.503   4.991  1.00  0.00     0.011 A 
ATOM     43  C   UNL     1       9.618  69.504   2.502  1.00  0.00     0.158 A 
ATOM     44  C   UNL     1       8.533  67.793   3.820  1.00  0.00     0.051 A 
ATOM     45  C   UNL     1       8.906  68.300   2.565  1.00  0.00     0.160 A 
BRANCH  43  46
ATOM     46  O   UNL     1      10.042  70.036   1.287  1.00  0.00    -0.504 OA
ATOM     47  H   UNL     1      10.981  69.911   0.935  1.00  0.00     0.293 HD
ENDBRANCH  43  46
BRANCH  45  48
ATOM     48  O   UNL     1       8.573  67.647   1.368  1.00  0.00    -0.493 OA
ATOM     49  C   UNL     1       9.095  66.398   0.966  1.00  0.00     0.278 C 
ENDBRANCH  45  48
ENDBRANCH  35  40
ENDBRANCH  26  27
ENDBRANCH   5  26
BRANCH   4  50
ATOM     50  O   UNL     1      11.510  76.935   5.100  1.00  0.00    -0.384 OA
ATOM     51  H   UNL     1      12.074  76.731   4.316  1.00  0.00     0.211 HD
ENDBRANCH   4  50
TORSDOF 15
ENDMDL
MODEL 4
REMARK VINA RESULT:    73.969      2.476      5.385
REMARK INTER + INTRA:         124.732
REMARK INTER:                 124.108
REMARK INTRA:                   0.624
REMARK UNBOUND:                 3.197
REMARK SMILES COc1ccc([C@H]2CC(=O)c3c(O)cc(O[C@H]4O[C@@H](CO[C@H]5O[C@H](C)[C@H](O)[C@@H](O)[C@H]5O)[C@H](O)[C@H](O)[C@H]4O)cc3O2)cc1O
REMARK SMILES IDX 19 1 32 2 34 3 36 4 17 5 18 6 20 7 21 8 22 9 25 10 24 11
REMARK SMILES IDX 26 12 23 13 28 14 30 15 27 16 29 18 31 20 33 22 35 24 16 26
REMARK SMILES IDX 15 27 14 28 38 29 12 30 39 31 11 32 40 33 9 34 7 35 10 36
REMARK SMILES IDX 8 37 13 38 6 40 41 41 5 42 42 43 4 44 3 45 43 46 2 48 1 49
REMARK SMILES IDX 37 50
REMARK H PARENT 27 17 29 19 31 21 33 23 35 25 13 39 43 47 37 51
REMARK Flexibility Score: inf
ROOT
ATOM      1  C   UNL     1      13.492  78.218  -0.851  1.00  0.00     0.180 C 
ATOM      2  C   UNL     1      13.148  79.062  -2.094  1.00  0.00     0.177 C 
ATOM      3  C   UNL     1      11.788  79.782  -1.924  1.00  0.00     0.180 C 
ATOM      4  C   UNL     1      11.705  80.502  -0.538  1.00  0.00     0.214 C 
ATOM      5  C   UNL     1      12.245  79.639   0.628  1.00  0.00     0.339 C 
ATOM      6  O   UNL     1      13.482  79.000   0.336  1.00  0.00    -0.332 OA
ENDROOT
BRANCH   1   7
ATOM      7  C   UNL     1      12.659  76.927  -0.748  1.00  0.00     0.198 C 
BRANCH   7   8
ATOM      8  O   UNL     1      12.698  76.464   0.587  1.00  0.00    -0.347 OA
BRANCH   8   9
ATOM      9  C   UNL     1      11.988  75.240   0.819  1.00  0.00     0.281 C 
ATOM     10  C   UNL     1       8.360  75.430  -0.004  1.00  0.00     0.041 C 
ATOM     11  C   UNL     1       9.854  75.163  -0.244  1.00  0.00     0.150 C 
ATOM     12  C   UNL     1      10.112  73.743  -0.792  1.00  0.00     0.174 C 
ATOM     13  O   UNL     1      10.565  75.362   0.964  1.00  0.00    -0.344 OA
ATOM     14  C   UNL     1      11.554  73.693  -1.267  1.00  0.00     0.179 C 
ATOM     15  C   UNL     1      12.519  74.122  -0.140  1.00  0.00     0.202 C 
BRANCH  12  16
ATOM     16  O   UNL     1       9.898  72.761   0.191  1.00  0.00    -0.388 OA
ATOM     17  H   UNL     1       9.569  71.937  -0.260  1.00  0.00     0.211 HD
ENDBRANCH  12  16
BRANCH  14  18
ATOM     18  O   UNL     1      11.710  74.524  -2.399  1.00  0.00    -0.387 OA
ATOM     19  H   UNL     1      11.165  75.338  -2.231  1.00  0.00     0.211 HD
ENDBRANCH  14  18
BRANCH  15  20
ATOM     20  O   UNL     1      13.761  74.518  -0.687  1.00  0.00    -0.385 OA
ATOM     21  H   UNL     1      14.183  75.167  -0.057  1.00  0.00     0.211 HD
ENDBRANCH  15  20
ENDBRANCH   8   9
ENDBRANCH   7   8
ENDBRANCH   1   7
BRANCH   2  22
ATOM     22  O   UNL     1      14.212  79.950  -2.366  1.00  0.00    -0.387 OA
ATOM     23  H   UNL     1      15.016  79.425  -2.617  1.00  0.00     0.211 HD
ENDBRANCH   2  22
BRANCH   3  24
ATOM     24  O   UNL     1      11.621  80.677  -3.008  1.00  0.00    -0.387 OA
ATOM     25  H   UNL     1      10.875  80.352  -3.581  1.00  0.00     0.211 HD
ENDBRANCH   3  24
BRANCH   5  26
ATOM     26  O   UNL     1      11.247  78.731   1.132  1.00  0.00    -0.462 OA
BRANCH  26  27
ATOM     27  C   UNL     1      11.241  78.119   2.399  1.00  0.00     0.130 A 
ATOM     28  C   UNL     1      12.307  78.372   3.286  1.00  0.00     0.093 A 
ATOM     29  C   UNL     1      10.172  77.309   2.845  1.00  0.00     0.094 A 
ATOM     30  C   UNL     1      12.363  77.730   4.534  1.00  0.00     0.133 A 
ATOM     31  C   UNL     1      10.180  76.756   4.121  1.00  0.00     0.138 A 
ATOM     32  C   UNL     1      11.300  76.896   4.951  1.00  0.00     0.102 A 
ATOM     33  O   UNL     1       9.045  76.062   4.559  1.00  0.00    -0.484 OA
ATOM     34  C   UNL     1      11.320  76.137   6.206  1.00  0.00     0.174 C 
ATOM     35  C   UNL     1       9.020  75.223   5.725  1.00  0.00     0.211 C 
ATOM     36  O   UNL     1      12.407  75.886   6.791  1.00  0.00    -0.294 OA
ATOM     37  C   UNL     1      10.045  75.641   6.792  1.00  0.00     0.131 C 
BRANCH  30  38
ATOM     38  O   UNL     1      13.472  77.908   5.364  1.00  0.00    -0.507 OA
ATOM     39  H   UNL     1      13.771  77.185   6.012  1.00  0.00     0.293 HD
ENDBRANCH  30  38
BRANCH  35  40
ATOM     40  C   UNL     1       9.159  73.772   5.323  1.00  0.00    -0.003 A 
ATOM     41  C   UNL     1       9.234  72.746   6.285  1.00  0.00     0.057 A 
ATOM     42  C   UNL     1       9.321  73.445   3.971  1.00  0.00     0.011 A 
ATOM     43  C   UNL     1       9.579  71.441   5.918  1.00  0.00     0.158 A 
ATOM     44  C   UNL     1       9.638  72.137   3.604  1.00  0.00     0.051 A 
ATOM     45  C   UNL     1       9.807  71.133   4.571  1.00  0.00     0.160 A 
BRANCH  43  46
ATOM     46  O   UNL     1       9.698  70.477   6.915  1.00  0.00    -0.504 OA
ATOM     47  H   UNL     1       9.424  70.647   7.873  1.00  0.00     0.293 HD
ENDBRANCH  43  46
BRANCH  45  48
ATOM     48  O   UNL     1      10.212  69.833   4.233  1.00  0.00    -0.493 OA
ATOM     49  C   UNL     1      10.002  69.230   2.973  1.00  0.00     0.278 C 
ENDBRANCH  45  48
ENDBRANCH  35  40
ENDBRANCH  26  27
ENDBRANCH   5  26
BRANCH   4  50
ATOM     50  O   UNL     1      10.375  80.861  -0.243  1.00  0.00    -0.384 OA
ATOM     51  H   UNL     1       9.933  81.090  -1.095  1.00  0.00     0.211 HD
ENDBRANCH   4  50
TORSDOF 15
ENDMDL
MODEL 5
REMARK VINA RESULT:    74.115      1.765      8.603
REMARK INTER + INTRA:         124.972
REMARK INTER:                 126.021
REMARK INTRA:                  -1.049
REMARK UNBOUND:                 3.197
REMARK SMILES COc1ccc([C@H]2CC(=O)c3c(O)cc(O[C@H]4O[C@@H](CO[C@H]5O[C@H](C)[C@H](O)[C@@H](O)[C@H]5O)[C@H](O)[C@H](O)[C@H]4O)cc3O2)cc1O
REMARK SMILES IDX 19 1 32 2 34 3 36 4 17 5 18 6 20 7 21 8 22 9 25 10 24 11
REMARK SMILES IDX 26 12 23 13 28 14 30 15 27 16 29 18 31 20 33 22 35 24 16 26
REMARK SMILES IDX 15 27 14 28 38 29 12 30 39 31 11 32 40 33 9 34 7 35 10 36
REMARK SMILES IDX 8 37 13 38 6 40 41 41 5 42 42 43 4 44 3 45 43 46 2 48 1 49
REMARK SMILES IDX 37 50
REMARK H PARENT 27 17 29 19 31 21 33 23 35 25 13 39 43 47 37 51
REMARK Flexibility Score: inf
ROOT
ATOM      1  C   UNL     1       9.793  67.788   1.617  1.00  0.00     0.180 C 
ATOM      2  C   UNL     1       8.849  66.652   1.177  1.00  0.00     0.177 C 
ATOM      3  C   UNL     1       7.809  67.154   0.146  1.00  0.00     0.180 C 
ATOM      4  C   UNL     1       8.500  67.977  -0.990  1.00  0.00     0.214 C 
ATOM      5  C   UNL     1       9.567  68.966  -0.462  1.00  0.00     0.339 C 
ATOM      6  O   UNL     1      10.439  68.396   0.506  1.00  0.00    -0.332 OA
ENDROOT
BRANCH   1   7
ATOM      7  C   UNL     1       9.122  68.795   2.570  1.00  0.00     0.198 C 
BRANCH   7   8
ATOM      8  O   UNL     1      10.126  69.574   3.190  1.00  0.00    -0.347 OA
BRANCH   8   9
ATOM      9  C   UNL     1      10.164  69.478   4.620  1.00  0.00     0.281 C 
ATOM     10  C   UNL     1      12.982  71.354   6.175  1.00  0.00     0.041 C 
ATOM     11  C   UNL     1      11.558  71.119   5.645  1.00  0.00     0.150 C 
ATOM     12  C   UNL     1      10.481  71.465   6.696  1.00  0.00     0.174 C 
ATOM     13  O   UNL     1      11.429  69.771   5.231  1.00  0.00    -0.344 OA
ATOM     14  C   UNL     1       9.140  71.485   5.982  1.00  0.00     0.179 C 
ATOM     15  C   UNL     1       8.894  70.155   5.237  1.00  0.00     0.202 C 
BRANCH  12  16
ATOM     16  O   UNL     1      10.454  70.523   7.739  1.00  0.00    -0.388 OA
ATOM     17  H   UNL     1       9.612  70.655   8.254  1.00  0.00     0.211 HD
ENDBRANCH  12  16
BRANCH  14  18
ATOM     18  O   UNL     1       9.096  72.574   5.084  1.00  0.00    -0.387 OA
ATOM     19  H   UNL     1       8.299  72.434   4.506  1.00  0.00     0.211 HD
ENDBRANCH  14  18
BRANCH  15  20
ATOM     20  O   UNL     1       7.917  70.334   4.230  1.00  0.00    -0.385 OA
ATOM     21  H   UNL     1       7.641  69.432   3.905  1.00  0.00     0.211 HD
ENDBRANCH  15  20
ENDBRANCH   8   9
ENDBRANCH   7   8
ENDBRANCH   1   7
BRANCH   2  22
ATOM     22  O   UNL     1       9.615  65.565   0.702  1.00  0.00    -0.387 OA
ATOM     23  H   UNL     1       9.058  64.743   0.720  1.00  0.00     0.211 HD
ENDBRANCH   2  22
BRANCH   3  24
ATOM     24  O   UNL     1       7.101  66.034  -0.352  1.00  0.00    -0.387 OA
ATOM     25  H   UNL     1       6.124  66.213  -0.280  1.00  0.00     0.211 HD
ENDBRANCH   3  24
BRANCH   5  26
ATOM     26  O   UNL     1       8.981  70.209  -0.031  1.00  0.00    -0.462 OA
BRANCH  26  27
ATOM     27  C   UNL     1       9.604  71.471  -0.038  1.00  0.00     0.130 A 
ATOM     28  C   UNL     1      10.809  71.634  -0.751  1.00  0.00     0.093 A 
ATOM     29  C   UNL     1       9.032  72.602   0.587  1.00  0.00     0.094 A 
ATOM     30  C   UNL     1      11.488  72.864  -0.729  1.00  0.00     0.133 A 
ATOM     31  C   UNL     1       9.655  73.845   0.521  1.00  0.00     0.138 A 
ATOM     32  C   UNL     1      10.918  73.977  -0.070  1.00  0.00     0.102 A 
ATOM     33  O   UNL     1       8.991  74.957   1.052  1.00  0.00    -0.484 OA
ATOM     34  C   UNL     1      11.599  75.271   0.056  1.00  0.00     0.174 C 
ATOM     35  C   UNL     1       9.620  76.226   1.292  1.00  0.00     0.211 C 
ATOM     36  O   UNL     1      12.849  75.357  -0.076  1.00  0.00    -0.294 OA
ATOM     37  C   UNL     1      10.810  76.496   0.358  1.00  0.00     0.131 C 
BRANCH  30  38
ATOM     38  O   UNL     1      12.731  72.988  -1.354  1.00  0.00    -0.507 OA
ATOM     39  H   UNL     1      13.531  73.384  -0.869  1.00  0.00     0.293 HD
ENDBRANCH  30  38
BRANCH  35  40
ATOM     40  C   UNL     1       9.989  76.353   2.754  1.00  0.00    -0.003 A 
ATOM     41  C   UNL     1      11.199  76.951   3.157  1.00  0.00     0.057 A 
ATOM     42  C   UNL     1       9.163  75.774   3.725  1.00  0.00     0.011 A 
ATOM     43  C   UNL     1      11.631  76.871   4.485  1.00  0.00     0.158 A 
ATOM     44  C   UNL     1       9.584  75.719   5.054  1.00  0.00     0.051 A 
ATOM     45  C   UNL     1      10.833  76.231   5.441  1.00  0.00     0.160 A 
BRANCH  43  46
ATOM     46  O   UNL     1      12.863  77.427   4.820  1.00  0.00    -0.504 OA
ATOM     47  H   UNL     1      13.664  76.864   5.074  1.00  0.00     0.293 HD
ENDBRANCH  43  46
BRANCH  45  48
ATOM     48  O   UNL     1      11.315  76.108   6.753  1.00  0.00    -0.493 OA
ATOM     49  C   UNL     1      11.676  77.195   7.579  1.00  0.00     0.278 C 
ENDBRANCH  45  48
ENDBRANCH  35  40
ENDBRANCH  26  27
ENDBRANCH   5  26
BRANCH   4  50
ATOM     50  O   UNL     1       7.546  68.708  -1.726  1.00  0.00    -0.384 OA
ATOM     51  H   UNL     1       7.828  69.653  -1.721  1.00  0.00     0.211 HD
ENDBRANCH   4  50
TORSDOF 15
ENDMDL
