MODEL 1
REMARK VINA RESULT:    -3.514      0.000      0.000
REMARK INTER + INTRA:          -4.231
REMARK INTER:                  -4.131
REMARK INTRA:                  -0.101
REMARK UNBOUND:                -0.101
REMARK SMILES O=C([O-])CCC(=O)[O-]
REMARK SMILES IDX 4 1 2 2 1 3 3 4 5 5 6 6 7 7 8 8
REMARK H PARENT
REMARK Flexibility Score: inf
ROOT
ATOM      1  C   UNL     1      31.143   5.037  49.556  1.00  0.00     0.059 C 
ENDROOT
BRANCH   1   2
ATOM      2  C   UNL     1      32.113   3.979  49.984  1.00  0.00     0.042 C 
ATOM      3  O   UNL     1      32.635   4.021  51.130  1.00  0.00    -0.550 OA
ATOM      4  O   UNL     1      32.472   2.966  49.103  1.00  0.00    -0.550 OA
ENDBRANCH   1   2
BRANCH   1   5
ATOM      5  C   UNL     1      31.710   5.893  48.419  1.00  0.00     0.059 C 
BRANCH   5   6
ATOM      6  C   UNL     1      31.106   5.526  47.098  1.00  0.00     0.042 C 
ATOM      7  O   UNL     1      31.826   5.044  46.184  1.00  0.00    -0.550 OA
ATOM      8  O   UNL     1      29.756   5.752  46.864  1.00  0.00    -0.550 OA
ENDBRANCH   5   6
ENDBRANCH   1   5
TORSDOF 3
ENDMDL
MODEL 2
REMARK VINA RESULT:    -3.498      0.089      3.811
REMARK INTER + INTRA:          -4.212
REMARK INTER:                  -4.111
REMARK INTRA:                  -0.101
REMARK UNBOUND:                -0.101
REMARK SMILES O=C([O-])CCC(=O)[O-]
REMARK SMILES IDX 4 1 2 2 1 3 3 4 5 5 6 6 7 7 8 8
REMARK H PARENT
REMARK Flexibility Score: inf
ROOT
ATOM      1  C   UNL     1      31.720   5.892  48.404  1.00  0.00     0.059 C 
ENDROOT
BRANCH   1   2
ATOM      2  C   UNL     1      31.034   5.575  47.110  1.00  0.00     0.042 C 
ATOM      3  O   UNL     1      29.806   5.815  46.967  1.00  0.00    -0.550 OA
ATOM      4  O   UNL     1      31.743   4.978  46.075  1.00  0.00    -0.550 OA
ENDBRANCH   1   2
BRANCH   1   5
ATOM      5  C   UNL     1      31.158   5.057  49.558  1.00  0.00     0.059 C 
BRANCH   5   6
ATOM      6  C   UNL     1      32.098   3.958  49.953  1.00  0.00     0.042 C 
ATOM      7  O   UNL     1      32.612   3.946  51.102  1.00  0.00    -0.550 OA
ATOM      8  O   UNL     1      32.436   2.971  49.036  1.00  0.00    -0.550 OA
ENDBRANCH   5   6
ENDBRANCH   1   5
TORSDOF 3
ENDMDL
MODEL 3
REMARK VINA RESULT:    -3.187      1.165      1.961
REMARK INTER + INTRA:          -3.846
REMARK INTER:                  -3.812
REMARK INTRA:                  -0.034
REMARK UNBOUND:                -0.101
REMARK SMILES O=C([O-])CCC(=O)[O-]
REMARK SMILES IDX 4 1 2 2 1 3 3 4 5 5 6 6 7 7 8 8
REMARK H PARENT
REMARK Flexibility Score: inf
ROOT
ATOM      1  C   UNL     1      31.545   5.167  49.262  1.00  0.00     0.059 C 
ENDROOT
BRANCH   1   2
ATOM      2  C   UNL     1      32.217   3.932  49.782  1.00  0.00     0.042 C 
ATOM      3  O   UNL     1      32.329   2.914  49.050  1.00  0.00    -0.550 OA
ATOM      4  O   UNL     1      32.685   3.894  51.089  1.00  0.00    -0.550 OA
ENDBRANCH   1   2
BRANCH   1   5
ATOM      5  C   UNL     1      31.505   5.182  47.730  1.00  0.00     0.059 C 
BRANCH   5   6
ATOM      6  C   UNL     1      31.470   6.581  47.194  1.00  0.00     0.042 C 
ATOM      7  O   UNL     1      30.371   7.120  46.898  1.00  0.00    -0.550 OA
ATOM      8  O   UNL     1      32.655   7.275  46.985  1.00  0.00    -0.550 OA
ENDBRANCH   5   6
ENDBRANCH   1   5
TORSDOF 3
ENDMDL
MODEL 4
REMARK VINA RESULT:    -3.106     10.061     11.813
REMARK INTER + INTRA:          -3.751
REMARK INTER:                  -3.724
REMARK INTRA:                  -0.027
REMARK UNBOUND:                -0.101
REMARK SMILES O=C([O-])CCC(=O)[O-]
REMARK SMILES IDX 4 1 2 2 1 3 3 4 5 5 6 6 7 7 8 8
REMARK H PARENT
REMARK Flexibility Score: inf
ROOT
ATOM      1  C   UNL     1      24.059   1.980  40.248  1.00  0.00     0.059 C 
ENDROOT
BRANCH   1   2
ATOM      2  C   UNL     1      23.458   0.913  39.384  1.00  0.00     0.042 C 
ATOM      3  O   UNL     1      22.628   1.216  38.486  1.00  0.00    -0.550 OA
ATOM      4  O   UNL     1      23.785  -0.420  39.596  1.00  0.00    -0.550 OA
ENDBRANCH   1   2
BRANCH   1   5
ATOM      5  C   UNL     1      24.838   3.004  39.417  1.00  0.00     0.059 C 
BRANCH   5   6
ATOM      6  C   UNL     1      25.999   3.566  40.181  1.00  0.00     0.042 C 
ATOM      7  O   UNL     1      27.142   3.611  39.656  1.00  0.00    -0.550 OA
ATOM      8  O   UNL     1      25.824   4.002  41.489  1.00  0.00    -0.550 OA
ENDBRANCH   5   6
ENDBRANCH   1   5
TORSDOF 3
ENDMDL
MODEL 5
REMARK VINA RESULT:    -3.059      9.839     11.558
REMARK INTER + INTRA:          -3.696
REMARK INTER:                  -3.670
REMARK INTRA:                  -0.026
REMARK UNBOUND:                -0.101
REMARK SMILES O=C([O-])CCC(=O)[O-]
REMARK SMILES IDX 4 1 2 2 1 3 3 4 5 5 6 6 7 7 8 8
REMARK H PARENT
REMARK Flexibility Score: inf
ROOT
ATOM      1  C   UNL     1      25.277   2.992  39.649  1.00  0.00     0.059 C 
ENDROOT
BRANCH   1   2
ATOM      2  C   UNL     1      25.847   4.006  40.594  1.00  0.00     0.042 C 
ATOM      3  O   UNL     1      26.933   3.779  41.189  1.00  0.00    -0.550 OA
ATOM      4  O   UNL     1      25.158   5.186  40.846  1.00  0.00    -0.550 OA
ENDBRANCH   1   2
BRANCH   1   5
ATOM      5  C   UNL     1      24.040   2.307  40.238  1.00  0.00     0.059 C 
BRANCH   5   6
ATOM      6  C   UNL     1      23.557   1.192  39.361  1.00  0.00     0.042 C 
ATOM      7  O   UNL     1      24.037   0.035  39.484  1.00  0.00    -0.550 OA
ATOM      8  O   UNL     1      22.604   1.442  38.381  1.00  0.00    -0.550 OA
ENDBRANCH   5   6
ENDBRANCH   1   5
TORSDOF 3
ENDMDL
MODEL 6
REMARK VINA RESULT:    -3.011      9.787     11.512
REMARK INTER + INTRA:          -3.640
REMARK INTER:                  -3.520
REMARK INTRA:                  -0.120
REMARK UNBOUND:                -0.101
REMARK SMILES O=C([O-])CCC(=O)[O-]
REMARK SMILES IDX 4 1 2 2 1 3 3 4 5 5 6 6 7 7 8 8
REMARK H PARENT
REMARK Flexibility Score: inf
ROOT
ATOM      1  C   UNL     1      25.135   2.750  39.470  1.00  0.00     0.059 C 
ENDROOT
BRANCH   1   2
ATOM      2  C   UNL     1      25.335   3.643  40.656  1.00  0.00     0.042 C 
ATOM      3  O   UNL     1      24.353   4.228  41.183  1.00  0.00    -0.550 OA
ATOM      4  O   UNL     1      26.613   3.860  41.155  1.00  0.00    -0.550 OA
ENDBRANCH   1   2
BRANCH   1   5
ATOM      5  C   UNL     1      23.721   2.159  39.443  1.00  0.00     0.059 C 
BRANCH   5   6
ATOM      6  C   UNL     1      23.643   0.879  40.218  1.00  0.00     0.042 C 
ATOM      7  O   UNL     1      23.273   0.888  41.422  1.00  0.00    -0.550 OA
ATOM      8  O   UNL     1      24.018  -0.318  39.622  1.00  0.00    -0.550 OA
ENDBRANCH   5   6
ENDBRANCH   1   5
TORSDOF 3
ENDMDL
MODEL 7
REMARK VINA RESULT:    -2.964     13.288     14.443
REMARK INTER + INTRA:          -3.584
REMARK INTER:                  -3.401
REMARK INTRA:                  -0.183
REMARK UNBOUND:                -0.101
REMARK SMILES O=C([O-])CCC(=O)[O-]
REMARK SMILES IDX 4 1 2 2 1 3 3 4 5 5 6 6 7 7 8 8
REMARK H PARENT
REMARK Flexibility Score: inf
ROOT
ATOM      1  C   UNL     1      24.423  -2.685  56.556  1.00  0.00     0.059 C 
ENDROOT
BRANCH   1   2
ATOM      2  C   UNL     1      23.644  -2.968  55.308  1.00  0.00     0.042 C 
ATOM      3  O   UNL     1      23.228  -2.020  54.591  1.00  0.00    -0.550 OA
ATOM      4  O   UNL     1      23.345  -4.278  54.957  1.00  0.00    -0.550 OA
ENDBRANCH   1   2
BRANCH   1   5
ATOM      5  C   UNL     1      23.733  -3.267  57.794  1.00  0.00     0.059 C 
BRANCH   5   6
ATOM      6  C   UNL     1      22.345  -2.726  57.957  1.00  0.00     0.042 C 
ATOM      7  O   UNL     1      22.161  -1.492  58.125  1.00  0.00    -0.550 OA
ATOM      8  O   UNL     1      21.258  -3.591  57.962  1.00  0.00    -0.550 OA
ENDBRANCH   5   6
ENDBRANCH   1   5
TORSDOF 3
ENDMDL
MODEL 8
REMARK VINA RESULT:    -2.959     13.301     14.276
REMARK INTER + INTRA:          -3.579
REMARK INTER:                  -3.408
REMARK INTRA:                  -0.171
REMARK UNBOUND:                -0.101
REMARK SMILES O=C([O-])CCC(=O)[O-]
REMARK SMILES IDX 4 1 2 2 1 3 3 4 5 5 6 6 7 7 8 8
REMARK H PARENT
REMARK Flexibility Score: inf
ROOT
ATOM      1  C   UNL     1      23.633  -3.250  57.939  1.00  0.00     0.059 C 
ENDROOT
BRANCH   1   2
ATOM      2  C   UNL     1      22.279  -2.615  58.023  1.00  0.00     0.042 C 
ATOM      3  O   UNL     1      21.245  -3.331  58.085  1.00  0.00    -0.550 OA
ATOM      4  O   UNL     1      22.156  -1.232  57.994  1.00  0.00    -0.550 OA
ENDBRANCH   1   2
BRANCH   1   5
ATOM      5  C   UNL     1      24.403  -2.771  56.704  1.00  0.00     0.059 C 
BRANCH   5   6
ATOM      6  C   UNL     1      23.642  -3.040  55.442  1.00  0.00     0.042 C 
ATOM      7  O   UNL     1      23.347  -4.221  55.119  1.00  0.00    -0.550 OA
ATOM      8  O   UNL     1      23.295  -1.989  54.602  1.00  0.00    -0.550 OA
ENDBRANCH   5   6
ENDBRANCH   1   5
TORSDOF 3
ENDMDL
MODEL 9
REMARK VINA RESULT:    -2.883     11.262     12.389
REMARK INTER + INTRA:          -3.489
REMARK INTER:                  -3.325
REMARK INTRA:                  -0.164
REMARK UNBOUND:                -0.101
REMARK SMILES O=C([O-])CCC(=O)[O-]
REMARK SMILES IDX 4 1 2 2 1 3 3 4 5 5 6 6 7 7 8 8
REMARK H PARENT
REMARK Flexibility Score: inf
ROOT
ATOM      1  C   UNL     1      24.309   2.346  39.720  1.00  0.00     0.059 C 
ENDROOT
BRANCH   1   2
ATOM      2  C   UNL     1      23.591   1.124  39.233  1.00  0.00     0.042 C 
ATOM      3  O   UNL     1      22.599   1.234  38.466  1.00  0.00    -0.550 OA
ATOM      4  O   UNL     1      23.995  -0.135  39.660  1.00  0.00    -0.550 OA
ENDBRANCH   1   2
BRANCH   1   5
ATOM      5  C   UNL     1      24.208   2.490  41.242  1.00  0.00     0.059 C 
BRANCH   5   6
ATOM      6  C   UNL     1      22.784   2.447  41.706  1.00  0.00     0.042 C 
ATOM      7  O   UNL     1      22.397   1.533  42.481  1.00  0.00    -0.550 OA
ATOM      8  O   UNL     1      21.876   3.394  41.250  1.00  0.00    -0.550 OA
ENDBRANCH   5   6
ENDBRANCH   1   5
TORSDOF 3
ENDMDL
