MODEL 1
REMARK VINA RESULT:    -4.038      0.000      0.000
REMARK INTER + INTRA:          -4.800
REMARK INTER:                  -4.746
REMARK INTRA:                  -0.054
REMARK UNBOUND:                -0.054
REMARK SMILES O=C([O-])CCC(=O)[O-]
REMARK SMILES IDX 4 1 2 2 1 3 3 4 5 5 6 6 7 7 8 8
REMARK H PARENT
REMARK Flexibility Score: inf
ROOT
ATOM      1  C   UNL     1      13.244  34.158  13.675  1.00  0.00     0.059 C 
ENDROOT
BRANCH   1   2
ATOM      2  C   UNL     1      13.290  32.756  13.150  1.00  0.00     0.042 C 
ATOM      3  O   UNL     1      14.036  32.468  12.177  1.00  0.00    -0.550 OA
ATOM      4  O   UNL     1      12.540  31.759  13.760  1.00  0.00    -0.550 OA
ENDBRANCH   1   2
BRANCH   1   5
ATOM      5  C   UNL     1      14.317  35.038  13.029  1.00  0.00     0.059 C 
BRANCH   5   6
ATOM      6  C   UNL     1      13.751  36.340  12.550  1.00  0.00     0.042 C 
ATOM      7  O   UNL     1      12.864  36.930  13.222  1.00  0.00    -0.550 OA
ATOM      8  O   UNL     1      14.172  36.880  11.342  1.00  0.00    -0.550 OA
ENDBRANCH   5   6
ENDBRANCH   1   5
TORSDOF 3
ENDMDL
MODEL 2
REMARK VINA RESULT:    -4.034      0.045      4.263
REMARK INTER + INTRA:          -4.796
REMARK INTER:                  -4.740
REMARK INTRA:                  -0.056
REMARK UNBOUND:                -0.054
REMARK SMILES O=C([O-])CCC(=O)[O-]
REMARK SMILES IDX 4 1 2 2 1 3 3 4 5 5 6 6 7 7 8 8
REMARK H PARENT
REMARK Flexibility Score: inf
ROOT
ATOM      1  C   UNL     1      14.323  35.024  13.034  1.00  0.00     0.059 C 
ENDROOT
BRANCH   1   2
ATOM      2  C   UNL     1      13.752  36.312  12.523  1.00  0.00     0.042 C 
ATOM      3  O   UNL     1      12.909  36.947  13.210  1.00  0.00    -0.550 OA
ATOM      4  O   UNL     1      14.181  36.830  11.308  1.00  0.00    -0.550 OA
ENDBRANCH   1   2
BRANCH   1   5
ATOM      5  C   UNL     1      13.247  34.149  13.685  1.00  0.00     0.059 C 
BRANCH   5   6
ATOM      6  C   UNL     1      13.281  32.748  13.157  1.00  0.00     0.042 C 
ATOM      7  O   UNL     1      13.962  32.473  12.133  1.00  0.00    -0.550 OA
ATOM      8  O   UNL     1      12.529  31.755  13.770  1.00  0.00    -0.550 OA
ENDBRANCH   5   6
ENDBRANCH   1   5
TORSDOF 3
ENDMDL
MODEL 3
REMARK VINA RESULT:    -3.701      1.583      2.246
REMARK INTER + INTRA:          -4.405
REMARK INTER:                  -4.294
REMARK INTRA:                  -0.110
REMARK UNBOUND:                -0.054
REMARK SMILES O=C([O-])CCC(=O)[O-]
REMARK SMILES IDX 4 1 2 2 1 3 3 4 5 5 6 6 7 7 8 8
REMARK H PARENT
REMARK Flexibility Score: inf
ROOT
ATOM      1  C   UNL     1      13.261  32.765  12.489  1.00  0.00     0.059 C 
ENDROOT
BRANCH   1   2
ATOM      2  C   UNL     1      14.224  31.669  12.831  1.00  0.00     0.042 C 
ATOM      3  O   UNL     1      13.970  30.875  13.775  1.00  0.00    -0.550 OA
ATOM      4  O   UNL     1      15.381  31.501  12.081  1.00  0.00    -0.550 OA
ENDBRANCH   1   2
BRANCH   1   5
ATOM      5  C   UNL     1      13.275  33.877  13.542  1.00  0.00     0.059 C 
BRANCH   5   6
ATOM      6  C   UNL     1      14.275  34.941  13.210  1.00  0.00     0.042 C 
ATOM      7  O   UNL     1      15.470  34.830  13.595  1.00  0.00    -0.550 OA
ATOM      8  O   UNL     1      13.881  36.074  12.510  1.00  0.00    -0.550 OA
ENDBRANCH   5   6
ENDBRANCH   1   5
TORSDOF 3
ENDMDL
MODEL 4
REMARK VINA RESULT:    -3.630     14.569     15.765
REMARK INTER + INTRA:          -4.320
REMARK INTER:                  -4.289
REMARK INTRA:                  -0.031
REMARK UNBOUND:                -0.054
REMARK SMILES O=C([O-])CCC(=O)[O-]
REMARK SMILES IDX 4 1 2 2 1 3 3 4 5 5 6 6 7 7 8 8
REMARK H PARENT
REMARK Flexibility Score: inf
ROOT
ATOM      1  C   UNL     1       5.056  47.431   8.988  1.00  0.00     0.059 C 
ENDROOT
BRANCH   1   2
ATOM      2  C   UNL     1       6.369  48.142   9.113  1.00  0.00     0.042 C 
ATOM      3  O   UNL     1       6.438  49.384   8.917  1.00  0.00    -0.550 OA
ATOM      4  O   UNL     1       7.508  47.439   9.484  1.00  0.00    -0.550 OA
ENDBRANCH   1   2
BRANCH   1   5
ATOM      5  C   UNL     1       4.878  46.379  10.088  1.00  0.00     0.059 C 
BRANCH   5   6
ATOM      6  C   UNL     1       3.804  45.394   9.741  1.00  0.00     0.042 C 
ATOM      7  O   UNL     1       4.109  44.225   9.383  1.00  0.00    -0.550 OA
ATOM      8  O   UNL     1       2.470  45.778   9.773  1.00  0.00    -0.550 OA
ENDBRANCH   5   6
ENDBRANCH   1   5
TORSDOF 3
ENDMDL
MODEL 5
REMARK VINA RESULT:    -3.620     14.526     15.372
REMARK INTER + INTRA:          -4.309
REMARK INTER:                  -4.278
REMARK INTRA:                  -0.031
REMARK UNBOUND:                -0.054
REMARK SMILES O=C([O-])CCC(=O)[O-]
REMARK SMILES IDX 4 1 2 2 1 3 3 4 5 5 6 6 7 7 8 8
REMARK H PARENT
REMARK Flexibility Score: inf
ROOT
ATOM      1  C   UNL     1       4.877  46.363  10.057  1.00  0.00     0.059 C 
ENDROOT
BRANCH   1   2
ATOM      2  C   UNL     1       3.781  45.398   9.723  1.00  0.00     0.042 C 
ATOM      3  O   UNL     1       2.586  45.792   9.669  1.00  0.00    -0.550 OA
ATOM      4  O   UNL     1       4.084  44.075   9.430  1.00  0.00    -0.550 OA
ENDBRANCH   1   2
BRANCH   1   5
ATOM      5  C   UNL     1       5.024  47.444   8.983  1.00  0.00     0.059 C 
BRANCH   5   6
ATOM      6  C   UNL     1       6.337  48.158   9.094  1.00  0.00     0.042 C 
ATOM      7  O   UNL     1       6.418  49.383   8.810  1.00  0.00    -0.550 OA
ATOM      8  O   UNL     1       7.478  47.462   9.471  1.00  0.00    -0.550 OA
ENDBRANCH   5   6
ENDBRANCH   1   5
TORSDOF 3
ENDMDL
MODEL 6
REMARK VINA RESULT:    -3.610     13.323     14.968
REMARK INTER + INTRA:          -4.298
REMARK INTER:                  -4.266
REMARK INTRA:                  -0.031
REMARK UNBOUND:                -0.054
REMARK SMILES O=C([O-])CCC(=O)[O-]
REMARK SMILES IDX 4 1 2 2 1 3 3 4 5 5 6 6 7 7 8 8
REMARK H PARENT
REMARK Flexibility Score: inf
ROOT
ATOM      1  C   UNL     1       4.776  46.356  10.350  1.00  0.00     0.059 C 
ENDROOT
BRANCH   1   2
ATOM      2  C   UNL     1       5.322  47.171   9.217  1.00  0.00     0.042 C 
ATOM      3  O   UNL     1       4.541  47.695   8.380  1.00  0.00    -0.550 OA
ATOM      4  O   UNL     1       6.690  47.384   9.110  1.00  0.00    -0.550 OA
ENDBRANCH   1   2
BRANCH   1   5
ATOM      5  C   UNL     1       4.162  45.043   9.857  1.00  0.00     0.059 C 
BRANCH   5   6
ATOM      6  C   UNL     1       4.184  43.989  10.921  1.00  0.00     0.042 C 
ATOM      7  O   UNL     1       3.907  42.794  10.634  1.00  0.00    -0.550 OA
ATOM      8  O   UNL     1       4.471  44.332  12.235  1.00  0.00    -0.550 OA
ENDBRANCH   5   6
ENDBRANCH   1   5
TORSDOF 3
ENDMDL
MODEL 7
REMARK VINA RESULT:    -3.604     13.564     15.533
REMARK INTER + INTRA:          -4.291
REMARK INTER:                  -4.213
REMARK INTRA:                  -0.077
REMARK UNBOUND:                -0.054
REMARK SMILES O=C([O-])CCC(=O)[O-]
REMARK SMILES IDX 4 1 2 2 1 3 3 4 5 5 6 6 7 7 8 8
REMARK H PARENT
REMARK Flexibility Score: inf
ROOT
ATOM      1  C   UNL     1       4.494  46.148   9.435  1.00  0.00     0.059 C 
ENDROOT
BRANCH   1   2
ATOM      2  C   UNL     1       3.419  47.047   8.907  1.00  0.00     0.042 C 
ATOM      3  O   UNL     1       2.332  47.169   9.531  1.00  0.00    -0.550 OA
ATOM      4  O   UNL     1       3.633  47.781   7.748  1.00  0.00    -0.550 OA
ENDBRANCH   1   2
BRANCH   1   5
ATOM      5  C   UNL     1       4.314  45.870  10.930  1.00  0.00     0.059 C 
BRANCH   5   6
ATOM      6  C   UNL     1       4.367  44.403  11.230  1.00  0.00     0.042 C 
ATOM      7  O   UNL     1       4.635  44.003  12.394  1.00  0.00    -0.550 OA
ATOM      8  O   UNL     1       4.160  43.477  10.215  1.00  0.00    -0.550 OA
ENDBRANCH   5   6
ENDBRANCH   1   5
TORSDOF 3
ENDMDL
MODEL 8
REMARK VINA RESULT:    -3.526     12.923     14.395
REMARK INTER + INTRA:          -4.198
REMARK INTER:                  -4.076
REMARK INTRA:                  -0.122
REMARK UNBOUND:                -0.054
REMARK SMILES O=C([O-])CCC(=O)[O-]
REMARK SMILES IDX 4 1 2 2 1 3 3 4 5 5 6 6 7 7 8 8
REMARK H PARENT
REMARK Flexibility Score: inf
ROOT
ATOM      1  C   UNL     1       4.149  44.292  11.730  1.00  0.00     0.059 C 
ENDROOT
BRANCH   1   2
ATOM      2  C   UNL     1       3.954  45.436  10.783  1.00  0.00     0.042 C 
ATOM      3  O   UNL     1       4.912  46.210  10.519  1.00  0.00    -0.550 OA
ATOM      4  O   UNL     1       2.727  45.621  10.159  1.00  0.00    -0.550 OA
ENDBRANCH   1   2
BRANCH   1   5
ATOM      5  C   UNL     1       2.862  43.482  11.910  1.00  0.00     0.059 C 
BRANCH   5   6
ATOM      6  C   UNL     1       2.903  42.200  11.135  1.00  0.00     0.042 C 
ATOM      7  O   UNL     1       2.644  42.196   9.903  1.00  0.00    -0.550 OA
ATOM      8  O   UNL     1       3.188  41.005  11.782  1.00  0.00    -0.550 OA
ENDBRANCH   5   6
ENDBRANCH   1   5
TORSDOF 3
ENDMDL
MODEL 9
REMARK VINA RESULT:    -3.515     12.851     13.901
REMARK INTER + INTRA:          -4.186
REMARK INTER:                  -4.064
REMARK INTRA:                  -0.122
REMARK UNBOUND:                -0.054
REMARK SMILES O=C([O-])CCC(=O)[O-]
REMARK SMILES IDX 4 1 2 2 1 3 3 4 5 5 6 6 7 7 8 8
REMARK H PARENT
REMARK Flexibility Score: inf
ROOT
ATOM      1  C   UNL     1       2.843  43.552  11.874  1.00  0.00     0.059 C 
ENDROOT
BRANCH   1   2
ATOM      2  C   UNL     1       2.946  42.244  11.151  1.00  0.00     0.042 C 
ATOM      3  O   UNL     1       2.630  42.165   9.935  1.00  0.00    -0.550 OA
ATOM      4  O   UNL     1       3.431  41.122  11.811  1.00  0.00    -0.550 OA
ENDBRANCH   1   2
BRANCH   1   5
ATOM      5  C   UNL     1       4.125  44.378  11.732  1.00  0.00     0.059 C 
BRANCH   5   6
ATOM      6  C   UNL     1       3.967  45.475  10.725  1.00  0.00     0.042 C 
ATOM      7  O   UNL     1       4.903  46.296  10.531  1.00  0.00    -0.550 OA
ATOM      8  O   UNL     1       2.773  45.617  10.031  1.00  0.00    -0.550 OA
ENDBRANCH   5   6
ENDBRANCH   1   5
TORSDOF 3
ENDMDL
