MODEL 1
REMARK VINA RESULT:    -4.772      0.000      0.000
REMARK INTER + INTRA:          -7.207
REMARK INTER:                  -6.725
REMARK INTRA:                  -0.482
REMARK UNBOUND:                -0.482
REMARK SMILES CCCCCCCCC(=O)[O-]
REMARK SMILES IDX 6 1 7 2 8 3 9 4 10 5 11 6 5 7 4 8 3 9 2 10 1 11
REMARK H PARENT
REMARK Flexibility Score: inf
ROOT
ATOM      1  C   UNL     1     -13.533 -17.124  29.649  1.00  0.00     0.000 C 
ENDROOT
BRANCH   1   2
ATOM      2  C   UNL     1     -12.808 -18.402  30.096  1.00  0.00     0.006 C 
BRANCH   2   3
ATOM      3  C   UNL     1     -11.663 -18.109  31.075  1.00  0.00     0.053 C 
BRANCH   3   4
ATOM      4  C   UNL     1     -10.362 -18.672  30.591  1.00  0.00     0.041 C 
ATOM      5  O   UNL     1      -9.380 -18.761  31.376  1.00  0.00    -0.550 OA
ATOM      6  O   UNL     1     -10.242 -19.129  29.285  1.00  0.00    -0.550 OA
ENDBRANCH   3   4
ENDBRANCH   2   3
ENDBRANCH   1   2
BRANCH   1   7
ATOM      7  C   UNL     1     -12.537 -16.083  29.125  1.00  0.00     0.000 C 
BRANCH   7   8
ATOM      8  C   UNL     1     -12.043 -16.451  27.720  1.00  0.00    -0.000 C 
BRANCH   8   9
ATOM      9  C   UNL     1     -10.581 -16.037  27.524  1.00  0.00    -0.000 C 
BRANCH   9  10
ATOM     10  C   UNL     1     -10.421 -15.150  26.284  1.00  0.00    -0.003 C 
ATOM     11  C   UNL     1      -9.052 -14.478  26.258  1.00  0.00     0.004 C 
ENDBRANCH   9  10
ENDBRANCH   8   9
ENDBRANCH   7   8
ENDBRANCH   1   7
TORSDOF 7
ENDMDL
MODEL 2
REMARK VINA RESULT:    -4.651      1.260      2.030
REMARK INTER + INTRA:          -7.036
REMARK INTER:                  -6.681
REMARK INTRA:                  -0.356
REMARK UNBOUND:                -0.482
REMARK SMILES CCCCCCCCC(=O)[O-]
REMARK SMILES IDX 6 1 7 2 8 3 9 4 10 5 11 6 5 7 4 8 3 9 2 10 1 11
REMARK H PARENT
REMARK Flexibility Score: inf
ROOT
ATOM      1  C   UNL     1     -12.304 -16.378  27.890  1.00  0.00     0.000 C 
ENDROOT
BRANCH   1   2
ATOM      2  C   UNL     1     -12.295 -17.383  29.052  1.00  0.00     0.006 C 
BRANCH   2   3
ATOM      3  C   UNL     1     -10.892 -17.940  29.328  1.00  0.00     0.053 C 
BRANCH   3   4
ATOM      4  C   UNL     1     -10.804 -18.577  30.681  1.00  0.00     0.041 C 
ATOM      5  O   UNL     1      -9.702 -19.016  31.104  1.00  0.00    -0.550 OA
ATOM      6  O   UNL     1     -11.932 -18.656  31.490  1.00  0.00    -0.550 OA
ENDBRANCH   3   4
ENDBRANCH   2   3
ENDBRANCH   1   2
BRANCH   1   7
ATOM      7  C   UNL     1     -10.897 -16.196  27.311  1.00  0.00     0.000 C 
BRANCH   7   8
ATOM      8  C   UNL     1     -10.870 -15.067  26.273  1.00  0.00    -0.000 C 
BRANCH   8   9
ATOM      9  C   UNL     1      -9.431 -14.703  25.892  1.00  0.00    -0.000 C 
BRANCH   9  10
ATOM     10  C   UNL     1      -8.451 -15.101  27.002  1.00  0.00    -0.003 C 
ATOM     11  C   UNL     1      -7.065 -14.515  26.751  1.00  0.00     0.004 C 
ENDBRANCH   9  10
ENDBRANCH   8   9
ENDBRANCH   7   8
ENDBRANCH   1   7
TORSDOF 7
ENDMDL
MODEL 3
REMARK VINA RESULT:    -4.584      2.779      5.187
REMARK INTER + INTRA:          -6.943
REMARK INTER:                  -6.499
REMARK INTRA:                  -0.444
REMARK UNBOUND:                -0.482
REMARK SMILES CCCCCCCCC(=O)[O-]
REMARK SMILES IDX 6 1 7 2 8 3 9 4 10 5 11 6 5 7 4 8 3 9 2 10 1 11
REMARK H PARENT
REMARK Flexibility Score: inf
ROOT
ATOM      1  C   UNL     1     -11.654 -17.037  27.850  1.00  0.00     0.000 C 
ENDROOT
BRANCH   1   2
ATOM      2  C   UNL     1     -10.540 -16.012  27.596  1.00  0.00     0.006 C 
BRANCH   2   3
ATOM      3  C   UNL     1     -10.731 -15.262  26.271  1.00  0.00     0.053 C 
BRANCH   3   4
ATOM      4  C   UNL     1      -9.581 -14.347  25.979  1.00  0.00     0.041 C 
ATOM      5  O   UNL     1      -9.696 -13.441  25.111  1.00  0.00    -0.550 OA
ATOM      6  O   UNL     1      -8.393 -14.472  26.689  1.00  0.00    -0.550 OA
ENDBRANCH   3   4
ENDBRANCH   2   3
ENDBRANCH   1   2
BRANCH   1   7
ATOM      7  C   UNL     1     -12.804 -16.412  28.647  1.00  0.00     0.000 C 
BRANCH   7   8
ATOM      8  C   UNL     1     -13.215 -17.310  29.821  1.00  0.00    -0.000 C 
BRANCH   8   9
ATOM      9  C   UNL     1     -12.203 -17.216  30.968  1.00  0.00    -0.000 C 
BRANCH   9  10
ATOM     10  C   UNL     1     -11.585 -18.586  31.272  1.00  0.00    -0.003 C 
ATOM     11  C   UNL     1     -10.146 -18.665  30.774  1.00  0.00     0.004 C 
ENDBRANCH   9  10
ENDBRANCH   8   9
ENDBRANCH   7   8
ENDBRANCH   1   7
TORSDOF 7
ENDMDL
MODEL 4
REMARK VINA RESULT:    -4.487      2.755      3.991
REMARK INTER + INTRA:          -6.806
REMARK INTER:                  -6.318
REMARK INTRA:                  -0.489
REMARK UNBOUND:                -0.482
REMARK SMILES CCCCCCCCC(=O)[O-]
REMARK SMILES IDX 6 1 7 2 8 3 9 4 10 5 11 6 5 7 4 8 3 9 2 10 1 11
REMARK H PARENT
REMARK Flexibility Score: inf
ROOT
ATOM      1  C   UNL     1      -9.797 -18.268  30.789  1.00  0.00     0.000 C 
ENDROOT
BRANCH   1   2
ATOM      2  C   UNL     1      -9.450 -16.777  30.676  1.00  0.00     0.006 C 
BRANCH   2   3
ATOM      3  C   UNL     1      -8.222 -16.400  31.515  1.00  0.00     0.053 C 
BRANCH   3   4
ATOM      4  C   UNL     1      -7.498 -15.221  30.943  1.00  0.00     0.041 C 
ATOM      5  O   UNL     1      -6.713 -14.548  31.663  1.00  0.00    -0.550 OA
ATOM      6  O   UNL     1      -7.662 -14.884  29.605  1.00  0.00    -0.550 OA
ENDBRANCH   3   4
ENDBRANCH   2   3
ENDBRANCH   1   2
BRANCH   1   7
ATOM      7  C   UNL     1     -11.309 -18.470  30.941  1.00  0.00     0.000 C 
BRANCH   7   8
ATOM      8  C   UNL     1     -12.020 -18.352  29.587  1.00  0.00    -0.000 C 
BRANCH   8   9
ATOM      9  C   UNL     1     -13.224 -17.408  29.678  1.00  0.00    -0.000 C 
BRANCH   9  10
ATOM     10  C   UNL     1     -13.000 -16.149  28.831  1.00  0.00    -0.003 C 
ATOM     11  C   UNL     1     -11.941 -16.385  27.760  1.00  0.00     0.004 C 
ENDBRANCH   9  10
ENDBRANCH   8   9
ENDBRANCH   7   8
ENDBRANCH   1   7
TORSDOF 7
ENDMDL
MODEL 5
REMARK VINA RESULT:    -4.465      2.130      2.548
REMARK INTER + INTRA:          -6.775
REMARK INTER:                  -6.364
REMARK INTRA:                  -0.411
REMARK UNBOUND:                -0.482
REMARK SMILES CCCCCCCCC(=O)[O-]
REMARK SMILES IDX 6 1 7 2 8 3 9 4 10 5 11 6 5 7 4 8 3 9 2 10 1 11
REMARK H PARENT
REMARK Flexibility Score: inf
ROOT
ATOM      1  C   UNL     1     -10.656 -17.587  30.139  1.00  0.00     0.000 C 
ENDROOT
BRANCH   1   2
ATOM      2  C   UNL     1     -10.919 -18.736  31.122  1.00  0.00     0.006 C 
BRANCH   2   3
ATOM      3  C   UNL     1     -12.287 -18.614  31.807  1.00  0.00     0.053 C 
BRANCH   3   4
ATOM      4  C   UNL     1     -12.580 -19.798  32.677  1.00  0.00     0.041 C 
ATOM      5  O   UNL     1     -11.752 -20.162  33.553  1.00  0.00    -0.550 OA
ATOM      6  O   UNL     1     -13.784 -20.480  32.543  1.00  0.00    -0.550 OA
ENDBRANCH   3   4
ENDBRANCH   2   3
ENDBRANCH   1   2
BRANCH   1   7
ATOM      7  C   UNL     1     -11.683 -16.463  30.319  1.00  0.00     0.000 C 
BRANCH   7   8
ATOM      8  C   UNL     1     -12.402 -16.157  29.000  1.00  0.00    -0.000 C 
BRANCH   8   9
ATOM      9  C   UNL     1     -11.623 -16.715  27.804  1.00  0.00    -0.000 C 
BRANCH   9  10
ATOM     10  C   UNL     1     -11.474 -15.660  26.703  1.00  0.00    -0.003 C 
ATOM     11  C   UNL     1     -10.014 -15.259  26.516  1.00  0.00     0.004 C 
ENDBRANCH   9  10
ENDBRANCH   8   9
ENDBRANCH   7   8
ENDBRANCH   1   7
TORSDOF 7
ENDMDL
MODEL 6
REMARK VINA RESULT:    -4.453      2.055      3.055
REMARK INTER + INTRA:          -6.758
REMARK INTER:                  -6.154
REMARK INTRA:                  -0.604
REMARK UNBOUND:                -0.482
REMARK SMILES CCCCCCCCC(=O)[O-]
REMARK SMILES IDX 6 1 7 2 8 3 9 4 10 5 11 6 5 7 4 8 3 9 2 10 1 11
REMARK H PARENT
REMARK Flexibility Score: inf
ROOT
ATOM      1  C   UNL     1     -11.225 -18.594  30.596  1.00  0.00     0.000 C 
ENDROOT
BRANCH   1   2
ATOM      2  C   UNL     1      -9.787 -18.064  30.680  1.00  0.00     0.006 C 
BRANCH   2   3
ATOM      3  C   UNL     1      -9.706 -16.556  30.405  1.00  0.00     0.053 C 
BRANCH   3   4
ATOM      4  C   UNL     1      -8.414 -15.971  30.888  1.00  0.00     0.041 C 
ATOM      5  O   UNL     1      -7.840 -16.454  31.901  1.00  0.00    -0.550 OA
ATOM      6  O   UNL     1      -7.826 -14.916  30.202  1.00  0.00    -0.550 OA
ENDBRANCH   3   4
ENDBRANCH   2   3
ENDBRANCH   1   2
BRANCH   1   7
ATOM      7  C   UNL     1     -12.240 -17.467  30.817  1.00  0.00     0.000 C 
BRANCH   7   8
ATOM      8  C   UNL     1     -13.240 -17.390  29.657  1.00  0.00    -0.000 C 
BRANCH   8   9
ATOM      9  C   UNL     1     -13.083 -16.079  28.878  1.00  0.00    -0.000 C 
BRANCH   9  10
ATOM     10  C   UNL     1     -12.675 -16.347  27.425  1.00  0.00    -0.003 C 
ATOM     11  C   UNL     1     -11.251 -15.872  27.154  1.00  0.00     0.004 C 
ENDBRANCH   9  10
ENDBRANCH   8   9
ENDBRANCH   7   8
ENDBRANCH   1   7
TORSDOF 7
ENDMDL
MODEL 7
REMARK VINA RESULT:    -4.343      3.072      4.002
REMARK INTER + INTRA:          -6.603
REMARK INTER:                  -6.206
REMARK INTRA:                  -0.396
REMARK UNBOUND:                -0.482
REMARK SMILES CCCCCCCCC(=O)[O-]
REMARK SMILES IDX 6 1 7 2 8 3 9 4 10 5 11 6 5 7 4 8 3 9 2 10 1 11
REMARK H PARENT
REMARK Flexibility Score: inf
ROOT
ATOM      1  C   UNL     1     -12.491 -18.506  31.458  1.00  0.00     0.000 C 
ENDROOT
BRANCH   1   2
ATOM      2  C   UNL     1     -12.990 -19.287  32.682  1.00  0.00     0.006 C 
BRANCH   2   3
ATOM      3  C   UNL     1     -11.869 -20.090  33.356  1.00  0.00     0.053 C 
BRANCH   3   4
ATOM      4  C   UNL     1     -12.403 -21.279  34.093  1.00  0.00     0.041 C 
ATOM      5  O   UNL     1     -11.657 -21.928  34.874  1.00  0.00    -0.550 OA
ATOM      6  O   UNL     1     -13.734 -21.652  33.945  1.00  0.00    -0.550 OA
ENDBRANCH   3   4
ENDBRANCH   2   3
ENDBRANCH   1   2
BRANCH   1   7
ATOM      7  C   UNL     1     -11.004 -18.773  31.203  1.00  0.00     0.000 C 
BRANCH   7   8
ATOM      8  C   UNL     1     -10.651 -18.566  29.725  1.00  0.00    -0.000 C 
BRANCH   8   9
ATOM      9  C   UNL     1     -10.830 -17.100  29.316  1.00  0.00    -0.000 C 
BRANCH   9  10
ATOM     10  C   UNL     1     -11.775 -16.975  28.115  1.00  0.00    -0.003 C 
ATOM     11  C   UNL     1     -13.100 -16.339  28.519  1.00  0.00     0.004 C 
ENDBRANCH   9  10
ENDBRANCH   8   9
ENDBRANCH   7   8
ENDBRANCH   1   7
TORSDOF 7
ENDMDL
MODEL 8
REMARK VINA RESULT:    -4.329      2.536      5.521
REMARK INTER + INTRA:          -6.583
REMARK INTER:                  -6.260
REMARK INTRA:                  -0.323
REMARK UNBOUND:                -0.482
REMARK SMILES CCCCCCCCC(=O)[O-]
REMARK SMILES IDX 6 1 7 2 8 3 9 4 10 5 11 6 5 7 4 8 3 9 2 10 1 11
REMARK H PARENT
REMARK Flexibility Score: inf
ROOT
ATOM      1  C   UNL     1     -13.498 -17.455  30.127  1.00  0.00     0.000 C 
ENDROOT
BRANCH   1   2
ATOM      2  C   UNL     1     -13.127 -16.581  28.921  1.00  0.00     0.006 C 
BRANCH   2   3
ATOM      3  C   UNL     1     -12.007 -17.202  28.075  1.00  0.00     0.053 C 
BRANCH   3   4
ATOM      4  C   UNL     1     -10.874 -16.246  27.865  1.00  0.00     0.041 C 
ATOM      5  O   UNL     1      -9.885 -16.254  28.646  1.00  0.00    -0.550 OA
ATOM      6  O   UNL     1     -10.892 -15.368  26.787  1.00  0.00    -0.550 OA
ENDBRANCH   3   4
ENDBRANCH   2   3
ENDBRANCH   1   2
BRANCH   1   7
ATOM      7  C   UNL     1     -12.357 -17.495  31.149  1.00  0.00     0.000 C 
BRANCH   7   8
ATOM      8  C   UNL     1     -12.405 -18.782  31.981  1.00  0.00    -0.000 C 
BRANCH   8   9
ATOM      9  C   UNL     1     -13.354 -18.632  33.175  1.00  0.00    -0.000 C 
BRANCH   9  10
ATOM     10  C   UNL     1     -13.266 -19.848  34.105  1.00  0.00    -0.003 C 
ATOM     11  C   UNL     1     -12.002 -20.658  33.835  1.00  0.00     0.004 C 
ENDBRANCH   9  10
ENDBRANCH   8   9
ENDBRANCH   7   8
ENDBRANCH   1   7
TORSDOF 7
ENDMDL
MODEL 9
REMARK VINA RESULT:    -4.225      2.578      5.613
REMARK INTER + INTRA:          -6.436
REMARK INTER:                  -6.098
REMARK INTRA:                  -0.338
REMARK UNBOUND:                -0.482
REMARK SMILES CCCCCCCCC(=O)[O-]
REMARK SMILES IDX 6 1 7 2 8 3 9 4 10 5 11 6 5 7 4 8 3 9 2 10 1 11
REMARK H PARENT
REMARK Flexibility Score: inf
ROOT
ATOM      1  C   UNL     1     -13.492 -17.986  30.209  1.00  0.00     0.000 C 
ENDROOT
BRANCH   1   2
ATOM      2  C   UNL     1     -12.879 -16.867  29.355  1.00  0.00     0.006 C 
BRANCH   2   3
ATOM      3  C   UNL     1     -11.692 -17.359  28.515  1.00  0.00     0.053 C 
BRANCH   3   4
ATOM      4  C   UNL     1     -10.501 -17.672  29.368  1.00  0.00     0.041 C 
ATOM      5  O   UNL     1      -9.853 -16.742  29.917  1.00  0.00    -0.550 OA
ATOM      6  O   UNL     1     -10.125 -18.993  29.583  1.00  0.00    -0.550 OA
ENDBRANCH   3   4
ENDBRANCH   2   3
ENDBRANCH   1   2
BRANCH   1   7
ATOM      7  C   UNL     1     -13.121 -17.816  31.686  1.00  0.00     0.000 C 
BRANCH   7   8
ATOM      8  C   UNL     1     -12.457 -19.083  32.238  1.00  0.00    -0.000 C 
BRANCH   8   9
ATOM      9  C   UNL     1     -13.135 -19.542  33.533  1.00  0.00    -0.000 C 
BRANCH   9  10
ATOM     10  C   UNL     1     -13.679 -20.968  33.395  1.00  0.00    -0.003 C 
ATOM     11  C   UNL     1     -13.128 -21.878  34.488  1.00  0.00     0.004 C 
ENDBRANCH   9  10
ENDBRANCH   8   9
ENDBRANCH   7   8
ENDBRANCH   1   7
TORSDOF 7
ENDMDL
