MODEL 1
REMARK VINA RESULT:    -4.864      0.000      0.000
REMARK INTER + INTRA:         -13.545
REMARK INTER:                 -12.257
REMARK INTRA:                  -1.288
REMARK UNBOUND:                -1.288
REMARK SMILES CCCCCCCCCCCCCCCCCCCCCCCCCCCC(=O)[O-]
REMARK SMILES IDX 15 1 16 2 17 3 18 4 19 5 20 6 21 7 22 8 23 9 24 10 25 11
REMARK SMILES IDX 26 12 27 13 28 14 29 15 30 16 14 17 13 18 12 19 11 20 10 21
REMARK SMILES IDX 9 22 8 23 7 24 6 25 5 26 4 27 3 28 2 29 1 30
REMARK H PARENT
REMARK Flexibility Score: inf
ROOT
ATOM      1  C   UNL     1       2.161   1.702  18.478  1.00  0.00     0.000 C 
ENDROOT
BRANCH   1   2
ATOM      2  C   UNL     1       0.886   2.104  17.711  1.00  0.00     0.000 C 
BRANCH   2   3
ATOM      3  C   UNL     1       0.931   3.486  17.034  1.00  0.00     0.000 C 
BRANCH   3   4
ATOM      4  C   UNL     1       1.010   4.687  17.997  1.00  0.00     0.000 C 
BRANCH   4   5
ATOM      5  C   UNL     1       1.885   5.860  17.512  1.00  0.00     0.000 C 
BRANCH   5   6
ATOM      6  C   UNL     1       1.258   6.724  16.400  1.00  0.00     0.000 C 
BRANCH   6   7
ATOM      7  C   UNL     1       2.073   6.793  15.094  1.00  0.00     0.000 C 
BRANCH   7   8
ATOM      8  C   UNL     1       3.592   6.978  15.283  1.00  0.00     0.000 C 
BRANCH   8   9
ATOM      9  C   UNL     1       4.470   5.873  14.661  1.00  0.00     0.000 C 
BRANCH   9  10
ATOM     10  C   UNL     1       5.556   6.372  13.691  1.00  0.00     0.000 C 
BRANCH  10  11
ATOM     11  C   UNL     1       6.519   5.260  13.249  1.00  0.00     0.000 C 
BRANCH  11  12
ATOM     12  C   UNL     1       7.187   5.614  11.912  1.00  0.00     0.006 C 
BRANCH  12  13
ATOM     13  C   UNL     1       8.342   4.665  11.570  1.00  0.00     0.053 C 
BRANCH  13  14
ATOM     14  C   UNL     1       8.374   4.331  10.110  1.00  0.00     0.041 C 
ATOM     15  O   UNL     1       7.346   3.879   9.542  1.00  0.00    -0.550 OA
ATOM     16  O   UNL     1       9.530   4.550   9.370  1.00  0.00    -0.550 OA
ENDBRANCH  13  14
ENDBRANCH  12  13
ENDBRANCH  11  12
ENDBRANCH  10  11
ENDBRANCH   9  10
ENDBRANCH   8   9
ENDBRANCH   7   8
ENDBRANCH   6   7
ENDBRANCH   5   6
ENDBRANCH   4   5
ENDBRANCH   3   4
ENDBRANCH   2   3
ENDBRANCH   1   2
BRANCH   1  17
ATOM     17  C   UNL     1       2.550   0.216  18.324  1.00  0.00     0.000 C 
BRANCH  17  18
ATOM     18  C   UNL     1       1.536  -0.744  18.970  1.00  0.00     0.000 C 
BRANCH  18  19
ATOM     19  C   UNL     1       2.202  -1.907  19.725  1.00  0.00     0.000 C 
BRANCH  19  20
ATOM     20  C   UNL     1       3.544  -1.542  20.396  1.00  0.00     0.000 C 
BRANCH  20  21
ATOM     21  C   UNL     1       3.640  -1.895  21.895  1.00  0.00     0.000 C 
BRANCH  21  22
ATOM     22  C   UNL     1       4.799  -2.833  22.298  1.00  0.00    -0.000 C 
BRANCH  22  23
ATOM     23  C   UNL     1       5.079  -4.007  21.337  1.00  0.00    -0.000 C 
BRANCH  23  24
ATOM     24  C   UNL     1       6.149  -3.720  20.263  1.00  0.00    -0.000 C 
BRANCH  24  25
ATOM     25  C   UNL     1       7.101  -4.900  19.986  1.00  0.00    -0.000 C 
BRANCH  25  26
ATOM     26  C   UNL     1       8.119  -5.163  21.115  1.00  0.00    -0.000 C 
BRANCH  26  27
ATOM     27  C   UNL     1       7.748  -6.397  21.957  1.00  0.00    -0.000 C 
BRANCH  27  28
ATOM     28  C   UNL     1       7.263  -7.582  21.102  1.00  0.00    -0.000 C 
BRANCH  28  29
ATOM     29  C   UNL     1       7.208  -8.928  21.843  1.00  0.00    -0.003 C 
ATOM     30  C   UNL     1       6.894  -8.779  23.331  1.00  0.00     0.004 C 
ENDBRANCH  28  29
ENDBRANCH  27  28
ENDBRANCH  26  27
ENDBRANCH  25  26
ENDBRANCH  24  25
ENDBRANCH  23  24
ENDBRANCH  22  23
ENDBRANCH  21  22
ENDBRANCH  20  21
ENDBRANCH  19  20
ENDBRANCH  18  19
ENDBRANCH  17  18
ENDBRANCH   1  17
TORSDOF 26
ENDMDL
MODEL 2
REMARK VINA RESULT:    -4.061      4.688     12.285
REMARK INTER + INTRA:         -11.522
REMARK INTER:                 -10.410
REMARK INTRA:                  -1.112
REMARK UNBOUND:                -1.288
REMARK SMILES CCCCCCCCCCCCCCCCCCCCCCCCCCCC(=O)[O-]
REMARK SMILES IDX 15 1 16 2 17 3 18 4 19 5 20 6 21 7 22 8 23 9 24 10 25 11
REMARK SMILES IDX 26 12 27 13 28 14 29 15 30 16 14 17 13 18 12 19 11 20 10 21
REMARK SMILES IDX 9 22 8 23 7 24 6 25 5 26 4 27 3 28 2 29 1 30
REMARK H PARENT
REMARK Flexibility Score: inf
ROOT
ATOM      1  C   UNL     1       2.206   2.497  17.418  1.00  0.00     0.000 C 
ENDROOT
BRANCH   1   2
ATOM      2  C   UNL     1       2.071   0.964  17.486  1.00  0.00     0.000 C 
BRANCH   2   3
ATOM      3  C   UNL     1       1.207   0.428  18.642  1.00  0.00     0.000 C 
BRANCH   3   4
ATOM      4  C   UNL     1       1.552  -0.998  19.115  1.00  0.00     0.000 C 
BRANCH   4   5
ATOM      5  C   UNL     1       2.531  -1.076  20.304  1.00  0.00     0.000 C 
BRANCH   5   6
ATOM      6  C   UNL     1       3.247  -2.431  20.472  1.00  0.00     0.000 C 
BRANCH   6   7
ATOM      7  C   UNL     1       4.556  -2.576  19.674  1.00  0.00     0.000 C 
BRANCH   7   8
ATOM      8  C   UNL     1       5.709  -1.667  20.143  1.00  0.00     0.000 C 
BRANCH   8   9
ATOM      9  C   UNL     1       6.197  -1.918  21.585  1.00  0.00     0.000 C 
BRANCH   9  10
ATOM     10  C   UNL     1       6.357  -3.400  21.970  1.00  0.00     0.000 C 
BRANCH  10  11
ATOM     11  C   UNL     1       7.174  -4.199  20.944  1.00  0.00     0.000 C 
BRANCH  11  12
ATOM     12  C   UNL     1       6.726  -5.668  20.913  1.00  0.00     0.006 C 
BRANCH  12  13
ATOM     13  C   UNL     1       7.757  -6.603  21.557  1.00  0.00     0.053 C 
BRANCH  13  14
ATOM     14  C   UNL     1       7.248  -8.009  21.653  1.00  0.00     0.041 C 
ATOM     15  O   UNL     1       7.685  -8.895  20.873  1.00  0.00    -0.550 OA
ATOM     16  O   UNL     1       6.317  -8.348  22.628  1.00  0.00    -0.550 OA
ENDBRANCH  13  14
ENDBRANCH  12  13
ENDBRANCH  11  12
ENDBRANCH  10  11
ENDBRANCH   9  10
ENDBRANCH   8   9
ENDBRANCH   7   8
ENDBRANCH   6   7
ENDBRANCH   5   6
ENDBRANCH   4   5
ENDBRANCH   3   4
ENDBRANCH   2   3
ENDBRANCH   1   2
BRANCH   1  17
ATOM     17  C   UNL     1       0.877   3.259  17.614  1.00  0.00     0.000 C 
BRANCH  17  18
ATOM     18  C   UNL     1       1.064   4.783  17.711  1.00  0.00     0.000 C 
BRANCH  18  19
ATOM     19  C   UNL     1       2.352   5.279  17.033  1.00  0.00     0.000 C 
BRANCH  19  20
ATOM     20  C   UNL     1       2.316   6.765  16.615  1.00  0.00     0.000 C 
BRANCH  20  21
ATOM     21  C   UNL     1       2.773   7.046  15.168  1.00  0.00     0.000 C 
BRANCH  21  22
ATOM     22  C   UNL     1       3.741   6.012  14.550  1.00  0.00    -0.000 C 
BRANCH  22  23
ATOM     23  C   UNL     1       5.116   6.557  14.112  1.00  0.00    -0.000 C 
BRANCH  23  24
ATOM     24  C   UNL     1       6.159   5.473  13.766  1.00  0.00    -0.000 C 
BRANCH  24  25
ATOM     25  C   UNL     1       7.084   5.837  12.588  1.00  0.00    -0.000 C 
BRANCH  25  26
ATOM     26  C   UNL     1       7.701   4.617  11.875  1.00  0.00    -0.000 C 
BRANCH  26  27
ATOM     27  C   UNL     1       8.066   4.921  10.411  1.00  0.00    -0.000 C 
BRANCH  27  28
ATOM     28  C   UNL     1       8.962   3.841   9.780  1.00  0.00    -0.000 C 
BRANCH  28  29
ATOM     29  C   UNL     1      10.463   4.177   9.769  1.00  0.00    -0.003 C 
ATOM     30  C   UNL     1      11.321   3.059   9.178  1.00  0.00     0.004 C 
ENDBRANCH  28  29
ENDBRANCH  27  28
ENDBRANCH  26  27
ENDBRANCH  25  26
ENDBRANCH  24  25
ENDBRANCH  23  24
ENDBRANCH  22  23
ENDBRANCH  21  22
ENDBRANCH  20  21
ENDBRANCH  19  20
ENDBRANCH  18  19
ENDBRANCH  17  18
ENDBRANCH   1  17
TORSDOF 26
ENDMDL
MODEL 3
REMARK VINA RESULT:    -3.785      5.675     12.878
REMARK INTER + INTRA:         -10.825
REMARK INTER:                 -10.491
REMARK INTRA:                  -0.334
REMARK UNBOUND:                -1.288
REMARK SMILES CCCCCCCCCCCCCCCCCCCCCCCCCCCC(=O)[O-]
REMARK SMILES IDX 15 1 16 2 17 3 18 4 19 5 20 6 21 7 22 8 23 9 24 10 25 11
REMARK SMILES IDX 26 12 27 13 28 14 29 15 30 16 14 17 13 18 12 19 11 20 10 21
REMARK SMILES IDX 9 22 8 23 7 24 6 25 5 26 4 27 3 28 2 29 1 30
REMARK H PARENT
REMARK Flexibility Score: inf
ROOT
ATOM      1  C   UNL     1       4.625  -0.644  21.572  1.00  0.00     0.000 C 
ENDROOT
BRANCH   1   2
ATOM      2  C   UNL     1       3.694  -1.847  21.820  1.00  0.00     0.000 C 
BRANCH   2   3
ATOM      3  C   UNL     1       4.254  -2.932  22.757  1.00  0.00     0.000 C 
BRANCH   3   4
ATOM      4  C   UNL     1       5.237  -3.922  22.102  1.00  0.00     0.000 C 
BRANCH   4   5
ATOM      5  C   UNL     1       4.913  -4.300  20.643  1.00  0.00     0.000 C 
BRANCH   5   6
ATOM      6  C   UNL     1       5.683  -3.500  19.575  1.00  0.00     0.000 C 
BRANCH   6   7
ATOM      7  C   UNL     1       7.030  -2.920  20.044  1.00  0.00     0.000 C 
BRANCH   7   8
ATOM      8  C   UNL     1       8.223  -3.894  19.960  1.00  0.00     0.000 C 
BRANCH   8   9
ATOM      9  C   UNL     1       7.921  -5.339  20.407  1.00  0.00     0.000 C 
BRANCH   9  10
ATOM     10  C   UNL     1       8.273  -5.655  21.873  1.00  0.00     0.000 C 
BRANCH  10  11
ATOM     11  C   UNL     1       8.029  -7.126  22.242  1.00  0.00     0.000 C 
BRANCH  11  12
ATOM     12  C   UNL     1       7.377  -7.882  21.074  1.00  0.00     0.006 C 
BRANCH  12  13
ATOM     13  C   UNL     1       6.984  -9.314  21.456  1.00  0.00     0.053 C 
BRANCH  13  14
ATOM     14  C   UNL     1       6.615  -9.422  22.903  1.00  0.00     0.041 C 
ATOM     15  O   UNL     1       7.398  -9.981  23.716  1.00  0.00    -0.550 OA
ATOM     16  O   UNL     1       5.422  -8.876  23.362  1.00  0.00    -0.550 OA
ENDBRANCH  13  14
ENDBRANCH  12  13
ENDBRANCH  11  12
ENDBRANCH  10  11
ENDBRANCH   9  10
ENDBRANCH   8   9
ENDBRANCH   7   8
ENDBRANCH   6   7
ENDBRANCH   5   6
ENDBRANCH   4   5
ENDBRANCH   3   4
ENDBRANCH   2   3
ENDBRANCH   1   2
BRANCH   1  17
ATOM     17  C   UNL     1       5.410  -0.715  20.244  1.00  0.00     0.000 C 
BRANCH  17  18
ATOM     18  C   UNL     1       5.789   0.670  19.692  1.00  0.00     0.000 C 
BRANCH  18  19
ATOM     19  C   UNL     1       4.924   1.101  18.496  1.00  0.00     0.000 C 
BRANCH  19  20
ATOM     20  C   UNL     1       3.426   0.751  18.639  1.00  0.00     0.000 C 
BRANCH  20  21
ATOM     21  C   UNL     1       2.699   0.448  17.312  1.00  0.00     0.000 C 
BRANCH  21  22
ATOM     22  C   UNL     1       1.423   1.274  17.033  1.00  0.00    -0.000 C 
BRANCH  22  23
ATOM     23  C   UNL     1       1.015   2.272  18.137  1.00  0.00    -0.000 C 
BRANCH  23  24
ATOM     24  C   UNL     1       0.875   3.735  17.665  1.00  0.00    -0.000 C 
BRANCH  24  25
ATOM     25  C   UNL     1       2.216   4.449  17.411  1.00  0.00    -0.000 C 
BRANCH  25  26
ATOM     26  C   UNL     1       2.309   5.854  18.041  1.00  0.00    -0.000 C 
BRANCH  26  27
ATOM     27  C   UNL     1       2.040   6.970  17.016  1.00  0.00    -0.000 C 
BRANCH  27  28
ATOM     28  C   UNL     1       2.442   6.578  15.583  1.00  0.00    -0.000 C 
BRANCH  28  29
ATOM     29  C   UNL     1       2.661   7.764  14.629  1.00  0.00    -0.003 C 
ATOM     30  C   UNL     1       2.316   9.111  15.262  1.00  0.00     0.004 C 
ENDBRANCH  28  29
ENDBRANCH  27  28
ENDBRANCH  26  27
ENDBRANCH  25  26
ENDBRANCH  24  25
ENDBRANCH  23  24
ENDBRANCH  22  23
ENDBRANCH  21  22
ENDBRANCH  20  21
ENDBRANCH  19  20
ENDBRANCH  18  19
ENDBRANCH  17  18
ENDBRANCH   1  17
TORSDOF 26
ENDMDL
MODEL 4
REMARK VINA RESULT:    -2.999      6.849     11.087
REMARK INTER + INTRA:          -8.846
REMARK INTER:                  -6.523
REMARK INTRA:                  -2.323
REMARK UNBOUND:                -1.288
REMARK SMILES CCCCCCCCCCCCCCCCCCCCCCCCCCCC(=O)[O-]
REMARK SMILES IDX 15 1 16 2 17 3 18 4 19 5 20 6 21 7 22 8 23 9 24 10 25 11
REMARK SMILES IDX 26 12 27 13 28 14 29 15 30 16 14 17 13 18 12 19 11 20 10 21
REMARK SMILES IDX 9 22 8 23 7 24 6 25 5 26 4 27 3 28 2 29 1 30
REMARK H PARENT
REMARK Flexibility Score: inf
ROOT
ATOM      1  C   UNL     1       2.762   0.387  17.634  1.00  0.00     0.000 C 
ENDROOT
BRANCH   1   2
ATOM      2  C   UNL     1       1.437  -0.235  18.119  1.00  0.00     0.000 C 
BRANCH   2   3
ATOM      3  C   UNL     1       1.385  -0.594  19.615  1.00  0.00     0.000 C 
BRANCH   3   4
ATOM      4  C   UNL     1       2.068  -1.923  19.995  1.00  0.00     0.000 C 
BRANCH   4   5
ATOM      5  C   UNL     1       2.903  -1.884  21.291  1.00  0.00     0.000 C 
BRANCH   5   6
ATOM      6  C   UNL     1       4.274  -2.584  21.204  1.00  0.00     0.000 C 
BRANCH   6   7
ATOM      7  C   UNL     1       4.417  -3.592  20.048  1.00  0.00     0.000 C 
BRANCH   7   8
ATOM      8  C   UNL     1       5.716  -3.463  19.228  1.00  0.00     0.000 C 
BRANCH   8   9
ATOM      9  C   UNL     1       6.775  -4.550  19.504  1.00  0.00     0.000 C 
BRANCH   9  10
ATOM     10  C   UNL     1       7.585  -4.358  20.799  1.00  0.00     0.000 C 
BRANCH  10  11
ATOM     11  C   UNL     1       7.885  -5.681  21.518  1.00  0.00     0.000 C 
BRANCH  11  12
ATOM     12  C   UNL     1       7.076  -6.834  20.903  1.00  0.00     0.006 C 
BRANCH  12  13
ATOM     13  C   UNL     1       7.571  -8.207  21.373  1.00  0.00     0.053 C 
BRANCH  13  14
ATOM     14  C   UNL     1       6.835  -8.677  22.589  1.00  0.00     0.041 C 
ATOM     15  O   UNL     1       5.577  -8.719  22.591  1.00  0.00    -0.550 OA
ATOM     16  O   UNL     1       7.540  -9.102  23.710  1.00  0.00    -0.550 OA
ENDBRANCH  13  14
ENDBRANCH  12  13
ENDBRANCH  11  12
ENDBRANCH  10  11
ENDBRANCH   9  10
ENDBRANCH   8   9
ENDBRANCH   7   8
ENDBRANCH   6   7
ENDBRANCH   5   6
ENDBRANCH   4   5
ENDBRANCH   3   4
ENDBRANCH   2   3
ENDBRANCH   1   2
BRANCH   1  17
ATOM     17  C   UNL     1       3.668   0.910  18.769  1.00  0.00     0.000 C 
BRANCH  17  18
ATOM     18  C   UNL     1       4.975   0.112  18.914  1.00  0.00     0.000 C 
BRANCH  18  19
ATOM     19  C   UNL     1       5.752   0.452  20.198  1.00  0.00     0.000 C 
BRANCH  19  20
ATOM     20  C   UNL     1       7.281   0.270  20.080  1.00  0.00     0.000 C 
BRANCH  20  21
ATOM     21  C   UNL     1       8.004   1.353  19.252  1.00  0.00     0.000 C 
BRANCH  21  22
ATOM     22  C   UNL     1       9.341   1.868  19.829  1.00  0.00    -0.000 C 
BRANCH  22  23
ATOM     23  C   UNL     1      10.236   2.656  18.851  1.00  0.00    -0.000 C 
BRANCH  23  24
ATOM     24  C   UNL     1      10.244   2.116  17.405  1.00  0.00    -0.000 C 
BRANCH  24  25
ATOM     25  C   UNL     1      11.361   1.095  17.116  1.00  0.00    -0.000 C 
BRANCH  25  26
ATOM     26  C   UNL     1      12.683   1.729  16.637  1.00  0.00    -0.000 C 
BRANCH  26  27
ATOM     27  C   UNL     1      13.859   0.738  16.696  1.00  0.00    -0.000 C 
BRANCH  27  28
ATOM     28  C   UNL     1      15.157   1.379  17.218  1.00  0.00    -0.000 C 
BRANCH  28  29
ATOM     29  C   UNL     1      16.374   0.438  17.243  1.00  0.00    -0.003 C 
ATOM     30  C   UNL     1      16.971   0.271  18.639  1.00  0.00     0.004 C 
ENDBRANCH  28  29
ENDBRANCH  27  28
ENDBRANCH  26  27
ENDBRANCH  25  26
ENDBRANCH  24  25
ENDBRANCH  23  24
ENDBRANCH  22  23
ENDBRANCH  21  22
ENDBRANCH  20  21
ENDBRANCH  19  20
ENDBRANCH  18  19
ENDBRANCH  17  18
ENDBRANCH   1  17
TORSDOF 26
ENDMDL
MODEL 5
REMARK VINA RESULT:    -2.688      4.486     12.124
REMARK INTER + INTRA:          -8.061
REMARK INTER:                  -7.410
REMARK INTRA:                  -0.651
REMARK UNBOUND:                -1.288
REMARK SMILES CCCCCCCCCCCCCCCCCCCCCCCCCCCC(=O)[O-]
REMARK SMILES IDX 15 1 16 2 17 3 18 4 19 5 20 6 21 7 22 8 23 9 24 10 25 11
REMARK SMILES IDX 26 12 27 13 28 14 29 15 30 16 14 17 13 18 12 19 11 20 10 21
REMARK SMILES IDX 9 22 8 23 7 24 6 25 5 26 4 27 3 28 2 29 1 30
REMARK H PARENT
REMARK Flexibility Score: inf
ROOT
ATOM      1  C   UNL     1       1.639   5.448  17.615  1.00  0.00     0.000 C 
ENDROOT
BRANCH   1   2
ATOM      2  C   UNL     1       0.921   4.120  17.302  1.00  0.00     0.000 C 
BRANCH   2   3
ATOM      3  C   UNL     1       1.410   2.901  18.105  1.00  0.00     0.000 C 
BRANCH   3   4
ATOM      4  C   UNL     1       1.056   1.529  17.497  1.00  0.00     0.000 C 
BRANCH   4   5
ATOM      5  C   UNL     1       2.194   0.489  17.518  1.00  0.00     0.000 C 
BRANCH   5   6
ATOM      6  C   UNL     1       2.590  -0.016  18.919  1.00  0.00     0.000 C 
BRANCH   6   7
ATOM      7  C   UNL     1       3.161  -1.446  18.956  1.00  0.00     0.000 C 
BRANCH   7   8
ATOM      8  C   UNL     1       3.835  -1.844  20.285  1.00  0.00     0.000 C 
BRANCH   8   9
ATOM      9  C   UNL     1       4.845  -3.006  20.185  1.00  0.00     0.000 C 
BRANCH   9  10
ATOM     10  C   UNL     1       5.279  -3.610  21.533  1.00  0.00     0.000 C 
BRANCH  10  11
ATOM     11  C   UNL     1       6.805  -3.703  21.682  1.00  0.00     0.000 C 
BRANCH  11  12
ATOM     12  C   UNL     1       7.391  -4.713  20.683  1.00  0.00     0.006 C 
BRANCH  12  13
ATOM     13  C   UNL     1       8.127  -5.862  21.383  1.00  0.00     0.053 C 
BRANCH  13  14
ATOM     14  C   UNL     1       7.272  -7.087  21.490  1.00  0.00     0.041 C 
ATOM     15  O   UNL     1       7.777  -8.228  21.323  1.00  0.00    -0.550 OA
ATOM     16  O   UNL     1       5.924  -6.971  21.808  1.00  0.00    -0.550 OA
ENDBRANCH  13  14
ENDBRANCH  12  13
ENDBRANCH  11  12
ENDBRANCH  10  11
ENDBRANCH   9  10
ENDBRANCH   8   9
ENDBRANCH   7   8
ENDBRANCH   6   7
ENDBRANCH   5   6
ENDBRANCH   4   5
ENDBRANCH   3   4
ENDBRANCH   2   3
ENDBRANCH   1   2
BRANCH   1  17
ATOM     17  C   UNL     1       0.875   6.365  18.594  1.00  0.00     0.000 C 
BRANCH  17  18
ATOM     18  C   UNL     1       0.969   7.855  18.223  1.00  0.00     0.000 C 
BRANCH  18  19
ATOM     19  C   UNL     1       1.981   8.135  17.099  1.00  0.00     0.000 C 
BRANCH  19  20
ATOM     20  C   UNL     1       1.402   7.989  15.675  1.00  0.00     0.000 C 
BRANCH  20  21
ATOM     21  C   UNL     1       2.094   6.925  14.797  1.00  0.00     0.000 C 
BRANCH  21  22
ATOM     22  C   UNL     1       3.579   7.184  14.461  1.00  0.00    -0.000 C 
BRANCH  22  23
ATOM     23  C   UNL     1       4.478   5.933  14.375  1.00  0.00    -0.000 C 
BRANCH  23  24
ATOM     24  C   UNL     1       5.825   6.154  13.657  1.00  0.00    -0.000 C 
BRANCH  24  25
ATOM     25  C   UNL     1       6.747   4.919  13.646  1.00  0.00    -0.000 C 
BRANCH  25  26
ATOM     26  C   UNL     1       7.960   5.050  12.702  1.00  0.00    -0.000 C 
BRANCH  26  27
ATOM     27  C   UNL     1       7.591   4.761  11.236  1.00  0.00    -0.000 C 
BRANCH  27  28
ATOM     28  C   UNL     1       8.689   5.189  10.247  1.00  0.00    -0.000 C 
BRANCH  28  29
ATOM     29  C   UNL     1       9.196   4.067   9.324  1.00  0.00    -0.003 C 
ATOM     30  C   UNL     1      10.675   3.745   9.533  1.00  0.00     0.004 C 
ENDBRANCH  28  29
ENDBRANCH  27  28
ENDBRANCH  26  27
ENDBRANCH  25  26
ENDBRANCH  24  25
ENDBRANCH  23  24
ENDBRANCH  22  23
ENDBRANCH  21  22
ENDBRANCH  20  21
ENDBRANCH  19  20
ENDBRANCH  18  19
ENDBRANCH  17  18
ENDBRANCH   1  17
TORSDOF 26
ENDMDL
MODEL 6
REMARK VINA RESULT:    -2.532      5.253      8.023
REMARK INTER + INTRA:          -7.668
REMARK INTER:                  -5.790
REMARK INTRA:                  -1.878
REMARK UNBOUND:                -1.288
REMARK SMILES CCCCCCCCCCCCCCCCCCCCCCCCCCCC(=O)[O-]
REMARK SMILES IDX 15 1 16 2 17 3 18 4 19 5 20 6 21 7 22 8 23 9 24 10 25 11
REMARK SMILES IDX 26 12 27 13 28 14 29 15 30 16 14 17 13 18 12 19 11 20 10 21
REMARK SMILES IDX 9 22 8 23 7 24 6 25 5 26 4 27 3 28 2 29 1 30
REMARK H PARENT
REMARK Flexibility Score: inf
ROOT
ATOM      1  C   UNL     1       5.430  -3.908  19.935  1.00  0.00     0.000 C 
ENDROOT
BRANCH   1   2
ATOM      2  C   UNL     1       3.998  -3.711  19.400  1.00  0.00     0.000 C 
BRANCH   2   3
ATOM      3  C   UNL     1       3.672  -2.294  18.897  1.00  0.00     0.000 C 
BRANCH   3   4
ATOM      4  C   UNL     1       2.700  -1.489  19.783  1.00  0.00     0.000 C 
BRANCH   4   5
ATOM      5  C   UNL     1       1.273  -1.336  19.220  1.00  0.00     0.000 C 
BRANCH   5   6
ATOM      6  C   UNL     1       0.938   0.062  18.664  1.00  0.00     0.000 C 
BRANCH   6   7
ATOM      7  C   UNL     1       2.009   1.138  18.923  1.00  0.00     0.000 C 
BRANCH   7   8
ATOM      8  C   UNL     1       2.176   2.176  17.795  1.00  0.00     0.000 C 
BRANCH   8   9
ATOM      9  C   UNL     1       0.876   2.879  17.353  1.00  0.00     0.000 C 
BRANCH   9  10
ATOM     10  C   UNL     1       0.974   4.410  17.227  1.00  0.00     0.000 C 
BRANCH  10  11
ATOM     11  C   UNL     1       2.057   5.016  18.131  1.00  0.00     0.000 C 
BRANCH  11  12
ATOM     12  C   UNL     1       2.816   6.135  17.402  1.00  0.00     0.006 C 
BRANCH  12  13
ATOM     13  C   UNL     1       2.487   6.180  15.905  1.00  0.00     0.053 C 
BRANCH  13  14
ATOM     14  C   UNL     1       2.162   7.569  15.448  1.00  0.00     0.041 C 
ATOM     15  O   UNL     1       1.151   8.164  15.904  1.00  0.00    -0.550 OA
ATOM     16  O   UNL     1       2.995   8.219  14.545  1.00  0.00    -0.550 OA
ENDBRANCH  13  14
ENDBRANCH  12  13
ENDBRANCH  11  12
ENDBRANCH  10  11
ENDBRANCH   9  10
ENDBRANCH   8   9
ENDBRANCH   7   8
ENDBRANCH   6   7
ENDBRANCH   5   6
ENDBRANCH   4   5
ENDBRANCH   3   4
ENDBRANCH   2   3
ENDBRANCH   1   2
BRANCH   1  17
ATOM     17  C   UNL     1       5.739  -3.118  21.224  1.00  0.00     0.000 C 
BRANCH  17  18
ATOM     18  C   UNL     1       6.755  -1.983  21.008  1.00  0.00     0.000 C 
BRANCH  18  19
ATOM     19  C   UNL     1       6.137  -0.582  21.157  1.00  0.00     0.000 C 
BRANCH  19  20
ATOM     20  C   UNL     1       6.303   0.318  19.913  1.00  0.00     0.000 C 
BRANCH  20  21
ATOM     21  C   UNL     1       7.385   1.412  20.040  1.00  0.00     0.000 C 
BRANCH  21  22
ATOM     22  C   UNL     1       8.739   1.107  19.362  1.00  0.00    -0.000 C 
BRANCH  22  23
ATOM     23  C   UNL     1       9.614   2.333  19.029  1.00  0.00    -0.000 C 
BRANCH  23  24
ATOM     24  C   UNL     1       9.996   2.469  17.540  1.00  0.00    -0.000 C 
BRANCH  24  25
ATOM     25  C   UNL     1      10.983   1.398  17.038  1.00  0.00    -0.000 C 
BRANCH  25  26
ATOM     26  C   UNL     1      12.434   1.901  16.893  1.00  0.00    -0.000 C 
BRANCH  26  27
ATOM     27  C   UNL     1      13.458   0.754  16.964  1.00  0.00    -0.000 C 
BRANCH  27  28
ATOM     28  C   UNL     1      14.904   1.252  17.134  1.00  0.00    -0.000 C 
BRANCH  28  29
ATOM     29  C   UNL     1      15.969   0.142  17.144  1.00  0.00    -0.003 C 
ATOM     30  C   UNL     1      17.120   0.427  18.108  1.00  0.00     0.004 C 
ENDBRANCH  28  29
ENDBRANCH  27  28
ENDBRANCH  26  27
ENDBRANCH  25  26
ENDBRANCH  24  25
ENDBRANCH  23  24
ENDBRANCH  22  23
ENDBRANCH  21  22
ENDBRANCH  20  21
ENDBRANCH  19  20
ENDBRANCH  18  19
ENDBRANCH  17  18
ENDBRANCH   1  17
TORSDOF 26
ENDMDL
MODEL 7
REMARK VINA RESULT:    -2.085      3.850      9.965
REMARK INTER + INTRA:          -6.540
REMARK INTER:                  -5.685
REMARK INTRA:                  -0.855
REMARK UNBOUND:                -1.288
REMARK SMILES CCCCCCCCCCCCCCCCCCCCCCCCCCCC(=O)[O-]
REMARK SMILES IDX 15 1 16 2 17 3 18 4 19 5 20 6 21 7 22 8 23 9 24 10 25 11
REMARK SMILES IDX 26 12 27 13 28 14 29 15 30 16 14 17 13 18 12 19 11 20 10 21
REMARK SMILES IDX 9 22 8 23 7 24 6 25 5 26 4 27 3 28 2 29 1 30
REMARK H PARENT
REMARK Flexibility Score: inf
ROOT
ATOM      1  C   UNL     1       5.840  -4.285  18.686  1.00  0.00     0.000 C 
ENDROOT
BRANCH   1   2
ATOM      2  C   UNL     1       6.844  -4.920  19.669  1.00  0.00     0.000 C 
BRANCH   2   3
ATOM      3  C   UNL     1       6.526  -4.714  21.161  1.00  0.00     0.000 C 
BRANCH   3   4
ATOM      4  C   UNL     1       6.949  -3.350  21.741  1.00  0.00     0.000 C 
BRANCH   4   5
ATOM      5  C   UNL     1       5.793  -2.470  22.256  1.00  0.00     0.000 C 
BRANCH   5   6
ATOM      6  C   UNL     1       5.872  -0.986  21.848  1.00  0.00     0.000 C 
BRANCH   6   7
ATOM      7  C   UNL     1       5.090  -0.621  20.572  1.00  0.00     0.000 C 
BRANCH   7   8
ATOM      8  C   UNL     1       5.806   0.366  19.628  1.00  0.00     0.000 C 
BRANCH   8   9
ATOM      9  C   UNL     1       7.341   0.415  19.774  1.00  0.00     0.000 C 
BRANCH   9  10
ATOM     10  C   UNL     1       8.010   1.679  19.205  1.00  0.00     0.000 C 
BRANCH  10  11
ATOM     11  C   UNL     1       9.340   2.014  19.896  1.00  0.00     0.000 C 
BRANCH  11  12
ATOM     12  C   UNL     1      10.283   2.757  18.937  1.00  0.00     0.006 C 
BRANCH  12  13
ATOM     13  C   UNL     1      10.194   2.221  17.503  1.00  0.00     0.053 C 
BRANCH  13  14
ATOM     14  C   UNL     1      11.324   1.291  17.186  1.00  0.00     0.041 C 
ATOM     15  O   UNL     1      11.346   0.131  17.676  1.00  0.00    -0.550 OA
ATOM     16  O   UNL     1      12.337   1.692  16.323  1.00  0.00    -0.550 OA
ENDBRANCH  13  14
ENDBRANCH  12  13
ENDBRANCH  11  12
ENDBRANCH  10  11
ENDBRANCH   9  10
ENDBRANCH   8   9
ENDBRANCH   7   8
ENDBRANCH   6   7
ENDBRANCH   5   6
ENDBRANCH   4   5
ENDBRANCH   3   4
ENDBRANCH   2   3
ENDBRANCH   1   2
BRANCH   1  17
ATOM     17  C   UNL     1       4.472  -3.939  19.314  1.00  0.00     0.000 C 
BRANCH  17  18
ATOM     18  C   UNL     1       3.861  -2.644  18.753  1.00  0.00     0.000 C 
BRANCH  18  19
ATOM     19  C   UNL     1       2.931  -1.933  19.750  1.00  0.00     0.000 C 
BRANCH  19  20
ATOM     20  C   UNL     1       1.433  -2.002  19.379  1.00  0.00     0.000 C 
BRANCH  20  21
ATOM     21  C   UNL     1       0.917  -0.818  18.534  1.00  0.00     0.000 C 
BRANCH  21  22
ATOM     22  C   UNL     1       1.341   0.590  19.009  1.00  0.00    -0.000 C 
BRANCH  22  23
ATOM     23  C   UNL     1       0.875   1.766  18.126  1.00  0.00    -0.000 C 
BRANCH  23  24
ATOM     24  C   UNL     1       2.015   2.637  17.558  1.00  0.00    -0.000 C 
BRANCH  24  25
ATOM     25  C   UNL     1       1.598   4.080  17.214  1.00  0.00    -0.000 C 
BRANCH  25  26
ATOM     26  C   UNL     1       2.100   5.135  18.221  1.00  0.00    -0.000 C 
BRANCH  26  27
ATOM     27  C   UNL     1       2.444   6.472  17.541  1.00  0.00    -0.000 C 
BRANCH  27  28
ATOM     28  C   UNL     1       1.696   6.677  16.211  1.00  0.00    -0.000 C 
BRANCH  28  29
ATOM     29  C   UNL     1       2.319   7.731  15.279  1.00  0.00    -0.003 C 
ATOM     30  C   UNL     1       2.027   9.165  15.719  1.00  0.00     0.004 C 
ENDBRANCH  28  29
ENDBRANCH  27  28
ENDBRANCH  26  27
ENDBRANCH  25  26
ENDBRANCH  24  25
ENDBRANCH  23  24
ENDBRANCH  22  23
ENDBRANCH  21  22
ENDBRANCH  20  21
ENDBRANCH  19  20
ENDBRANCH  18  19
ENDBRANCH  17  18
ENDBRANCH   1  17
TORSDOF 26
ENDMDL
