MODEL 1
REMARK VINA RESULT:    -5.011      0.000      0.000
REMARK INTER + INTRA:          -6.559
REMARK INTER:                  -7.062
REMARK INTRA:                   0.503
REMARK UNBOUND:                 0.503
REMARK SMILES CC1=CCC(=C(C)C)C(=O)CC(C)=CCC1
REMARK SMILES IDX 12 1 14 2 13 3 15 4 16 5 2 6 1 7 3 8 11 10 9 11 10 12 5 13
REMARK SMILES IDX 6 14 7 15 8 16 4 17
REMARK H PARENT
REMARK Flexibility Score: 60.00
ROOT
ATOM      1  C   UNL     1     -11.905 -34.461  32.170  1.00  0.00    -0.070 C 
ATOM      2  C   UNL     1     -11.970 -35.807  32.301  1.00  0.00    -0.027 C 
ATOM      3  C   UNL     1     -11.001 -33.712  33.118  1.00  0.00     0.039 C 
ENDROOT
BRANCH   2   4
ATOM      4  C   UNL     1     -12.881 -36.738  31.537  1.00  0.00     0.032 C 
BRANCH   4   5
ATOM      5  C   UNL     1     -12.238 -37.261  30.239  1.00  0.00     0.034 C 
BRANCH   5   6
ATOM      6  C   UNL     1     -13.174 -37.146  29.051  1.00  0.00    -0.077 C 
ATOM      7  C   UNL     1     -14.335 -38.103  28.960  1.00  0.00     0.039 C 
ATOM      8  C   UNL     1     -13.042 -36.216  28.079  1.00  0.00    -0.023 CG0
ATOM      9  G   UNL     1     -11.971 -35.155  28.012  1.00  0.00     0.000 G0
ENDBRANCH   5   6
ENDBRANCH   4   5
ENDBRANCH   2   4
BRANCH   1  10
ATOM     10  C   UNL     1     -12.737 -33.669  31.175  1.00  0.00     0.111 C 
BRANCH  10  11
ATOM     11  C   UNL     1     -11.978 -33.414  29.896  1.00  0.00     0.163 C 
ATOM     12  O   UNL     1     -10.849 -32.858  29.976  1.00  0.00    -0.294 OA
BRANCH  11  13
ATOM     13  C   UNL     1     -12.503 -33.849  28.564  1.00  0.00    -0.002 C 
ATOM     14  C   UNL     1     -13.469 -33.138  27.906  1.00  0.00    -0.069 C 
ATOM     15  C   UNL     1     -13.968 -33.564  26.542  1.00  0.00     0.039 C 
ATOM     16  C   UNL     1     -14.110 -31.914  28.521  1.00  0.00     0.039 C 
BRANCH  13  17
ATOM     17  C   UNL     1     -11.974 -35.158  28.006  1.00  0.00     0.066 CG0
ATOM     18  G   UNL     1     -13.045 -36.218  28.085  1.00  0.00     0.000 G0
ENDBRANCH  13  17
ENDBRANCH  11  13
ENDBRANCH  10  11
ENDBRANCH   1  10
TORSDOF 0
ENDMDL
MODEL 2
REMARK VINA RESULT:    -4.902      1.981      3.646
REMARK INTER + INTRA:          -6.406
REMARK INTER:                  -7.203
REMARK INTRA:                   0.797
REMARK UNBOUND:                 0.503
REMARK SMILES CC1=CCC(=C(C)C)C(=O)CC(C)=CCC1
REMARK SMILES IDX 12 1 14 2 13 3 15 4 16 5 2 6 1 7 3 8 11 10 9 11 10 12 5 13
REMARK SMILES IDX 6 14 7 15 8 16 4 17
REMARK H PARENT
REMARK Flexibility Score: 60.00
ROOT
ATOM      1  C   UNL     1     -12.886 -37.036  31.069  1.00  0.00    -0.070 C 
ATOM      2  C   UNL     1     -12.597 -37.113  29.748  1.00  0.00    -0.027 C 
ATOM      3  C   UNL     1     -12.155 -37.975  31.998  1.00  0.00     0.039 C 
ENDROOT
BRANCH   2   4
ATOM      4  C   UNL     1     -13.278 -36.350  28.638  1.00  0.00     0.032 C 
BRANCH   4   5
ATOM      5  C   UNL     1     -12.325 -35.378  27.916  1.00  0.00     0.034 C 
BRANCH   5   6
ATOM      6  C   UNL     1     -11.480 -34.578  28.889  1.00  0.00    -0.077 C 
ATOM      7  C   UNL     1      -9.996 -34.837  28.929  1.00  0.00     0.039 C 
ATOM      8  C   UNL     1     -11.979 -33.626  29.709  1.00  0.00    -0.023 CG0
ATOM      9  G   UNL     1     -13.425 -33.200  29.791  1.00  0.00     0.000 G0
ENDBRANCH   5   6
ENDBRANCH   4   5
ENDBRANCH   2   4
BRANCH   1  10
ATOM     10  C   UNL     1     -13.943 -36.111  31.649  1.00  0.00     0.111 C 
BRANCH  10  11
ATOM     11  C   UNL     1     -13.398 -34.723  31.883  1.00  0.00     0.163 C 
ATOM     12  O   UNL     1     -12.412 -34.595  32.657  1.00  0.00    -0.294 OA
BRANCH  11  13
ATOM     13  C   UNL     1     -13.959 -33.525  31.183  1.00  0.00    -0.002 C 
ATOM     14  C   UNL     1     -14.960 -32.774  31.737  1.00  0.00    -0.069 C 
ATOM     15  C   UNL     1     -15.497 -31.542  31.040  1.00  0.00     0.039 C 
ATOM     16  C   UNL     1     -15.604 -33.155  33.051  1.00  0.00     0.039 C 
BRANCH  13  17
ATOM     17  C   UNL     1     -13.424 -33.220  29.796  1.00  0.00     0.066 CG0
ATOM     18  G   UNL     1     -11.964 -33.593  29.718  1.00  0.00     0.000 G0
ENDBRANCH  13  17
ENDBRANCH  11  13
ENDBRANCH  10  11
ENDBRANCH   1  10
TORSDOF 0
ENDMDL
MODEL 3
REMARK VINA RESULT:    -4.856      2.222      3.611
REMARK INTER + INTRA:          -6.340
REMARK INTER:                  -7.275
REMARK INTRA:                   0.935
REMARK UNBOUND:                 0.503
REMARK SMILES CC1=CCC(=C(C)C)C(=O)CC(C)=CCC1
REMARK SMILES IDX 12 1 14 2 13 3 15 4 16 5 2 6 1 7 3 8 11 10 9 11 10 12 5 13
REMARK SMILES IDX 6 14 7 15 8 16 4 17
REMARK H PARENT
REMARK Flexibility Score: 60.00
ROOT
ATOM      1  C   UNL     1     -11.218 -34.500  28.811  1.00  0.00    -0.070 C 
ATOM      2  C   UNL     1     -10.579 -35.370  29.630  1.00  0.00    -0.027 C 
ATOM      3  C   UNL     1     -11.346 -34.879  27.356  1.00  0.00     0.039 C 
ENDROOT
BRANCH   2   4
ATOM      4  C   UNL     1     -10.248 -35.148  31.085  1.00  0.00     0.032 C 
BRANCH   4   5
ATOM      5  C   UNL     1     -10.911 -36.188  32.009  1.00  0.00     0.034 C 
BRANCH   5   6
ATOM      6  C   UNL     1     -12.353 -36.456  31.624  1.00  0.00    -0.077 C 
ATOM      7  C   UNL     1     -12.750 -37.868  31.275  1.00  0.00     0.039 C 
ATOM      8  C   UNL     1     -13.313 -35.504  31.600  1.00  0.00    -0.023 CG0
ATOM      9  G   UNL     1     -13.121 -34.048  31.948  1.00  0.00     0.000 G0
ENDBRANCH   5   6
ENDBRANCH   4   5
ENDBRANCH   2   4
BRANCH   1  10
ATOM     10  C   UNL     1     -11.748 -33.149  29.262  1.00  0.00     0.111 C 
BRANCH  10  11
ATOM     11  C   UNL     1     -13.237 -33.191  29.509  1.00  0.00     0.163 C 
ATOM     12  O   UNL     1     -14.000 -33.291  28.511  1.00  0.00    -0.294 OA
BRANCH  11  13
ATOM     13  C   UNL     1     -13.810 -33.171  30.890  1.00  0.00    -0.002 C 
ATOM     14  C   UNL     1     -14.862 -32.360  31.220  1.00  0.00    -0.069 C 
ATOM     15  C   UNL     1     -15.461 -32.373  32.609  1.00  0.00     0.039 C 
ATOM     16  C   UNL     1     -15.453 -31.385  30.226  1.00  0.00     0.039 C 
BRANCH  13  17
ATOM     17  C   UNL     1     -13.128 -34.035  31.935  1.00  0.00     0.066 CG0
ATOM     18  G   UNL     1     -13.332 -35.494  31.606  1.00  0.00     0.000 G0
ENDBRANCH  13  17
ENDBRANCH  11  13
ENDBRANCH  10  11
ENDBRANCH   1  10
TORSDOF 0
ENDMDL
MODEL 4
REMARK VINA RESULT:    -4.550      1.301      3.860
REMARK INTER + INTRA:          -5.909
REMARK INTER:                  -6.886
REMARK INTRA:                   0.977
REMARK UNBOUND:                 0.503
REMARK SMILES CC1=CCC(=C(C)C)C(=O)CC(C)=CCC1
REMARK SMILES IDX 12 1 14 2 13 3 15 4 16 5 2 6 1 7 3 8 11 10 9 11 10 12 5 13
REMARK SMILES IDX 6 14 7 15 8 16 4 17
REMARK H PARENT
REMARK Flexibility Score: 60.00
ROOT
ATOM      1  C   UNL     1     -13.599 -33.188  31.087  1.00  0.00    -0.070 C 
ATOM      2  C   UNL     1     -14.049 -32.823  29.863  1.00  0.00    -0.027 C 
ATOM      3  C   UNL     1     -14.595 -33.198  32.220  1.00  0.00     0.039 C 
ENDROOT
BRANCH   2   4
ATOM      4  C   UNL     1     -13.212 -32.642  28.620  1.00  0.00     0.032 C 
BRANCH   4   5
ATOM      5  C   UNL     1     -13.656 -33.564  27.468  1.00  0.00     0.034 C 
BRANCH   5   6
ATOM      6  C   UNL     1     -12.616 -34.621  27.149  1.00  0.00    -0.077 C 
ATOM      7  C   UNL     1     -11.717 -34.405  25.958  1.00  0.00     0.039 C 
ATOM      8  C   UNL     1     -12.431 -35.739  27.888  1.00  0.00    -0.023 CG0
ATOM      9  G   UNL     1     -13.204 -36.114  29.129  1.00  0.00     0.000 G0
ENDBRANCH   5   6
ENDBRANCH   4   5
ENDBRANCH   2   4
BRANCH   1  10
ATOM     10  C   UNL     1     -12.147 -33.518  31.389  1.00  0.00     0.111 C 
BRANCH  10  11
ATOM     11  C   UNL     1     -11.633 -34.624  30.500  1.00  0.00     0.163 C 
ATOM     12  O   UNL     1     -10.544 -34.440  29.893  1.00  0.00    -0.294 OA
BRANCH  11  13
ATOM     13  C   UNL     1     -12.349 -35.931  30.370  1.00  0.00    -0.002 C 
ATOM     14  C   UNL     1     -12.179 -36.937  31.282  1.00  0.00    -0.069 C 
ATOM     15  C   UNL     1     -12.935 -38.243  31.164  1.00  0.00     0.039 C 
ATOM     16  C   UNL     1     -11.203 -36.810  32.430  1.00  0.00     0.039 C 
BRANCH  13  17
ATOM     17  C   UNL     1     -13.215 -36.126  29.139  1.00  0.00     0.066 CG0
ATOM     18  G   UNL     1     -12.437 -35.753  27.901  1.00  0.00     0.000 G0
ENDBRANCH  13  17
ENDBRANCH  11  13
ENDBRANCH  10  11
ENDBRANCH   1  10
TORSDOF 0
ENDMDL
MODEL 5
REMARK VINA RESULT:    -4.493      1.977      3.300
REMARK INTER + INTRA:          -5.829
REMARK INTER:                  -6.501
REMARK INTRA:                   0.672
REMARK UNBOUND:                 0.503
REMARK SMILES CC1=CCC(=C(C)C)C(=O)CC(C)=CCC1
REMARK SMILES IDX 12 1 14 2 13 3 15 4 16 5 2 6 1 7 3 8 11 10 9 11 10 12 5 13
REMARK SMILES IDX 6 14 7 15 8 16 4 17
REMARK H PARENT
REMARK Flexibility Score: 60.00
ROOT
ATOM      1  C   UNL     1     -13.537 -34.522  31.640  1.00  0.00    -0.070 C 
ATOM      2  C   UNL     1     -12.484 -35.003  32.343  1.00  0.00    -0.027 C 
ATOM      3  C   UNL     1     -14.563 -33.711  32.392  1.00  0.00     0.039 C 
ENDROOT
BRANCH   2   4
ATOM      4  C   UNL     1     -11.403 -35.919  31.821  1.00  0.00     0.032 C 
BRANCH   4   5
ATOM      5  C   UNL     1     -10.023 -35.236  31.767  1.00  0.00     0.034 C 
BRANCH   5   6
ATOM      6  C   UNL     1     -10.117 -33.793  31.308  1.00  0.00    -0.077 C 
ATOM      7  C   UNL     1      -9.875 -32.703  32.321  1.00  0.00     0.039 C 
ATOM      8  C   UNL     1     -10.381 -33.426  30.034  1.00  0.00    -0.023 CG0
ATOM      9  G   UNL     1     -10.616 -34.365  28.876  1.00  0.00     0.000 G0
ENDBRANCH   5   6
ENDBRANCH   4   5
ENDBRANCH   2   4
BRANCH   1  10
ATOM     10  C   UNL     1     -13.770 -34.808  30.166  1.00  0.00     0.111 C 
BRANCH  10  11
ATOM     11  C   UNL     1     -13.115 -33.770  29.288  1.00  0.00     0.163 C 
ATOM     12  O   UNL     1     -13.462 -32.567  29.431  1.00  0.00    -0.294 OA
BRANCH  11  13
ATOM     13  C   UNL     1     -12.042 -34.126  28.307  1.00  0.00    -0.002 C 
ATOM     14  C   UNL     1     -12.314 -34.303  26.978  1.00  0.00    -0.069 C 
ATOM     15  C   UNL     1     -11.217 -34.626  25.986  1.00  0.00     0.039 C 
ATOM     16  C   UNL     1     -13.725 -34.220  26.440  1.00  0.00     0.039 C 
BRANCH  13  17
ATOM     17  C   UNL     1     -10.648 -34.359  28.861  1.00  0.00     0.066 CG0
ATOM     18  G   UNL     1     -10.399 -33.433  30.027  1.00  0.00     0.000 G0
ENDBRANCH  13  17
ENDBRANCH  11  13
ENDBRANCH  10  11
ENDBRANCH   1  10
TORSDOF 0
ENDMDL
MODEL 6
REMARK VINA RESULT:    -4.392      1.681      3.421
REMARK INTER + INTRA:          -5.686
REMARK INTER:                  -6.549
REMARK INTRA:                   0.863
REMARK UNBOUND:                 0.503
REMARK SMILES CC1=CCC(=C(C)C)C(=O)CC(C)=CCC1
REMARK SMILES IDX 12 1 14 2 13 3 15 4 16 5 2 6 1 7 3 8 11 10 9 11 10 12 5 13
REMARK SMILES IDX 6 14 7 15 8 16 4 17
REMARK H PARENT
REMARK Flexibility Score: 60.00
ROOT
ATOM      1  C   UNL     1     -13.115 -36.773  29.471  1.00  0.00    -0.070 C 
ATOM      2  C   UNL     1     -13.542 -36.991  30.738  1.00  0.00    -0.027 C 
ATOM      3  C   UNL     1     -14.007 -37.239  28.346  1.00  0.00     0.039 C 
ENDROOT
BRANCH   2   4
ATOM      4  C   UNL     1     -12.770 -36.706  32.003  1.00  0.00     0.032 C 
BRANCH   4   5
ATOM      5  C   UNL     1     -12.313 -35.237  32.100  1.00  0.00     0.034 C 
BRANCH   5   6
ATOM      6  C   UNL     1     -13.456 -34.267  31.873  1.00  0.00    -0.077 C 
ATOM      7  C   UNL     1     -14.641 -34.327  32.804  1.00  0.00     0.039 C 
ATOM      8  C   UNL     1     -13.465 -33.331  30.897  1.00  0.00    -0.023 CG0
ATOM      9  G   UNL     1     -12.362 -33.093  29.894  1.00  0.00     0.000 G0
ENDBRANCH   5   6
ENDBRANCH   4   5
ENDBRANCH   2   4
BRANCH   1  10
ATOM     10  C   UNL     1     -11.772 -36.151  29.128  1.00  0.00     0.111 C 
BRANCH  10  11
ATOM     11  C   UNL     1     -11.927 -34.977  28.191  1.00  0.00     0.163 C 
ATOM     12  O   UNL     1     -11.411 -35.062  27.044  1.00  0.00    -0.294 OA
BRANCH  11  13
ATOM     13  C   UNL     1     -12.711 -33.761  28.570  1.00  0.00    -0.002 C 
ATOM     14  C   UNL     1     -13.661 -33.231  27.740  1.00  0.00    -0.069 C 
ATOM     15  C   UNL     1     -14.476 -32.023  28.146  1.00  0.00     0.039 C 
ATOM     16  C   UNL     1     -13.919 -33.803  26.364  1.00  0.00     0.039 C 
BRANCH  13  17
ATOM     17  C   UNL     1     -12.355 -33.091  29.885  1.00  0.00     0.066 CG0
ATOM     18  G   UNL     1     -13.455 -33.323  30.892  1.00  0.00     0.000 G0
ENDBRANCH  13  17
ENDBRANCH  11  13
ENDBRANCH  10  11
ENDBRANCH   1  10
TORSDOF 0
ENDMDL
MODEL 7
REMARK VINA RESULT:    -4.336      2.211      3.616
REMARK INTER + INTRA:          -5.608
REMARK INTER:                  -6.354
REMARK INTRA:                   0.746
REMARK UNBOUND:                 0.503
REMARK SMILES CC1=CCC(=C(C)C)C(=O)CC(C)=CCC1
REMARK SMILES IDX 12 1 14 2 13 3 15 4 16 5 2 6 1 7 3 8 11 10 9 11 10 12 5 13
REMARK SMILES IDX 6 14 7 15 8 16 4 17
REMARK H PARENT
REMARK Flexibility Score: 60.00
ROOT
ATOM      1  C   UNL     1     -11.005 -33.927  32.426  1.00  0.00    -0.070 C 
ATOM      2  C   UNL     1     -10.233 -33.484  31.404  1.00  0.00    -0.027 C 
ATOM      3  C   UNL     1     -11.030 -33.100  33.688  1.00  0.00     0.039 C 
ENDROOT
BRANCH   2   4
ATOM      4  C   UNL     1      -9.978 -34.201  30.100  1.00  0.00     0.032 C 
BRANCH   4   5
ATOM      5  C   UNL     1     -10.543 -33.439  28.886  1.00  0.00     0.034 C 
BRANCH   5   6
ATOM      6  C   UNL     1     -11.823 -34.064  28.365  1.00  0.00    -0.077 C 
ATOM      7  C   UNL     1     -11.737 -34.986  27.175  1.00  0.00     0.039 C 
ATOM      8  C   UNL     1     -13.038 -33.862  28.923  1.00  0.00    -0.023 CG0
ATOM      9  G   UNL     1     -13.323 -33.006  30.133  1.00  0.00     0.000 G0
ENDBRANCH   5   6
ENDBRANCH   4   5
ENDBRANCH   2   4
BRANCH   1  10
ATOM     10  C   UNL     1     -11.784 -35.231  32.391  1.00  0.00     0.111 C 
BRANCH  10  11
ATOM     11  C   UNL     1     -13.010 -35.122  31.518  1.00  0.00     0.163 C 
ATOM     12  O   UNL     1     -13.454 -36.174  30.985  1.00  0.00    -0.294 OA
BRANCH  11  13
ATOM     13  C   UNL     1     -13.728 -33.824  31.320  1.00  0.00    -0.002 C 
ATOM     14  C   UNL     1     -14.749 -33.435  32.143  1.00  0.00    -0.069 C 
ATOM     15  C   UNL     1     -15.445 -32.104  31.959  1.00  0.00     0.039 C 
ATOM     16  C   UNL     1     -15.258 -34.329  33.252  1.00  0.00     0.039 C 
BRANCH  13  17
ATOM     17  C   UNL     1     -13.326 -32.988  30.119  1.00  0.00     0.066 CG0
ATOM     18  G   UNL     1     -13.041 -33.887  28.941  1.00  0.00     0.000 G0
ENDBRANCH  13  17
ENDBRANCH  11  13
ENDBRANCH  10  11
ENDBRANCH   1  10
TORSDOF 0
ENDMDL
MODEL 8
REMARK VINA RESULT:    -4.308      2.265      4.540
REMARK INTER + INTRA:          -5.568
REMARK INTER:                  -7.359
REMARK INTRA:                   1.792
REMARK UNBOUND:                 0.503
REMARK SMILES CC1=CCC(=C(C)C)C(=O)CC(C)=CCC1
REMARK SMILES IDX 12 1 14 2 13 3 15 4 16 5 2 6 1 7 3 8 11 10 9 11 10 12 5 13
REMARK SMILES IDX 6 14 7 15 8 16 4 17
REMARK H PARENT
REMARK Flexibility Score: 60.00
ROOT
ATOM      1  C   UNL     1     -11.890 -34.831  27.914  1.00  0.00    -0.070 C 
ATOM      2  C   UNL     1     -10.742 -34.974  28.618  1.00  0.00    -0.027 C 
ATOM      3  C   UNL     1     -11.776 -34.691  26.416  1.00  0.00     0.039 C 
ENDROOT
BRANCH   2   4
ATOM      4  C   UNL     1     -10.613 -35.024  30.121  1.00  0.00     0.032 C 
BRANCH   4   5
ATOM      5  C   UNL     1     -10.232 -33.660  30.728  1.00  0.00     0.034 C 
BRANCH   5   6
ATOM      6  C   UNL     1     -10.753 -33.498  32.143  1.00  0.00    -0.077 C 
ATOM      7  C   UNL     1      -9.875 -32.807  33.155  1.00  0.00     0.039 C 
ATOM      8  C   UNL     1     -11.975 -33.917  32.545  1.00  0.00    -0.023 CG0
ATOM      9  G   UNL     1     -13.005 -34.596  31.676  1.00  0.00     0.000 G0
ENDBRANCH   5   6
ENDBRANCH   4   5
ENDBRANCH   2   4
BRANCH   1  10
ATOM     10  C   UNL     1     -13.266 -34.739  28.554  1.00  0.00     0.111 C 
BRANCH  10  11
ATOM     11  C   UNL     1     -13.397 -33.506  29.414  1.00  0.00     0.163 C 
ATOM     12  O   UNL     1     -13.230 -32.382  28.869  1.00  0.00    -0.294 OA
BRANCH  11  13
ATOM     13  C   UNL     1     -13.769 -33.587  30.861  1.00  0.00    -0.002 C 
ATOM     14  C   UNL     1     -14.687 -32.738  31.416  1.00  0.00    -0.069 C 
ATOM     15  C   UNL     1     -15.085 -32.850  32.871  1.00  0.00     0.039 C 
ATOM     16  C   UNL     1     -15.321 -31.623  30.614  1.00  0.00     0.039 C 
BRANCH  13  17
ATOM     17  C   UNL     1     -13.028 -34.604  31.709  1.00  0.00     0.066 CG0
ATOM     18  G   UNL     1     -11.976 -33.909  32.540  1.00  0.00     0.000 G0
ENDBRANCH  13  17
ENDBRANCH  11  13
ENDBRANCH  10  11
ENDBRANCH   1  10
TORSDOF 0
ENDMDL
MODEL 9
REMARK VINA RESULT:    -4.076      1.717      4.050
REMARK INTER + INTRA:          -5.241
REMARK INTER:                  -7.277
REMARK INTRA:                   2.037
REMARK UNBOUND:                 0.503
REMARK SMILES CC1=CCC(=C(C)C)C(=O)CC(C)=CCC1
REMARK SMILES IDX 12 1 14 2 13 3 15 4 16 5 2 6 1 7 3 8 11 10 9 11 10 12 5 13
REMARK SMILES IDX 6 14 7 15 8 16 4 17
REMARK H PARENT
REMARK Flexibility Score: 60.00
ROOT
ATOM      1  C   UNL     1     -13.171 -32.974  29.595  1.00  0.00    -0.070 C 
ATOM      2  C   UNL     1     -14.011 -32.919  30.656  1.00  0.00    -0.027 C 
ATOM      3  C   UNL     1     -13.767 -32.763  28.225  1.00  0.00     0.039 C 
ENDROOT
BRANCH   2   4
ATOM      4  C   UNL     1     -13.654 -33.203  32.095  1.00  0.00     0.032 C 
BRANCH   4   5
ATOM      5  C   UNL     1     -13.056 -34.610  32.290  1.00  0.00     0.034 C 
BRANCH   5   6
ATOM      6  C   UNL     1     -11.551 -34.572  32.467  1.00  0.00    -0.077 C 
ATOM      7  C   UNL     1     -10.968 -33.567  33.428  1.00  0.00     0.039 C 
ATOM      8  C   UNL     1     -10.699 -35.407  31.830  1.00  0.00    -0.023 CG0
ATOM      9  G   UNL     1     -11.090 -36.497  30.862  1.00  0.00     0.000 G0
ENDBRANCH   5   6
ENDBRANCH   4   5
ENDBRANCH   2   4
BRANCH   1  10
ATOM     10  C   UNL     1     -11.691 -33.300  29.705  1.00  0.00     0.111 C 
BRANCH  10  11
ATOM     11  C   UNL     1     -11.372 -34.646  29.103  1.00  0.00     0.163 C 
ATOM     12  O   UNL     1     -10.622 -34.680  28.090  1.00  0.00    -0.294 OA
BRANCH  11  13
ATOM     13  C   UNL     1     -11.874 -35.921  29.704  1.00  0.00    -0.002 C 
ATOM     14  C   UNL     1     -13.039 -36.503  29.284  1.00  0.00    -0.069 C 
ATOM     15  C   UNL     1     -13.521 -37.812  29.870  1.00  0.00     0.039 C 
ATOM     16  C   UNL     1     -13.920 -35.851  28.242  1.00  0.00     0.039 C 
BRANCH  13  17
ATOM     17  C   UNL     1     -11.075 -36.504  30.854  1.00  0.00     0.066 CG0
ATOM     18  G   UNL     1     -10.693 -35.409  31.820  1.00  0.00     0.000 G0
ENDBRANCH  13  17
ENDBRANCH  11  13
ENDBRANCH  10  11
ENDBRANCH   1  10
TORSDOF 0
ENDMDL
