MODEL 1
REMARK VINA RESULT:    -3.069      0.000      0.000
REMARK INTER + INTRA:          -8.650
REMARK INTER:                  -5.760
REMARK INTRA:                  -2.890
REMARK UNBOUND:                -2.890
REMARK SMILES CCCCCCCCC=CCCCCCCCC(=O)[O-]
REMARK SMILES IDX 10 1 9 2 11 3 12 4 13 5 14 6 15 7 16 8 17 9 18 10 19 11
REMARK SMILES IDX 20 12 8 13 7 14 6 15 5 16 4 17 3 18 2 19 1 20
REMARK H PARENT
REMARK Flexibility Score: inf
ROOT
ATOM      1  C   UNL     1      20.107   6.552  36.287  1.00  0.00    -0.031 C 
ATOM      2  C   UNL     1      21.227   6.203  35.635  1.00  0.00    -0.031 C 
ENDROOT
BRANCH   1   3
ATOM      3  C   UNL     1      19.440   7.875  36.030  1.00  0.00     0.027 C 
BRANCH   3   4
ATOM      4  C   UNL     1      20.362   8.825  35.247  1.00  0.00     0.004 C 
BRANCH   4   5
ATOM      5  C   UNL     1      20.968   9.909  36.148  1.00  0.00     0.000 C 
BRANCH   5   6
ATOM      6  C   UNL     1      22.421   9.605  36.541  1.00  0.00     0.000 C 
BRANCH   6   7
ATOM      7  C   UNL     1      22.653   9.693  38.061  1.00  0.00     0.000 C 
BRANCH   7   8
ATOM      8  C   UNL     1      22.254   8.401  38.786  1.00  0.00     0.006 C 
BRANCH   8   9
ATOM      9  C   UNL     1      21.361   8.656  40.007  1.00  0.00     0.053 C 
BRANCH   9  10
ATOM     10  C   UNL     1      19.922   8.465  39.648  1.00  0.00     0.041 C 
ATOM     11  O   UNL     1      19.381   7.335  39.797  1.00  0.00    -0.550 OA
ATOM     12  O   UNL     1      19.159   9.535  39.203  1.00  0.00    -0.550 OA
ENDBRANCH   9  10
ENDBRANCH   8   9
ENDBRANCH   7   8
ENDBRANCH   6   7
ENDBRANCH   5   6
ENDBRANCH   4   5
ENDBRANCH   3   4
ENDBRANCH   1   3
BRANCH   2  13
ATOM     13  C   UNL     1      21.980   4.952  35.990  1.00  0.00     0.027 C 
BRANCH  13  14
ATOM     14  C   UNL     1      22.349   4.140  34.740  1.00  0.00     0.004 C 
BRANCH  14  15
ATOM     15  C   UNL     1      22.077   4.927  33.439  1.00  0.00     0.000 C 
BRANCH  15  16
ATOM     16  C   UNL     1      21.126   4.195  32.475  1.00  0.00     0.000 C 
BRANCH  16  17
ATOM     17  C   UNL     1      19.729   4.831  32.320  1.00  0.00    -0.000 C 
BRANCH  17  18
ATOM     18  C   UNL     1      18.739   4.536  33.460  1.00  0.00    -0.000 C 
BRANCH  18  19
ATOM     19  C   UNL     1      18.688   3.064  33.904  1.00  0.00    -0.003 C 
ATOM     20  C   UNL     1      18.927   2.882  35.404  1.00  0.00     0.004 C 
ENDBRANCH  18  19
ENDBRANCH  17  18
ENDBRANCH  16  17
ENDBRANCH  15  16
ENDBRANCH  14  15
ENDBRANCH  13  14
ENDBRANCH   2  13
TORSDOF 15
ENDMDL
MODEL 2
REMARK VINA RESULT:    -3.036      9.494     12.626
REMARK INTER + INTRA:          -8.588
REMARK INTER:                  -5.930
REMARK INTRA:                  -2.658
REMARK UNBOUND:                -2.890
REMARK SMILES CCCCCCCCC=CCCCCCCCC(=O)[O-]
REMARK SMILES IDX 10 1 9 2 11 3 12 4 13 5 14 6 15 7 16 8 17 9 18 10 19 11
REMARK SMILES IDX 20 12 8 13 7 14 6 15 5 16 4 17 3 18 2 19 1 20
REMARK H PARENT
REMARK Flexibility Score: inf
ROOT
ATOM      1  C   UNL     1      10.099   7.073  30.448  1.00  0.00    -0.031 C 
ATOM      2  C   UNL     1       9.736   7.528  31.658  1.00  0.00    -0.031 C 
ENDROOT
BRANCH   1   3
ATOM      3  C   UNL     1       9.073   6.578  29.466  1.00  0.00     0.027 C 
BRANCH   3   4
ATOM      4  C   UNL     1       9.384   5.145  29.005  1.00  0.00     0.004 C 
BRANCH   4   5
ATOM      5  C   UNL     1       9.839   4.253  30.167  1.00  0.00     0.000 C 
BRANCH   5   6
ATOM      6  C   UNL     1       9.409   2.789  29.991  1.00  0.00     0.000 C 
BRANCH   6   7
ATOM      7  C   UNL     1      10.187   1.829  30.910  1.00  0.00     0.000 C 
BRANCH   7   8
ATOM      8  C   UNL     1      11.560   1.457  30.333  1.00  0.00     0.006 C 
BRANCH   8   9
ATOM      9  C   UNL     1      11.556   1.362  28.802  1.00  0.00     0.053 C 
BRANCH   9  10
ATOM     10  C   UNL     1      12.635   2.220  28.225  1.00  0.00     0.041 C 
ATOM     11  O   UNL     1      13.839   1.848  28.293  1.00  0.00    -0.550 OA
ATOM     12  O   UNL     1      12.321   3.398  27.563  1.00  0.00    -0.550 OA
ENDBRANCH   9  10
ENDBRANCH   8   9
ENDBRANCH   7   8
ENDBRANCH   6   7
ENDBRANCH   5   6
ENDBRANCH   4   5
ENDBRANCH   3   4
ENDBRANCH   1   3
BRANCH   2  13
ATOM     13  C   UNL     1      10.760   7.885  32.697  1.00  0.00     0.027 C 
BRANCH  13  14
ATOM     14  C   UNL     1      10.462   7.207  34.042  1.00  0.00     0.004 C 
BRANCH  14  15
ATOM     15  C   UNL     1      10.166   5.700  33.876  1.00  0.00     0.000 C 
BRANCH  15  16
ATOM     16  C   UNL     1      11.365   4.804  34.233  1.00  0.00     0.000 C 
BRANCH  16  17
ATOM     17  C   UNL     1      12.104   4.183  33.029  1.00  0.00    -0.000 C 
BRANCH  17  18
ATOM     18  C   UNL     1      13.096   5.115  32.311  1.00  0.00    -0.000 C 
BRANCH  18  19
ATOM     19  C   UNL     1      13.340   4.777  30.830  1.00  0.00    -0.003 C 
ATOM     20  C   UNL     1      14.825   4.679  30.476  1.00  0.00     0.004 C 
ENDBRANCH  18  19
ENDBRANCH  17  18
ENDBRANCH  16  17
ENDBRANCH  15  16
ENDBRANCH  14  15
ENDBRANCH  13  14
ENDBRANCH   2  13
TORSDOF 15
ENDMDL
MODEL 3
REMARK VINA RESULT:    -2.998      3.120      6.817
REMARK INTER + INTRA:          -8.516
REMARK INTER:                  -6.108
REMARK INTRA:                  -2.408
REMARK UNBOUND:                -2.890
REMARK SMILES CCCCCCCCC=CCCCCCCCC(=O)[O-]
REMARK SMILES IDX 10 1 9 2 11 3 12 4 13 5 14 6 15 7 16 8 17 9 18 10 19 11
REMARK SMILES IDX 20 12 8 13 7 14 6 15 5 16 4 17 3 18 2 19 1 20
REMARK H PARENT
REMARK Flexibility Score: inf
ROOT
ATOM      1  C   UNL     1      20.797   6.316  35.483  1.00  0.00    -0.031 C 
ATOM      2  C   UNL     1      19.734   7.120  35.645  1.00  0.00    -0.031 C 
ENDROOT
BRANCH   1   3
ATOM      3  C   UNL     1      20.752   4.875  35.913  1.00  0.00     0.027 C 
BRANCH   3   4
ATOM      4  C   UNL     1      22.146   4.229  35.855  1.00  0.00     0.004 C 
BRANCH   4   5
ATOM      5  C   UNL     1      22.231   3.141  34.777  1.00  0.00     0.000 C 
BRANCH   5   6
ATOM      6  C   UNL     1      23.261   3.469  33.687  1.00  0.00     0.000 C 
BRANCH   6   7
ATOM      7  C   UNL     1      22.821   4.643  32.792  1.00  0.00     0.000 C 
BRANCH   7   8
ATOM      8  C   UNL     1      21.662   4.261  31.861  1.00  0.00     0.006 C 
BRANCH   8   9
ATOM      9  C   UNL     1      20.390   5.078  32.129  1.00  0.00     0.053 C 
BRANCH   9  10
ATOM     10  C   UNL     1      19.194   4.377  31.568  1.00  0.00     0.041 C 
ATOM     11  O   UNL     1      18.156   4.244  32.272  1.00  0.00    -0.550 OA
ATOM     12  O   UNL     1      19.196   3.920  30.259  1.00  0.00    -0.550 OA
ENDBRANCH   9  10
ENDBRANCH   8   9
ENDBRANCH   7   8
ENDBRANCH   6   7
ENDBRANCH   5   6
ENDBRANCH   4   5
ENDBRANCH   3   4
ENDBRANCH   1   3
BRANCH   2  13
ATOM     13  C   UNL     1      19.816   8.592  35.356  1.00  0.00     0.027 C 
BRANCH  13  14
ATOM     14  C   UNL     1      21.270   9.084  35.334  1.00  0.00     0.004 C 
BRANCH  14  15
ATOM     15  C   UNL     1      21.650   9.822  36.636  1.00  0.00     0.000 C 
BRANCH  15  16
ATOM     16  C   UNL     1      20.545   9.773  37.706  1.00  0.00     0.000 C 
BRANCH  16  17
ATOM     17  C   UNL     1      20.906   8.999  38.991  1.00  0.00    -0.000 C 
BRANCH  17  18
ATOM     18  C   UNL     1      22.242   8.237  38.948  1.00  0.00    -0.000 C 
BRANCH  18  19
ATOM     19  C   UNL     1      22.111   6.704  38.992  1.00  0.00    -0.003 C 
ATOM     20  C   UNL     1      20.701   6.235  39.357  1.00  0.00     0.004 C 
ENDBRANCH  18  19
ENDBRANCH  17  18
ENDBRANCH  16  17
ENDBRANCH  15  16
ENDBRANCH  14  15
ENDBRANCH  13  14
ENDBRANCH   2  13
TORSDOF 15
ENDMDL
MODEL 4
REMARK VINA RESULT:    -2.986      9.410     11.411
REMARK INTER + INTRA:          -8.494
REMARK INTER:                  -5.359
REMARK INTRA:                  -3.135
REMARK UNBOUND:                -2.890
REMARK SMILES CCCCCCCCC=CCCCCCCCC(=O)[O-]
REMARK SMILES IDX 10 1 9 2 11 3 12 4 13 5 14 6 15 7 16 8 17 9 18 10 19 11
REMARK SMILES IDX 20 12 8 13 7 14 6 15 5 16 4 17 3 18 2 19 1 20
REMARK H PARENT
REMARK Flexibility Score: inf
ROOT
ATOM      1  C   UNL     1       9.731   4.488  30.154  1.00  0.00    -0.031 C 
ATOM      2  C   UNL     1       9.473   3.180  30.001  1.00  0.00    -0.031 C 
ENDROOT
BRANCH   1   3
ATOM      3  C   UNL     1       9.647   5.437  28.989  1.00  0.00     0.027 C 
BRANCH   3   4
ATOM      4  C   UNL     1       9.286   6.859  29.449  1.00  0.00     0.004 C 
BRANCH   4   5
ATOM      5  C   UNL     1       9.327   6.997  30.976  1.00  0.00     0.000 C 
BRANCH   5   6
ATOM      6  C   UNL     1      10.553   7.784  31.464  1.00  0.00     0.000 C 
BRANCH   6   7
ATOM      7  C   UNL     1      10.952   7.422  32.907  1.00  0.00     0.000 C 
BRANCH   7   8
ATOM      8  C   UNL     1      10.024   6.364  33.519  1.00  0.00     0.006 C 
BRANCH   8   9
ATOM      9  C   UNL     1      10.518   5.855  34.880  1.00  0.00     0.053 C 
BRANCH   9  10
ATOM     10  C   UNL     1       9.369   5.360  35.699  1.00  0.00     0.041 C 
ATOM     11  O   UNL     1       8.875   4.223  35.466  1.00  0.00    -0.550 OA
ATOM     12  O   UNL     1       8.875   6.117  36.750  1.00  0.00    -0.550 OA
ENDBRANCH   9  10
ENDBRANCH   8   9
ENDBRANCH   7   8
ENDBRANCH   6   7
ENDBRANCH   5   6
ENDBRANCH   4   5
ENDBRANCH   3   4
ENDBRANCH   1   3
BRANCH   2  13
ATOM     13  C   UNL     1       9.697   2.203  31.120  1.00  0.00     0.027 C 
BRANCH  13  14
ATOM     14  C   UNL     1      10.315   2.884  32.349  1.00  0.00     0.004 C 
BRANCH  14  15
ATOM     15  C   UNL     1      11.805   2.516  32.526  1.00  0.00     0.000 C 
BRANCH  15  16
ATOM     16  C   UNL     1      12.695   3.731  32.842  1.00  0.00     0.000 C 
BRANCH  16  17
ATOM     17  C   UNL     1      13.677   4.137  31.724  1.00  0.00    -0.000 C 
BRANCH  17  18
ATOM     18  C   UNL     1      13.170   5.229  30.766  1.00  0.00    -0.000 C 
BRANCH  18  19
ATOM     19  C   UNL     1      13.376   4.923  29.272  1.00  0.00    -0.003 C 
ATOM     20  C   UNL     1      13.156   3.448  28.929  1.00  0.00     0.004 C 
ENDBRANCH  18  19
ENDBRANCH  17  18
ENDBRANCH  16  17
ENDBRANCH  15  16
ENDBRANCH  14  15
ENDBRANCH  13  14
ENDBRANCH   2  13
TORSDOF 15
ENDMDL
MODEL 5
REMARK VINA RESULT:    -2.984      9.647     11.883
REMARK INTER + INTRA:          -8.491
REMARK INTER:                  -5.841
REMARK INTRA:                  -2.650
REMARK UNBOUND:                -2.890
REMARK SMILES CCCCCCCCC=CCCCCCCCC(=O)[O-]
REMARK SMILES IDX 10 1 9 2 11 3 12 4 13 5 14 6 15 7 16 8 17 9 18 10 19 11
REMARK SMILES IDX 20 12 8 13 7 14 6 15 5 16 4 17 3 18 2 19 1 20
REMARK H PARENT
REMARK Flexibility Score: inf
ROOT
ATOM      1  C   UNL     1       9.960   7.534  31.799  1.00  0.00    -0.031 C 
ATOM      2  C   UNL     1      10.327   7.213  30.548  1.00  0.00    -0.031 C 
ENDROOT
BRANCH   1   3
ATOM      3  C   UNL     1      10.894   7.320  32.959  1.00  0.00     0.027 C 
BRANCH   3   4
ATOM      4  C   UNL     1      10.468   6.110  33.806  1.00  0.00     0.004 C 
BRANCH   4   5
ATOM      5  C   UNL     1      11.497   4.973  33.742  1.00  0.00     0.000 C 
BRANCH   5   6
ATOM      6  C   UNL     1      12.735   5.345  32.912  1.00  0.00     0.000 C 
BRANCH   6   7
ATOM      7  C   UNL     1      13.072   4.286  31.847  1.00  0.00     0.000 C 
BRANCH   7   8
ATOM      8  C   UNL     1      13.616   4.912  30.556  1.00  0.00     0.006 C 
BRANCH   8   9
ATOM      9  C   UNL     1      13.624   3.930  29.376  1.00  0.00     0.053 C 
BRANCH   9  10
ATOM     10  C   UNL     1      13.506   4.671  28.083  1.00  0.00     0.041 C 
ATOM     11  O   UNL     1      13.297   4.038  27.012  1.00  0.00    -0.550 OA
ATOM     12  O   UNL     1      13.570   6.056  28.056  1.00  0.00    -0.550 OA
ENDBRANCH   9  10
ENDBRANCH   8   9
ENDBRANCH   7   8
ENDBRANCH   6   7
ENDBRANCH   5   6
ENDBRANCH   4   5
ENDBRANCH   3   4
ENDBRANCH   1   3
BRANCH   2  13
ATOM     13  C   UNL     1       9.353   7.285  29.406  1.00  0.00     0.027 C 
BRANCH  13  14
ATOM     14  C   UNL     1       8.988   5.887  28.886  1.00  0.00     0.004 C 
BRANCH  14  15
ATOM     15  C   UNL     1      10.075   4.843  29.223  1.00  0.00     0.000 C 
BRANCH  15  16
ATOM     16  C   UNL     1       9.644   3.851  30.318  1.00  0.00     0.000 C 
BRANCH  16  17
ATOM     17  C   UNL     1      10.215   2.425  30.177  1.00  0.00    -0.000 C 
BRANCH  17  18
ATOM     18  C   UNL     1      10.063   1.528  31.418  1.00  0.00    -0.000 C 
BRANCH  18  19
ATOM     19  C   UNL     1      11.373   0.899  31.923  1.00  0.00    -0.003 C 
ATOM     20  C   UNL     1      12.438   0.779  30.832  1.00  0.00     0.004 C 
ENDBRANCH  18  19
ENDBRANCH  17  18
ENDBRANCH  16  17
ENDBRANCH  15  16
ENDBRANCH  14  15
ENDBRANCH  13  14
ENDBRANCH   2  13
TORSDOF 15
ENDMDL
MODEL 6
REMARK VINA RESULT:    -2.949      9.780     12.354
REMARK INTER + INTRA:          -8.425
REMARK INTER:                  -5.552
REMARK INTRA:                  -2.873
REMARK UNBOUND:                -2.890
REMARK SMILES CCCCCCCCC=CCCCCCCCC(=O)[O-]
REMARK SMILES IDX 10 1 9 2 11 3 12 4 13 5 14 6 15 7 16 8 17 9 18 10 19 11
REMARK SMILES IDX 20 12 8 13 7 14 6 15 5 16 4 17 3 18 2 19 1 20
REMARK H PARENT
REMARK Flexibility Score: inf
ROOT
ATOM      1  C   UNL     1       9.626   2.898  29.979  1.00  0.00    -0.031 C 
ATOM      2  C   UNL     1       9.614   4.204  30.289  1.00  0.00    -0.031 C 
ENDROOT
BRANCH   1   3
ATOM      3  C   UNL     1       9.497   1.846  31.047  1.00  0.00     0.027 C 
BRANCH   3   4
ATOM      4  C   UNL     1      10.872   1.437  31.600  1.00  0.00     0.004 C 
BRANCH   4   5
ATOM      5  C   UNL     1      11.922   1.305  30.488  1.00  0.00     0.000 C 
BRANCH   5   6
ATOM      6  C   UNL     1      13.236   2.023  30.830  1.00  0.00     0.000 C 
BRANCH   6   7
ATOM      7  C   UNL     1      13.019   3.261  31.719  1.00  0.00     0.000 C 
BRANCH   7   8
ATOM      8  C   UNL     1      13.171   4.573  30.937  1.00  0.00     0.006 C 
BRANCH   8   9
ATOM      9  C   UNL     1      14.451   4.616  30.092  1.00  0.00     0.053 C 
BRANCH   9  10
ATOM     10  C   UNL     1      14.119   4.878  28.658  1.00  0.00     0.041 C 
ATOM     11  O   UNL     1      13.429   5.886  28.346  1.00  0.00    -0.550 OA
ATOM     12  O   UNL     1      14.611   4.051  27.659  1.00  0.00    -0.550 OA
ENDBRANCH   9  10
ENDBRANCH   8   9
ENDBRANCH   7   8
ENDBRANCH   6   7
ENDBRANCH   5   6
ENDBRANCH   4   5
ENDBRANCH   3   4
ENDBRANCH   1   3
BRANCH   2  13
ATOM     13  C   UNL     1       9.889   5.255  29.252  1.00  0.00     0.027 C 
BRANCH  13  14
ATOM     14  C   UNL     1       9.121   6.552  29.544  1.00  0.00     0.004 C 
BRANCH  14  15
ATOM     15  C   UNL     1       9.069   6.865  31.056  1.00  0.00     0.000 C 
BRANCH  15  16
ATOM     16  C   UNL     1      10.314   7.613  31.564  1.00  0.00     0.000 C 
BRANCH  16  17
ATOM     17  C   UNL     1      11.035   6.957  32.760  1.00  0.00    -0.000 C 
BRANCH  17  18
ATOM     18  C   UNL     1      10.137   6.134  33.700  1.00  0.00    -0.000 C 
BRANCH  18  19
ATOM     19  C   UNL     1      10.554   4.662  33.865  1.00  0.00    -0.003 C 
ATOM     20  C   UNL     1       9.391   3.752  34.266  1.00  0.00     0.004 C 
ENDBRANCH  18  19
ENDBRANCH  17  18
ENDBRANCH  16  17
ENDBRANCH  15  16
ENDBRANCH  14  15
ENDBRANCH  13  14
ENDBRANCH   2  13
TORSDOF 15
ENDMDL
MODEL 7
REMARK VINA RESULT:    -2.933      9.110     12.313
REMARK INTER + INTRA:          -8.394
REMARK INTER:                  -5.576
REMARK INTRA:                  -2.818
REMARK UNBOUND:                -2.890
REMARK SMILES CCCCCCCCC=CCCCCCCCC(=O)[O-]
REMARK SMILES IDX 10 1 9 2 11 3 12 4 13 5 14 6 15 7 16 8 17 9 18 10 19 11
REMARK SMILES IDX 20 12 8 13 7 14 6 15 5 16 4 17 3 18 2 19 1 20
REMARK H PARENT
REMARK Flexibility Score: inf
ROOT
ATOM      1  C   UNL     1       9.881   4.003  30.679  1.00  0.00    -0.031 C 
ATOM      2  C   UNL     1      10.015   4.941  29.728  1.00  0.00    -0.031 C 
ENDROOT
BRANCH   1   3
ATOM      3  C   UNL     1       9.452   2.604  30.334  1.00  0.00     0.027 C 
BRANCH   3   4
ATOM      4  C   UNL     1      10.402   1.559  30.943  1.00  0.00     0.004 C 
BRANCH   4   5
ATOM      5  C   UNL     1      11.849   1.752  30.470  1.00  0.00     0.000 C 
BRANCH   5   6
ATOM      6  C   UNL     1      12.090   1.183  29.064  1.00  0.00     0.000 C 
BRANCH   6   7
ATOM      7  C   UNL     1      12.211   2.282  27.993  1.00  0.00     0.000 C 
BRANCH   7   8
ATOM      8  C   UNL     1      13.106   3.442  28.449  1.00  0.00     0.006 C 
BRANCH   8   9
ATOM      9  C   UNL     1      14.550   3.313  27.946  1.00  0.00     0.053 C 
BRANCH   9  10
ATOM     10  C   UNL     1      15.439   4.280  28.660  1.00  0.00     0.041 C 
ATOM     11  O   UNL     1      15.081   5.482  28.794  1.00  0.00    -0.550 OA
ATOM     12  O   UNL     1      16.631   3.855  29.225  1.00  0.00    -0.550 OA
ENDBRANCH   9  10
ENDBRANCH   8   9
ENDBRANCH   7   8
ENDBRANCH   6   7
ENDBRANCH   5   6
ENDBRANCH   4   5
ENDBRANCH   3   4
ENDBRANCH   1   3
BRANCH   2  13
ATOM     13  C   UNL     1      10.298   6.374  30.078  1.00  0.00     0.027 C 
BRANCH  13  14
ATOM     14  C   UNL     1       9.589   6.791  31.373  1.00  0.00     0.004 C 
BRANCH  14  15
ATOM     15  C   UNL     1      10.393   7.853  32.157  1.00  0.00     0.000 C 
BRANCH  15  16
ATOM     16  C   UNL     1      10.939   7.331  33.498  1.00  0.00     0.000 C 
BRANCH  16  17
ATOM     17  C   UNL     1      10.524   5.891  33.863  1.00  0.00    -0.000 C 
BRANCH  17  18
ATOM     18  C   UNL     1      11.649   4.844  33.795  1.00  0.00    -0.000 C 
BRANCH  18  19
ATOM     19  C   UNL     1      12.993   5.374  33.265  1.00  0.00    -0.003 C 
ATOM     20  C   UNL     1      13.308   4.891  31.848  1.00  0.00     0.004 C 
ENDBRANCH  18  19
ENDBRANCH  17  18
ENDBRANCH  16  17
ENDBRANCH  15  16
ENDBRANCH  14  15
ENDBRANCH  13  14
ENDBRANCH   2  13
TORSDOF 15
ENDMDL
MODEL 8
REMARK VINA RESULT:    -2.887      8.518     11.194
REMARK INTER + INTRA:          -8.308
REMARK INTER:                  -5.160
REMARK INTRA:                  -3.149
REMARK UNBOUND:                -2.890
REMARK SMILES CCCCCCCCC=CCCCCCCCC(=O)[O-]
REMARK SMILES IDX 10 1 9 2 11 3 12 4 13 5 14 6 15 7 16 8 17 9 18 10 19 11
REMARK SMILES IDX 20 12 8 13 7 14 6 15 5 16 4 17 3 18 2 19 1 20
REMARK H PARENT
REMARK Flexibility Score: inf
ROOT
ATOM      1  C   UNL     1      11.289   4.624  29.470  1.00  0.00    -0.031 C 
ATOM      2  C   UNL     1      12.104   4.070  28.558  1.00  0.00    -0.031 C 
ENDROOT
BRANCH   1   3
ATOM      3  C   UNL     1      10.008   3.950  29.877  1.00  0.00     0.027 C 
BRANCH   3   4
ATOM      4  C   UNL     1      10.185   2.427  29.987  1.00  0.00     0.004 C 
BRANCH   4   5
ATOM      5  C   UNL     1       9.656   1.881  31.320  1.00  0.00     0.000 C 
BRANCH   5   6
ATOM      6  C   UNL     1       9.219   2.996  32.281  1.00  0.00     0.000 C 
BRANCH   6   7
ATOM      7  C   UNL     1      10.110   3.079  33.534  1.00  0.00     0.000 C 
BRANCH   7   8
ATOM      8  C   UNL     1      10.757   4.461  33.697  1.00  0.00     0.006 C 
BRANCH   8   9
ATOM      9  C   UNL     1       9.771   5.612  33.456  1.00  0.00     0.053 C 
BRANCH   9  10
ATOM     10  C   UNL     1      10.351   6.603  32.499  1.00  0.00     0.041 C 
ATOM     11  O   UNL     1       9.599   7.210  31.688  1.00  0.00    -0.550 OA
ATOM     12  O   UNL     1      11.704   6.905  32.532  1.00  0.00    -0.550 OA
ENDBRANCH   9  10
ENDBRANCH   8   9
ENDBRANCH   7   8
ENDBRANCH   6   7
ENDBRANCH   5   6
ENDBRANCH   4   5
ENDBRANCH   3   4
ENDBRANCH   1   3
BRANCH   2  13
ATOM     13  C   UNL     1      13.308   4.802  28.038  1.00  0.00     0.027 C 
BRANCH  13  14
ATOM     14  C   UNL     1      14.434   3.835  27.650  1.00  0.00     0.004 C 
BRANCH  14  15
ATOM     15  C   UNL     1      15.763   4.182  28.357  1.00  0.00     0.000 C 
BRANCH  15  16
ATOM     16  C   UNL     1      15.569   5.005  29.643  1.00  0.00     0.000 C 
BRANCH  16  17
ATOM     17  C   UNL     1      15.544   4.188  30.951  1.00  0.00    -0.000 C 
BRANCH  17  18
ATOM     18  C   UNL     1      14.225   4.247  31.740  1.00  0.00    -0.000 C 
BRANCH  18  19
ATOM     19  C   UNL     1      13.487   2.902  31.864  1.00  0.00    -0.003 C 
ATOM     20  C   UNL     1      13.991   1.851  30.873  1.00  0.00     0.004 C 
ENDBRANCH  18  19
ENDBRANCH  17  18
ENDBRANCH  16  17
ENDBRANCH  15  16
ENDBRANCH  14  15
ENDBRANCH  13  14
ENDBRANCH   2  13
TORSDOF 15
ENDMDL
MODEL 9
REMARK VINA RESULT:    -2.883      8.809     11.163
REMARK INTER + INTRA:          -8.301
REMARK INTER:                  -5.371
REMARK INTRA:                  -2.930
REMARK UNBOUND:                -2.890
REMARK SMILES CCCCCCCCC=CCCCCCCCC(=O)[O-]
REMARK SMILES IDX 10 1 9 2 11 3 12 4 13 5 14 6 15 7 16 8 17 9 18 10 19 11
REMARK SMILES IDX 20 12 8 13 7 14 6 15 5 16 4 17 3 18 2 19 1 20
REMARK H PARENT
REMARK Flexibility Score: inf
ROOT
ATOM      1  C   UNL     1      11.340   5.208  33.726  1.00  0.00    -0.031 C 
ATOM      2  C   UNL     1      12.603   5.550  33.427  1.00  0.00    -0.031 C 
ENDROOT
BRANCH   1   3
ATOM      3  C   UNL     1      10.279   6.256  33.925  1.00  0.00     0.027 C 
BRANCH   3   4
ATOM      4  C   UNL     1      10.737   7.625  33.398  1.00  0.00     0.004 C 
BRANCH   4   5
ATOM      5  C   UNL     1      10.396   7.812  31.913  1.00  0.00     0.000 C 
BRANCH   5   6
ATOM      6  C   UNL     1       9.237   6.915  31.457  1.00  0.00     0.000 C 
BRANCH   6   7
ATOM      7  C   UNL     1       9.660   5.909  30.370  1.00  0.00     0.000 C 
BRANCH   7   8
ATOM      8  C   UNL     1      11.102   6.137  29.897  1.00  0.00     0.006 C 
BRANCH   8   9
ATOM      9  C   UNL     1      11.884   4.829  29.722  1.00  0.00     0.053 C 
BRANCH   9  10
ATOM     10  C   UNL     1      13.255   5.108  29.196  1.00  0.00     0.041 C 
ATOM     11  O   UNL     1      13.405   5.492  28.003  1.00  0.00    -0.550 OA
ATOM     12  O   UNL     1      14.362   5.003  30.024  1.00  0.00    -0.550 OA
ENDBRANCH   9  10
ENDBRANCH   8   9
ENDBRANCH   7   8
ENDBRANCH   6   7
ENDBRANCH   5   6
ENDBRANCH   4   5
ENDBRANCH   3   4
ENDBRANCH   1   3
BRANCH   2  13
ATOM     13  C   UNL     1      13.698   4.524  33.372  1.00  0.00     0.027 C 
BRANCH  13  14
ATOM     14  C   UNL     1      13.456   3.384  34.370  1.00  0.00     0.004 C 
BRANCH  14  15
ATOM     15  C   UNL     1      13.288   2.021  33.662  1.00  0.00     0.000 C 
BRANCH  15  16
ATOM     16  C   UNL     1      13.193   2.141  32.131  1.00  0.00     0.000 C 
BRANCH  16  17
ATOM     17  C   UNL     1      11.866   1.653  31.513  1.00  0.00    -0.000 C 
BRANCH  17  18
ATOM     18  C   UNL     1      10.636   1.747  32.433  1.00  0.00    -0.000 C 
BRANCH  18  19
ATOM     19  C   UNL     1       9.444   2.516  31.838  1.00  0.00    -0.003 C 
ATOM     20  C   UNL     1       9.217   2.215  30.356  1.00  0.00     0.004 C 
ENDBRANCH  18  19
ENDBRANCH  17  18
ENDBRANCH  16  17
ENDBRANCH  15  16
ENDBRANCH  14  15
ENDBRANCH  13  14
ENDBRANCH   2  13
TORSDOF 15
ENDMDL
