MODEL 1
REMARK VINA RESULT:    -4.993      0.000      0.000
REMARK INTER + INTRA:          -5.696
REMARK INTER:                  -5.285
REMARK INTRA:                  -0.411
REMARK UNBOUND:                -0.411
REMARK SMILES CC1=CC[C@@H]2[C@H]3[C@H](C(C)C)CC[C@]2(C)[C@@H]13
REMARK SMILES IDX 1 1 2 2 3 3 4 4 5 5 6 6 15 7 13 8 12 9 11 10 7 11 14 12 8 13
REMARK SMILES IDX 9 14 10 15
REMARK H PARENT
REMARK Flexibility Score: inf
ROOT
ATOM      1  C   UNL     1      29.108  11.476  31.673  1.00  0.00     0.039 C 
ATOM      2  C   UNL     1      30.344  10.850  32.247  1.00  0.00    -0.073 C 
ATOM      3  C   UNL     1      31.507  11.548  32.344  1.00  0.00    -0.027 C 
ATOM      4  C   UNL     1      32.732  10.862  32.960  1.00  0.00     0.031 C 
ATOM      5  C   UNL     1      32.392   9.386  33.350  1.00  0.00     0.003 C 
ATOM      6  C   UNL     1      31.641   8.751  32.156  1.00  0.00     0.004 C 
ATOM      7  C   UNL     1      30.359   9.398  32.734  1.00  0.00     0.024 C 
ATOM      8  C   UNL     1      31.052   9.301  34.117  1.00  0.00    -0.022 C 
ATOM      9  C   UNL     1      30.912   7.871  34.712  1.00  0.00     0.008 C 
ATOM     10  C   UNL     1      30.900   6.774  33.617  1.00  0.00     0.005 C 
ATOM     11  C   UNL     1      31.627   7.194  32.297  1.00  0.00    -0.005 C 
ATOM     12  C   UNL     1      30.738  10.375  35.187  1.00  0.00     0.012 C 
ENDROOT
BRANCH  11  13
ATOM     13  C   UNL     1      31.003   6.483  31.052  1.00  0.00    -0.014 C 
ATOM     14  C   UNL     1      29.596   5.927  31.337  1.00  0.00     0.007 C 
ATOM     15  C   UNL     1      30.920   7.441  29.848  1.00  0.00     0.007 C 
ENDBRANCH  11  13
TORSDOF 1
ENDMDL
MODEL 2
REMARK VINA RESULT:    -4.909      1.680      4.300
REMARK INTER + INTRA:          -5.606
REMARK INTER:                  -5.409
REMARK INTRA:                  -0.197
REMARK UNBOUND:                -0.411
REMARK SMILES CC1=CC[C@@H]2[C@H]3[C@H](C(C)C)CC[C@]2(C)[C@@H]13
REMARK SMILES IDX 1 1 2 2 3 3 4 4 5 5 6 6 15 7 13 8 12 9 11 10 7 11 14 12 8 13
REMARK SMILES IDX 9 14 10 15
REMARK H PARENT
REMARK Flexibility Score: inf
ROOT
ATOM      1  C   UNL     1      33.125  11.123  32.962  1.00  0.00     0.039 C 
ATOM      2  C   UNL     1      31.847  10.373  33.190  1.00  0.00    -0.073 C 
ATOM      3  C   UNL     1      30.665  10.829  32.699  1.00  0.00    -0.027 C 
ATOM      4  C   UNL     1      29.393  10.008  32.946  1.00  0.00     0.031 C 
ATOM      5  C   UNL     1      29.722   8.741  33.803  1.00  0.00     0.003 C 
ATOM      6  C   UNL     1      30.617   9.195  34.979  1.00  0.00     0.004 C 
ATOM      7  C   UNL     1      31.810   9.073  34.000  1.00  0.00     0.024 C 
ATOM      8  C   UNL     1      30.967   8.003  33.261  1.00  0.00    -0.022 C 
ATOM      9  C   UNL     1      31.072   6.623  33.970  1.00  0.00     0.008 C 
ATOM     10  C   UNL     1      31.233   6.759  35.506  1.00  0.00     0.005 C 
ATOM     11  C   UNL     1      30.651   8.091  36.085  1.00  0.00    -0.005 C 
ATOM     12  C   UNL     1      31.132   7.847  31.730  1.00  0.00     0.012 C 
ENDROOT
BRANCH  11  13
ATOM     13  C   UNL     1      31.429   8.544  37.363  1.00  0.00    -0.014 C 
ATOM     14  C   UNL     1      31.990   9.972  37.235  1.00  0.00     0.007 C 
ATOM     15  C   UNL     1      30.531   8.478  38.614  1.00  0.00     0.007 C 
ENDBRANCH  11  13
TORSDOF 1
ENDMDL
MODEL 3
REMARK VINA RESULT:    -4.757      1.311      2.007
REMARK INTER + INTRA:          -5.446
REMARK INTER:                  -5.140
REMARK INTRA:                  -0.306
REMARK UNBOUND:                -0.411
REMARK SMILES CC1=CC[C@@H]2[C@H]3[C@H](C(C)C)CC[C@]2(C)[C@@H]13
REMARK SMILES IDX 1 1 2 2 3 3 4 4 5 5 6 6 15 7 13 8 12 9 11 10 7 11 14 12 8 13
REMARK SMILES IDX 9 14 10 15
REMARK H PARENT
REMARK Flexibility Score: inf
ROOT
ATOM      1  C   UNL     1      28.440  10.649  34.222  1.00  0.00     0.039 C 
ATOM      2  C   UNL     1      29.820  10.190  33.857  1.00  0.00    -0.073 C 
ATOM      3  C   UNL     1      30.914  10.936  34.162  1.00  0.00    -0.027 C 
ATOM      4  C   UNL     1      32.302  10.406  33.783  1.00  0.00     0.031 C 
ATOM      5  C   UNL     1      32.176   9.036  33.038  1.00  0.00     0.003 C 
ATOM      6  C   UNL     1      31.064   9.186  31.974  1.00  0.00     0.004 C 
ATOM      7  C   UNL     1      30.060   8.874  33.111  1.00  0.00     0.024 C 
ATOM      8  C   UNL     1      31.212   8.080  33.777  1.00  0.00    -0.022 C 
ATOM      9  C   UNL     1      31.346   6.662  33.152  1.00  0.00     0.008 C 
ATOM     10  C   UNL     1      30.972   6.642  31.648  1.00  0.00     0.005 C 
ATOM     11  C   UNL     1      31.154   8.022  30.935  1.00  0.00    -0.005 C 
ATOM     12  C   UNL     1      31.275   8.008  35.322  1.00  0.00     0.012 C 
ENDROOT
BRANCH  11  13
ATOM     13  C   UNL     1      30.143   8.190  29.754  1.00  0.00    -0.014 C 
ATOM     14  C   UNL     1      29.789   9.665  29.489  1.00  0.00     0.007 C 
ATOM     15  C   UNL     1      30.697   7.575  28.455  1.00  0.00     0.007 C 
ENDBRANCH  11  13
TORSDOF 1
ENDMDL
MODEL 4
REMARK VINA RESULT:    -4.676      1.599      4.018
REMARK INTER + INTRA:          -5.360
REMARK INTER:                  -4.926
REMARK INTRA:                  -0.434
REMARK UNBOUND:                -0.411
REMARK SMILES CC1=CC[C@@H]2[C@H]3[C@H](C(C)C)CC[C@]2(C)[C@@H]13
REMARK SMILES IDX 1 1 2 2 3 3 4 4 5 5 6 6 15 7 13 8 12 9 11 10 7 11 14 12 8 13
REMARK SMILES IDX 9 14 10 15
REMARK H PARENT
REMARK Flexibility Score: inf
ROOT
ATOM      1  C   UNL     1      29.214   9.580  36.888  1.00  0.00     0.039 C 
ATOM      2  C   UNL     1      30.047   8.493  36.280  1.00  0.00    -0.073 C 
ATOM      3  C   UNL     1      30.840   7.699  37.048  1.00  0.00    -0.027 C 
ATOM      4  C   UNL     1      31.653   6.588  36.373  1.00  0.00     0.031 C 
ATOM      5  C   UNL     1      31.425   6.610  34.825  1.00  0.00     0.003 C 
ATOM      6  C   UNL     1      31.544   8.080  34.359  1.00  0.00     0.004 C 
ATOM      7  C   UNL     1      30.060   8.237  34.770  1.00  0.00     0.024 C 
ATOM      8  C   UNL     1      29.922   6.720  34.480  1.00  0.00    -0.022 C 
ATOM      9  C   UNL     1      29.743   6.457  32.957  1.00  0.00     0.008 C 
ATOM     10  C   UNL     1      30.506   7.489  32.087  1.00  0.00     0.005 C 
ATOM     11  C   UNL     1      31.733   8.138  32.808  1.00  0.00    -0.005 C 
ATOM     12  C   UNL     1      28.907   5.891  35.303  1.00  0.00     0.012 C 
ENDROOT
BRANCH  11  13
ATOM     13  C   UNL     1      31.997   9.588  32.288  1.00  0.00    -0.014 C 
ATOM     14  C   UNL     1      30.714  10.274  31.781  1.00  0.00     0.007 C 
ATOM     15  C   UNL     1      32.625  10.467  33.387  1.00  0.00     0.007 C 
ENDBRANCH  11  13
TORSDOF 1
ENDMDL
MODEL 5
REMARK VINA RESULT:    -4.564      4.411      7.213
REMARK INTER + INTRA:          -5.242
REMARK INTER:                  -5.018
REMARK INTRA:                  -0.224
REMARK UNBOUND:                -0.411
REMARK SMILES CC1=CC[C@@H]2[C@H]3[C@H](C(C)C)CC[C@]2(C)[C@@H]13
REMARK SMILES IDX 1 1 2 2 3 3 4 4 5 5 6 6 15 7 13 8 12 9 11 10 7 11 14 12 8 13
REMARK SMILES IDX 9 14 10 15
REMARK H PARENT
REMARK Flexibility Score: inf
ROOT
ATOM      1  C   UNL     1      31.763  11.159  25.057  1.00  0.00     0.039 C 
ATOM      2  C   UNL     1      30.565  10.314  25.369  1.00  0.00    -0.073 C 
ATOM      3  C   UNL     1      29.304  10.815  25.269  1.00  0.00    -0.027 C 
ATOM      4  C   UNL     1      28.116   9.896  25.579  1.00  0.00     0.031 C 
ATOM      5  C   UNL     1      28.621   8.481  26.014  1.00  0.00     0.003 C 
ATOM      6  C   UNL     1      29.757   8.688  27.043  1.00  0.00     0.004 C 
ATOM      7  C   UNL     1      30.703   8.860  25.829  1.00  0.00     0.024 C 
ATOM      8  C   UNL     1      29.712   7.954  25.054  1.00  0.00    -0.022 C 
ATOM      9  C   UNL     1      29.966   6.452  25.370  1.00  0.00     0.008 C 
ATOM     10  C   UNL     1      30.464   6.230  26.821  1.00  0.00     0.005 C 
ATOM     11  C   UNL     1      30.030   7.357  27.816  1.00  0.00    -0.005 C 
ATOM     12  C   UNL     1      29.534   8.172  23.532  1.00  0.00     0.012 C 
ENDROOT
BRANCH  11  13
ATOM     13  C   UNL     1      31.074   7.534  28.966  1.00  0.00    -0.014 C 
ATOM     14  C   UNL     1      30.515   8.351  30.146  1.00  0.00     0.007 C 
ATOM     15  C   UNL     1      31.555   6.169  29.496  1.00  0.00     0.007 C 
ENDBRANCH  11  13
TORSDOF 1
ENDMDL
MODEL 6
REMARK VINA RESULT:    -4.544      2.056      4.139
REMARK INTER + INTRA:          -5.221
REMARK INTER:                  -4.977
REMARK INTRA:                  -0.243
REMARK UNBOUND:                -0.411
REMARK SMILES CC1=CC[C@@H]2[C@H]3[C@H](C(C)C)CC[C@]2(C)[C@@H]13
REMARK SMILES IDX 1 1 2 2 3 3 4 4 5 5 6 6 15 7 13 8 12 9 11 10 7 11 14 12 8 13
REMARK SMILES IDX 9 14 10 15
REMARK H PARENT
REMARK Flexibility Score: inf
ROOT
ATOM      1  C   UNL     1      27.488   8.912  36.598  1.00  0.00     0.039 C 
ATOM      2  C   UNL     1      28.978   8.760  36.634  1.00  0.00    -0.073 C 
ATOM      3  C   UNL     1      29.685   9.009  37.768  1.00  0.00    -0.027 C 
ATOM      4  C   UNL     1      31.206   8.815  37.751  1.00  0.00     0.031 C 
ATOM      5  C   UNL     1      31.683   8.375  36.328  1.00  0.00     0.003 C 
ATOM      6  C   UNL     1      30.986   9.295  35.299  1.00  0.00     0.004 C 
ATOM      7  C   UNL     1      29.775   8.337  35.396  1.00  0.00     0.024 C 
ATOM      8  C   UNL     1      30.801   7.235  35.767  1.00  0.00    -0.022 C 
ATOM      9  C   UNL     1      31.486   6.660  34.494  1.00  0.00     0.008 C 
ATOM     10  C   UNL     1      31.650   7.725  33.380  1.00  0.00     0.005 C 
ATOM     11  C   UNL     1      31.705   9.194  33.914  1.00  0.00    -0.005 C 
ATOM     12  C   UNL     1      30.363   6.096  36.718  1.00  0.00     0.012 C 
ENDROOT
BRANCH  11  13
ATOM     13  C   UNL     1      31.135  10.203  32.865  1.00  0.00    -0.014 C 
ATOM     14  C   UNL     1      32.076  11.400  32.629  1.00  0.00     0.007 C 
ATOM     15  C   UNL     1      30.869   9.511  31.515  1.00  0.00     0.007 C 
ENDBRANCH  11  13
TORSDOF 1
ENDMDL
MODEL 7
REMARK VINA RESULT:    -4.429      5.642      8.349
REMARK INTER + INTRA:          -5.098
REMARK INTER:                  -4.816
REMARK INTRA:                  -0.282
REMARK UNBOUND:                -0.411
REMARK SMILES CC1=CC[C@@H]2[C@H]3[C@H](C(C)C)CC[C@]2(C)[C@@H]13
REMARK SMILES IDX 1 1 2 2 3 3 4 4 5 5 6 6 15 7 13 8 12 9 11 10 7 11 14 12 8 13
REMARK SMILES IDX 9 14 10 15
REMARK H PARENT
REMARK Flexibility Score: inf
ROOT
ATOM      1  C   UNL     1      29.465   7.310  21.809  1.00  0.00     0.039 C 
ATOM      2  C   UNL     1      29.934   8.340  22.792  1.00  0.00    -0.073 C 
ATOM      3  C   UNL     1      30.774   9.341  22.416  1.00  0.00    -0.027 C 
ATOM      4  C   UNL     1      31.203  10.379  23.460  1.00  0.00     0.031 C 
ATOM      5  C   UNL     1      30.579  10.039  24.854  1.00  0.00     0.003 C 
ATOM      6  C   UNL     1      30.789   8.527  25.101  1.00  0.00     0.004 C 
ATOM      7  C   UNL     1      29.508   8.303  24.262  1.00  0.00     0.024 C 
ATOM      8  C   UNL     1      29.073   9.715  24.732  1.00  0.00    -0.022 C 
ATOM      9  C   UNL     1      28.460   9.663  26.160  1.00  0.00     0.008 C 
ATOM     10  C   UNL     1      29.110   8.566  27.042  1.00  0.00     0.005 C 
ATOM     11  C   UNL     1      30.567   8.193  26.612  1.00  0.00    -0.005 C 
ATOM     12  C   UNL     1      28.200  10.580  23.791  1.00  0.00     0.012 C 
ENDROOT
BRANCH  11  13
ATOM     13  C   UNL     1      30.898   6.704  26.955  1.00  0.00    -0.014 C 
ATOM     14  C   UNL     1      31.778   6.572  28.212  1.00  0.00     0.007 C 
ATOM     15  C   UNL     1      29.612   5.883  27.165  1.00  0.00     0.007 C 
ENDBRANCH  11  13
TORSDOF 1
ENDMDL
MODEL 8
REMARK VINA RESULT:    -4.389      4.213      6.639
REMARK INTER + INTRA:          -5.057
REMARK INTER:                  -4.835
REMARK INTRA:                  -0.222
REMARK UNBOUND:                -0.411
REMARK SMILES CC1=CC[C@@H]2[C@H]3[C@H](C(C)C)CC[C@]2(C)[C@@H]13
REMARK SMILES IDX 1 1 2 2 3 3 4 4 5 5 6 6 15 7 13 8 12 9 11 10 7 11 14 12 8 13
REMARK SMILES IDX 9 14 10 15
REMARK H PARENT
REMARK Flexibility Score: inf
ROOT
ATOM      1  C   UNL     1      30.503  13.001  27.730  1.00  0.00     0.039 C 
ATOM      2  C   UNL     1      29.511  11.922  27.415  1.00  0.00    -0.073 C 
ATOM      3  C   UNL     1      28.179  12.111  27.611  1.00  0.00    -0.027 C 
ATOM      4  C   UNL     1      27.209  10.978  27.250  1.00  0.00     0.031 C 
ATOM      5  C   UNL     1      27.998   9.733  26.726  1.00  0.00     0.003 C 
ATOM      6  C   UNL     1      29.180   9.490  27.693  1.00  0.00     0.004 C 
ATOM      7  C   UNL     1      29.950  10.557  26.877  1.00  0.00     0.024 C 
ATOM      8  C   UNL     1      29.059  10.140  25.678  1.00  0.00    -0.022 C 
ATOM      9  C   UNL     1      29.605   8.850  25.001  1.00  0.00     0.008 C 
ATOM     10  C   UNL     1      30.282   7.892  26.014  1.00  0.00     0.005 C 
ATOM     11  C   UNL     1      29.762   8.055  27.480  1.00  0.00    -0.005 C 
ATOM     12  C   UNL     1      28.688  11.203  24.617  1.00  0.00     0.012 C 
ENDROOT
BRANCH  11  13
ATOM     13  C   UNL     1      30.872   7.696  28.521  1.00  0.00    -0.014 C 
ATOM     14  C   UNL     1      30.288   7.186  29.851  1.00  0.00     0.007 C 
ATOM     15  C   UNL     1      31.833   6.629  27.963  1.00  0.00     0.007 C 
ENDBRANCH  11  13
TORSDOF 1
ENDMDL
MODEL 9
REMARK VINA RESULT:    -4.320      4.464      6.751
REMARK INTER + INTRA:          -4.983
REMARK INTER:                  -4.688
REMARK INTRA:                  -0.295
REMARK UNBOUND:                -0.411
REMARK SMILES CC1=CC[C@@H]2[C@H]3[C@H](C(C)C)CC[C@]2(C)[C@@H]13
REMARK SMILES IDX 1 1 2 2 3 3 4 4 5 5 6 6 15 7 13 8 12 9 11 10 7 11 14 12 8 13
REMARK SMILES IDX 9 14 10 15
REMARK H PARENT
REMARK Flexibility Score: inf
ROOT
ATOM      1  C   UNL     1      29.742  10.369  30.235  1.00  0.00     0.039 C 
ATOM      2  C   UNL     1      29.096  10.565  28.897  1.00  0.00    -0.073 C 
ATOM      3  C   UNL     1      27.869  11.140  28.784  1.00  0.00    -0.027 C 
ATOM      4  C   UNL     1      27.267  11.334  27.387  1.00  0.00     0.031 C 
ATOM      5  C   UNL     1      28.230  10.762  26.295  1.00  0.00     0.003 C 
ATOM      6  C   UNL     1      28.699   9.368  26.773  1.00  0.00     0.004 C 
ATOM      7  C   UNL     1      29.775  10.113  27.601  1.00  0.00     0.024 C 
ATOM      8  C   UNL     1      29.685  11.229  26.529  1.00  0.00    -0.022 C 
ATOM      9  C   UNL     1      30.529  10.865  25.273  1.00  0.00     0.008 C 
ATOM     10  C   UNL     1      30.558   9.339  25.004  1.00  0.00     0.005 C 
ATOM     11  C   UNL     1      29.323   8.573  25.580  1.00  0.00    -0.005 C 
ATOM     12  C   UNL     1      29.937  12.696  26.954  1.00  0.00     0.012 C 
ENDROOT
BRANCH  11  13
ATOM     13  C   UNL     1      29.692   7.103  25.965  1.00  0.00    -0.014 C 
ATOM     14  C   UNL     1      28.724   6.506  27.003  1.00  0.00     0.007 C 
ATOM     15  C   UNL     1      29.708   6.191  24.723  1.00  0.00     0.007 C 
ENDBRANCH  11  13
TORSDOF 1
ENDMDL
