MODEL 1
REMARK VINA RESULT:    -4.154      0.000      0.000
REMARK INTER + INTRA:          -4.154
REMARK INTER:                  -4.154
REMARK INTRA:                   0.000
REMARK UNBOUND:                 0.000
REMARK SMILES CC(C)=C1CC[C@@H](C)CC1=O
REMARK SMILES IDX 8 1 7 2 6 3 5 4 4 5 2 6 1 7 3 8 10 9 11 10 9 11
REMARK H PARENT
REMARK Flexibility Score: inf
ROOT
ATOM      1  C   UNL     1      25.900  28.015  73.876  1.00  0.00     0.008 C 
ATOM      2  C   UNL     1      26.960  29.114  74.000  1.00  0.00    -0.006 C 
ATOM      3  C   UNL     1      26.638  30.285  73.057  1.00  0.00     0.008 C 
ATOM      4  C   UNL     1      27.631  31.440  73.241  1.00  0.00     0.039 C 
ATOM      5  C   UNL     1      29.081  30.985  73.135  1.00  0.00    -0.006 C 
ATOM      6  C   UNL     1      30.048  31.812  72.639  1.00  0.00    -0.070 C 
ATOM      7  C   UNL     1      31.479  31.352  72.476  1.00  0.00     0.039 C 
ATOM      8  C   UNL     1      29.724  33.218  72.190  1.00  0.00     0.039 C 
ATOM      9  C   UNL     1      29.391  29.642  73.710  1.00  0.00     0.159 C 
ATOM     10  O   UNL     1      30.512  29.396  74.229  1.00  0.00    -0.295 OA
ATOM     11  C   UNL     1      28.355  28.556  73.685  1.00  0.00     0.084 C 
ENDROOT
TORSDOF 0
ENDMDL
MODEL 2
REMARK VINA RESULT:    -4.120      1.499      3.628
REMARK INTER + INTRA:          -4.120
REMARK INTER:                  -4.120
REMARK INTRA:                   0.000
REMARK UNBOUND:                 0.000
REMARK SMILES CC(C)=C1CC[C@@H](C)CC1=O
REMARK SMILES IDX 8 1 7 2 6 3 5 4 4 5 2 6 1 7 3 8 10 9 11 10 9 11
REMARK H PARENT
REMARK Flexibility Score: inf
ROOT
ATOM      1  C   UNL     1      27.604  33.765  71.801  1.00  0.00     0.008 C 
ATOM      2  C   UNL     1      28.206  32.372  72.010  1.00  0.00    -0.006 C 
ATOM      3  C   UNL     1      27.294  31.514  72.901  1.00  0.00     0.008 C 
ATOM      4  C   UNL     1      27.830  30.083  73.037  1.00  0.00     0.039 C 
ATOM      5  C   UNL     1      29.285  30.046  73.484  1.00  0.00    -0.006 C 
ATOM      6  C   UNL     1      29.764  29.024  74.253  1.00  0.00    -0.070 C 
ATOM      7  C   UNL     1      31.192  29.005  74.750  1.00  0.00     0.039 C 
ATOM      8  C   UNL     1      28.874  27.879  74.679  1.00  0.00     0.039 C 
ATOM      9  C   UNL     1      30.168  31.119  72.936  1.00  0.00     0.159 C 
ATOM     10  O   UNL     1      31.388  30.909  72.706  1.00  0.00    -0.295 OA
ATOM     11  C   UNL     1      29.603  32.478  72.639  1.00  0.00     0.084 C 
ENDROOT
TORSDOF 0
ENDMDL
MODEL 3
REMARK VINA RESULT:    -4.050      1.649      2.695
REMARK INTER + INTRA:          -4.050
REMARK INTER:                  -4.050
REMARK INTRA:                   0.000
REMARK UNBOUND:                 0.000
REMARK SMILES CC(C)=C1CC[C@@H](C)CC1=O
REMARK SMILES IDX 8 1 7 2 6 3 5 4 4 5 2 6 1 7 3 8 10 9 11 10 9 11
REMARK H PARENT
REMARK Flexibility Score: inf
ROOT
ATOM      1  C   UNL     1      24.692  28.514  73.951  1.00  0.00     0.008 C 
ATOM      2  C   UNL     1      26.186  28.493  73.615  1.00  0.00    -0.006 C 
ATOM      3  C   UNL     1      27.023  28.256  74.883  1.00  0.00     0.008 C 
ATOM      4  C   UNL     1      28.516  28.128  74.552  1.00  0.00     0.039 C 
ATOM      5  C   UNL     1      29.030  29.297  73.722  1.00  0.00    -0.006 C 
ATOM      6  C   UNL     1      30.317  29.741  73.843  1.00  0.00    -0.070 C 
ATOM      7  C   UNL     1      30.822  30.935  73.067  1.00  0.00     0.039 C 
ATOM      8  C   UNL     1      31.288  29.078  74.794  1.00  0.00     0.039 C 
ATOM      9  C   UNL     1      28.088  29.842  72.700  1.00  0.00     0.159 C 
ATOM     10  O   UNL     1      28.508  30.326  71.615  1.00  0.00    -0.295 OA
ATOM     11  C   UNL     1      26.607  29.810  72.949  1.00  0.00     0.084 C 
ENDROOT
TORSDOF 0
ENDMDL
MODEL 4
REMARK VINA RESULT:    -4.031      1.751      2.591
REMARK INTER + INTRA:          -4.031
REMARK INTER:                  -4.031
REMARK INTRA:                   0.000
REMARK UNBOUND:                 0.000
REMARK SMILES CC(C)=C1CC[C@@H](C)CC1=O
REMARK SMILES IDX 8 1 7 2 6 3 5 4 4 5 2 6 1 7 3 8 10 9 11 10 9 11
REMARK H PARENT
REMARK Flexibility Score: inf
ROOT
ATOM      1  C   UNL     1      25.335  27.881  74.881  1.00  0.00     0.008 C 
ATOM      2  C   UNL     1      26.295  28.627  73.948  1.00  0.00    -0.006 C 
ATOM      3  C   UNL     1      27.742  28.508  74.453  1.00  0.00     0.008 C 
ATOM      4  C   UNL     1      28.729  29.162  73.477  1.00  0.00     0.039 C 
ATOM      5  C   UNL     1      28.346  30.595  73.133  1.00  0.00    -0.006 C 
ATOM      6  C   UNL     1      29.296  31.536  72.856  1.00  0.00    -0.070 C 
ATOM      7  C   UNL     1      28.931  32.975  72.568  1.00  0.00     0.039 C 
ATOM      8  C   UNL     1      30.768  31.190  72.863  1.00  0.00     0.039 C 
ATOM      9  C   UNL     1      26.884  30.871  73.003  1.00  0.00     0.159 C 
ATOM     10  O   UNL     1      26.449  31.734  72.195  1.00  0.00    -0.295 OA
ATOM     11  C   UNL     1      25.898  30.106  73.839  1.00  0.00     0.084 C 
ENDROOT
TORSDOF 0
ENDMDL
MODEL 5
REMARK VINA RESULT:    -3.993     17.120     18.767
REMARK INTER + INTRA:          -3.993
REMARK INTER:                  -3.993
REMARK INTRA:                   0.000
REMARK UNBOUND:                 0.000
REMARK SMILES CC(C)=C1CC[C@@H](C)CC1=O
REMARK SMILES IDX 8 1 7 2 6 3 5 4 4 5 2 6 1 7 3 8 10 9 11 10 9 11
REMARK H PARENT
REMARK Flexibility Score: inf
ROOT
ATOM      1  C   UNL     1      28.872  45.899  79.530  1.00  0.00     0.008 C 
ATOM      2  C   UNL     1      29.386  45.859  80.973  1.00  0.00    -0.006 C 
ATOM      3  C   UNL     1      29.132  44.479  81.601  1.00  0.00     0.008 C 
ATOM      4  C   UNL     1      29.732  44.388  83.010  1.00  0.00     0.039 C 
ATOM      5  C   UNL     1      29.282  45.531  83.910  1.00  0.00    -0.006 C 
ATOM      6  C   UNL     1      29.133  45.357  85.257  1.00  0.00    -0.070 C 
ATOM      7  C   UNL     1      28.633  46.467  86.152  1.00  0.00     0.039 C 
ATOM      8  C   UNL     1      29.424  44.026  85.911  1.00  0.00     0.039 C 
ATOM      9  C   UNL     1      29.133  46.864  83.253  1.00  0.00     0.159 C 
ATOM     10  O   UNL     1      29.363  47.932  83.880  1.00  0.00    -0.295 OA
ATOM     11  C   UNL     1      28.709  46.950  81.815  1.00  0.00     0.084 C 
ENDROOT
TORSDOF 0
ENDMDL
MODEL 6
REMARK VINA RESULT:    -3.915     17.832     19.190
REMARK INTER + INTRA:          -3.915
REMARK INTER:                  -3.915
REMARK INTRA:                   0.000
REMARK UNBOUND:                 0.000
REMARK SMILES CC(C)=C1CC[C@@H](C)CC1=O
REMARK SMILES IDX 8 1 7 2 6 3 5 4 4 5 2 6 1 7 3 8 10 9 11 10 9 11
REMARK H PARENT
REMARK Flexibility Score: inf
ROOT
ATOM      1  C   UNL     1      29.341  44.454  81.736  1.00  0.00     0.008 C 
ATOM      2  C   UNL     1      28.869  45.010  83.083  1.00  0.00    -0.006 C 
ATOM      3  C   UNL     1      29.714  44.437  84.232  1.00  0.00     0.008 C 
ATOM      4  C   UNL     1      29.323  45.061  85.578  1.00  0.00     0.039 C 
ATOM      5  C   UNL     1      27.827  44.969  85.850  1.00  0.00    -0.006 C 
ATOM      6  C   UNL     1      27.345  44.845  87.122  1.00  0.00    -0.070 C 
ATOM      7  C   UNL     1      25.867  44.696  87.401  1.00  0.00     0.039 C 
ATOM      8  C   UNL     1      28.274  44.811  88.314  1.00  0.00     0.039 C 
ATOM      9  C   UNL     1      26.933  45.139  84.667  1.00  0.00     0.159 C 
ATOM     10  O   UNL     1      25.796  45.670  84.777  1.00  0.00    -0.295 OA
ATOM     11  C   UNL     1      27.386  44.683  83.310  1.00  0.00     0.084 C 
ENDROOT
TORSDOF 0
ENDMDL
MODEL 7
REMARK VINA RESULT:    -3.860     17.760     18.997
REMARK INTER + INTRA:          -3.860
REMARK INTER:                  -3.860
REMARK INTRA:                   0.000
REMARK UNBOUND:                 0.000
REMARK SMILES CC(C)=C1CC[C@@H](C)CC1=O
REMARK SMILES IDX 8 1 7 2 6 3 5 4 4 5 2 6 1 7 3 8 10 9 11 10 9 11
REMARK H PARENT
REMARK Flexibility Score: inf
ROOT
ATOM      1  C   UNL     1      28.080  44.987  88.388  1.00  0.00     0.008 C 
ATOM      2  C   UNL     1      28.672  45.386  87.033  1.00  0.00    -0.006 C 
ATOM      3  C   UNL     1      27.654  46.195  86.214  1.00  0.00     0.008 C 
ATOM      4  C   UNL     1      28.265  46.691  84.897  1.00  0.00     0.039 C 
ATOM      5  C   UNL     1      28.903  45.567  84.090  1.00  0.00    -0.006 C 
ATOM      6  C   UNL     1      28.920  45.596  82.725  1.00  0.00    -0.070 C 
ATOM      7  C   UNL     1      29.500  44.461  81.913  1.00  0.00     0.039 C 
ATOM      8  C   UNL     1      28.322  46.753  81.958  1.00  0.00     0.039 C 
ATOM      9  C   UNL     1      29.601  44.509  84.879  1.00  0.00     0.159 C 
ATOM     10  O   UNL     1      30.614  43.914  84.423  1.00  0.00    -0.295 OA
ATOM     11  C   UNL     1      29.105  44.140  86.247  1.00  0.00     0.084 C 
ENDROOT
TORSDOF 0
ENDMDL
MODEL 8
REMARK VINA RESULT:    -3.852     17.380     18.711
REMARK INTER + INTRA:          -3.852
REMARK INTER:                  -3.852
REMARK INTRA:                   0.000
REMARK UNBOUND:                 0.000
REMARK SMILES CC(C)=C1CC[C@@H](C)CC1=O
REMARK SMILES IDX 8 1 7 2 6 3 5 4 4 5 2 6 1 7 3 8 10 9 11 10 9 11
REMARK H PARENT
REMARK Flexibility Score: inf
ROOT
ATOM      1  C   UNL     1      29.341  44.830  81.294  1.00  0.00     0.008 C 
ATOM      2  C   UNL     1      28.770  44.396  82.647  1.00  0.00    -0.006 C 
ATOM      3  C   UNL     1      27.481  45.171  82.965  1.00  0.00     0.008 C 
ATOM      4  C   UNL     1      26.838  44.678  84.268  1.00  0.00     0.039 C 
ATOM      5  C   UNL     1      27.818  44.669  85.434  1.00  0.00    -0.006 C 
ATOM      6  C   UNL     1      27.399  44.898  86.714  1.00  0.00    -0.070 C 
ATOM      7  C   UNL     1      28.369  44.948  87.871  1.00  0.00     0.039 C 
ATOM      8  C   UNL     1      25.942  45.152  87.028  1.00  0.00     0.039 C 
ATOM      9  C   UNL     1      29.224  44.283  85.108  1.00  0.00     0.159 C 
ATOM     10  O   UNL     1      29.944  43.671  85.941  1.00  0.00    -0.295 OA
ATOM     11  C   UNL     1      29.801  44.616  83.763  1.00  0.00     0.084 C 
ENDROOT
TORSDOF 0
ENDMDL
MODEL 9
REMARK VINA RESULT:    -3.842      1.815      3.524
REMARK INTER + INTRA:          -3.842
REMARK INTER:                  -3.842
REMARK INTRA:                   0.000
REMARK UNBOUND:                 0.000
REMARK SMILES CC(C)=C1CC[C@@H](C)CC1=O
REMARK SMILES IDX 8 1 7 2 6 3 5 4 4 5 2 6 1 7 3 8 10 9 11 10 9 11
REMARK H PARENT
REMARK Flexibility Score: inf
ROOT
ATOM      1  C   UNL     1      31.665  28.301  75.072  1.00  0.00     0.008 C 
ATOM      2  C   UNL     1      30.471  29.155  74.633  1.00  0.00    -0.006 C 
ATOM      3  C   UNL     1      29.316  28.263  74.149  1.00  0.00     0.008 C 
ATOM      4  C   UNL     1      28.075  29.095  73.801  1.00  0.00     0.039 C 
ATOM      5  C   UNL     1      28.385  30.227  72.831  1.00  0.00    -0.006 C 
ATOM      6  C   UNL     1      27.458  30.657  71.924  1.00  0.00    -0.070 C 
ATOM      7  C   UNL     1      27.774  31.740  70.919  1.00  0.00     0.039 C 
ATOM      8  C   UNL     1      26.080  30.039  71.858  1.00  0.00     0.039 C 
ATOM      9  C   UNL     1      29.704  30.903  73.011  1.00  0.00     0.159 C 
ATOM     10  O   UNL     1      29.853  32.127  72.753  1.00  0.00    -0.295 OA
ATOM     11  C   UNL     1      30.885  30.126  73.518  1.00  0.00     0.084 C 
ENDROOT
TORSDOF 0
ENDMDL
