MODEL 1
REMARK VINA RESULT:    -4.956      0.000      0.000
REMARK INTER + INTRA:          -7.009
REMARK INTER:                  -6.839
REMARK INTRA:                  -0.169
REMARK UNBOUND:                -0.169
REMARK SMILES OC[C@H](O)C(O)[C@@H](O)CO
REMARK SMILES IDX 5 1 7 2 9 3 10 4 8 6 3 8 2 9 1 10 4 12 6 14
REMARK H PARENT 10 5 8 7 1 11 4 13 6 15
REMARK Flexibility Score: inf
ROOT
ATOM      1  C   UNL     1      35.518 -19.014 -29.467  1.00  0.00     0.176 C 
ENDROOT
BRANCH   1   2
ATOM      2  C   UNL     1      36.841 -18.357 -29.955  1.00  0.00     0.171 C 
BRANCH   2   3
ATOM      3  C   UNL     1      36.720 -17.793 -31.386  1.00  0.00     0.190 C 
BRANCH   3   4
ATOM      4  O   UNL     1      37.282 -18.668 -32.328  1.00  0.00    -0.394 OA
ATOM      5  H   UNL     1      37.827 -18.111 -32.944  1.00  0.00     0.210 HD
ENDBRANCH   3   4
ENDBRANCH   2   3
BRANCH   2   6
ATOM      6  O   UNL     1      37.909 -19.270 -29.907  1.00  0.00    -0.388 OA
ATOM      7  H   UNL     1      38.612 -18.940 -30.527  1.00  0.00     0.211 HD
ENDBRANCH   2   6
ENDBRANCH   1   2
BRANCH   1   8
ATOM      8  C   UNL     1      34.591 -18.089 -28.632  1.00  0.00     0.171 C 
BRANCH   8   9
ATOM      9  C   UNL     1      35.010 -16.601 -28.599  1.00  0.00     0.190 C 
BRANCH   9  10
ATOM     10  O   UNL     1      34.236 -15.867 -27.689  1.00  0.00    -0.394 OA
ATOM     11  H   UNL     1      34.448 -14.912 -27.856  1.00  0.00     0.210 HD
ENDBRANCH   9  10
ENDBRANCH   8   9
BRANCH   8  12
ATOM     12  O   UNL     1      34.352 -18.612 -27.346  1.00  0.00    -0.388 OA
ATOM     13  H   UNL     1      34.543 -17.911 -26.673  1.00  0.00     0.211 HD
ENDBRANCH   8  12
ENDBRANCH   1   8
BRANCH   1  14
ATOM     14  O   UNL     1      34.788 -19.483 -30.576  1.00  0.00    -0.388 OA
ATOM     15  H   UNL     1      35.295 -19.238 -31.394  1.00  0.00     0.211 HD
ENDBRANCH   1  14
TORSDOF 9
ENDMDL
MODEL 2
REMARK VINA RESULT:    -4.831      1.016      1.327
REMARK INTER + INTRA:          -6.836
REMARK INTER:                  -6.630
REMARK INTRA:                  -0.206
REMARK UNBOUND:                -0.169
REMARK SMILES OC[C@H](O)C(O)[C@@H](O)CO
REMARK SMILES IDX 5 1 7 2 9 3 10 4 8 6 3 8 2 9 1 10 4 12 6 14
REMARK H PARENT 10 5 8 7 1 11 4 13 6 15
REMARK Flexibility Score: inf
ROOT
ATOM      1  C   UNL     1      35.575 -19.010 -29.397  1.00  0.00     0.176 C 
ENDROOT
BRANCH   1   2
ATOM      2  C   UNL     1      36.869 -18.348 -29.953  1.00  0.00     0.171 C 
BRANCH   2   3
ATOM      3  C   UNL     1      36.684 -17.820 -31.391  1.00  0.00     0.190 C 
BRANCH   3   4
ATOM      4  O   UNL     1      37.264 -18.687 -32.330  1.00  0.00    -0.394 OA
ATOM      5  H   UNL     1      37.463 -19.534 -31.851  1.00  0.00     0.210 HD
ENDBRANCH   3   4
ENDBRANCH   2   3
BRANCH   2   6
ATOM      6  O   UNL     1      37.950 -19.246 -29.925  1.00  0.00    -0.388 OA
ATOM      7  H   UNL     1      38.062 -19.550 -28.986  1.00  0.00     0.211 HD
ENDBRANCH   2   6
ENDBRANCH   1   2
BRANCH   1   8
ATOM      8  C   UNL     1      34.731 -18.114 -28.450  1.00  0.00     0.171 C 
BRANCH   8   9
ATOM      9  C   UNL     1      33.217 -18.427 -28.431  1.00  0.00     0.190 C 
BRANCH   9  10
ATOM     10  O   UNL     1      32.469 -17.332 -27.975  1.00  0.00    -0.394 OA
ATOM     11  H   UNL     1      31.659 -17.711 -27.547  1.00  0.00     0.210 HD
ENDBRANCH   9  10
ENDBRANCH   8   9
BRANCH   8  12
ATOM     12  O   UNL     1      34.998 -16.746 -28.649  1.00  0.00    -0.388 OA
ATOM     13  H   UNL     1      34.176 -16.302 -28.980  1.00  0.00     0.211 HD
ENDBRANCH   8  12
ENDBRANCH   1   8
BRANCH   1  14
ATOM     14  O   UNL     1      34.755 -19.412 -30.469  1.00  0.00    -0.388 OA
ATOM     15  H   UNL     1      33.812 -19.250 -30.203  1.00  0.00     0.211 HD
ENDBRANCH   1  14
TORSDOF 9
ENDMDL
MODEL 3
REMARK VINA RESULT:    -4.752      1.278      4.099
REMARK INTER + INTRA:          -6.727
REMARK INTER:                  -6.534
REMARK INTRA:                  -0.193
REMARK UNBOUND:                -0.169
REMARK SMILES OC[C@H](O)C(O)[C@@H](O)CO
REMARK SMILES IDX 5 1 7 2 9 3 10 4 8 6 3 8 2 9 1 10 4 12 6 14
REMARK H PARENT 10 5 8 7 1 11 4 13 6 15
REMARK Flexibility Score: inf
ROOT
ATOM      1  C   UNL     1      34.907 -18.436 -29.707  1.00  0.00     0.176 C 
ENDROOT
BRANCH   1   2
ATOM      2  C   UNL     1      34.229 -18.377 -28.308  1.00  0.00     0.171 C 
BRANCH   2   3
ATOM      3  C   UNL     1      32.731 -18.742 -28.369  1.00  0.00     0.190 C 
BRANCH   3   4
ATOM      4  O   UNL     1      31.924 -17.633 -28.076  1.00  0.00    -0.394 OA
ATOM      5  H   UNL     1      32.390 -17.122 -27.363  1.00  0.00     0.210 HD
ENDBRANCH   3   4
ENDBRANCH   2   3
BRANCH   2   6
ATOM      6  O   UNL     1      34.371 -17.104 -27.728  1.00  0.00    -0.388 OA
ATOM      7  H   UNL     1      35.055 -17.178 -27.011  1.00  0.00     0.211 HD
ENDBRANCH   2   6
ENDBRANCH   1   2
BRANCH   1   8
ATOM      8  C   UNL     1      36.460 -18.465 -29.686  1.00  0.00     0.171 C 
BRANCH   8   9
ATOM      9  C   UNL     1      37.143 -17.719 -30.856  1.00  0.00     0.190 C 
BRANCH   9  10
ATOM     10  O   UNL     1      37.018 -18.425 -32.061  1.00  0.00    -0.394 OA
ATOM     11  H   UNL     1      36.085 -18.760 -32.088  1.00  0.00     0.210 HD
ENDBRANCH   9  10
ENDBRANCH   8   9
BRANCH   8  12
ATOM     12  O   UNL     1      36.956 -19.772 -29.515  1.00  0.00    -0.388 OA
ATOM     13  H   UNL     1      36.570 -20.357 -30.214  1.00  0.00     0.211 HD
ENDBRANCH   8  12
ENDBRANCH   1   8
BRANCH   1  14
ATOM     14  O   UNL     1      34.455 -19.575 -30.400  1.00  0.00    -0.388 OA
ATOM     15  H   UNL     1      34.575 -20.358 -29.802  1.00  0.00     0.211 HD
ENDBRANCH   1  14
TORSDOF 9
ENDMDL
MODEL 4
REMARK VINA RESULT:    -4.611      1.279      1.868
REMARK INTER + INTRA:          -6.533
REMARK INTER:                  -6.099
REMARK INTRA:                  -0.434
REMARK UNBOUND:                -0.169
REMARK SMILES OC[C@H](O)C(O)[C@@H](O)CO
REMARK SMILES IDX 5 1 7 2 9 3 10 4 8 6 3 8 2 9 1 10 4 12 6 14
REMARK H PARENT 10 5 8 7 1 11 4 13 6 15
REMARK Flexibility Score: inf
ROOT
ATOM      1  C   UNL     1      35.056 -17.570 -29.256  1.00  0.00     0.176 C 
ENDROOT
BRANCH   1   2
ATOM      2  C   UNL     1      36.499 -18.075 -29.544  1.00  0.00     0.171 C 
BRANCH   2   3
ATOM      3  C   UNL     1      37.003 -17.640 -30.935  1.00  0.00     0.190 C 
BRANCH   3   4
ATOM      4  O   UNL     1      36.958 -18.703 -31.849  1.00  0.00    -0.394 OA
ATOM      5  H   UNL     1      37.084 -18.309 -32.752  1.00  0.00     0.210 HD
ENDBRANCH   3   4
ENDBRANCH   2   3
BRANCH   2   6
ATOM      6  O   UNL     1      36.577 -19.475 -29.440  1.00  0.00    -0.388 OA
ATOM      7  H   UNL     1      36.505 -19.707 -28.477  1.00  0.00     0.211 HD
ENDBRANCH   2   6
ENDBRANCH   1   2
BRANCH   1   8
ATOM      8  C   UNL     1      34.130 -18.592 -28.540  1.00  0.00     0.171 C 
BRANCH   8   9
ATOM      9  C   UNL     1      32.616 -18.323 -28.695  1.00  0.00     0.190 C 
BRANCH   9  10
ATOM     10  O   UNL     1      32.186 -17.289 -27.852  1.00  0.00    -0.394 OA
ATOM     11  H   UNL     1      32.037 -17.703 -26.963  1.00  0.00     0.210 HD
ENDBRANCH   9  10
ENDBRANCH   8   9
BRANCH   8  12
ATOM     12  O   UNL     1      34.510 -18.789 -27.198  1.00  0.00    -0.388 OA
ATOM     13  H   UNL     1      33.701 -18.980 -26.659  1.00  0.00     0.211 HD
ENDBRANCH   8  12
ENDBRANCH   1   8
BRANCH   1  14
ATOM     14  O   UNL     1      35.114 -16.403 -28.471  1.00  0.00    -0.388 OA
ATOM     15  H   UNL     1      36.006 -16.377 -28.038  1.00  0.00     0.211 HD
ENDBRANCH   1  14
TORSDOF 9
ENDMDL
MODEL 5
REMARK VINA RESULT:    -4.490      1.003      4.055
REMARK INTER + INTRA:          -6.365
REMARK INTER:                  -5.909
REMARK INTRA:                  -0.456
REMARK UNBOUND:                -0.169
REMARK SMILES OC[C@H](O)C(O)[C@@H](O)CO
REMARK SMILES IDX 5 1 7 2 9 3 10 4 8 6 3 8 2 9 1 10 4 12 6 14
REMARK H PARENT 10 5 8 7 1 11 4 13 6 15
REMARK Flexibility Score: inf
ROOT
ATOM      1  C   UNL     1      35.857 -17.890 -29.118  1.00  0.00     0.176 C 
ENDROOT
BRANCH   1   2
ATOM      2  C   UNL     1      34.528 -18.506 -29.644  1.00  0.00     0.171 C 
BRANCH   2   3
ATOM      3  C   UNL     1      33.458 -18.617 -28.538  1.00  0.00     0.190 C 
BRANCH   3   4
ATOM      4  O   UNL     1      34.011 -18.382 -27.270  1.00  0.00    -0.394 OA
ATOM      5  H   UNL     1      34.696 -17.672 -27.385  1.00  0.00     0.210 HD
ENDBRANCH   3   4
ENDBRANCH   2   3
BRANCH   2   6
ATOM      6  O   UNL     1      34.745 -19.776 -30.207  1.00  0.00    -0.388 OA
ATOM      7  H   UNL     1      33.941 -20.004 -30.745  1.00  0.00     0.211 HD
ENDBRANCH   2   6
ENDBRANCH   1   2
BRANCH   1   8
ATOM      8  C   UNL     1      37.103 -18.150 -30.009  1.00  0.00     0.171 C 
BRANCH   8   9
ATOM      9  C   UNL     1      36.945 -17.736 -31.490  1.00  0.00     0.190 C 
BRANCH   9  10
ATOM     10  O   UNL     1      37.343 -18.762 -32.359  1.00  0.00    -0.394 OA
ATOM     11  H   UNL     1      37.135 -19.613 -31.893  1.00  0.00     0.210 HD
ENDBRANCH   9  10
ENDBRANCH   8   9
BRANCH   8  12
ATOM     12  O   UNL     1      37.583 -19.466 -29.864  1.00  0.00    -0.388 OA
ATOM     13  H   UNL     1      37.395 -19.777 -28.942  1.00  0.00     0.211 HD
ENDBRANCH   8  12
ENDBRANCH   1   8
BRANCH   1  14
ATOM     14  O   UNL     1      35.704 -16.498 -28.971  1.00  0.00    -0.388 OA
ATOM     15  H   UNL     1      34.772 -16.270 -29.223  1.00  0.00     0.211 HD
ENDBRANCH   1  14
TORSDOF 9
ENDMDL
MODEL 6
REMARK VINA RESULT:    -4.376      1.790      3.928
REMARK INTER + INTRA:          -6.209
REMARK INTER:                  -5.680
REMARK INTRA:                  -0.529
REMARK UNBOUND:                -0.169
REMARK SMILES OC[C@H](O)C(O)[C@@H](O)CO
REMARK SMILES IDX 5 1 7 2 9 3 10 4 8 6 3 8 2 9 1 10 4 12 6 14
REMARK H PARENT 10 5 8 7 1 11 4 13 6 15
REMARK Flexibility Score: inf
ROOT
ATOM      1  C   UNL     1      34.039 -18.563 -28.430  1.00  0.00     0.176 C 
ENDROOT
BRANCH   1   2
ATOM      2  C   UNL     1      32.485 -18.647 -28.428  1.00  0.00     0.171 C 
BRANCH   2   3
ATOM      3  C   UNL     1      31.930 -19.242 -29.739  1.00  0.00     0.190 C 
BRANCH   3   4
ATOM      4  O   UNL     1      32.955 -19.795 -30.520  1.00  0.00    -0.394 OA
ATOM      5  H   UNL     1      33.615 -20.187 -29.889  1.00  0.00     0.210 HD
ENDBRANCH   3   4
ENDBRANCH   2   3
BRANCH   2   6
ATOM      6  O   UNL     1      31.909 -17.383 -28.213  1.00  0.00    -0.388 OA
ATOM      7  H   UNL     1      31.841 -16.933 -29.096  1.00  0.00     0.211 HD
ENDBRANCH   2   6
ENDBRANCH   1   2
BRANCH   1   8
ATOM      8  C   UNL     1      34.625 -17.179 -28.822  1.00  0.00     0.171 C 
BRANCH   8   9
ATOM      9  C   UNL     1      36.079 -17.208 -29.344  1.00  0.00     0.190 C 
BRANCH   9  10
ATOM     10  O   UNL     1      36.640 -18.489 -29.237  1.00  0.00    -0.394 OA
ATOM     11  H   UNL     1      36.271 -19.015 -29.993  1.00  0.00     0.210 HD
ENDBRANCH   9  10
ENDBRANCH   8   9
BRANCH   8  12
ATOM     12  O   UNL     1      34.434 -16.224 -27.804  1.00  0.00    -0.388 OA
ATOM     13  H   UNL     1      35.243 -15.656 -27.740  1.00  0.00     0.211 HD
ENDBRANCH   8  12
ENDBRANCH   1   8
BRANCH   1  14
ATOM     14  O   UNL     1      34.531 -18.904 -27.156  1.00  0.00    -0.388 OA
ATOM     15  H   UNL     1      35.450 -19.260 -27.274  1.00  0.00     0.211 HD
ENDBRANCH   1  14
TORSDOF 9
ENDMDL
MODEL 7
REMARK VINA RESULT:    -4.267      2.055      3.609
REMARK INTER + INTRA:          -6.058
REMARK INTER:                  -5.376
REMARK INTRA:                  -0.682
REMARK UNBOUND:                -0.169
REMARK SMILES OC[C@H](O)C(O)[C@@H](O)CO
REMARK SMILES IDX 5 1 7 2 9 3 10 4 8 6 3 8 2 9 1 10 4 12 6 14
REMARK H PARENT 10 5 8 7 1 11 4 13 6 15
REMARK Flexibility Score: inf
ROOT
ATOM      1  C   UNL     1      34.036 -18.851 -28.709  1.00  0.00     0.176 C 
ENDROOT
BRANCH   1   2
ATOM      2  C   UNL     1      33.342 -19.096 -30.079  1.00  0.00     0.171 C 
BRANCH   2   3
ATOM      3  C   UNL     1      31.869 -19.526 -29.919  1.00  0.00     0.190 C 
BRANCH   3   4
ATOM      4  O   UNL     1      31.012 -18.415 -29.914  1.00  0.00    -0.394 OA
ATOM      5  H   UNL     1      31.131 -17.968 -29.035  1.00  0.00     0.210 HD
ENDBRANCH   3   4
ENDBRANCH   2   3
BRANCH   2   6
ATOM      6  O   UNL     1      34.028 -20.068 -30.829  1.00  0.00    -0.388 OA
ATOM      7  H   UNL     1      33.347 -20.642 -31.268  1.00  0.00     0.211 HD
ENDBRANCH   2   6
ENDBRANCH   1   2
BRANCH   1   8
ATOM      8  C   UNL     1      35.524 -18.410 -28.792  1.00  0.00     0.171 C 
BRANCH   8   9
ATOM      9  C   UNL     1      35.756 -17.007 -29.398  1.00  0.00     0.190 C 
BRANCH   9  10
ATOM     10  O   UNL     1      35.175 -16.002 -28.612  1.00  0.00    -0.394 OA
ATOM     11  H   UNL     1      35.736 -15.932 -27.797  1.00  0.00     0.210 HD
ENDBRANCH   9  10
ENDBRANCH   8   9
BRANCH   8  12
ATOM     12  O   UNL     1      36.329 -19.399 -29.390  1.00  0.00    -0.388 OA
ATOM     13  H   UNL     1      36.341 -19.254 -30.370  1.00  0.00     0.211 HD
ENDBRANCH   8  12
ENDBRANCH   1   8
BRANCH   1  14
ATOM     14  O   UNL     1      33.326 -17.870 -27.991  1.00  0.00    -0.388 OA
ATOM     15  H   UNL     1      33.988 -17.330 -27.485  1.00  0.00     0.211 HD
ENDBRANCH   1  14
TORSDOF 9
ENDMDL
MODEL 8
REMARK VINA RESULT:    -4.004      1.919      3.244
REMARK INTER + INTRA:          -5.695
REMARK INTER:                  -5.301
REMARK INTRA:                  -0.394
REMARK UNBOUND:                -0.169
REMARK SMILES OC[C@H](O)C(O)[C@@H](O)CO
REMARK SMILES IDX 5 1 7 2 9 3 10 4 8 6 3 8 2 9 1 10 4 12 6 14
REMARK H PARENT 10 5 8 7 1 11 4 13 6 15
REMARK Flexibility Score: inf
ROOT
ATOM      1  C   UNL     1      33.989 -17.835 -28.789  1.00  0.00     0.176 C 
ENDROOT
BRANCH   1   2
ATOM      2  C   UNL     1      35.239 -18.681 -29.168  1.00  0.00     0.171 C 
BRANCH   2   3
ATOM      3  C   UNL     1      36.486 -17.804 -29.411  1.00  0.00     0.190 C 
BRANCH   3   4
ATOM      4  O   UNL     1      36.141 -16.450 -29.527  1.00  0.00    -0.394 OA
ATOM      5  H   UNL     1      36.119 -16.081 -28.605  1.00  0.00     0.210 HD
ENDBRANCH   3   4
ENDBRANCH   2   3
BRANCH   2   6
ATOM      6  O   UNL     1      34.995 -19.465 -30.309  1.00  0.00    -0.388 OA
ATOM      7  H   UNL     1      34.265 -19.026 -30.821  1.00  0.00     0.211 HD
ENDBRANCH   2   6
ENDBRANCH   1   2
BRANCH   1   8
ATOM      8  C   UNL     1      32.703 -18.654 -28.495  1.00  0.00     0.171 C 
BRANCH   8   9
ATOM      9  C   UNL     1      31.826 -18.961 -29.730  1.00  0.00     0.190 C 
BRANCH   9  10
ATOM     10  O   UNL     1      32.229 -20.142 -30.368  1.00  0.00    -0.394 OA
ATOM     11  H   UNL     1      32.103 -20.870 -29.706  1.00  0.00     0.210 HD
ENDBRANCH   9  10
ENDBRANCH   8   9
BRANCH   8  12
ATOM     12  O   UNL     1      31.964 -18.101 -27.430  1.00  0.00    -0.388 OA
ATOM     13  H   UNL     1      32.381 -18.374 -26.574  1.00  0.00     0.211 HD
ENDBRANCH   8  12
ENDBRANCH   1   8
BRANCH   1  14
ATOM     14  O   UNL     1      34.279 -17.048 -27.658  1.00  0.00    -0.388 OA
ATOM     15  H   UNL     1      34.888 -16.320 -27.947  1.00  0.00     0.211 HD
ENDBRANCH   1  14
TORSDOF 9
ENDMDL
MODEL 9
REMARK VINA RESULT:    -3.985      1.775      2.397
REMARK INTER + INTRA:          -5.669
REMARK INTER:                  -5.559
REMARK INTRA:                  -0.109
REMARK UNBOUND:                -0.169
REMARK SMILES OC[C@H](O)C(O)[C@@H](O)CO
REMARK SMILES IDX 5 1 7 2 9 3 10 4 8 6 3 8 2 9 1 10 4 12 6 14
REMARK H PARENT 10 5 8 7 1 11 4 13 6 15
REMARK Flexibility Score: inf
ROOT
ATOM      1  C   UNL     1      34.260 -19.493 -29.893  1.00  0.00     0.176 C 
ENDROOT
BRANCH   1   2
ATOM      2  C   UNL     1      35.338 -18.497 -29.375  1.00  0.00     0.171 C 
BRANCH   2   3
ATOM      3  C   UNL     1      36.476 -18.286 -30.396  1.00  0.00     0.190 C 
BRANCH   3   4
ATOM      4  O   UNL     1      37.607 -19.046 -30.063  1.00  0.00    -0.394 OA
ATOM      5  H   UNL     1      38.080 -18.551 -29.344  1.00  0.00     0.210 HD
ENDBRANCH   3   4
ENDBRANCH   2   3
BRANCH   2   6
ATOM      6  O   UNL     1      35.886 -18.931 -28.156  1.00  0.00    -0.388 OA
ATOM      7  H   UNL     1      36.870 -18.989 -28.275  1.00  0.00     0.211 HD
ENDBRANCH   2   6
ENDBRANCH   1   2
BRANCH   1   8
ATOM      8  C   UNL     1      32.789 -19.070 -29.626  1.00  0.00     0.171 C 
BRANCH   8   9
ATOM      9  C   UNL     1      32.461 -18.740 -28.152  1.00  0.00     0.190 C 
BRANCH   9  10
ATOM     10  O   UNL     1      32.397 -17.356 -27.934  1.00  0.00    -0.394 OA
ATOM     11  H   UNL     1      33.333 -17.055 -27.802  1.00  0.00     0.210 HD
ENDBRANCH   9  10
ENDBRANCH   8   9
BRANCH   8  12
ATOM     12  O   UNL     1      31.874 -19.976 -30.195  1.00  0.00    -0.388 OA
ATOM     13  H   UNL     1      31.175 -19.467 -30.678  1.00  0.00     0.211 HD
ENDBRANCH   8  12
ENDBRANCH   1   8
BRANCH   1  14
ATOM     14  O   UNL     1      34.419 -19.680 -31.279  1.00  0.00    -0.388 OA
ATOM     15  H   UNL     1      35.291 -20.132 -31.423  1.00  0.00     0.211 HD
ENDBRANCH   1  14
TORSDOF 9
ENDMDL
