MODEL 1
REMARK VINA RESULT:    -2.867      0.000      0.000
REMARK INTER + INTRA:          -4.369
REMARK INTER:                  -4.041
REMARK INTRA:                  -0.329
REMARK UNBOUND:                -0.329
REMARK SMILES C=CCCCCCCC(=O)[O-]
REMARK SMILES IDX 6 1 7 2 8 3 9 4 10 5 11 6 5 7 4 8 3 9 2 10 1 11
REMARK H PARENT
REMARK Flexibility Score: inf
ROOT
ATOM      1  C   UNL     1     141.115 -47.801  67.184  1.00  0.00     0.000 C 
ENDROOT
BRANCH   1   2
ATOM      2  C   UNL     1     142.153 -46.672  67.271  1.00  0.00     0.006 C 
BRANCH   2   3
ATOM      3  C   UNL     1     141.491 -45.304  67.079  1.00  0.00     0.053 C 
BRANCH   3   4
ATOM      4  C   UNL     1     141.333 -44.999  65.623  1.00  0.00     0.041 C 
ATOM      5  O   UNL     1     140.203 -45.090  65.075  1.00  0.00    -0.550 OA
ATOM      6  O   UNL     1     142.425 -44.566  64.881  1.00  0.00    -0.550 OA
ENDBRANCH   3   4
ENDBRANCH   2   3
ENDBRANCH   1   2
BRANCH   1   7
ATOM      7  C   UNL     1     141.616 -49.116  67.803  1.00  0.00     0.000 C 
BRANCH   7   8
ATOM      8  C   UNL     1     140.943 -49.433  69.147  1.00  0.00     0.004 C 
BRANCH   8   9
ATOM      9  C   UNL     1     139.741 -50.365  68.951  1.00  0.00     0.027 C 
BRANCH   9  10
ATOM     10  C   UNL     1     139.904 -51.213  67.719  1.00  0.00    -0.035 C 
ATOM     11  C   UNL     1     138.889 -51.915  67.208  1.00  0.00     0.004 C 
ENDBRANCH   9  10
ENDBRANCH   8   9
ENDBRANCH   7   8
ENDBRANCH   1   7
TORSDOF 7
ENDMDL
MODEL 2
REMARK VINA RESULT:    -2.827      1.846      2.824
REMARK INTER + INTRA:          -4.313
REMARK INTER:                  -3.540
REMARK INTRA:                  -0.773
REMARK UNBOUND:                -0.329
REMARK SMILES C=CCCCCCCC(=O)[O-]
REMARK SMILES IDX 6 1 7 2 8 3 9 4 10 5 11 6 5 7 4 8 3 9 2 10 1 11
REMARK H PARENT
REMARK Flexibility Score: inf
ROOT
ATOM      1  C   UNL     1     140.340 -49.099  69.766  1.00  0.00     0.000 C 
ENDROOT
BRANCH   1   2
ATOM      2  C   UNL     1     141.748 -49.081  69.151  1.00  0.00     0.006 C 
BRANCH   2   3
ATOM      3  C   UNL     1     141.678 -48.941  67.628  1.00  0.00     0.053 C 
BRANCH   3   4
ATOM      4  C   UNL     1     141.510 -47.506  67.240  1.00  0.00     0.041 C 
ATOM      5  O   UNL     1     140.512 -47.145  66.563  1.00  0.00    -0.550 OA
ATOM      6  O   UNL     1     142.431 -46.557  67.668  1.00  0.00    -0.550 OA
ENDBRANCH   3   4
ENDBRANCH   2   3
ENDBRANCH   1   2
BRANCH   1   7
ATOM      7  C   UNL     1     139.902 -50.507  70.200  1.00  0.00     0.000 C 
BRANCH   7   8
ATOM      8  C   UNL     1     138.726 -51.044  69.370  1.00  0.00     0.004 C 
BRANCH   8   9
ATOM      9  C   UNL     1     139.224 -51.706  68.079  1.00  0.00     0.027 C 
BRANCH   9  10
ATOM     10  C   UNL     1     138.461 -51.210  66.882  1.00  0.00    -0.035 C 
ATOM     11  C   UNL     1     138.249 -49.908  66.672  1.00  0.00     0.004 C 
ENDBRANCH   9  10
ENDBRANCH   8   9
ENDBRANCH   7   8
ENDBRANCH   1   7
TORSDOF 7
ENDMDL
MODEL 3
REMARK VINA RESULT:    -2.801     24.620     25.367
REMARK INTER + INTRA:          -4.276
REMARK INTER:                  -3.682
REMARK INTRA:                  -0.593
REMARK UNBOUND:                -0.329
REMARK SMILES C=CCCCCCCC(=O)[O-]
REMARK SMILES IDX 6 1 7 2 8 3 9 4 10 5 11 6 5 7 4 8 3 9 2 10 1 11
REMARK H PARENT
REMARK Flexibility Score: inf
ROOT
ATOM      1  C   UNL     1     127.802 -35.289  83.378  1.00  0.00     0.000 C 
ENDROOT
BRANCH   1   2
ATOM      2  C   UNL     1     126.487 -35.641  84.091  1.00  0.00     0.006 C 
BRANCH   2   3
ATOM      3  C   UNL     1     125.847 -36.888  83.474  1.00  0.00     0.053 C 
BRANCH   3   4
ATOM      4  C   UNL     1     126.043 -38.073  84.366  1.00  0.00     0.041 C 
ATOM      5  O   UNL     1     125.059 -38.784  84.702  1.00  0.00    -0.550 OA
ATOM      6  O   UNL     1     127.319 -38.422  84.789  1.00  0.00    -0.550 OA
ENDBRANCH   3   4
ENDBRANCH   2   3
ENDBRANCH   1   2
BRANCH   1   7
ATOM      7  C   UNL     1     127.815 -33.851  82.836  1.00  0.00     0.000 C 
BRANCH   7   8
ATOM      8  C   UNL     1     126.403 -33.300  82.583  1.00  0.00     0.004 C 
BRANCH   8   9
ATOM      9  C   UNL     1     126.295 -32.695  81.178  1.00  0.00     0.027 C 
BRANCH   9  10
ATOM     10  C   UNL     1     125.328 -33.468  80.324  1.00  0.00    -0.035 C 
ATOM     11  C   UNL     1     124.997 -34.732  80.602  1.00  0.00     0.004 C 
ENDBRANCH   9  10
ENDBRANCH   8   9
ENDBRANCH   7   8
ENDBRANCH   1   7
TORSDOF 7
ENDMDL
MODEL 4
REMARK VINA RESULT:    -2.800      1.941      3.007
REMARK INTER + INTRA:          -4.274
REMARK INTER:                  -3.662
REMARK INTRA:                  -0.613
REMARK UNBOUND:                -0.329
REMARK SMILES C=CCCCCCCC(=O)[O-]
REMARK SMILES IDX 6 1 7 2 8 3 9 4 10 5 11 6 5 7 4 8 3 9 2 10 1 11
REMARK H PARENT
REMARK Flexibility Score: inf
ROOT
ATOM      1  C   UNL     1     140.411 -49.520  69.084  1.00  0.00     0.000 C 
ENDROOT
BRANCH   1   2
ATOM      2  C   UNL     1     141.444 -49.244  67.981  1.00  0.00     0.006 C 
BRANCH   2   3
ATOM      3  C   UNL     1     141.098 -47.961  67.217  1.00  0.00     0.053 C 
BRANCH   3   4
ATOM      4  C   UNL     1     142.030 -46.856  67.602  1.00  0.00     0.041 C 
ATOM      5  O   UNL     1     142.384 -45.999  66.750  1.00  0.00    -0.550 OA
ATOM      6  O   UNL     1     142.469 -46.742  68.915  1.00  0.00    -0.550 OA
ENDBRANCH   3   4
ENDBRANCH   2   3
ENDBRANCH   1   2
BRANCH   1   7
ATOM      7  C   UNL     1     139.786 -50.921  68.972  1.00  0.00     0.000 C 
BRANCH   7   8
ATOM      8  C   UNL     1     139.584 -51.365  67.515  1.00  0.00     0.004 C 
BRANCH   8   9
ATOM      9  C   UNL     1     138.101 -51.614  67.219  1.00  0.00     0.027 C 
BRANCH   9  10
ATOM     10  C   UNL     1     137.580 -50.649  66.189  1.00  0.00    -0.035 C 
ATOM     11  C   UNL     1     137.761 -49.331  66.305  1.00  0.00     0.004 C 
ENDBRANCH   9  10
ENDBRANCH   8   9
ENDBRANCH   7   8
ENDBRANCH   1   7
TORSDOF 7
ENDMDL
MODEL 5
REMARK VINA RESULT:    -2.787      1.630      2.116
REMARK INTER + INTRA:          -4.256
REMARK INTER:                  -3.531
REMARK INTRA:                  -0.725
REMARK UNBOUND:                -0.329
REMARK SMILES C=CCCCCCCC(=O)[O-]
REMARK SMILES IDX 6 1 7 2 8 3 9 4 10 5 11 6 5 7 4 8 3 9 2 10 1 11
REMARK H PARENT
REMARK Flexibility Score: inf
ROOT
ATOM      1  C   UNL     1     141.770 -48.154  69.360  1.00  0.00     0.000 C 
ENDROOT
BRANCH   1   2
ATOM      2  C   UNL     1     142.076 -46.716  68.916  1.00  0.00     0.006 C 
BRANCH   2   3
ATOM      3  C   UNL     1     142.276 -46.642  67.399  1.00  0.00     0.053 C 
BRANCH   3   4
ATOM      4  C   UNL     1     141.637 -45.409  66.845  1.00  0.00     0.041 C 
ATOM      5  O   UNL     1     140.745 -44.808  67.500  1.00  0.00    -0.550 OA
ATOM      6  O   UNL     1     142.060 -44.894  65.626  1.00  0.00    -0.550 OA
ENDBRANCH   3   4
ENDBRANCH   2   3
ENDBRANCH   1   2
BRANCH   1   7
ATOM      7  C   UNL     1     141.858 -49.163  68.203  1.00  0.00     0.000 C 
BRANCH   7   8
ATOM      8  C   UNL     1     140.575 -49.992  68.041  1.00  0.00     0.004 C 
BRANCH   8   9
ATOM      9  C   UNL     1     139.331 -49.099  68.123  1.00  0.00     0.027 C 
BRANCH   9  10
ATOM     10  C   UNL     1     138.720 -48.888  66.765  1.00  0.00    -0.035 C 
ATOM     11  C   UNL     1     139.090 -47.876  65.976  1.00  0.00     0.004 C 
ENDBRANCH   9  10
ENDBRANCH   8   9
ENDBRANCH   7   8
ENDBRANCH   1   7
TORSDOF 7
ENDMDL
MODEL 6
REMARK VINA RESULT:    -2.729     23.917     25.000
REMARK INTER + INTRA:          -4.175
REMARK INTER:                  -3.708
REMARK INTRA:                  -0.467
REMARK UNBOUND:                -0.329
REMARK SMILES C=CCCCCCCC(=O)[O-]
REMARK SMILES IDX 6 1 7 2 8 3 9 4 10 5 11 6 5 7 4 8 3 9 2 10 1 11
REMARK H PARENT
REMARK Flexibility Score: inf
ROOT
ATOM      1  C   UNL     1     127.762 -37.582  83.474  1.00  0.00     0.000 C 
ENDROOT
BRANCH   1   2
ATOM      2  C   UNL     1     127.118 -38.612  84.414  1.00  0.00     0.006 C 
BRANCH   2   3
ATOM      3  C   UNL     1     125.592 -38.477  84.411  1.00  0.00     0.053 C 
BRANCH   3   4
ATOM      4  C   UNL     1     125.065 -38.520  83.011  1.00  0.00     0.041 C 
ATOM      5  O   UNL     1     125.170 -39.571  82.326  1.00  0.00    -0.550 OA
ATOM      6  O   UNL     1     124.414 -37.413  82.480  1.00  0.00    -0.550 OA
ENDBRANCH   3   4
ENDBRANCH   2   3
ENDBRANCH   1   2
BRANCH   1   7
ATOM      7  C   UNL     1     128.339 -36.372  84.227  1.00  0.00     0.000 C 
BRANCH   7   8
ATOM      8  C   UNL     1     127.314 -35.242  84.404  1.00  0.00     0.004 C 
BRANCH   8   9
ATOM      9  C   UNL     1     126.722 -34.822  83.053  1.00  0.00     0.027 C 
BRANCH   9  10
ATOM     10  C   UNL     1     127.167 -33.438  82.669  1.00  0.00    -0.035 C 
ATOM     11  C   UNL     1     126.333 -32.563  82.100  1.00  0.00     0.004 C 
ENDBRANCH   9  10
ENDBRANCH   8   9
ENDBRANCH   7   8
ENDBRANCH   1   7
TORSDOF 7
ENDMDL
MODEL 7
REMARK VINA RESULT:    -2.718     24.016     25.123
REMARK INTER + INTRA:          -4.159
REMARK INTER:                  -3.521
REMARK INTRA:                  -0.638
REMARK UNBOUND:                -0.329
REMARK SMILES C=CCCCCCCC(=O)[O-]
REMARK SMILES IDX 6 1 7 2 8 3 9 4 10 5 11 6 5 7 4 8 3 9 2 10 1 11
REMARK H PARENT
REMARK Flexibility Score: inf
ROOT
ATOM      1  C   UNL     1     127.938 -35.591  84.343  1.00  0.00     0.000 C 
ENDROOT
BRANCH   1   2
ATOM      2  C   UNL     1     127.358 -36.990  84.085  1.00  0.00     0.006 C 
BRANCH   2   3
ATOM      3  C   UNL     1     125.834 -36.935  83.952  1.00  0.00     0.053 C 
BRANCH   3   4
ATOM      4  C   UNL     1     125.434 -36.896  82.511  1.00  0.00     0.041 C 
ATOM      5  O   UNL     1     126.303 -37.026  81.608  1.00  0.00    -0.550 OA
ATOM      6  O   UNL     1     124.095 -36.766  82.164  1.00  0.00    -0.550 OA
ENDBRANCH   3   4
ENDBRANCH   2   3
ENDBRANCH   1   2
BRANCH   1   7
ATOM      7  C   UNL     1     128.898 -35.134  83.233  1.00  0.00     0.000 C 
BRANCH   7   8
ATOM      8  C   UNL     1     128.346 -33.950  82.423  1.00  0.00     0.004 C 
BRANCH   8   9
ATOM      9  C   UNL     1     126.942 -33.565  82.904  1.00  0.00     0.027 C 
BRANCH   9  10
ATOM     10  C   UNL     1     126.061 -33.165  81.752  1.00  0.00    -0.035 C 
ATOM     11  C   UNL     1     125.834 -31.884  81.450  1.00  0.00     0.004 C 
ENDBRANCH   9  10
ENDBRANCH   8   9
ENDBRANCH   7   8
ENDBRANCH   1   7
TORSDOF 7
ENDMDL
MODEL 8
REMARK VINA RESULT:    -2.707     23.794     24.868
REMARK INTER + INTRA:          -4.143
REMARK INTER:                  -3.453
REMARK INTRA:                  -0.689
REMARK UNBOUND:                -0.329
REMARK SMILES C=CCCCCCCC(=O)[O-]
REMARK SMILES IDX 6 1 7 2 8 3 9 4 10 5 11 6 5 7 4 8 3 9 2 10 1 11
REMARK H PARENT
REMARK Flexibility Score: inf
ROOT
ATOM      1  C   UNL     1     126.356 -35.356  81.929  1.00  0.00     0.000 C 
ENDROOT
BRANCH   1   2
ATOM      2  C   UNL     1     125.526 -36.378  82.719  1.00  0.00     0.006 C 
BRANCH   2   3
ATOM      3  C   UNL     1     126.092 -36.570  84.129  1.00  0.00     0.053 C 
BRANCH   3   4
ATOM      4  C   UNL     1     126.176 -38.025  84.466  1.00  0.00     0.041 C 
ATOM      5  O   UNL     1     125.127 -38.713  84.573  1.00  0.00    -0.550 OA
ATOM      6  O   UNL     1     127.416 -38.634  84.614  1.00  0.00    -0.550 OA
ENDBRANCH   3   4
ENDBRANCH   2   3
ENDBRANCH   1   2
BRANCH   1   7
ATOM      7  C   UNL     1     126.618 -34.065  82.721  1.00  0.00     0.000 C 
BRANCH   7   8
ATOM      8  C   UNL     1     128.070 -33.578  82.598  1.00  0.00     0.004 C 
BRANCH   8   9
ATOM      9  C   UNL     1     129.010 -34.741  82.257  1.00  0.00     0.027 C 
BRANCH   9  10
ATOM     10  C   UNL     1     129.978 -35.007  83.377  1.00  0.00    -0.035 C 
ATOM     11  C   UNL     1     129.659 -35.790  84.411  1.00  0.00     0.004 C 
ENDBRANCH   9  10
ENDBRANCH   8   9
ENDBRANCH   7   8
ENDBRANCH   1   7
TORSDOF 7
ENDMDL
MODEL 9
REMARK VINA RESULT:    -2.702      1.949      2.535
REMARK INTER + INTRA:          -4.137
REMARK INTER:                  -3.262
REMARK INTRA:                  -0.875
REMARK UNBOUND:                -0.329
REMARK SMILES C=CCCCCCCC(=O)[O-]
REMARK SMILES IDX 6 1 7 2 8 3 9 4 10 5 11 6 5 7 4 8 3 9 2 10 1 11
REMARK H PARENT
REMARK Flexibility Score: inf
ROOT
ATOM      1  C   UNL     1     141.660 -48.833  67.563  1.00  0.00     0.000 C 
ENDROOT
BRANCH   1   2
ATOM      2  C   UNL     1     141.337 -47.379  67.190  1.00  0.00     0.006 C 
BRANCH   2   3
ATOM      3  C   UNL     1     140.044 -47.297  66.373  1.00  0.00     0.053 C 
BRANCH   3   4
ATOM      4  C   UNL     1     138.963 -46.635  67.168  1.00  0.00     0.041 C 
ATOM      5  O   UNL     1     138.491 -45.528  66.797  1.00  0.00    -0.550 OA
ATOM      6  O   UNL     1     138.443 -47.263  68.293  1.00  0.00    -0.550 OA
ENDBRANCH   3   4
ENDBRANCH   2   3
ENDBRANCH   1   2
BRANCH   1   7
ATOM      7  C   UNL     1     141.389 -49.138  69.045  1.00  0.00     0.000 C 
BRANCH   7   8
ATOM      8  C   UNL     1     140.268 -50.170  69.242  1.00  0.00     0.004 C 
BRANCH   8   9
ATOM      9  C   UNL     1     139.955 -50.896  67.929  1.00  0.00     0.027 C 
BRANCH   9  10
ATOM     10  C   UNL     1     138.476 -50.908  67.651  1.00  0.00    -0.035 C 
ATOM     11  C   UNL     1     137.960 -50.333  66.562  1.00  0.00     0.004 C 
ENDBRANCH   9  10
ENDBRANCH   8   9
ENDBRANCH   7   8
ENDBRANCH   1   7
TORSDOF 7
ENDMDL
