MODEL 1
REMARK VINA RESULT:    -5.578      0.000      0.000
REMARK INTER + INTRA:          -5.946
REMARK INTER:                  -5.904
REMARK INTRA:                  -0.042
REMARK UNBOUND:                -0.042
REMARK SMILES COc1ccc2ccc(=O)oc2c1
REMARK SMILES IDX 3 1 13 2 12 3 6 4 5 5 4 6 7 7 8 8 9 9 10 10 11 11 2 12 1 13
REMARK H PARENT
REMARK Flexibility Score: inf
ROOT
ATOM      1  C   UNL     1     -30.767  -2.690 -19.891  1.00  0.00     0.122 A 
ATOM      2  C   UNL     1     -32.044  -2.776 -20.461  1.00  0.00     0.094 A 
ATOM      3  C   UNL     1     -33.147  -3.141 -19.681  1.00  0.00     0.142 A 
ATOM      4  C   UNL     1     -32.973  -3.426 -18.310  1.00  0.00     0.018 A 
ATOM      5  C   UNL     1     -31.698  -3.342 -17.736  1.00  0.00     0.016 A 
ATOM      6  C   UNL     1     -30.600  -2.976 -18.521  1.00  0.00     0.047 A 
ATOM      7  C   UNL     1     -34.094  -3.789 -17.556  1.00  0.00     0.019 A 
ATOM      8  C   UNL     1     -35.341  -3.858 -18.176  1.00  0.00     0.094 A 
ATOM      9  C   UNL     1     -35.438  -3.561 -19.539  1.00  0.00     0.336 A 
ATOM     10  O   UNL     1     -36.555  -3.618 -20.117  1.00  0.00    -0.246 OA
ATOM     11  O   UNL     1     -34.355  -3.218 -20.233  1.00  0.00    -0.423 OA
ENDROOT
BRANCH   1  12
ATOM     12  O   UNL     1     -29.695  -2.319 -20.717  1.00  0.00    -0.497 OA
ATOM     13  C   UNL     1     -29.837  -1.633 -21.957  1.00  0.00     0.278 C 
ENDBRANCH   1  12
TORSDOF 1
ENDMDL
MODEL 2
REMARK VINA RESULT:    -5.470      7.528      8.798
REMARK INTER + INTRA:          -5.832
REMARK INTER:                  -5.802
REMARK INTRA:                  -0.030
REMARK UNBOUND:                -0.042
REMARK SMILES COc1ccc2ccc(=O)oc2c1
REMARK SMILES IDX 3 1 13 2 12 3 6 4 5 5 4 6 7 7 8 8 9 9 10 10 11 11 2 12 1 13
REMARK H PARENT
REMARK Flexibility Score: inf
ROOT
ATOM      1  C   UNL     1     -37.242  -4.277 -13.351  1.00  0.00     0.122 A 
ATOM      2  C   UNL     1     -38.399  -5.068 -13.343  1.00  0.00     0.094 A 
ATOM      3  C   UNL     1     -38.329  -6.432 -13.643  1.00  0.00     0.142 A 
ATOM      4  C   UNL     1     -37.084  -7.019 -13.957  1.00  0.00     0.018 A 
ATOM      5  C   UNL     1     -35.925  -6.232 -13.968  1.00  0.00     0.016 A 
ATOM      6  C   UNL     1     -36.002  -4.869 -13.666  1.00  0.00     0.047 A 
ATOM      7  C   UNL     1     -37.045  -8.385 -14.254  1.00  0.00     0.019 A 
ATOM      8  C   UNL     1     -38.227  -9.123 -14.230  1.00  0.00     0.094 A 
ATOM      9  C   UNL     1     -39.425  -8.476 -13.909  1.00  0.00     0.336 A 
ATOM     10  O   UNL     1     -40.503  -9.125 -13.883  1.00  0.00    -0.246 OA
ATOM     11  O   UNL     1     -39.434  -7.174 -13.631  1.00  0.00    -0.423 OA
ENDROOT
BRANCH   1  12
ATOM     12  O   UNL     1     -37.368  -2.914 -13.042  1.00  0.00    -0.497 OA
ATOM     13  C   UNL     1     -36.828  -2.302 -11.875  1.00  0.00     0.278 C 
ENDBRANCH   1  12
TORSDOF 1
ENDMDL
MODEL 3
REMARK VINA RESULT:    -5.459      8.293      9.338
REMARK INTER + INTRA:          -5.820
REMARK INTER:                  -5.778
REMARK INTRA:                  -0.042
REMARK UNBOUND:                -0.042
REMARK SMILES COc1ccc2ccc(=O)oc2c1
REMARK SMILES IDX 3 1 13 2 12 3 6 4 5 5 4 6 7 7 8 8 9 9 10 10 11 11 2 12 1 13
REMARK H PARENT
REMARK Flexibility Score: inf
ROOT
ATOM      1  C   UNL     1     -38.514  -4.464 -12.639  1.00  0.00     0.122 A 
ATOM      2  C   UNL     1     -37.630  -5.210 -13.432  1.00  0.00     0.094 A 
ATOM      3  C   UNL     1     -37.957  -6.510 -13.829  1.00  0.00     0.142 A 
ATOM      4  C   UNL     1     -39.185  -7.078 -13.430  1.00  0.00     0.018 A 
ATOM      5  C   UNL     1     -40.071  -6.338 -12.637  1.00  0.00     0.016 A 
ATOM      6  C   UNL     1     -39.739  -5.038 -12.243  1.00  0.00     0.047 A 
ATOM      7  C   UNL     1     -39.484  -8.381 -13.843  1.00  0.00     0.019 A 
ATOM      8  C   UNL     1     -38.568  -9.075 -14.631  1.00  0.00     0.094 A 
ATOM      9  C   UNL     1     -37.369  -8.449 -14.990  1.00  0.00     0.336 A 
ATOM     10  O   UNL     1     -36.529  -9.059 -15.700  1.00  0.00    -0.246 OA
ATOM     11  O   UNL     1     -37.110  -7.208 -14.583  1.00  0.00    -0.423 OA
ENDROOT
BRANCH   1  12
ATOM     12  O   UNL     1     -38.138  -3.164 -12.268  1.00  0.00    -0.497 OA
ATOM     13  C   UNL     1     -36.793  -2.696 -12.233  1.00  0.00     0.278 C 
ENDBRANCH   1  12
TORSDOF 1
ENDMDL
MODEL 4
REMARK VINA RESULT:    -5.340      6.231      9.353
REMARK INTER + INTRA:          -5.695
REMARK INTER:                  -5.654
REMARK INTRA:                  -0.041
REMARK UNBOUND:                -0.042
REMARK SMILES COc1ccc2ccc(=O)oc2c1
REMARK SMILES IDX 3 1 13 2 12 3 6 4 5 5 4 6 7 7 8 8 9 9 10 10 11 11 2 12 1 13
REMARK H PARENT
REMARK Flexibility Score: inf
ROOT
ATOM      1  C   UNL     1     -39.682  -6.623 -12.965  1.00  0.00     0.122 A 
ATOM      2  C   UNL     1     -38.732  -5.716 -13.456  1.00  0.00     0.094 A 
ATOM      3  C   UNL     1     -37.860  -6.087 -14.484  1.00  0.00     0.142 A 
ATOM      4  C   UNL     1     -37.936  -7.385 -15.035  1.00  0.00     0.018 A 
ATOM      5  C   UNL     1     -38.883  -8.295 -14.548  1.00  0.00     0.016 A 
ATOM      6  C   UNL     1     -39.752  -7.917 -13.519  1.00  0.00     0.047 A 
ATOM      7  C   UNL     1     -37.051  -7.727 -16.062  1.00  0.00     0.019 A 
ATOM      8  C   UNL     1     -36.127  -6.785 -16.510  1.00  0.00     0.094 A 
ATOM      9  C   UNL     1     -36.109  -5.517 -15.919  1.00  0.00     0.336 A 
ATOM     10  O   UNL     1     -35.282  -4.653 -16.309  1.00  0.00    -0.246 OA
ATOM     11  O   UNL     1     -36.963  -5.217 -14.943  1.00  0.00    -0.423 OA
ENDROOT
BRANCH   1  12
ATOM     12  O   UNL     1     -40.532  -6.199 -11.933  1.00  0.00    -0.497 OA
ATOM     13  C   UNL     1     -40.161  -5.278 -10.913  1.00  0.00     0.278 C 
ENDBRANCH   1  12
TORSDOF 1
ENDMDL
MODEL 5
REMARK VINA RESULT:    -5.325      3.799      5.470
REMARK INTER + INTRA:          -5.679
REMARK INTER:                  -5.640
REMARK INTRA:                  -0.038
REMARK UNBOUND:                -0.042
REMARK SMILES COc1ccc2ccc(=O)oc2c1
REMARK SMILES IDX 3 1 13 2 12 3 6 4 5 5 4 6 7 7 8 8 9 9 10 10 11 11 2 12 1 13
REMARK H PARENT
REMARK Flexibility Score: inf
ROOT
ATOM      1  C   UNL     1     -35.536  -3.764 -17.702  1.00  0.00     0.122 A 
ATOM      2  C   UNL     1     -35.675  -5.159 -17.702  1.00  0.00     0.094 A 
ATOM      3  C   UNL     1     -35.963  -5.845 -16.518  1.00  0.00     0.142 A 
ATOM      4  C   UNL     1     -36.115  -5.128 -15.311  1.00  0.00     0.018 A 
ATOM      5  C   UNL     1     -35.977  -3.734 -15.306  1.00  0.00     0.016 A 
ATOM      6  C   UNL     1     -35.689  -3.055 -16.494  1.00  0.00     0.047 A 
ATOM      7  C   UNL     1     -36.402  -5.841 -14.143  1.00  0.00     0.019 A 
ATOM      8  C   UNL     1     -36.530  -7.228 -14.202  1.00  0.00     0.094 A 
ATOM      9  C   UNL     1     -36.367  -7.872 -15.433  1.00  0.00     0.336 A 
ATOM     10  O   UNL     1     -36.478  -9.123 -15.508  1.00  0.00    -0.246 OA
ATOM     11  O   UNL     1     -36.094  -7.169 -16.531  1.00  0.00    -0.423 OA
ENDROOT
BRANCH   1  12
ATOM     12  O   UNL     1     -35.248  -3.126 -18.918  1.00  0.00    -0.497 OA
ATOM     13  C   UNL     1     -34.256  -3.565 -19.840  1.00  0.00     0.278 C 
ENDBRANCH   1  12
TORSDOF 1
ENDMDL
MODEL 6
REMARK VINA RESULT:    -5.300      7.748      9.246
REMARK INTER + INTRA:          -5.652
REMARK INTER:                  -5.609
REMARK INTRA:                  -0.043
REMARK UNBOUND:                -0.042
REMARK SMILES COc1ccc2ccc(=O)oc2c1
REMARK SMILES IDX 3 1 13 2 12 3 6 4 5 5 4 6 7 7 8 8 9 9 10 10 11 11 2 12 1 13
REMARK H PARENT
REMARK Flexibility Score: inf
ROOT
ATOM      1  C   UNL     1     -38.290  -8.104 -14.307  1.00  0.00     0.122 A 
ATOM      2  C   UNL     1     -38.737  -6.910 -13.724  1.00  0.00     0.094 A 
ATOM      3  C   UNL     1     -37.837  -5.880 -13.435  1.00  0.00     0.142 A 
ATOM      4  C   UNL     1     -36.466  -6.041 -13.731  1.00  0.00     0.018 A 
ATOM      5  C   UNL     1     -36.014  -7.233 -14.312  1.00  0.00     0.016 A 
ATOM      6  C   UNL     1     -36.919  -8.259 -14.600  1.00  0.00     0.047 A 
ATOM      7  C   UNL     1     -35.590  -4.994 -13.430  1.00  0.00     0.019 A 
ATOM      8  C   UNL     1     -36.090  -3.829 -12.851  1.00  0.00     0.094 A 
ATOM      9  C   UNL     1     -37.461  -3.738 -12.586  1.00  0.00     0.336 A 
ATOM     10  O   UNL     1     -37.932  -2.695 -12.063  1.00  0.00    -0.246 OA
ATOM     11  O   UNL     1     -38.273  -4.750 -12.882  1.00  0.00    -0.423 OA
ENDROOT
BRANCH   1  12
ATOM     12  O   UNL     1     -39.234  -9.105 -14.577  1.00  0.00    -0.497 OA
ATOM     13  C   UNL     1     -40.557  -9.124 -14.051  1.00  0.00     0.278 C 
ENDBRANCH   1  12
TORSDOF 1
ENDMDL
MODEL 7
REMARK VINA RESULT:    -5.291      5.777      7.706
REMARK INTER + INTRA:          -5.642
REMARK INTER:                  -5.611
REMARK INTRA:                  -0.031
REMARK UNBOUND:                -0.042
REMARK SMILES COc1ccc2ccc(=O)oc2c1
REMARK SMILES IDX 3 1 13 2 12 3 6 4 5 5 4 6 7 7 8 8 9 9 10 10 11 11 2 12 1 13
REMARK H PARENT
REMARK Flexibility Score: inf
ROOT
ATOM      1  C   UNL     1     -36.013  -5.417 -15.720  1.00  0.00     0.122 A 
ATOM      2  C   UNL     1     -36.958  -5.163 -14.716  1.00  0.00     0.094 A 
ATOM      3  C   UNL     1     -37.891  -6.140 -14.355  1.00  0.00     0.142 A 
ATOM      4  C   UNL     1     -37.882  -7.393 -15.005  1.00  0.00     0.018 A 
ATOM      5  C   UNL     1     -36.941  -7.652 -16.008  1.00  0.00     0.016 A 
ATOM      6  C   UNL     1     -36.010  -6.671 -16.365  1.00  0.00     0.047 A 
ATOM      7  C   UNL     1     -38.828  -8.349 -14.622  1.00  0.00     0.019 A 
ATOM      8  C   UNL     1     -39.745  -8.041 -13.618  1.00  0.00     0.094 A 
ATOM      9  C   UNL     1     -39.694  -6.779 -13.017  1.00  0.00     0.336 A 
ATOM     10  O   UNL     1     -40.513  -6.482 -12.109  1.00  0.00    -0.246 OA
ATOM     11  O   UNL     1     -38.783  -5.887 -13.400  1.00  0.00    -0.423 OA
ENDROOT
BRANCH   1  12
ATOM     12  O   UNL     1     -35.099  -4.403 -16.043  1.00  0.00    -0.497 OA
ATOM     13  C   UNL     1     -34.941  -3.849 -17.346  1.00  0.00     0.278 C 
ENDBRANCH   1  12
TORSDOF 1
ENDMDL
MODEL 8
REMARK VINA RESULT:    -5.250      4.322      7.100
REMARK INTER + INTRA:          -5.599
REMARK INTER:                  -5.565
REMARK INTRA:                  -0.033
REMARK UNBOUND:                -0.042
REMARK SMILES COc1ccc2ccc(=O)oc2c1
REMARK SMILES IDX 3 1 13 2 12 3 6 4 5 5 4 6 7 7 8 8 9 9 10 10 11 11 2 12 1 13
REMARK H PARENT
REMARK Flexibility Score: inf
ROOT
ATOM      1  C   UNL     1     -36.719  -7.478 -14.609  1.00  0.00     0.122 A 
ATOM      2  C   UNL     1     -36.447  -7.364 -15.979  1.00  0.00     0.094 A 
ATOM      3  C   UNL     1     -35.991  -6.155 -16.514  1.00  0.00     0.142 A 
ATOM      4  C   UNL     1     -35.803  -5.040 -15.670  1.00  0.00     0.018 A 
ATOM      5  C   UNL     1     -36.075  -5.148 -14.301  1.00  0.00     0.016 A 
ATOM      6  C   UNL     1     -36.530  -6.360 -13.771  1.00  0.00     0.047 A 
ATOM      7  C   UNL     1     -35.347  -3.844 -16.235  1.00  0.00     0.019 A 
ATOM      8  C   UNL     1     -35.092  -3.789 -17.604  1.00  0.00     0.094 A 
ATOM      9  C   UNL     1     -35.300  -4.934 -18.380  1.00  0.00     0.336 A 
ATOM     10  O   UNL     1     -35.076  -4.904 -19.618  1.00  0.00    -0.246 OA
ATOM     11  O   UNL     1     -35.735  -6.059 -17.817  1.00  0.00    -0.423 OA
ENDROOT
BRANCH   1  12
ATOM     12  O   UNL     1     -37.174  -8.713 -14.122  1.00  0.00    -0.497 OA
ATOM     13  C   UNL     1     -38.537  -9.125 -14.124  1.00  0.00     0.278 C 
ENDBRANCH   1  12
TORSDOF 1
ENDMDL
MODEL 9
REMARK VINA RESULT:    -5.200      5.377      7.427
REMARK INTER + INTRA:          -5.547
REMARK INTER:                  -5.511
REMARK INTRA:                  -0.035
REMARK UNBOUND:                -0.042
REMARK SMILES COc1ccc2ccc(=O)oc2c1
REMARK SMILES IDX 3 1 13 2 12 3 6 4 5 5 4 6 7 7 8 8 9 9 10 10 11 11 2 12 1 13
REMARK H PARENT
REMARK Flexibility Score: inf
ROOT
ATOM      1  C   UNL     1     -37.713  -4.919 -17.340  1.00  0.00     0.122 A 
ATOM      2  C   UNL     1     -38.563  -5.631 -16.484  1.00  0.00     0.094 A 
ATOM      3  C   UNL     1     -38.106  -6.770 -15.814  1.00  0.00     0.142 A 
ATOM      4  C   UNL     1     -36.776  -7.207 -16.000  1.00  0.00     0.018 A 
ATOM      5  C   UNL     1     -35.922  -6.499 -16.854  1.00  0.00     0.016 A 
ATOM      6  C   UNL     1     -36.386  -5.361 -17.521  1.00  0.00     0.047 A 
ATOM      7  C   UNL     1     -36.348  -8.350 -15.317  1.00  0.00     0.019 A 
ATOM      8  C   UNL     1     -37.237  -9.019 -14.478  1.00  0.00     0.094 A 
ATOM      9  C   UNL     1     -38.540  -8.529 -14.341  1.00  0.00     0.336 A 
ATOM     10  O   UNL     1     -39.358  -9.119 -13.589  1.00  0.00    -0.246 OA
ATOM     11  O   UNL     1     -38.923  -7.439 -15.003  1.00  0.00    -0.423 OA
ENDROOT
BRANCH   1  12
ATOM     12  O   UNL     1     -38.222  -3.783 -17.987  1.00  0.00    -0.497 OA
ATOM     13  C   UNL     1     -37.418  -2.765 -18.574  1.00  0.00     0.278 C 
ENDBRANCH   1  12
TORSDOF 1
ENDMDL
