MODEL 1
REMARK VINA RESULT:    -6.273      0.000      0.000
REMARK INTER + INTRA:          -7.198
REMARK INTER:                  -7.557
REMARK INTRA:                   0.359
REMARK UNBOUND:                 0.359
REMARK SMILES Oc1cc(O)c2c(c1)O[C@@H](c1ccc(O)c(O)c1)[C@H](O)C2
REMARK SMILES IDX 21 1 19 2 10 3 9 4 7 5 8 6 2 7 3 8 4 9 6 10 20 11 11 13
REMARK SMILES IDX 18 14 12 15 16 16 13 17 14 18 17 19 15 21 5 23 1 25
REMARK H PARENT 20 12 17 20 15 22 5 24 1 26
REMARK Flexibility Score: inf
ROOT
ATOM      1  C   UNL     1       1.143  13.416   6.389  1.00  0.00     0.079 C 
ATOM      2  C   UNL     1       1.064  13.438   7.926  1.00  0.00     0.164 C 
ATOM      3  C   UNL     1       0.298  12.199   8.423  1.00  0.00     0.232 C 
ATOM      4  O   UNL     1       0.915  11.007   7.932  1.00  0.00    -0.482 OA
ATOM      5  C   UNL     1       1.481  10.927   6.654  1.00  0.00     0.131 A 
ATOM      6  C   UNL     1       1.914   9.689   6.173  1.00  0.00     0.093 A 
ATOM      7  C   UNL     1       2.482   9.588   4.897  1.00  0.00     0.122 A 
ATOM      8  C   UNL     1       2.615  10.731   4.102  1.00  0.00     0.092 A 
ATOM      9  C   UNL     1       2.189  11.980   4.577  1.00  0.00     0.126 A 
ATOM     10  C   UNL     1       1.636  12.087   5.867  1.00  0.00     0.039 A 
ENDROOT
BRANCH   2  11
ATOM     11  O   UNL     1       0.407  14.604   8.352  1.00  0.00    -0.389 OA
ATOM     12  H   UNL     1      -0.565  14.405   8.337  1.00  0.00     0.211 HD
ENDBRANCH   2  11
BRANCH   3  13
ATOM     13  C   UNL     1       0.249  12.157   9.933  1.00  0.00    -0.001 A 
ATOM     14  C   UNL     1       0.609  13.286  10.685  1.00  0.00     0.057 A 
ATOM     15  C   UNL     1      -0.108  10.977  10.602  1.00  0.00     0.012 A 
ATOM     16  C   UNL     1       0.596  13.253  12.085  1.00  0.00     0.157 A 
ATOM     17  C   UNL     1      -0.125  10.935  11.997  1.00  0.00     0.050 A 
ATOM     18  C   UNL     1       0.222  12.062  12.750  1.00  0.00     0.157 A 
BRANCH  16  19
ATOM     19  O   UNL     1       0.962  14.415  12.768  1.00  0.00    -0.504 OA
ATOM     20  H   UNL     1       1.174  14.446  13.755  1.00  0.00     0.293 HD
ENDBRANCH  16  19
BRANCH  18  21
ATOM     21  O   UNL     1       0.182  11.954  14.142  1.00  0.00    -0.504 OA
ATOM     22  H   UNL     1       0.422  12.704  14.773  1.00  0.00     0.293 HD
ENDBRANCH  18  21
ENDBRANCH   3  13
BRANCH   9  23
ATOM     23  O   UNL     1       2.312  13.111   3.771  1.00  0.00    -0.507 OA
ATOM     24  H   UNL     1       3.211  13.415   3.417  1.00  0.00     0.293 HD
ENDBRANCH   9  23
BRANCH   7  25
ATOM     25  O   UNL     1       2.915   8.357   4.408  1.00  0.00    -0.508 OA
ATOM     26  H   UNL     1       3.900   8.149   4.294  1.00  0.00     0.293 HD
ENDBRANCH   7  25
TORSDOF 6
ENDMDL
MODEL 2
REMARK VINA RESULT:    -5.927      1.140      1.751
REMARK INTER + INTRA:          -6.780
REMARK INTER:                  -6.912
REMARK INTRA:                   0.132
REMARK UNBOUND:                 0.359
REMARK SMILES Oc1cc(O)c2c(c1)O[C@@H](c1ccc(O)c(O)c1)[C@H](O)C2
REMARK SMILES IDX 21 1 19 2 10 3 9 4 7 5 8 6 2 7 3 8 4 9 6 10 20 11 11 13
REMARK SMILES IDX 18 14 12 15 16 16 13 17 14 18 17 19 15 21 5 23 1 25
REMARK H PARENT 20 12 17 20 15 22 5 24 1 26
REMARK Flexibility Score: inf
ROOT
ATOM      1  C   UNL     1       1.923  13.013   6.253  1.00  0.00     0.079 C 
ATOM      2  C   UNL     1       1.804  13.055   7.787  1.00  0.00     0.164 C 
ATOM      3  C   UNL     1       0.455  12.453   8.218  1.00  0.00     0.232 C 
ATOM      4  O   UNL     1       0.319  11.126   7.704  1.00  0.00    -0.482 OA
ATOM      5  C   UNL     1       0.799  10.760   6.441  1.00  0.00     0.131 A 
ATOM      6  C   UNL     1       0.485   9.497   5.929  1.00  0.00     0.093 A 
ATOM      7  C   UNL     1       0.954   9.112   4.668  1.00  0.00     0.122 A 
ATOM      8  C   UNL     1       1.738   9.994   3.917  1.00  0.00     0.092 A 
ATOM      9  C   UNL     1       2.064  11.261   4.423  1.00  0.00     0.126 A 
ATOM     10  C   UNL     1       1.610  11.643   5.699  1.00  0.00     0.039 A 
ENDROOT
BRANCH   2  11
ATOM     11  O   UNL     1       1.895  14.384   8.234  1.00  0.00    -0.389 OA
ATOM     12  H   UNL     1       2.488  14.860   7.595  1.00  0.00     0.211 HD
ENDBRANCH   2  11
BRANCH   3  13
ATOM     13  C   UNL     1       0.326  12.427   9.724  1.00  0.00    -0.001 A 
ATOM     14  C   UNL     1       0.170  11.207  10.400  1.00  0.00     0.057 A 
ATOM     15  C   UNL     1       0.310  13.622  10.458  1.00  0.00     0.012 A 
ATOM     16  C   UNL     1       0.020  11.170  11.793  1.00  0.00     0.157 A 
ATOM     17  C   UNL     1       0.162  13.595  11.846  1.00  0.00     0.050 A 
ATOM     18  C   UNL     1       0.019  12.380  12.525  1.00  0.00     0.157 A 
BRANCH  16  19
ATOM     19  O   UNL     1      -0.125   9.921  12.400  1.00  0.00    -0.504 OA
ATOM     20  H   UNL     1       0.097   9.045  11.950  1.00  0.00     0.293 HD
ENDBRANCH  16  19
BRANCH  18  21
ATOM     21  O   UNL     1      -0.122  12.422  13.915  1.00  0.00    -0.504 OA
ATOM     22  H   UNL     1       0.073  11.642  14.525  1.00  0.00     0.293 HD
ENDBRANCH  18  21
ENDBRANCH   3  13
BRANCH   9  23
ATOM     23  O   UNL     1       2.833  12.139   3.661  1.00  0.00    -0.507 OA
ATOM     24  H   UNL     1       3.576  11.806   3.057  1.00  0.00     0.293 HD
ENDBRANCH   9  23
BRANCH   7  25
ATOM     25  O   UNL     1       0.644   7.857   4.149  1.00  0.00    -0.508 OA
ATOM     26  H   UNL     1      -0.285   7.462   4.235  1.00  0.00     0.293 HD
ENDBRANCH   7  25
TORSDOF 6
ENDMDL
MODEL 3
REMARK VINA RESULT:    -4.981      2.420      4.473
REMARK INTER + INTRA:          -5.641
REMARK INTER:                  -5.599
REMARK INTRA:                  -0.043
REMARK UNBOUND:                 0.359
REMARK SMILES Oc1cc(O)c2c(c1)O[C@@H](c1ccc(O)c(O)c1)[C@H](O)C2
REMARK SMILES IDX 21 1 19 2 10 3 9 4 7 5 8 6 2 7 3 8 4 9 6 10 20 11 11 13
REMARK SMILES IDX 18 14 12 15 16 16 13 17 14 18 17 19 15 21 5 23 1 25
REMARK H PARENT 20 12 17 20 15 22 5 24 1 26
REMARK Flexibility Score: inf
ROOT
ATOM      1  C   UNL     1       1.629   8.502   4.799  1.00  0.00     0.079 C 
ATOM      2  C   UNL     1       1.368   9.428   6.001  1.00  0.00     0.164 C 
ATOM      3  C   UNL     1       1.886  10.843   5.688  1.00  0.00     0.232 C 
ATOM      4  O   UNL     1       1.284  11.335   4.488  1.00  0.00    -0.482 OA
ATOM      5  C   UNL     1       1.010  10.507   3.393  1.00  0.00     0.131 A 
ATOM      6  C   UNL     1       0.580  11.079   2.193  1.00  0.00     0.093 A 
ATOM      7  C   UNL     1       0.302  10.269   1.086  1.00  0.00     0.122 A 
ATOM      8  C   UNL     1       0.455   8.882   1.182  1.00  0.00     0.092 A 
ATOM      9  C   UNL     1       0.881   8.296   2.384  1.00  0.00     0.126 A 
ATOM     10  C   UNL     1       1.142   9.107   3.504  1.00  0.00     0.039 A 
ENDROOT
BRANCH   2  11
ATOM     11  O   UNL     1       2.020   8.925   7.139  1.00  0.00    -0.389 OA
ATOM     12  H   UNL     1       2.119   7.946   7.002  1.00  0.00     0.211 HD
ENDBRANCH   2  11
BRANCH   3  13
ATOM     13  C   UNL     1       1.595  11.795   6.826  1.00  0.00    -0.001 A 
ATOM     14  C   UNL     1       2.365  12.956   6.992  1.00  0.00     0.057 A 
ATOM     15  C   UNL     1       0.588  11.504   7.757  1.00  0.00     0.012 A 
ATOM     16  C   UNL     1       2.126  13.832   8.059  1.00  0.00     0.157 A 
ATOM     17  C   UNL     1       0.341  12.371   8.823  1.00  0.00     0.050 A 
ATOM     18  C   UNL     1       1.099  13.537   8.985  1.00  0.00     0.157 A 
BRANCH  16  19
ATOM     19  O   UNL     1       2.927  14.971   8.159  1.00  0.00    -0.504 OA
ATOM     20  H   UNL     1       2.705  15.857   7.730  1.00  0.00     0.293 HD
ENDBRANCH  16  19
BRANCH  18  21
ATOM     21  O   UNL     1       0.799  14.364  10.070  1.00  0.00    -0.504 OA
ATOM     22  H   UNL     1       1.036  14.146  11.027  1.00  0.00     0.293 HD
ENDBRANCH  18  21
ENDBRANCH   3  13
BRANCH   9  23
ATOM     23  O   UNL     1       1.045   6.914   2.466  1.00  0.00    -0.507 OA
ATOM     24  H   UNL     1       0.347   6.274   2.106  1.00  0.00     0.293 HD
ENDBRANCH   9  23
BRANCH   7  25
ATOM     25  O   UNL     1      -0.125  10.830  -0.115  1.00  0.00    -0.508 OA
ATOM     26  H   UNL     1      -0.183  11.835  -0.240  1.00  0.00     0.293 HD
ENDBRANCH   7  25
TORSDOF 6
ENDMDL
MODEL 4
REMARK VINA RESULT:    -4.939      1.693      7.099
REMARK INTER + INTRA:          -5.591
REMARK INTER:                  -5.213
REMARK INTRA:                  -0.378
REMARK UNBOUND:                 0.359
REMARK SMILES Oc1cc(O)c2c(c1)O[C@@H](c1ccc(O)c(O)c1)[C@H](O)C2
REMARK SMILES IDX 21 1 19 2 10 3 9 4 7 5 8 6 2 7 3 8 4 9 6 10 20 11 11 13
REMARK SMILES IDX 18 14 12 15 16 16 13 17 14 18 17 19 15 21 5 23 1 25
REMARK H PARENT 20 12 17 20 15 22 5 24 1 26
REMARK Flexibility Score: inf
ROOT
ATOM      1  C   UNL     1      -0.049  10.013   9.379  1.00  0.00     0.079 C 
ATOM      2  C   UNL     1       0.546  10.267   7.982  1.00  0.00     0.164 C 
ATOM      3  C   UNL     1       0.093  11.645   7.468  1.00  0.00     0.232 C 
ATOM      4  O   UNL     1       0.457  12.664   8.401  1.00  0.00    -0.482 OA
ATOM      5  C   UNL     1       0.415  12.462   9.786  1.00  0.00     0.131 A 
ATOM      6  C   UNL     1       0.619  13.548  10.643  1.00  0.00     0.093 A 
ATOM      7  C   UNL     1       0.579  13.367  12.030  1.00  0.00     0.122 A 
ATOM      8  C   UNL     1       0.335  12.096  12.560  1.00  0.00     0.092 A 
ATOM      9  C   UNL     1       0.134  10.999  11.710  1.00  0.00     0.126 A 
ATOM     10  C   UNL     1       0.193  11.174  10.314  1.00  0.00     0.039 A 
ENDROOT
BRANCH   2  11
ATOM     11  O   UNL     1       0.118   9.265   7.094  1.00  0.00    -0.389 OA
ATOM     12  H   UNL     1      -0.779   9.538   6.768  1.00  0.00     0.211 HD
ENDBRANCH   2  11
BRANCH   3  13
ATOM     13  C   UNL     1       0.704  11.952   6.120  1.00  0.00    -0.001 A 
ATOM     14  C   UNL     1       2.098  12.045   5.979  1.00  0.00     0.057 A 
ATOM     15  C   UNL     1      -0.113  12.197   5.007  1.00  0.00     0.012 A 
ATOM     16  C   UNL     1       2.677  12.358   4.742  1.00  0.00     0.157 A 
ATOM     17  C   UNL     1       0.455  12.508   3.770  1.00  0.00     0.050 A 
ATOM     18  C   UNL     1       1.844  12.590   3.622  1.00  0.00     0.157 A 
BRANCH  16  19
ATOM     19  O   UNL     1       4.069  12.429   4.673  1.00  0.00    -0.504 OA
ATOM     20  H   UNL     1       4.691  11.827   5.192  1.00  0.00     0.293 HD
ENDBRANCH  16  19
BRANCH  18  21
ATOM     21  O   UNL     1       2.348  12.902   2.357  1.00  0.00    -0.504 OA
ATOM     22  H   UNL     1       3.157  13.485   2.201  1.00  0.00     0.293 HD
ENDBRANCH  18  21
ENDBRANCH   3  13
BRANCH   9  23
ATOM     23  O   UNL     1      -0.125   9.738  12.247  1.00  0.00    -0.507 OA
ATOM     24  H   UNL     1       0.074   9.524  13.217  1.00  0.00     0.293 HD
ENDBRANCH   9  23
BRANCH   7  25
ATOM     25  O   UNL     1       0.779  14.443  12.892  1.00  0.00    -0.508 OA
ATOM     26  H   UNL     1       1.224  14.324  13.795  1.00  0.00     0.293 HD
ENDBRANCH   7  25
TORSDOF 6
ENDMDL
MODEL 5
REMARK VINA RESULT:    -4.847      2.306      7.304
REMARK INTER + INTRA:          -5.479
REMARK INTER:                  -5.886
REMARK INTRA:                   0.407
REMARK UNBOUND:                 0.359
REMARK SMILES Oc1cc(O)c2c(c1)O[C@@H](c1ccc(O)c(O)c1)[C@H](O)C2
REMARK SMILES IDX 21 1 19 2 10 3 9 4 7 5 8 6 2 7 3 8 4 9 6 10 20 11 11 13
REMARK SMILES IDX 18 14 12 15 16 16 13 17 14 18 17 19 15 21 5 23 1 25
REMARK H PARENT 20 12 17 20 15 22 5 24 1 26
REMARK Flexibility Score: inf
ROOT
ATOM      1  C   UNL     1       2.343  13.044   5.604  1.00  0.00     0.079 C 
ATOM      2  C   UNL     1       1.887  12.041   4.529  1.00  0.00     0.164 C 
ATOM      3  C   UNL     1       2.003  10.607   5.075  1.00  0.00     0.232 C 
ATOM      4  O   UNL     1       1.254  10.477   6.285  1.00  0.00    -0.482 OA
ATOM      5  C   UNL     1       1.172  11.507   7.230  1.00  0.00     0.131 A 
ATOM      6  C   UNL     1       0.566  11.256   8.465  1.00  0.00     0.093 A 
ATOM      7  C   UNL     1       0.474  12.272   9.424  1.00  0.00     0.122 A 
ATOM      8  C   UNL     1       0.990  13.542   9.144  1.00  0.00     0.092 A 
ATOM      9  C   UNL     1       1.595  13.806   7.906  1.00  0.00     0.126 A 
ATOM     10  C   UNL     1       1.671  12.791   6.933  1.00  0.00     0.039 A 
ENDROOT
BRANCH   2  11
ATOM     11  O   UNL     1       2.686  12.178   3.382  1.00  0.00    -0.389 OA
ATOM     12  H   UNL     1       3.456  12.750   3.638  1.00  0.00     0.211 HD
ENDBRANCH   2  11
BRANCH   3  13
ATOM     13  C   UNL     1       1.511   9.596   4.065  1.00  0.00    -0.001 A 
ATOM     14  C   UNL     1       1.486   9.916   2.698  1.00  0.00     0.057 A 
ATOM     15  C   UNL     1       1.026   8.349   4.484  1.00  0.00     0.012 A 
ATOM     16  C   UNL     1       1.005   9.000   1.753  1.00  0.00     0.157 A 
ATOM     17  C   UNL     1       0.546   7.429   3.549  1.00  0.00     0.050 A 
ATOM     18  C   UNL     1       0.531   7.739   2.185  1.00  0.00     0.157 A 
BRANCH  16  19
ATOM     19  O   UNL     1       1.015   9.383   0.411  1.00  0.00    -0.504 OA
ATOM     20  H   UNL     1       0.568  10.217   0.059  1.00  0.00     0.293 HD
ENDBRANCH  16  19
BRANCH  18  21
ATOM     21  O   UNL     1       0.041   6.774   1.302  1.00  0.00    -0.504 OA
ATOM     22  H   UNL     1      -0.940   6.577   1.170  1.00  0.00     0.293 HD
ENDBRANCH  18  21
ENDBRANCH   3  13
BRANCH   9  23
ATOM     23  O   UNL     1       2.120  15.070   7.643  1.00  0.00    -0.507 OA
ATOM     24  H   UNL     1       3.064  15.320   7.913  1.00  0.00     0.293 HD
ENDBRANCH   9  23
BRANCH   7  25
ATOM     25  O   UNL     1      -0.125  12.031  10.658  1.00  0.00    -0.508 OA
ATOM     26  H   UNL     1       0.051  11.177  11.174  1.00  0.00     0.293 HD
ENDBRANCH   7  25
TORSDOF 6
ENDMDL
MODEL 6
REMARK VINA RESULT:    -4.587      3.581      5.003
REMARK INTER + INTRA:          -5.167
REMARK INTER:                  -4.804
REMARK INTRA:                  -0.363
REMARK UNBOUND:                 0.359
REMARK SMILES Oc1cc(O)c2c(c1)O[C@@H](c1ccc(O)c(O)c1)[C@H](O)C2
REMARK SMILES IDX 21 1 19 2 10 3 9 4 7 5 8 6 2 7 3 8 4 9 6 10 20 11 11 13
REMARK SMILES IDX 18 14 12 15 16 16 13 17 14 18 17 19 15 21 5 23 1 25
REMARK H PARENT 20 12 17 20 15 22 5 24 1 26
REMARK Flexibility Score: inf
ROOT
ATOM      1  C   UNL     1       0.561  11.060   1.826  1.00  0.00     0.079 C 
ATOM      2  C   UNL     1       1.137  11.957   2.937  1.00  0.00     0.164 C 
ATOM      3  C   UNL     1       0.475  11.607   4.282  1.00  0.00     0.232 C 
ATOM      4  O   UNL     1       0.646  10.217   4.568  1.00  0.00    -0.482 OA
ATOM      5  C   UNL     1       0.606   9.236   3.572  1.00  0.00     0.131 A 
ATOM      6  C   UNL     1       0.610   7.887   3.938  1.00  0.00     0.093 A 
ATOM      7  C   UNL     1       0.570   6.889   2.956  1.00  0.00     0.122 A 
ATOM      8  C   UNL     1       0.527   7.245   1.604  1.00  0.00     0.092 A 
ATOM      9  C   UNL     1       0.528   8.595   1.225  1.00  0.00     0.126 A 
ATOM     10  C   UNL     1       0.588   9.599   2.209  1.00  0.00     0.039 A 
ENDROOT
BRANCH   2  11
ATOM     11  O   UNL     1       0.899  13.307   2.628  1.00  0.00    -0.389 OA
ATOM     12  H   UNL     1       0.239  13.639   3.292  1.00  0.00     0.211 HD
ENDBRANCH   2  11
BRANCH   3  13
ATOM     13  C   UNL     1       1.056  12.431   5.407  1.00  0.00    -0.001 A 
ATOM     14  C   UNL     1       0.272  13.396   6.056  1.00  0.00     0.057 A 
ATOM     15  C   UNL     1       2.399  12.276   5.782  1.00  0.00     0.012 A 
ATOM     16  C   UNL     1       0.806  14.188   7.082  1.00  0.00     0.157 A 
ATOM     17  C   UNL     1       2.940  13.059   6.804  1.00  0.00     0.050 A 
ATOM     18  C   UNL     1       2.158  14.015   7.462  1.00  0.00     0.157 A 
BRANCH  16  19
ATOM     19  O   UNL     1      -0.033  15.125   7.687  1.00  0.00    -0.504 OA
ATOM     20  H   UNL     1       0.186  16.107   7.772  1.00  0.00     0.293 HD
ENDBRANCH  16  19
BRANCH  18  21
ATOM     21  O   UNL     1       2.759  14.763   8.477  1.00  0.00    -0.504 OA
ATOM     22  H   UNL     1       2.566  14.639   9.459  1.00  0.00     0.293 HD
ENDBRANCH  18  21
ENDBRANCH   3  13
BRANCH   9  23
ATOM     23  O   UNL     1       0.469   8.940  -0.125  1.00  0.00    -0.507 OA
ATOM     24  H   UNL     1       1.297   9.218  -0.638  1.00  0.00     0.293 HD
ENDBRANCH   9  23
BRANCH   7  25
ATOM     25  O   UNL     1       0.571   5.543   3.313  1.00  0.00    -0.508 OA
ATOM     26  H   UNL     1       1.434   5.046   3.506  1.00  0.00     0.293 HD
ENDBRANCH   7  25
TORSDOF 6
ENDMDL
MODEL 7
REMARK VINA RESULT:    -4.536      2.272      3.472
REMARK INTER + INTRA:          -5.105
REMARK INTER:                  -5.497
REMARK INTRA:                   0.392
REMARK UNBOUND:                 0.359
REMARK SMILES Oc1cc(O)c2c(c1)O[C@@H](c1ccc(O)c(O)c1)[C@H](O)C2
REMARK SMILES IDX 21 1 19 2 10 3 9 4 7 5 8 6 2 7 3 8 4 9 6 10 20 11 11 13
REMARK SMILES IDX 18 14 12 15 16 16 13 17 14 18 17 19 15 21 5 23 1 25
REMARK H PARENT 20 12 17 20 15 22 5 24 1 26
REMARK Flexibility Score: inf
ROOT
ATOM      1  C   UNL     1       0.744  12.068   3.201  1.00  0.00     0.079 C 
ATOM      2  C   UNL     1       0.949  12.623   4.622  1.00  0.00     0.164 C 
ATOM      3  C   UNL     1      -0.033  11.943   5.592  1.00  0.00     0.232 C 
ATOM      4  O   UNL     1       0.125  10.523   5.540  1.00  0.00    -0.482 OA
ATOM      5  C   UNL     1       0.409   9.844   4.349  1.00  0.00     0.131 A 
ATOM      6  C   UNL     1       0.383   8.446   4.336  1.00  0.00     0.093 A 
ATOM      7  C   UNL     1       0.663   7.748   3.155  1.00  0.00     0.122 A 
ATOM      8  C   UNL     1       0.969   8.452   1.986  1.00  0.00     0.092 A 
ATOM      9  C   UNL     1       1.003   9.854   1.989  1.00  0.00     0.126 A 
ATOM     10  C   UNL     1       0.741  10.557   3.180  1.00  0.00     0.039 A 
ENDROOT
BRANCH   2  11
ATOM     11  O   UNL     1       0.735  14.011   4.626  1.00  0.00    -0.389 OA
ATOM     12  H   UNL     1       0.103  14.200   5.368  1.00  0.00     0.211 HD
ENDBRANCH   2  11
BRANCH   3  13
ATOM     13  C   UNL     1       0.178  12.423   7.009  1.00  0.00    -0.001 A 
ATOM     14  C   UNL     1      -0.042  11.556   8.091  1.00  0.00     0.057 A 
ATOM     15  C   UNL     1       0.546  13.753   7.262  1.00  0.00     0.012 A 
ATOM     16  C   UNL     1       0.122  11.997   9.411  1.00  0.00     0.157 A 
ATOM     17  C   UNL     1       0.713  14.200   8.574  1.00  0.00     0.050 A 
ATOM     18  C   UNL     1       0.506  13.336   9.655  1.00  0.00     0.157 A 
BRANCH  16  19
ATOM     19  O   UNL     1      -0.108  11.079  10.438  1.00  0.00    -0.504 OA
ATOM     20  H   UNL     1      -0.939  11.070  11.010  1.00  0.00     0.293 HD
ENDBRANCH  16  19
BRANCH  18  21
ATOM     21  O   UNL     1       0.693  13.846  10.943  1.00  0.00    -0.504 OA
ATOM     22  H   UNL     1       1.152  13.343  11.687  1.00  0.00     0.293 HD
ENDBRANCH  18  21
ENDBRANCH   3  13
BRANCH   9  23
ATOM     23  O   UNL     1       1.294  10.547   0.815  1.00  0.00    -0.507 OA
ATOM     24  H   UNL     1       1.928  11.338   0.809  1.00  0.00     0.293 HD
ENDBRANCH   9  23
BRANCH   7  25
ATOM     25  O   UNL     1       0.637   6.355   3.132  1.00  0.00    -0.508 OA
ATOM     26  H   UNL     1       1.022   5.831   2.354  1.00  0.00     0.293 HD
ENDBRANCH   7  25
TORSDOF 6
ENDMDL
