MODEL 1
REMARK VINA RESULT:    -1.424      0.000      0.000
REMARK INTER + INTRA:          -1.894
REMARK INTER:                  -1.757
REMARK INTRA:                  -0.137
REMARK UNBOUND:                -0.137
REMARK SMILES CCCCCC(=O)[O-]
REMARK SMILES IDX 4 1 5 2 6 3 7 4 8 5 3 6 2 7 1 8
REMARK H PARENT
REMARK Flexibility Score: inf
ROOT
ATOM      1  C   UNL     1      29.358 -10.403  15.935  1.00  0.00     0.006 C 
ENDROOT
BRANCH   1   2
ATOM      2  C   UNL     1      29.992 -10.926  17.230  1.00  0.00     0.053 C 
BRANCH   2   3
ATOM      3  C   UNL     1      30.600  -9.801  18.005  1.00  0.00     0.041 C 
ATOM      4  O   UNL     1      30.680  -9.865  19.260  1.00  0.00    -0.550 OA
ATOM      5  O   UNL     1      31.125  -8.701  17.337  1.00  0.00    -0.550 OA
ENDBRANCH   2   3
ENDBRANCH   1   2
BRANCH   1   6
ATOM      6  C   UNL     1      29.975 -11.035  14.677  1.00  0.00     0.000 C 
BRANCH   6   7
ATOM      7  C   UNL     1      31.125 -10.198  14.099  1.00  0.00    -0.003 C 
ATOM      8  C   UNL     1      31.036 -10.122  12.577  1.00  0.00     0.004 C 
ENDBRANCH   6   7
ENDBRANCH   1   6
TORSDOF 4
ENDMDL
MODEL 2
REMARK VINA RESULT:    -1.354      1.752      2.451
REMARK INTER + INTRA:          -1.807
REMARK INTER:                  -1.760
REMARK INTRA:                  -0.048
REMARK UNBOUND:                -0.137
REMARK SMILES CCCCCC(=O)[O-]
REMARK SMILES IDX 4 1 5 2 6 3 7 4 8 5 3 6 2 7 1 8
REMARK H PARENT
REMARK Flexibility Score: inf
ROOT
ATOM      1  C   UNL     1      30.242 -10.036  13.987  1.00  0.00     0.006 C 
ENDROOT
BRANCH   1   2
ATOM      2  C   UNL     1      30.738 -10.949  15.115  1.00  0.00     0.053 C 
BRANCH   2   3
ATOM      3  C   UNL     1      29.890 -10.780  16.335  1.00  0.00     0.041 C 
ATOM      4  O   UNL     1      30.328 -11.125  17.464  1.00  0.00    -0.550 OA
ATOM      5  O   UNL     1      28.634 -10.195  16.233  1.00  0.00    -0.550 OA
ENDBRANCH   2   3
ENDBRANCH   1   2
BRANCH   1   6
ATOM      6  C   UNL     1      31.078 -10.172  12.705  1.00  0.00     0.000 C 
BRANCH   6   7
ATOM      7  C   UNL     1      30.211 -10.366  11.453  1.00  0.00    -0.003 C 
ATOM      8  C   UNL     1      31.067 -10.375  10.189  1.00  0.00     0.004 C 
ENDBRANCH   6   7
ENDBRANCH   1   6
TORSDOF 4
ENDMDL
MODEL 3
REMARK VINA RESULT:    -1.300      2.643      4.274
REMARK INTER + INTRA:          -1.741
REMARK INTER:                  -1.523
REMARK INTRA:                  -0.218
REMARK UNBOUND:                -0.137
REMARK SMILES CCCCCC(=O)[O-]
REMARK SMILES IDX 4 1 5 2 6 3 7 4 8 5 3 6 2 7 1 8
REMARK H PARENT
REMARK Flexibility Score: inf
ROOT
ATOM      1  C   UNL     1      30.568  -9.261  15.840  1.00  0.00     0.006 C 
ENDROOT
BRANCH   1   2
ATOM      2  C   UNL     1      31.022 -10.046  14.603  1.00  0.00     0.053 C 
BRANCH   2   3
ATOM      3  C   UNL     1      29.844 -10.426  13.764  1.00  0.00     0.041 C 
ATOM      4  O   UNL     1      28.686 -10.423  14.258  1.00  0.00    -0.550 OA
ATOM      5  O   UNL     1      30.019 -10.736  12.421  1.00  0.00    -0.550 OA
ENDBRANCH   2   3
ENDBRANCH   1   2
BRANCH   1   6
ATOM      6  C   UNL     1      30.940  -9.961  17.156  1.00  0.00     0.000 C 
BRANCH   6   7
ATOM      7  C   UNL     1      29.997 -11.125  17.493  1.00  0.00    -0.003 C 
ATOM      8  C   UNL     1      28.637 -10.612  17.959  1.00  0.00     0.004 C 
ENDBRANCH   6   7
ENDBRANCH   1   6
TORSDOF 4
ENDMDL
MODEL 4
REMARK VINA RESULT:    -1.290      2.577      3.783
REMARK INTER + INTRA:          -1.729
REMARK INTER:                  -1.593
REMARK INTRA:                  -0.136
REMARK UNBOUND:                -0.137
REMARK SMILES CCCCCC(=O)[O-]
REMARK SMILES IDX 4 1 5 2 6 3 7 4 8 5 3 6 2 7 1 8
REMARK H PARENT
REMARK Flexibility Score: inf
ROOT
ATOM      1  C   UNL     1      30.263  -9.059  19.280  1.00  0.00     0.006 C 
ENDROOT
BRANCH   1   2
ATOM      2  C   UNL     1      30.634  -9.561  20.681  1.00  0.00     0.053 C 
BRANCH   2   3
ATOM      3  C   UNL     1      29.496 -10.322  21.281  1.00  0.00     0.041 C 
ATOM      4  O   UNL     1      29.408 -10.451  22.530  1.00  0.00    -0.550 OA
ATOM      5  O   UNL     1      28.504 -10.849  20.463  1.00  0.00    -0.550 OA
ENDBRANCH   2   3
ENDBRANCH   1   2
BRANCH   1   6
ATOM      6  C   UNL     1      31.104  -9.715  18.174  1.00  0.00     0.000 C 
BRANCH   6   7
ATOM      7  C   UNL     1      30.323 -10.783  17.394  1.00  0.00    -0.003 C 
ATOM      8  C   UNL     1      31.017 -11.119  16.077  1.00  0.00     0.004 C 
ENDBRANCH   6   7
ENDBRANCH   1   6
TORSDOF 4
ENDMDL
MODEL 5
REMARK VINA RESULT:    -1.266      1.860      2.058
REMARK INTER + INTRA:          -1.699
REMARK INTER:                  -1.528
REMARK INTRA:                  -0.171
REMARK UNBOUND:                -0.137
REMARK SMILES CCCCCC(=O)[O-]
REMARK SMILES IDX 4 1 5 2 6 3 7 4 8 5 3 6 2 7 1 8
REMARK H PARENT
REMARK Flexibility Score: inf
ROOT
ATOM      1  C   UNL     1      30.917 -10.449  16.848  1.00  0.00     0.006 C 
ENDROOT
BRANCH   1   2
ATOM      2  C   UNL     1      29.800  -9.570  17.423  1.00  0.00     0.053 C 
BRANCH   2   3
ATOM      3  C   UNL     1      28.666 -10.415  17.908  1.00  0.00     0.041 C 
ATOM      4  O   UNL     1      28.800 -11.125  18.939  1.00  0.00    -0.550 OA
ATOM      5  O   UNL     1      27.444 -10.383  17.249  1.00  0.00    -0.550 OA
ENDBRANCH   2   3
ENDBRANCH   1   2
BRANCH   1   6
ATOM      6  C   UNL     1      30.562 -11.034  15.472  1.00  0.00     0.000 C 
BRANCH   6   7
ATOM      7  C   UNL     1      30.099  -9.960  14.476  1.00  0.00    -0.003 C 
ATOM      8  C   UNL     1      30.372 -10.392  13.038  1.00  0.00     0.004 C 
ENDBRANCH   6   7
ENDBRANCH   1   6
TORSDOF 4
ENDMDL
MODEL 6
REMARK VINA RESULT:    -1.224      2.262      4.573
REMARK INTER + INTRA:          -1.647
REMARK INTER:                  -1.548
REMARK INTRA:                  -0.099
REMARK UNBOUND:                -0.137
REMARK SMILES CCCCCC(=O)[O-]
REMARK SMILES IDX 4 1 5 2 6 3 7 4 8 5 3 6 2 7 1 8
REMARK H PARENT
REMARK Flexibility Score: inf
ROOT
ATOM      1  C   UNL     1      30.172 -10.249  17.880  1.00  0.00     0.006 C 
ENDROOT
BRANCH   1   2
ATOM      2  C   UNL     1      30.668 -11.083  16.693  1.00  0.00     0.053 C 
BRANCH   2   3
ATOM      3  C   UNL     1      30.337 -10.404  15.403  1.00  0.00     0.041 C 
ATOM      4  O   UNL     1      30.625  -9.190  15.234  1.00  0.00    -0.550 OA
ATOM      5  O   UNL     1      29.755 -11.125  14.367  1.00  0.00    -0.550 OA
ENDBRANCH   2   3
ENDBRANCH   1   2
BRANCH   1   6
ATOM      6  C   UNL     1      28.998 -10.910  18.620  1.00  0.00     0.000 C 
BRANCH   6   7
ATOM      7  C   UNL     1      28.836 -10.389  20.055  1.00  0.00    -0.003 C 
ATOM      8  C   UNL     1      30.107  -9.693  20.534  1.00  0.00     0.004 C 
ENDBRANCH   6   7
ENDBRANCH   1   6
TORSDOF 4
ENDMDL
MODEL 7
REMARK VINA RESULT:    -1.215      1.591      2.152
REMARK INTER + INTRA:          -1.636
REMARK INTER:                  -1.421
REMARK INTRA:                  -0.215
REMARK UNBOUND:                -0.137
REMARK SMILES CCCCCC(=O)[O-]
REMARK SMILES IDX 4 1 5 2 6 3 7 4 8 5 3 6 2 7 1 8
REMARK H PARENT
REMARK Flexibility Score: inf
ROOT
ATOM      1  C   UNL     1      30.178 -11.094  16.842  1.00  0.00     0.006 C 
ENDROOT
BRANCH   1   2
ATOM      2  C   UNL     1      29.122 -10.695  17.880  1.00  0.00     0.053 C 
BRANCH   2   3
ATOM      3  C   UNL     1      29.764  -9.994  19.035  1.00  0.00     0.041 C 
ATOM      4  O   UNL     1      30.953  -9.589  18.949  1.00  0.00    -0.550 OA
ATOM      5  O   UNL     1      29.034  -9.745  20.190  1.00  0.00    -0.550 OA
ENDBRANCH   2   3
ENDBRANCH   1   2
BRANCH   1   6
ATOM      6  C   UNL     1      29.917 -10.470  15.462  1.00  0.00     0.000 C 
BRANCH   6   7
ATOM      7  C   UNL     1      29.763  -8.944  15.524  1.00  0.00    -0.003 C 
ATOM      8  C   UNL     1      31.122  -8.252  15.459  1.00  0.00     0.004 C 
ENDBRANCH   6   7
ENDBRANCH   1   6
TORSDOF 4
ENDMDL
MODEL 8
REMARK VINA RESULT:    -1.174      3.393      4.895
REMARK INTER + INTRA:          -1.585
REMARK INTER:                  -1.492
REMARK INTRA:                  -0.093
REMARK UNBOUND:                -0.137
REMARK SMILES CCCCCC(=O)[O-]
REMARK SMILES IDX 4 1 5 2 6 3 7 4 8 5 3 6 2 7 1 8
REMARK H PARENT
REMARK Flexibility Score: inf
ROOT
ATOM      1  C   UNL     1      28.831  -9.647  20.594  1.00  0.00     0.006 C 
ENDROOT
BRANCH   1   2
ATOM      2  C   UNL     1      28.875 -10.821  21.579  1.00  0.00     0.053 C 
BRANCH   2   3
ATOM      3  C   UNL     1      29.718 -10.477  22.765  1.00  0.00     0.041 C 
ATOM      4  O   UNL     1      29.185 -10.026  23.813  1.00  0.00    -0.550 OA
ATOM      5  O   UNL     1      31.089 -10.700  22.731  1.00  0.00    -0.550 OA
ENDBRANCH   2   3
ENDBRANCH   1   2
BRANCH   1   6
ATOM      6  C   UNL     1      29.698  -9.886  19.348  1.00  0.00     0.000 C 
BRANCH   6   7
ATOM      7  C   UNL     1      29.005 -10.778  18.308  1.00  0.00    -0.003 C 
ATOM      8  C   UNL     1      29.953 -11.125  17.164  1.00  0.00     0.004 C 
ENDBRANCH   6   7
ENDBRANCH   1   6
TORSDOF 4
ENDMDL
