MODEL 1
REMARK VINA RESULT:    -5.311      0.000      0.000
REMARK INTER + INTRA:          -8.130
REMARK INTER:                  -7.174
REMARK INTRA:                  -0.956
REMARK UNBOUND:                -0.956
REMARK SMILES CC(=O)CCC=C(C)CCC=C(C)C
REMARK SMILES IDX 7 1 6 2 8 3 9 4 10 5 11 6 13 7 12 8 14 9 5 10 4 11 2 12 3 13
REMARK SMILES IDX 1 14
REMARK H PARENT
REMARK Flexibility Score: inf
ROOT
ATOM      1  C   UNL     1      15.554 -32.065  22.139  1.00  0.00    -0.077 C 
ATOM      2  C   UNL     1      14.753 -33.050  21.679  1.00  0.00    -0.028 C 
ATOM      3  C   UNL     1      16.654 -31.480  21.285  1.00  0.00     0.039 C 
ENDROOT
BRANCH   1   4
ATOM      4  C   UNL     1      15.345 -31.533  23.543  1.00  0.00     0.034 C 
BRANCH   4   5
ATOM      5  C   UNL     1      13.864 -31.553  23.948  1.00  0.00     0.032 C 
BRANCH   5   6
ATOM      6  C   UNL     1      13.261 -30.168  23.938  1.00  0.00    -0.028 C 
ATOM      7  C   UNL     1      11.834 -28.324  23.165  1.00  0.00     0.039 C 
ATOM      8  C   UNL     1      12.388 -29.717  23.011  1.00  0.00    -0.080 C 
ATOM      9  C   UNL     1      11.969 -30.558  21.828  1.00  0.00     0.039 C 
ENDBRANCH   5   6
ENDBRANCH   4   5
ENDBRANCH   1   4
BRANCH   2  10
ATOM     10  C   UNL     1      14.882 -33.638  20.292  1.00  0.00     0.035 C 
BRANCH  10  11
ATOM     11  C   UNL     1      15.324 -35.106  20.328  1.00  0.00     0.079 C 
BRANCH  11  12
ATOM     12  C   UNL     1      16.564 -35.336  19.501  1.00  0.00     0.130 C 
ATOM     13  O   UNL     1      16.966 -36.476  19.321  1.00  0.00    -0.300 OA
ATOM     14  C   UNL     1      17.325 -34.190  18.900  1.00  0.00     0.087 C 
ENDBRANCH  11  12
ENDBRANCH  10  11
ENDBRANCH   2  10
TORSDOF 6
ENDMDL
MODEL 2
REMARK VINA RESULT:    -5.197      1.343      1.805
REMARK INTER + INTRA:          -7.976
REMARK INTER:                  -7.587
REMARK INTRA:                  -0.389
REMARK UNBOUND:                -0.956
REMARK SMILES CC(=O)CCC=C(C)CCC=C(C)C
REMARK SMILES IDX 7 1 6 2 8 3 9 4 10 5 11 6 13 7 12 8 14 9 5 10 4 11 2 12 3 13
REMARK SMILES IDX 1 14
REMARK H PARENT
REMARK Flexibility Score: inf
ROOT
ATOM      1  C   UNL     1      14.313 -32.677  21.590  1.00  0.00    -0.077 C 
ATOM      2  C   UNL     1      15.018 -33.828  21.543  1.00  0.00    -0.028 C 
ATOM      3  C   UNL     1      13.546 -32.175  20.389  1.00  0.00     0.039 C 
ENDROOT
BRANCH   1   4
ATOM      4  C   UNL     1      14.289 -31.872  22.873  1.00  0.00     0.034 C 
BRANCH   4   5
ATOM      5  C   UNL     1      13.011 -31.030  22.997  1.00  0.00     0.032 C 
BRANCH   5   6
ATOM      6  C   UNL     1      13.206 -29.847  23.917  1.00  0.00    -0.028 C 
ATOM      7  C   UNL     1      12.703 -27.680  24.959  1.00  0.00     0.039 C 
ATOM      8  C   UNL     1      12.408 -28.758  23.946  1.00  0.00    -0.080 C 
ATOM      9  C   UNL     1      11.252 -28.584  22.991  1.00  0.00     0.039 C 
ENDBRANCH   5   6
ENDBRANCH   4   5
ENDBRANCH   1   4
BRANCH   2  10
ATOM     10  C   UNL     1      15.094 -34.700  20.311  1.00  0.00     0.035 C 
BRANCH  10  11
ATOM     11  C   UNL     1      16.258 -34.302  19.395  1.00  0.00     0.079 C 
BRANCH  11  12
ATOM     12  C   UNL     1      17.346 -35.347  19.388  1.00  0.00     0.130 C 
ATOM     13  O   UNL     1      18.485 -35.028  19.084  1.00  0.00    -0.300 OA
ATOM     14  C   UNL     1      17.056 -36.777  19.738  1.00  0.00     0.087 C 
ENDBRANCH  11  12
ENDBRANCH  10  11
ENDBRANCH   2  10
TORSDOF 6
ENDMDL
MODEL 3
REMARK VINA RESULT:    -5.080      3.282      7.183
REMARK INTER + INTRA:          -7.818
REMARK INTER:                  -7.412
REMARK INTRA:                  -0.407
REMARK UNBOUND:                -0.956
REMARK SMILES CC(=O)CCC=C(C)CCC=C(C)C
REMARK SMILES IDX 7 1 6 2 8 3 9 4 10 5 11 6 13 7 12 8 14 9 5 10 4 11 2 12 3 13
REMARK SMILES IDX 1 14
REMARK H PARENT
REMARK Flexibility Score: inf
ROOT
ATOM      1  C   UNL     1      13.904 -32.202  21.569  1.00  0.00    -0.077 C 
ATOM      2  C   UNL     1      13.707 -31.622  22.772  1.00  0.00    -0.028 C 
ATOM      3  C   UNL     1      13.136 -31.760  20.346  1.00  0.00     0.039 C 
ENDROOT
BRANCH   1   4
ATOM      4  C   UNL     1      14.918 -33.321  21.442  1.00  0.00     0.034 C 
BRANCH   4   5
ATOM      5  C   UNL     1      14.900 -33.953  20.042  1.00  0.00     0.032 C 
BRANCH   5   6
ATOM      6  C   UNL     1      15.618 -35.282  20.019  1.00  0.00    -0.028 C 
ATOM      7  C   UNL     1      17.465 -36.853  19.619  1.00  0.00     0.039 C 
ATOM      8  C   UNL     1      16.860 -35.475  19.524  1.00  0.00    -0.080 C 
ATOM      9  C   UNL     1      17.644 -34.362  18.870  1.00  0.00     0.039 C 
ENDBRANCH   5   6
ENDBRANCH   4   5
ENDBRANCH   1   4
BRANCH   2  10
ATOM     10  C   UNL     1      12.723 -30.495  22.994  1.00  0.00     0.035 C 
BRANCH  10  11
ATOM     11  C   UNL     1      13.100 -29.632  24.204  1.00  0.00     0.079 C 
BRANCH  11  12
ATOM     12  C   UNL     1      12.340 -28.330  24.219  1.00  0.00     0.130 C 
ATOM     13  O   UNL     1      12.577 -27.505  25.089  1.00  0.00    -0.300 OA
ATOM     14  C   UNL     1      11.288 -28.028  23.193  1.00  0.00     0.087 C 
ENDBRANCH  11  12
ENDBRANCH  10  11
ENDBRANCH   2  10
TORSDOF 6
ENDMDL
MODEL 4
REMARK VINA RESULT:    -5.080      1.467      2.069
REMARK INTER + INTRA:          -7.818
REMARK INTER:                  -6.762
REMARK INTRA:                  -1.056
REMARK UNBOUND:                -0.956
REMARK SMILES CC(=O)CCC=C(C)CCC=C(C)C
REMARK SMILES IDX 7 1 6 2 8 3 9 4 10 5 11 6 13 7 12 8 14 9 5 10 4 11 2 12 3 13
REMARK SMILES IDX 1 14
REMARK H PARENT
REMARK Flexibility Score: inf
ROOT
ATOM      1  C   UNL     1      15.377 -32.312  23.332  1.00  0.00    -0.077 C 
ATOM      2  C   UNL     1      16.069 -32.940  22.357  1.00  0.00    -0.028 C 
ATOM      3  C   UNL     1      14.447 -33.068  24.250  1.00  0.00     0.039 C 
ENDROOT
BRANCH   1   4
ATOM      4  C   UNL     1      15.537 -30.815  23.509  1.00  0.00     0.034 C 
BRANCH   4   5
ATOM      5  C   UNL     1      14.995 -30.035  22.303  1.00  0.00     0.032 C 
BRANCH   5   6
ATOM      6  C   UNL     1      13.490 -29.910  22.348  1.00  0.00    -0.028 C 
ATOM      7  C   UNL     1      11.155 -30.433  21.789  1.00  0.00     0.039 C 
ATOM      8  C   UNL     1      12.636 -30.635  21.593  1.00  0.00    -0.080 C 
ATOM      9  C   UNL     1      13.122 -31.620  20.556  1.00  0.00     0.039 C 
ENDBRANCH   5   6
ENDBRANCH   4   5
ENDBRANCH   1   4
BRANCH   2  10
ATOM     10  C   UNL     1      15.979 -34.429  22.109  1.00  0.00     0.035 C 
BRANCH  10  11
ATOM     11  C   UNL     1      15.368 -34.749  20.740  1.00  0.00     0.079 C 
BRANCH  11  12
ATOM     12  C   UNL     1      16.418 -35.184  19.748  1.00  0.00     0.130 C 
ATOM     13  O   UNL     1      16.864 -34.374  18.949  1.00  0.00    -0.300 OA
ATOM     14  C   UNL     1      16.921 -36.597  19.714  1.00  0.00     0.087 C 
ENDBRANCH  11  12
ENDBRANCH  10  11
ENDBRANCH   2  10
TORSDOF 6
ENDMDL
MODEL 5
REMARK VINA RESULT:    -4.948      3.042      6.040
REMARK INTER + INTRA:          -7.639
REMARK INTER:                  -6.170
REMARK INTRA:                  -1.469
REMARK UNBOUND:                -0.956
REMARK SMILES CC(=O)CCC=C(C)CCC=C(C)C
REMARK SMILES IDX 7 1 6 2 8 3 9 4 10 5 11 6 13 7 12 8 14 9 5 10 4 11 2 12 3 13
REMARK SMILES IDX 1 14
REMARK H PARENT
REMARK Flexibility Score: inf
ROOT
ATOM      1  C   UNL     1      16.549 -35.269  19.467  1.00  0.00    -0.077 C 
ATOM      2  C   UNL     1      15.377 -35.103  20.116  1.00  0.00    -0.028 C 
ATOM      3  C   UNL     1      17.218 -34.123  18.745  1.00  0.00     0.039 C 
ENDROOT
BRANCH   1   4
ATOM      4  C   UNL     1      17.209 -36.633  19.461  1.00  0.00     0.034 C 
BRANCH   4   5
ATOM      5  C   UNL     1      17.712 -37.032  20.856  1.00  0.00     0.032 C 
BRANCH   5   6
ATOM      6  C   UNL     1      18.749 -36.064  21.375  1.00  0.00    -0.028 C 
ATOM      7  C   UNL     1      19.751 -34.419  22.901  1.00  0.00     0.039 C 
ATOM      8  C   UNL     1      18.603 -35.301  22.480  1.00  0.00    -0.080 C 
ATOM      9  C   UNL     1      17.326 -35.295  23.287  1.00  0.00     0.039 C 
ENDBRANCH   5   6
ENDBRANCH   4   5
ENDBRANCH   1   4
BRANCH   2  10
ATOM     10  C   UNL     1      14.649 -33.780  20.182  1.00  0.00     0.035 C 
BRANCH  10  11
ATOM     11  C   UNL     1      14.770 -33.125  21.564  1.00  0.00     0.079 C 
BRANCH  11  12
ATOM     12  C   UNL     1      15.574 -31.851  21.509  1.00  0.00     0.130 C 
ATOM     13  O   UNL     1      14.999 -30.781  21.375  1.00  0.00    -0.300 OA
ATOM     14  C   UNL     1      17.071 -31.868  21.605  1.00  0.00     0.087 C 
ENDBRANCH  11  12
ENDBRANCH  10  11
ENDBRANCH   2  10
TORSDOF 6
ENDMDL
MODEL 6
REMARK VINA RESULT:    -4.927      2.106      2.539
REMARK INTER + INTRA:          -7.612
REMARK INTER:                  -6.701
REMARK INTRA:                  -0.911
REMARK UNBOUND:                -0.956
REMARK SMILES CC(=O)CCC=C(C)CCC=C(C)C
REMARK SMILES IDX 7 1 6 2 8 3 9 4 10 5 11 6 13 7 12 8 14 9 5 10 4 11 2 12 3 13
REMARK SMILES IDX 1 14
REMARK H PARENT
REMARK Flexibility Score: inf
ROOT
ATOM      1  C   UNL     1      15.145 -33.626  23.577  1.00  0.00    -0.077 C 
ATOM      2  C   UNL     1      15.075 -33.849  22.248  1.00  0.00    -0.028 C 
ATOM      3  C   UNL     1      16.212 -34.271  24.430  1.00  0.00     0.039 C 
ENDROOT
BRANCH   1   4
ATOM      4  C   UNL     1      14.131 -32.708  24.230  1.00  0.00     0.034 C 
BRANCH   4   5
ATOM      5  C   UNL     1      14.219 -31.276  23.682  1.00  0.00     0.032 C 
BRANCH   5   6
ATOM      6  C   UNL     1      12.872 -30.770  23.220  1.00  0.00    -0.028 C 
ATOM      7  C   UNL     1      11.051 -30.294  21.641  1.00  0.00     0.039 C 
ATOM      8  C   UNL     1      12.444 -30.788  21.939  1.00  0.00    -0.080 C 
ATOM      9  C   UNL     1      13.321 -31.268  20.807  1.00  0.00     0.039 C 
ENDBRANCH   5   6
ENDBRANCH   4   5
ENDBRANCH   1   4
BRANCH   2  10
ATOM     10  C   UNL     1      16.046 -34.743  21.509  1.00  0.00     0.035 C 
BRANCH  10  11
ATOM     11  C   UNL     1      16.715 -34.018  20.335  1.00  0.00     0.079 C 
BRANCH  11  12
ATOM     12  C   UNL     1      17.747 -33.025  20.807  1.00  0.00     0.130 C 
ATOM     13  O   UNL     1      17.654 -31.854  20.469  1.00  0.00    -0.300 OA
ATOM     14  C   UNL     1      18.894 -33.445  21.678  1.00  0.00     0.087 C 
ENDBRANCH  11  12
ENDBRANCH  10  11
ENDBRANCH   2  10
TORSDOF 6
ENDMDL
MODEL 7
REMARK VINA RESULT:    -4.898      1.671      2.405
REMARK INTER + INTRA:          -7.572
REMARK INTER:                  -6.601
REMARK INTRA:                  -0.971
REMARK UNBOUND:                -0.956
REMARK SMILES CC(=O)CCC=C(C)CCC=C(C)C
REMARK SMILES IDX 7 1 6 2 8 3 9 4 10 5 11 6 13 7 12 8 14 9 5 10 4 11 2 12 3 13
REMARK SMILES IDX 1 14
REMARK H PARENT
REMARK Flexibility Score: inf
ROOT
ATOM      1  C   UNL     1      16.630 -30.699  22.688  1.00  0.00    -0.077 C 
ATOM      2  C   UNL     1      16.739 -31.069  21.394  1.00  0.00    -0.028 C 
ATOM      3  C   UNL     1      17.707 -31.028  23.694  1.00  0.00     0.039 C 
ENDROOT
BRANCH   1   4
ATOM      4  C   UNL     1      15.401 -29.938  23.141  1.00  0.00     0.034 C 
BRANCH   4   5
ATOM      5  C   UNL     1      14.282 -30.881  23.606  1.00  0.00     0.032 C 
BRANCH   5   6
ATOM      6  C   UNL     1      12.925 -30.416  23.133  1.00  0.00    -0.028 C 
ATOM      7  C   UNL     1      10.990 -30.232  21.630  1.00  0.00     0.039 C 
ATOM      8  C   UNL     1      12.379 -30.731  21.938  1.00  0.00    -0.080 C 
ATOM      9  C   UNL     1      13.123 -31.546  20.906  1.00  0.00     0.039 C 
ENDBRANCH   5   6
ENDBRANCH   4   5
ENDBRANCH   1   4
BRANCH   2  10
ATOM     10  C   UNL     1      17.930 -31.825  20.849  1.00  0.00     0.035 C 
BRANCH  10  11
ATOM     11  C   UNL     1      17.520 -33.149  20.193  1.00  0.00     0.079 C 
BRANCH  11  12
ATOM     12  C   UNL     1      16.831 -34.067  21.171  1.00  0.00     0.130 C 
ATOM     13  O   UNL     1      17.445 -34.479  22.145  1.00  0.00    -0.300 OA
ATOM     14  C   UNL     1      15.408 -34.496  20.970  1.00  0.00     0.087 C 
ENDBRANCH  11  12
ENDBRANCH  10  11
ENDBRANCH   2  10
TORSDOF 6
ENDMDL
MODEL 8
REMARK VINA RESULT:    -4.896      1.332      2.068
REMARK INTER + INTRA:          -7.570
REMARK INTER:                  -6.463
REMARK INTRA:                  -1.107
REMARK UNBOUND:                -0.956
REMARK SMILES CC(=O)CCC=C(C)CCC=C(C)C
REMARK SMILES IDX 7 1 6 2 8 3 9 4 10 5 11 6 13 7 12 8 14 9 5 10 4 11 2 12 3 13
REMARK SMILES IDX 1 14
REMARK H PARENT
REMARK Flexibility Score: inf
ROOT
ATOM      1  C   UNL     1      15.486 -32.685  22.382  1.00  0.00    -0.077 C 
ATOM      2  C   UNL     1      16.642 -32.000  22.246  1.00  0.00    -0.028 C 
ATOM      3  C   UNL     1      14.717 -33.179  21.178  1.00  0.00     0.039 C 
ENDROOT
BRANCH   1   4
ATOM      4  C   UNL     1      14.947 -32.965  23.770  1.00  0.00     0.034 C 
BRANCH   4   5
ATOM      5  C   UNL     1      13.576 -32.311  23.995  1.00  0.00     0.032 C 
BRANCH   5   6
ATOM      6  C   UNL     1      13.664 -30.803  23.967  1.00  0.00    -0.028 C 
ATOM      7  C   UNL     1      13.148 -28.517  23.230  1.00  0.00     0.039 C 
ATOM      8  C   UNL     1      12.997 -30.011  23.099  1.00  0.00    -0.080 C 
ATOM      9  C   UNL     1      12.128 -30.578  22.001  1.00  0.00     0.039 C 
ENDBRANCH   5   6
ENDBRANCH   4   5
ENDBRANCH   1   4
BRANCH   2  10
ATOM     10  C   UNL     1      17.259 -31.680  20.904  1.00  0.00     0.035 C 
BRANCH  10  11
ATOM     11  C   UNL     1      18.567 -32.446  20.674  1.00  0.00     0.079 C 
BRANCH  11  12
ATOM     12  C   UNL     1      18.312 -33.878  20.275  1.00  0.00     0.130 C 
ATOM     13  O   UNL     1      18.597 -34.779  21.049  1.00  0.00    -0.300 OA
ATOM     14  C   UNL     1      17.725 -34.222  18.937  1.00  0.00     0.087 C 
ENDBRANCH  11  12
ENDBRANCH  10  11
ENDBRANCH   2  10
TORSDOF 6
ENDMDL
MODEL 9
REMARK VINA RESULT:    -4.861      1.396      2.228
REMARK INTER + INTRA:          -7.523
REMARK INTER:                  -6.512
REMARK INTRA:                  -1.011
REMARK UNBOUND:                -0.956
REMARK SMILES CC(=O)CCC=C(C)CCC=C(C)C
REMARK SMILES IDX 7 1 6 2 8 3 9 4 10 5 11 6 13 7 12 8 14 9 5 10 4 11 2 12 3 13
REMARK SMILES IDX 1 14
REMARK H PARENT
REMARK Flexibility Score: inf
ROOT
ATOM      1  C   UNL     1      17.433 -31.739  21.822  1.00  0.00    -0.077 C 
ATOM      2  C   UNL     1      17.528 -33.056  21.537  1.00  0.00    -0.028 C 
ATOM      3  C   UNL     1      17.979 -30.689  20.883  1.00  0.00     0.039 C 
ENDROOT
BRANCH   1   4
ATOM      4  C   UNL     1      16.764 -31.304  23.110  1.00  0.00     0.034 C 
BRANCH   4   5
ATOM      5  C   UNL     1      15.498 -32.122  23.402  1.00  0.00     0.032 C 
BRANCH   5   6
ATOM      6  C   UNL     1      14.242 -31.328  23.127  1.00  0.00    -0.028 C 
ATOM      7  C   UNL     1      12.236 -30.614  21.902  1.00  0.00     0.039 C 
ATOM      8  C   UNL     1      13.494 -31.439  22.008  1.00  0.00    -0.080 C 
ATOM      9  C   UNL     1      13.888 -32.345  20.866  1.00  0.00     0.039 C 
ENDBRANCH   5   6
ENDBRANCH   4   5
ENDBRANCH   1   4
BRANCH   2  10
ATOM     10  C   UNL     1      18.171 -33.583  20.274  1.00  0.00     0.035 C 
BRANCH  10  11
ATOM     11  C   UNL     1      17.129 -34.023  19.238  1.00  0.00     0.079 C 
BRANCH  11  12
ATOM     12  C   UNL     1      16.507 -35.348  19.600  1.00  0.00     0.130 C 
ATOM     13  O   UNL     1      15.375 -35.377  20.060  1.00  0.00    -0.300 OA
ATOM     14  C   UNL     1      17.254 -36.637  19.418  1.00  0.00     0.087 C 
ENDBRANCH  11  12
ENDBRANCH  10  11
ENDBRANCH   2  10
TORSDOF 6
ENDMDL
