MODEL 1
REMARK VINA RESULT:    27.737      0.000      0.000
REMARK INTER + INTRA:          33.088
REMARK INTER:                  33.412
REMARK INTRA:                  -0.324
REMARK UNBOUND:                -0.324
REMARK SMILES Oc1cc(O)c2cc(O)c(-c3ccc(O)c(O)c3)[o+]c2c1
REMARK SMILES IDX 10 1 19 2 20 3 21 4 2 5 3 6 4 7 6 8 7 9 8 10 11 11 12 12
REMARK SMILES IDX 13 13 14 14 18 15 16 16 15 17 17 19 9 21 1 23 5 25
REMARK H PARENT 15 18 17 20 9 22 1 24 5 26
REMARK Flexibility Score: inf
ROOT
ATOM      1  C   UNL     1      20.132 -12.577 -15.440  1.00  0.00     0.402 A 
ATOM      2  O   UNL     1      20.174 -12.707 -16.763  1.00  0.00    -0.202 OA
ATOM      3  C   UNL     1      21.240 -12.399 -17.494  1.00  0.00     0.368 A 
ATOM      4  C   UNL     1      21.187 -12.568 -18.880  1.00  0.00     0.162 A 
ATOM      5  C   UNL     1      22.294 -12.249 -19.672  1.00  0.00     0.128 A 
ATOM      6  C   UNL     1      23.457 -11.760 -19.076  1.00  0.00     0.093 A 
ATOM      7  C   UNL     1      23.536 -11.581 -17.689  1.00  0.00     0.136 A 
ATOM      8  C   UNL     1      22.417 -11.905 -16.880  1.00  0.00     0.125 A 
ATOM      9  C   UNL     1      22.410 -11.772 -15.482  1.00  0.00     0.078 A 
ATOM     10  C   UNL     1      21.269 -12.117 -14.751  1.00  0.00     0.223 A 
ENDROOT
BRANCH   1  11
ATOM     11  C   UNL     1      18.880 -12.944 -14.739  1.00  0.00     0.087 A 
ATOM     12  C   UNL     1      17.980 -11.964 -14.285  1.00  0.00     0.022 A 
ATOM     13  C   UNL     1      16.795 -12.336 -13.647  1.00  0.00     0.051 A 
ATOM     14  C   UNL     1      16.484 -13.690 -13.464  1.00  0.00     0.157 A 
ATOM     15  C   UNL     1      18.555 -14.300 -14.571  1.00  0.00     0.068 A 
ATOM     16  C   UNL     1      17.368 -14.676 -13.932  1.00  0.00     0.158 A 
BRANCH  14  17
ATOM     17  O   UNL     1      15.301 -14.057 -12.824  1.00  0.00    -0.504 OA
ATOM     18  H   UNL     1      14.412 -13.636 -13.068  1.00  0.00     0.293 HD
ENDBRANCH  14  17
BRANCH  16  19
ATOM     19  O   UNL     1      17.085 -16.032 -13.772  1.00  0.00    -0.504 OA
ATOM     20  H   UNL     1      16.156 -16.408 -13.919  1.00  0.00     0.293 HD
ENDBRANCH  16  19
ENDBRANCH   1  11
BRANCH  10  21
ATOM     21  O   UNL     1      21.278 -12.031 -13.358  1.00  0.00    -0.500 OA
ATOM     22  H   UNL     1      20.543 -11.554 -12.850  1.00  0.00     0.294 HD
ENDBRANCH  10  21
BRANCH   5  23
ATOM     23  O   UNL     1      22.248 -12.416 -21.055  1.00  0.00    -0.507 OA
ATOM     24  H   UNL     1      22.884 -11.922 -21.670  1.00  0.00     0.293 HD
ENDBRANCH   5  23
BRANCH   7  25
ATOM     25  O   UNL     1      24.736 -11.083 -17.172  1.00  0.00    -0.507 OA
ATOM     26  H   UNL     1      25.590 -10.989 -17.701  1.00  0.00     0.293 HD
ENDBRANCH   7  25
TORSDOF 6
ENDMDL
MODEL 2
REMARK VINA RESULT:    28.002      1.055      2.602
REMARK INTER + INTRA:          33.407
REMARK INTER:                  33.677
REMARK INTRA:                  -0.270
REMARK UNBOUND:                -0.324
REMARK SMILES Oc1cc(O)c2cc(O)c(-c3ccc(O)c(O)c3)[o+]c2c1
REMARK SMILES IDX 10 1 19 2 20 3 21 4 2 5 3 6 4 7 6 8 7 9 8 10 11 11 12 12
REMARK SMILES IDX 13 13 14 14 18 15 16 16 15 17 17 19 9 21 1 23 5 25
REMARK H PARENT 15 18 17 20 9 22 1 24 5 26
REMARK Flexibility Score: inf
ROOT
ATOM      1  C   UNL     1      19.948 -12.712 -16.261  1.00  0.00     0.402 A 
ATOM      2  O   UNL     1      21.095 -12.178 -15.852  1.00  0.00    -0.202 OA
ATOM      3  C   UNL     1      22.091 -11.867 -16.675  1.00  0.00     0.368 A 
ATOM      4  C   UNL     1      23.259 -11.311 -16.150  1.00  0.00     0.162 A 
ATOM      5  C   UNL     1      24.323 -10.978 -16.995  1.00  0.00     0.128 A 
ATOM      6  C   UNL     1      24.217 -11.202 -18.368  1.00  0.00     0.093 A 
ATOM      7  C   UNL     1      23.056 -11.758 -18.920  1.00  0.00     0.136 A 
ATOM      8  C   UNL     1      21.972 -12.096 -18.068  1.00  0.00     0.125 A 
ATOM      9  C   UNL     1      20.766 -12.645 -18.533  1.00  0.00     0.078 A 
ATOM     10  C   UNL     1      19.740 -12.947 -17.633  1.00  0.00     0.223 A 
ENDROOT
BRANCH   1  11
ATOM     11  C   UNL     1      18.918 -13.024 -15.243  1.00  0.00     0.087 A 
ATOM     12  C   UNL     1      18.167 -12.009 -14.625  1.00  0.00     0.022 A 
ATOM     13  C   UNL     1      17.185 -12.330 -13.685  1.00  0.00     0.051 A 
ATOM     14  C   UNL     1      16.928 -13.668 -13.358  1.00  0.00     0.157 A 
ATOM     15  C   UNL     1      18.643 -14.365 -14.928  1.00  0.00     0.068 A 
ATOM     16  C   UNL     1      17.660 -14.690 -13.986  1.00  0.00     0.158 A 
BRANCH  14  17
ATOM     17  O   UNL     1      15.949 -13.984 -12.417  1.00  0.00    -0.504 OA
ATOM     18  H   UNL     1      16.191 -14.303 -11.486  1.00  0.00     0.293 HD
ENDBRANCH  14  17
BRANCH  16  19
ATOM     19  O   UNL     1      17.424 -16.031 -13.688  1.00  0.00    -0.504 OA
ATOM     20  H   UNL     1      18.047 -16.569 -13.098  1.00  0.00     0.293 HD
ENDBRANCH  16  19
ENDBRANCH   1  11
BRANCH  10  21
ATOM     21  O   UNL     1      18.524 -13.446 -18.099  1.00  0.00    -0.500 OA
ATOM     22  H   UNL     1      17.941 -12.915 -18.737  1.00  0.00     0.294 HD
ENDBRANCH  10  21
BRANCH   5  23
ATOM     23  O   UNL     1      25.493 -10.423 -16.478  1.00  0.00    -0.507 OA
ATOM     24  H   UNL     1      26.389 -10.560 -16.929  1.00  0.00     0.293 HD
ENDBRANCH   5  23
BRANCH   7  25
ATOM     25  O   UNL     1      23.030 -11.954 -20.304  1.00  0.00    -0.507 OA
ATOM     26  H   UNL     1      22.403 -12.587 -20.779  1.00  0.00     0.293 HD
ENDBRANCH   7  25
TORSDOF 6
ENDMDL
MODEL 3
REMARK VINA RESULT:    28.971      4.858      7.715
REMARK INTER + INTRA:          34.574
REMARK INTER:                  34.903
REMARK INTRA:                  -0.329
REMARK UNBOUND:                -0.324
REMARK SMILES Oc1cc(O)c2cc(O)c(-c3ccc(O)c(O)c3)[o+]c2c1
REMARK SMILES IDX 10 1 19 2 20 3 21 4 2 5 3 6 4 7 6 8 7 9 8 10 11 11 12 12
REMARK SMILES IDX 13 13 14 14 18 15 16 16 15 17 17 19 9 21 1 23 5 25
REMARK H PARENT 15 18 17 20 9 22 1 24 5 26
REMARK Flexibility Score: inf
ROOT
ATOM      1  C   UNL     1      22.410  -8.138 -18.397  1.00  0.00     0.402 A 
ATOM      2  O   UNL     1      22.094  -9.160 -19.187  1.00  0.00    -0.202 OA
ATOM      3  C   UNL     1      22.353 -10.427 -18.882  1.00  0.00     0.368 A 
ATOM      4  C   UNL     1      21.984 -11.432 -19.779  1.00  0.00     0.162 A 
ATOM      5  C   UNL     1      22.248 -12.773 -19.483  1.00  0.00     0.128 A 
ATOM      6  C   UNL     1      22.881 -13.109 -18.285  1.00  0.00     0.093 A 
ATOM      7  C   UNL     1      23.261 -12.120 -17.369  1.00  0.00     0.136 A 
ATOM      8  C   UNL     1      22.995 -10.758 -17.663  1.00  0.00     0.125 A 
ATOM      9  C   UNL     1      23.327  -9.702 -16.800  1.00  0.00     0.078 A 
ATOM     10  C   UNL     1      23.027  -8.384 -17.156  1.00  0.00     0.223 A 
ENDROOT
BRANCH   1  11
ATOM     11  C   UNL     1      22.079  -6.769 -18.855  1.00  0.00     0.087 A 
ATOM     12  C   UNL     1      20.792  -6.230 -18.683  1.00  0.00     0.022 A 
ATOM     13  C   UNL     1      20.510  -4.928 -19.104  1.00  0.00     0.051 A 
ATOM     14  C   UNL     1      21.511  -4.140 -19.687  1.00  0.00     0.157 A 
ATOM     15  C   UNL     1      23.084  -5.968 -19.422  1.00  0.00     0.068 A 
ATOM     16  C   UNL     1      22.804  -4.663 -19.844  1.00  0.00     0.158 A 
BRANCH  14  17
ATOM     17  O   UNL     1      21.225  -2.842 -20.108  1.00  0.00    -0.504 OA
ATOM     18  H   UNL     1      20.292  -2.453 -20.033  1.00  0.00     0.293 HD
ENDBRANCH  14  17
BRANCH  16  19
ATOM     19  O   UNL     1      23.825  -3.903 -20.415  1.00  0.00    -0.504 OA
ATOM     20  H   UNL     1      24.192  -3.073 -19.967  1.00  0.00     0.293 HD
ENDBRANCH  16  19
ENDBRANCH   1  11
BRANCH  10  21
ATOM     21  O   UNL     1      23.312  -7.338 -16.277  1.00  0.00    -0.500 OA
ATOM     22  H   UNL     1      22.736  -6.505 -16.238  1.00  0.00     0.294 HD
ENDBRANCH  10  21
BRANCH   5  23
ATOM     23  O   UNL     1      21.882 -13.782 -20.373  1.00  0.00    -0.507 OA
ATOM     24  H   UNL     1      22.477 -14.585 -20.536  1.00  0.00     0.293 HD
ENDBRANCH   5  23
BRANCH   7  25
ATOM     25  O   UNL     1      23.895 -12.539 -16.195  1.00  0.00    -0.507 OA
ATOM     26  H   UNL     1      23.981 -13.503 -15.907  1.00  0.00     0.293 HD
ENDBRANCH   7  25
TORSDOF 6
ENDMDL
MODEL 4
REMARK VINA RESULT:    30.015      5.086      8.324
REMARK INTER + INTRA:          35.832
REMARK INTER:                  36.166
REMARK INTRA:                  -0.335
REMARK UNBOUND:                -0.324
REMARK SMILES Oc1cc(O)c2cc(O)c(-c3ccc(O)c(O)c3)[o+]c2c1
REMARK SMILES IDX 10 1 19 2 20 3 21 4 2 5 3 6 4 7 6 8 7 9 8 10 11 11 12 12
REMARK SMILES IDX 13 13 14 14 18 15 16 16 15 17 17 19 9 21 1 23 5 25
REMARK H PARENT 15 18 17 20 9 22 1 24 5 26
REMARK Flexibility Score: inf
ROOT
ATOM      1  C   UNL     1      22.063  -7.941 -19.131  1.00  0.00     0.402 A 
ATOM      2  O   UNL     1      22.771  -8.389 -18.098  1.00  0.00    -0.202 OA
ATOM      3  C   UNL     1      23.038  -9.675 -17.898  1.00  0.00     0.368 A 
ATOM      4  C   UNL     1      23.789 -10.049 -16.781  1.00  0.00     0.162 A 
ATOM      5  C   UNL     1      24.081 -11.396 -16.546  1.00  0.00     0.128 A 
ATOM      6  C   UNL     1      23.622 -12.371 -17.433  1.00  0.00     0.093 A 
ATOM      7  C   UNL     1      22.868 -12.023 -18.560  1.00  0.00     0.136 A 
ATOM      8  C   UNL     1      22.570 -10.658 -18.804  1.00  0.00     0.125 A 
ATOM      9  C   UNL     1      21.833 -10.214 -19.914  1.00  0.00     0.078 A 
ATOM     10  C   UNL     1      21.583  -8.850 -20.091  1.00  0.00     0.223 A 
ENDROOT
BRANCH   1  11
ATOM     11  C   UNL     1      21.824  -6.483 -19.237  1.00  0.00     0.087 A 
ATOM     12  C   UNL     1      20.599  -5.911 -18.852  1.00  0.00     0.022 A 
ATOM     13  C   UNL     1      20.405  -4.531 -18.940  1.00  0.00     0.051 A 
ATOM     14  C   UNL     1      21.435  -3.699 -19.399  1.00  0.00     0.157 A 
ATOM     15  C   UNL     1      22.861  -5.643 -19.677  1.00  0.00     0.068 A 
ATOM     16  C   UNL     1      22.669  -4.260 -19.766  1.00  0.00     0.158 A 
BRANCH  14  17
ATOM     17  O   UNL     1      21.237  -2.322 -19.487  1.00  0.00    -0.504 OA
ATOM     18  H   UNL     1      20.960  -1.773 -18.682  1.00  0.00     0.293 HD
ENDBRANCH  14  17
BRANCH  16  19
ATOM     19  O   UNL     1      23.717  -3.459 -20.221  1.00  0.00    -0.504 OA
ATOM     20  H   UNL     1      24.572  -3.341 -19.691  1.00  0.00     0.293 HD
ENDBRANCH  16  19
ENDBRANCH   1  11
BRANCH  10  21
ATOM     21  O   UNL     1      20.894  -8.405 -21.219  1.00  0.00    -0.500 OA
ATOM     22  H   UNL     1      19.885  -8.306 -21.221  1.00  0.00     0.294 HD
ENDBRANCH  10  21
BRANCH   5  23
ATOM     23  O   UNL     1      24.830 -11.776 -15.434  1.00  0.00    -0.507 OA
ATOM     24  H   UNL     1      25.238 -11.090 -14.810  1.00  0.00     0.293 HD
ENDBRANCH   5  23
BRANCH   7  25
ATOM     25  O   UNL     1      22.443 -13.060 -19.396  1.00  0.00    -0.507 OA
ATOM     26  H   UNL     1      21.478 -13.323 -19.533  1.00  0.00     0.293 HD
ENDBRANCH   7  25
TORSDOF 6
ENDMDL
