MODEL 1
REMARK VINA RESULT:    -3.788      0.000      0.000
REMARK INTER + INTRA:          -4.711
REMARK INTER:                  -4.563
REMARK INTRA:                  -0.148
REMARK UNBOUND:                -0.148
REMARK SMILES CC[C@H](C)[C@H]([NH3+])C(=O)[O-]
REMARK SMILES IDX 3 1 4 2 5 3 6 4 7 8 8 9 9 10 2 11 1 12
REMARK H PARENT 6 5 6 6 6 7
REMARK Flexibility Score: inf
ROOT
ATOM      1  C   UNL     1      -8.954  -0.604   2.503  1.00  0.00     0.050 C 
ATOM      2  C   UNL     1      -7.497  -0.173   2.230  1.00  0.00     0.014 C 
ENDROOT
BRANCH   1   3
ATOM      3  C   UNL     1      -9.752   0.567   3.166  1.00  0.00     0.230 C 
BRANCH   3   4
ATOM      4  N   UNL     1     -10.148   0.258   4.550  1.00  0.00    -0.350 N 
ATOM      5  H   UNL     1      -9.365   0.460   5.213  1.00  0.00     0.345 HD
ATOM      6  H   UNL     1     -10.413  -0.750   4.635  1.00  0.00     0.345 HD
ATOM      7  H   UNL     1     -10.992   0.814   4.816  1.00  0.00     0.345 HD
ENDBRANCH   3   4
BRANCH   3   8
ATOM      8  C   UNL     1     -10.983   0.904   2.360  1.00  0.00     0.099 C 
ATOM      9  O   UNL     1     -11.205   2.091   2.001  1.00  0.00    -0.544 OA
ATOM     10  O   UNL     1     -11.879  -0.097   2.008  1.00  0.00    -0.544 OA
ENDBRANCH   3   8
ENDBRANCH   1   3
BRANCH   1  11
ATOM     11  C   UNL     1      -8.989  -1.885   3.379  1.00  0.00     0.006 C 
ATOM     12  C   UNL     1      -9.943  -2.960   2.853  1.00  0.00     0.004 C 
ENDBRANCH   1  11
TORSDOF 4
ENDMDL
MODEL 2
REMARK VINA RESULT:    -3.785      0.112      1.082
REMARK INTER + INTRA:          -4.707
REMARK INTER:                  -4.562
REMARK INTRA:                  -0.145
REMARK UNBOUND:                -0.148
REMARK SMILES CC[C@H](C)[C@H]([NH3+])C(=O)[O-]
REMARK SMILES IDX 3 1 4 2 5 3 6 4 7 8 8 9 9 10 2 11 1 12
REMARK H PARENT 6 5 6 6 6 7
REMARK Flexibility Score: inf
ROOT
ATOM      1  C   UNL     1      -8.934  -0.644   2.542  1.00  0.00     0.050 C 
ATOM      2  C   UNL     1      -7.481  -0.215   2.248  1.00  0.00     0.014 C 
ENDROOT
BRANCH   1   3
ATOM      3  C   UNL     1      -9.723   0.531   3.210  1.00  0.00     0.230 C 
BRANCH   3   4
ATOM      4  N   UNL     1     -10.147   0.210   4.582  1.00  0.00    -0.350 N 
ATOM      5  H   UNL     1     -11.187   0.119   4.637  1.00  0.00     0.345 HD
ATOM      6  H   UNL     1      -9.838   0.961   5.242  1.00  0.00     0.345 HD
ATOM      7  H   UNL     1      -9.695  -0.676   4.902  1.00  0.00     0.345 HD
ENDBRANCH   3   4
BRANCH   3   8
ATOM      8  C   UNL     1     -10.935   0.901   2.389  1.00  0.00     0.099 C 
ATOM      9  O   UNL     1     -11.699   0.005   1.940  1.00  0.00    -0.544 OA
ATOM     10  O   UNL     1     -11.215   2.236   2.126  1.00  0.00    -0.544 OA
ENDBRANCH   3   8
ENDBRANCH   1   3
BRANCH   1  11
ATOM     11  C   UNL     1      -8.958  -1.920   3.426  1.00  0.00     0.006 C 
ATOM     12  C   UNL     1      -9.938  -2.987   2.934  1.00  0.00     0.004 C 
ENDBRANCH   1  11
TORSDOF 4
ENDMDL
MODEL 3
REMARK VINA RESULT:    -3.613      2.680      3.691
REMARK INTER + INTRA:          -4.500
REMARK INTER:                  -4.390
REMARK INTRA:                  -0.110
REMARK UNBOUND:                -0.148
REMARK SMILES CC[C@H](C)[C@H]([NH3+])C(=O)[O-]
REMARK SMILES IDX 3 1 4 2 5 3 6 4 7 8 8 9 9 10 2 11 1 12
REMARK H PARENT 6 5 6 6 6 7
REMARK Flexibility Score: inf
ROOT
ATOM      1  C   UNL     1      -8.772  -0.483   2.921  1.00  0.00     0.050 C 
ATOM      2  C   UNL     1      -7.570  -0.140   2.014  1.00  0.00     0.014 C 
ENDROOT
BRANCH   1   3
ATOM      3  C   UNL     1      -9.374  -1.871   2.522  1.00  0.00     0.230 C 
BRANCH   3   4
ATOM      4  N   UNL     1     -10.726  -1.750   1.954  1.00  0.00    -0.350 N 
ATOM      5  H   UNL     1     -11.001  -0.745   1.861  1.00  0.00     0.345 HD
ATOM      6  H   UNL     1     -11.421  -2.236   2.566  1.00  0.00     0.345 HD
ATOM      7  H   UNL     1     -10.769  -2.217   1.020  1.00  0.00     0.345 HD
ENDBRANCH   3   4
BRANCH   3   8
ATOM      8  C   UNL     1      -9.416  -2.801   3.711  1.00  0.00     0.099 C 
ATOM      9  O   UNL     1     -10.518  -3.227   4.149  1.00  0.00    -0.544 OA
ATOM     10  O   UNL     1      -8.235  -3.193   4.328  1.00  0.00    -0.544 OA
ENDBRANCH   3   8
ENDBRANCH   1   3
BRANCH   1  11
ATOM     11  C   UNL     1      -9.841   0.641   2.858  1.00  0.00     0.006 C 
ATOM     12  C   UNL     1     -10.439   0.994   4.221  1.00  0.00     0.004 C 
ENDBRANCH   1  11
TORSDOF 4
ENDMDL
MODEL 4
REMARK VINA RESULT:    -3.414      1.918      2.642
REMARK INTER + INTRA:          -4.260
REMARK INTER:                  -4.174
REMARK INTRA:                  -0.086
REMARK UNBOUND:                -0.148
REMARK SMILES CC[C@H](C)[C@H]([NH3+])C(=O)[O-]
REMARK SMILES IDX 3 1 4 2 5 3 6 4 7 8 8 9 9 10 2 11 1 12
REMARK H PARENT 6 5 6 6 6 7
REMARK Flexibility Score: inf
ROOT
ATOM      1  C   UNL     1      -9.808  -2.207   3.834  1.00  0.00     0.050 C 
ATOM      2  C   UNL     1     -10.934  -3.111   3.289  1.00  0.00     0.014 C 
ENDROOT
BRANCH   1   3
ATOM      3  C   UNL     1      -9.466  -1.083   2.799  1.00  0.00     0.230 C 
BRANCH   3   4
ATOM      4  N   UNL     1      -8.016  -0.860   2.677  1.00  0.00    -0.350 N 
ATOM      5  H   UNL     1      -7.793   0.161   2.723  1.00  0.00     0.345 HD
ATOM      6  H   UNL     1      -7.666  -1.242   1.769  1.00  0.00     0.345 HD
ATOM      7  H   UNL     1      -7.507  -1.369   3.434  1.00  0.00     0.345 HD
ENDBRANCH   3   4
BRANCH   3   8
ATOM      8  C   UNL     1     -10.139   0.215   3.172  1.00  0.00     0.099 C 
ATOM      9  O   UNL     1     -10.413   1.069   2.287  1.00  0.00    -0.544 OA
ATOM     10  O   UNL     1     -10.463   0.475   4.498  1.00  0.00    -0.544 OA
ENDBRANCH   3   8
ENDBRANCH   1   3
BRANCH   1  11
ATOM     11  C   UNL     1      -8.556  -3.050   4.193  1.00  0.00     0.006 C 
ATOM     12  C   UNL     1      -8.643  -3.722   5.565  1.00  0.00     0.004 C 
ENDBRANCH   1  11
TORSDOF 4
ENDMDL
MODEL 5
REMARK VINA RESULT:    -3.398      1.443      2.467
REMARK INTER + INTRA:          -4.241
REMARK INTER:                  -4.135
REMARK INTRA:                  -0.105
REMARK UNBOUND:                -0.148
REMARK SMILES CC[C@H](C)[C@H]([NH3+])C(=O)[O-]
REMARK SMILES IDX 3 1 4 2 5 3 6 4 7 8 8 9 9 10 2 11 1 12
REMARK H PARENT 6 5 6 6 6 7
REMARK Flexibility Score: inf
ROOT
ATOM      1  C   UNL     1      -9.505  -0.486   3.195  1.00  0.00     0.050 C 
ATOM      2  C   UNL     1      -9.440  -1.986   3.552  1.00  0.00     0.014 C 
ENDROOT
BRANCH   1   3
ATOM      3  C   UNL     1     -10.994  -0.013   3.105  1.00  0.00     0.230 C 
BRANCH   3   4
ATOM      4  N   UNL     1     -11.731  -0.691   2.026  1.00  0.00    -0.350 N 
ATOM      5  H   UNL     1     -12.749  -0.756   2.257  1.00  0.00     0.345 HD
ATOM      6  H   UNL     1     -11.354  -1.655   1.881  1.00  0.00     0.345 HD
ATOM      7  H   UNL     1     -11.604  -0.179   1.124  1.00  0.00     0.345 HD
ENDBRANCH   3   4
BRANCH   3   8
ATOM      8  C   UNL     1     -11.073   1.481   2.898  1.00  0.00     0.099 C 
ATOM      9  O   UNL     1     -11.676   1.955   1.899  1.00  0.00    -0.544 OA
ATOM     10  O   UNL     1     -10.480   2.341   3.814  1.00  0.00    -0.544 OA
ENDBRANCH   3   8
ENDBRANCH   1   3
BRANCH   1  11
ATOM     11  C   UNL     1      -8.738  -0.206   1.875  1.00  0.00     0.006 C 
ATOM     12  C   UNL     1      -7.224  -0.082   2.061  1.00  0.00     0.004 C 
ENDBRANCH   1  11
TORSDOF 4
ENDMDL
MODEL 6
REMARK VINA RESULT:    -3.379      3.185      4.274
REMARK INTER + INTRA:          -4.218
REMARK INTER:                  -4.137
REMARK INTRA:                  -0.081
REMARK UNBOUND:                -0.148
REMARK SMILES CC[C@H](C)[C@H]([NH3+])C(=O)[O-]
REMARK SMILES IDX 3 1 4 2 5 3 6 4 7 8 8 9 9 10 2 11 1 12
REMARK H PARENT 6 5 6 6 6 7
REMARK Flexibility Score: inf
ROOT
ATOM      1  C   UNL     1      -8.887  -4.043   5.041  1.00  0.00     0.050 C 
ATOM      2  C   UNL     1      -8.330  -3.984   6.479  1.00  0.00     0.014 C 
ENDROOT
BRANCH   1   3
ATOM      3  C   UNL     1      -9.672  -2.730   4.708  1.00  0.00     0.230 C 
BRANCH   3   4
ATOM      4  N   UNL     1     -11.119  -2.874   4.930  1.00  0.00    -0.350 N 
ATOM      5  H   UNL     1     -11.325  -3.037   5.943  1.00  0.00     0.345 HD
ATOM      6  H   UNL     1     -11.493  -3.678   4.375  1.00  0.00     0.345 HD
ATOM      7  H   UNL     1     -11.622  -2.020   4.599  1.00  0.00     0.345 HD
ENDBRANCH   3   4
BRANCH   3   8
ATOM      8  C   UNL     1      -9.428  -2.304   3.281  1.00  0.00     0.099 C 
ATOM      9  O   UNL     1     -10.120  -2.786   2.344  1.00  0.00    -0.544 OA
ATOM     10  O   UNL     1      -8.436  -1.375   2.993  1.00  0.00    -0.544 OA
ENDBRANCH   3   8
ENDBRANCH   1   3
BRANCH   1  11
ATOM     11  C   UNL     1      -9.776  -5.301   4.851  1.00  0.00     0.006 C 
ATOM     12  C   UNL     1      -9.492  -6.410   5.867  1.00  0.00     0.004 C 
ENDBRANCH   1  11
TORSDOF 4
ENDMDL
MODEL 7
REMARK VINA RESULT:    -3.377      2.305      3.221
REMARK INTER + INTRA:          -4.216
REMARK INTER:                  -4.268
REMARK INTRA:                   0.052
REMARK UNBOUND:                -0.148
REMARK SMILES CC[C@H](C)[C@H]([NH3+])C(=O)[O-]
REMARK SMILES IDX 3 1 4 2 5 3 6 4 7 8 8 9 9 10 2 11 1 12
REMARK H PARENT 6 5 6 6 6 7
REMARK Flexibility Score: inf
ROOT
ATOM      1  C   UNL     1      -9.615   0.189   2.273  1.00  0.00     0.050 C 
ATOM      2  C   UNL     1     -10.128   1.099   3.408  1.00  0.00     0.014 C 
ENDROOT
BRANCH   1   3
ATOM      3  C   UNL     1     -10.712  -0.854   1.875  1.00  0.00     0.230 C 
BRANCH   3   4
ATOM      4  N   UNL     1     -12.070  -0.292   1.952  1.00  0.00    -0.350 N 
ATOM      5  H   UNL     1     -12.088   0.553   2.567  1.00  0.00     0.345 HD
ATOM      6  H   UNL     1     -12.736  -1.002   2.334  1.00  0.00     0.345 HD
ATOM      7  H   UNL     1     -12.413  -0.042   0.997  1.00  0.00     0.345 HD
ENDBRANCH   3   4
BRANCH   3   8
ATOM      8  C   UNL     1     -10.632  -2.081   2.752  1.00  0.00     0.099 C 
ATOM      9  O   UNL     1     -10.150  -3.155   2.303  1.00  0.00    -0.544 OA
ATOM     10  O   UNL     1     -11.090  -2.029   4.062  1.00  0.00    -0.544 OA
ENDBRANCH   3   8
ENDBRANCH   1   3
BRANCH   1  11
ATOM     11  C   UNL     1      -8.292  -0.507   2.687  1.00  0.00     0.006 C 
ATOM     12  C   UNL     1      -7.078  -0.049   1.876  1.00  0.00     0.004 C 
ENDBRANCH   1  11
TORSDOF 4
ENDMDL
MODEL 8
REMARK VINA RESULT:    -3.300      4.679      5.962
REMARK INTER + INTRA:          -4.123
REMARK INTER:                  -4.047
REMARK INTRA:                  -0.076
REMARK UNBOUND:                -0.148
REMARK SMILES CC[C@H](C)[C@H]([NH3+])C(=O)[O-]
REMARK SMILES IDX 3 1 4 2 5 3 6 4 7 8 8 9 9 10 2 11 1 12
REMARK H PARENT 6 5 6 6 6 7
REMARK Flexibility Score: inf
ROOT
ATOM      1  C   UNL     1      -9.789  -3.961   4.318  1.00  0.00     0.050 C 
ATOM      2  C   UNL     1     -11.301  -3.734   4.109  1.00  0.00     0.014 C 
ENDROOT
BRANCH   1   3
ATOM      3  C   UNL     1      -9.483  -4.225   5.830  1.00  0.00     0.230 C 
BRANCH   3   4
ATOM      4  N   UNL     1      -8.224  -3.597   6.262  1.00  0.00    -0.350 N 
ATOM      5  H   UNL     1      -8.125  -3.641   7.302  1.00  0.00     0.345 HD
ATOM      6  H   UNL     1      -8.197  -2.595   5.962  1.00  0.00     0.345 HD
ATOM      7  H   UNL     1      -7.410  -4.069   5.808  1.00  0.00     0.345 HD
ENDBRANCH   3   4
BRANCH   3   8
ATOM      8  C   UNL     1      -9.424  -5.706   6.117  1.00  0.00     0.099 C 
ATOM      9  O   UNL     1      -9.446  -6.540   5.173  1.00  0.00    -0.544 OA
ATOM     10  O   UNL     1      -9.343  -6.156   7.429  1.00  0.00    -0.544 OA
ENDBRANCH   3   8
ENDBRANCH   1   3
BRANCH   1  11
ATOM     11  C   UNL     1      -8.976  -2.756   3.774  1.00  0.00     0.006 C 
ATOM     12  C   UNL     1      -9.649  -2.044   2.599  1.00  0.00     0.004 C 
ENDBRANCH   1  11
TORSDOF 4
ENDMDL
