MODEL 1
REMARK VINA RESULT:    -7.239      0.000      0.000
REMARK INTER + INTRA:          -8.253
REMARK INTER:                  -7.873
REMARK INTRA:                  -0.380
REMARK UNBOUND:                -0.380
REMARK SMILES C=C(C)[C@@H]1CC[C@@]2(C)CC[C@]3(C)[C@@H](CC[C@H]4[C@]5(C)CC[C@@H](O)C(C)(C)[C@H]5CC[C@]43C)[C@H]12
REMARK SMILES IDX 4 1 5 2 6 3 7 4 31 5 13 6 14 7 15 8 16 9 17 10 19 11 20 12
REMARK SMILES IDX 21 13 23 14 26 15 27 16 28 17 29 18 11 19 10 20 9 21 12 22
REMARK SMILES IDX 30 23 24 24 25 25 18 26 8 27 2 28 3 29 1 30 22 31
REMARK H PARENT 22 32
REMARK Flexibility Score: inf
ROOT
ATOM      1  C   UNL     1      64.832  15.153  48.292  1.00  0.00     0.018 C 
ATOM      2  C   UNL     1      66.366  15.259  48.464  1.00  0.00     0.009 C 
ATOM      3  C   UNL     1      66.634  16.462  49.400  1.00  0.00     0.008 C 
ATOM      4  C   UNL     1      65.254  17.107  49.718  1.00  0.00    -0.029 C 
ATOM      5  C   UNL     1      64.449  16.640  48.488  1.00  0.00     0.006 C 
ATOM      6  C   UNL     1      62.979  17.158  48.428  1.00  0.00    -0.000 C 
ATOM      7  C   UNL     1      62.348  16.790  47.083  1.00  0.00     0.005 C 
ATOM      8  C   UNL     1      60.886  17.201  47.105  1.00  0.00     0.005 C 
ATOM      9  C   UNL     1      60.770  18.726  46.942  1.00  0.00     0.002 C 
ATOM     10  C   UNL     1      59.285  19.287  47.050  1.00  0.00    -0.026 C 
ATOM     11  C   UNL     1      58.387  18.519  46.022  1.00  0.00     0.010 C 
ATOM     12  C   UNL     1      57.023  19.174  45.759  1.00  0.00     0.033 C 
ATOM     13  C   UNL     1      57.176  20.624  45.284  1.00  0.00     0.120 C 
ATOM     14  C   UNL     1      57.947  21.503  46.319  1.00  0.00    -0.006 C 
ATOM     15  C   UNL     1      59.339  20.804  46.625  1.00  0.00     0.003 C 
ATOM     16  C   UNL     1      60.315  21.657  47.492  1.00  0.00     0.005 C 
ATOM     17  C   UNL     1      61.289  20.840  48.354  1.00  0.00     0.008 C 
ATOM     18  C   UNL     1      61.923  19.581  47.666  1.00  0.00    -0.024 C 
ATOM     19  C   UNL     1      62.851  18.731  48.742  1.00  0.00    -0.024 C 
ATOM     20  C   UNL     1      64.297  19.372  48.831  1.00  0.00     0.008 C 
ATOM     21  C   UNL     1      65.289  18.671  49.787  1.00  0.00     0.007 C 
ATOM     22  C   UNL     1      62.250  18.842  50.180  1.00  0.00     0.012 C 
ATOM     23  C   UNL     1      62.817  20.178  46.520  1.00  0.00     0.012 C 
ATOM     24  C   UNL     1      57.073  21.750  47.579  1.00  0.00     0.014 C 
ATOM     25  C   UNL     1      58.215  22.884  45.669  1.00  0.00     0.014 C 
ATOM     26  C   UNL     1      58.690  19.084  48.482  1.00  0.00     0.012 C 
ATOM     27  C   UNL     1      64.717  16.521  51.074  1.00  0.00     0.011 C 
ENDROOT
BRANCH   1  28
ATOM     28  C   UNL     1      64.175  14.124  49.248  1.00  0.00    -0.077 C 
ATOM     29  C   UNL     1      64.985  13.148  50.085  1.00  0.00     0.039 C 
ATOM     30  C   UNL     1      62.848  13.907  49.213  1.00  0.00     0.008 C 
ENDBRANCH   1  28
BRANCH  13  31
ATOM     31  O   UNL     1      55.894  21.143  45.035  1.00  0.00    -0.393 OA
ATOM     32  H   UNL     1      55.818  21.295  44.057  1.00  0.00     0.210 HD
ENDBRANCH  13  31
TORSDOF 2
ENDMDL
MODEL 2
REMARK VINA RESULT:    -6.920      1.642      2.286
REMARK INTER + INTRA:          -7.907
REMARK INTER:                  -7.650
REMARK INTRA:                  -0.257
REMARK UNBOUND:                -0.380
REMARK SMILES C=C(C)[C@@H]1CC[C@@]2(C)CC[C@]3(C)[C@@H](CC[C@H]4[C@]5(C)CC[C@@H](O)C(C)(C)[C@H]5CC[C@]43C)[C@H]12
REMARK SMILES IDX 4 1 5 2 6 3 7 4 31 5 13 6 14 7 15 8 16 9 17 10 19 11 20 12
REMARK SMILES IDX 21 13 23 14 26 15 27 16 28 17 29 18 11 19 10 20 9 21 12 22
REMARK SMILES IDX 30 23 24 24 25 25 18 26 8 27 2 28 3 29 1 30 22 31
REMARK H PARENT 22 32
REMARK Flexibility Score: inf
ROOT
ATOM      1  C   UNL     1      66.213  14.997  48.331  1.00  0.00     0.018 C 
ATOM      2  C   UNL     1      67.561  15.692  48.636  1.00  0.00     0.009 C 
ATOM      3  C   UNL     1      67.262  16.848  49.621  1.00  0.00     0.008 C 
ATOM      4  C   UNL     1      65.720  16.874  49.835  1.00  0.00    -0.029 C 
ATOM      5  C   UNL     1      65.255  16.198  48.530  1.00  0.00     0.006 C 
ATOM      6  C   UNL     1      63.709  16.094  48.356  1.00  0.00    -0.000 C 
ATOM      7  C   UNL     1      63.372  15.583  46.953  1.00  0.00     0.005 C 
ATOM      8  C   UNL     1      61.869  15.380  46.860  1.00  0.00     0.005 C 
ATOM      9  C   UNL     1      61.166  16.741  46.724  1.00  0.00     0.002 C 
ATOM     10  C   UNL     1      59.576  16.662  46.718  1.00  0.00    -0.026 C 
ATOM     11  C   UNL     1      59.134  15.660  45.599  1.00  0.00     0.010 C 
ATOM     12  C   UNL     1      57.643  15.735  45.236  1.00  0.00     0.033 C 
ATOM     13  C   UNL     1      57.237  17.152  44.812  1.00  0.00     0.120 C 
ATOM     14  C   UNL     1      57.520  18.204  45.930  1.00  0.00    -0.006 C 
ATOM     15  C   UNL     1      59.050  18.098  46.337  1.00  0.00     0.003 C 
ATOM     16  C   UNL     1      59.542  19.216  47.305  1.00  0.00     0.005 C 
ATOM     17  C   UNL     1      60.700  18.804  48.227  1.00  0.00     0.008 C 
ATOM     18  C   UNL     1      61.829  17.940  47.566  1.00  0.00    -0.024 C 
ATOM     19  C   UNL     1      62.942  17.467  48.697  1.00  0.00    -0.024 C 
ATOM     20  C   UNL     1      64.003  18.622  48.925  1.00  0.00     0.008 C 
ATOM     21  C   UNL     1      65.123  18.318  49.944  1.00  0.00     0.007 C 
ATOM     22  C   UNL     1      62.250  17.250  50.080  1.00  0.00     0.012 C 
ATOM     23  C   UNL     1      62.487  18.906  46.515  1.00  0.00     0.012 C 
ATOM     24  C   UNL     1      56.535  18.014  47.116  1.00  0.00     0.014 C 
ATOM     25  C   UNL     1      57.259  19.613  45.339  1.00  0.00     0.014 C 
ATOM     26  C   UNL     1      59.015  16.158  48.089  1.00  0.00     0.012 C 
ATOM     27  C   UNL     1      65.370  16.048  51.125  1.00  0.00     0.011 C 
ENDROOT
BRANCH   1  28
ATOM     28  C   UNL     1      65.957  13.740  49.202  1.00  0.00    -0.077 C 
ATOM     29  C   UNL     1      67.081  12.938  49.835  1.00  0.00     0.039 C 
ATOM     30  C   UNL     1      64.735  13.180  49.254  1.00  0.00     0.008 C 
ENDBRANCH   1  28
BRANCH  13  31
ATOM     31  O   UNL     1      55.875  17.134  44.466  1.00  0.00    -0.393 OA
ATOM     32  H   UNL     1      55.637  18.041  44.139  1.00  0.00     0.210 HD
ENDBRANCH  13  31
TORSDOF 2
ENDMDL
MODEL 3
REMARK VINA RESULT:    -6.700      3.034      8.469
REMARK INTER + INTRA:          -7.668
REMARK INTER:                  -7.418
REMARK INTRA:                  -0.250
REMARK UNBOUND:                -0.380
REMARK SMILES C=C(C)[C@@H]1CC[C@@]2(C)CC[C@]3(C)[C@@H](CC[C@H]4[C@]5(C)CC[C@@H](O)C(C)(C)[C@H]5CC[C@]43C)[C@H]12
REMARK SMILES IDX 4 1 5 2 6 3 7 4 31 5 13 6 14 7 15 8 16 9 17 10 19 11 20 12
REMARK SMILES IDX 21 13 23 14 26 15 27 16 28 17 29 18 11 19 10 20 9 21 12 22
REMARK SMILES IDX 30 23 24 24 25 25 18 26 8 27 2 28 3 29 1 30 22 31
REMARK H PARENT 22 32
REMARK Flexibility Score: inf
ROOT
ATOM      1  C   UNL     1      58.257  20.261  46.144  1.00  0.00     0.018 C 
ATOM      2  C   UNL     1      57.378  20.333  44.873  1.00  0.00     0.009 C 
ATOM      3  C   UNL     1      56.565  19.017  44.810  1.00  0.00     0.008 C 
ATOM      4  C   UNL     1      57.026  18.141  46.011  1.00  0.00    -0.029 C 
ATOM      5  C   UNL     1      58.432  18.726  46.248  1.00  0.00     0.006 C 
ATOM      6  C   UNL     1      59.251  18.035  47.381  1.00  0.00    -0.000 C 
ATOM      7  C   UNL     1      60.685  18.572  47.394  1.00  0.00     0.005 C 
ATOM      8  C   UNL     1      61.416  17.970  48.582  1.00  0.00     0.005 C 
ATOM      9  C   UNL     1      61.780  16.505  48.283  1.00  0.00     0.002 C 
ATOM     10  C   UNL     1      62.464  15.737  49.497  1.00  0.00    -0.026 C 
ATOM     11  C   UNL     1      63.707  16.564  49.970  1.00  0.00     0.010 C 
ATOM     12  C   UNL     1      64.666  15.794  50.891  1.00  0.00     0.033 C 
ATOM     13  C   UNL     1      65.161  14.500  50.233  1.00  0.00     0.120 C 
ATOM     14  C   UNL     1      63.985  13.548  49.849  1.00  0.00    -0.006 C 
ATOM     15  C   UNL     1      62.971  14.355  48.934  1.00  0.00     0.003 C 
ATOM     16  C   UNL     1      61.839  13.489  48.301  1.00  0.00     0.005 C 
ATOM     17  C   UNL     1      60.531  14.246  48.024  1.00  0.00     0.008 C 
ATOM     18  C   UNL     1      60.686  15.689  47.432  1.00  0.00    -0.024 C 
ATOM     19  C   UNL     1      59.210  16.429  47.300  1.00  0.00    -0.024 C 
ATOM     20  C   UNL     1      58.504  15.986  45.953  1.00  0.00     0.008 C 
ATOM     21  C   UNL     1      57.119  16.613  45.678  1.00  0.00     0.007 C 
ATOM     22  C   UNL     1      58.263  15.957  48.449  1.00  0.00     0.012 C 
ATOM     23  C   UNL     1      61.315  15.457  46.011  1.00  0.00     0.012 C 
ATOM     24  C   UNL     1      63.340  12.941  51.125  1.00  0.00     0.014 C 
ATOM     25  C   UNL     1      64.570  12.371  49.028  1.00  0.00     0.014 C 
ATOM     26  C   UNL     1      61.485  15.572  50.705  1.00  0.00     0.012 C 
ATOM     27  C   UNL     1      56.043  18.370  47.216  1.00  0.00     0.011 C 
ENDROOT
BRANCH   1  28
ATOM     28  C   UNL     1      57.631  20.983  47.367  1.00  0.00    -0.077 C 
ATOM     29  C   UNL     1      56.619  22.107  47.226  1.00  0.00     0.039 C 
ATOM     30  C   UNL     1      58.125  20.788  48.603  1.00  0.00     0.008 C 
ENDBRANCH   1  28
BRANCH  13  31
ATOM     31  O   UNL     1      66.053  13.871  51.119  1.00  0.00    -0.393 OA
ATOM     32  H   UNL     1      66.020  12.896  50.934  1.00  0.00     0.210 HD
ENDBRANCH  13  31
TORSDOF 2
ENDMDL
MODEL 4
REMARK VINA RESULT:    -6.381      3.662      8.322
REMARK INTER + INTRA:          -7.321
REMARK INTER:                  -7.107
REMARK INTRA:                  -0.214
REMARK UNBOUND:                -0.380
REMARK SMILES C=C(C)[C@@H]1CC[C@@]2(C)CC[C@]3(C)[C@@H](CC[C@H]4[C@]5(C)CC[C@@H](O)C(C)(C)[C@H]5CC[C@]43C)[C@H]12
REMARK SMILES IDX 4 1 5 2 6 3 7 4 31 5 13 6 14 7 15 8 16 9 17 10 19 11 20 12
REMARK SMILES IDX 21 13 23 14 26 15 27 16 28 17 29 18 11 19 10 20 9 21 12 22
REMARK SMILES IDX 30 23 24 24 25 25 18 26 8 27 2 28 3 29 1 30 22 31
REMARK H PARENT 22 32
REMARK Flexibility Score: inf
ROOT
ATOM      1  C   UNL     1      56.261  21.535  44.458  1.00  0.00     0.018 C 
ATOM      2  C   UNL     1      55.875  22.925  45.017  1.00  0.00     0.009 C 
ATOM      3  C   UNL     1      57.071  23.419  45.867  1.00  0.00     0.008 C 
ATOM      4  C   UNL     1      58.131  22.279  45.864  1.00  0.00    -0.029 C 
ATOM      5  C   UNL     1      57.223  21.067  45.578  1.00  0.00     0.006 C 
ATOM      6  C   UNL     1      57.951  19.688  45.556  1.00  0.00    -0.000 C 
ATOM      7  C   UNL     1      56.927  18.555  45.452  1.00  0.00     0.005 C 
ATOM      8  C   UNL     1      57.673  17.239  45.312  1.00  0.00     0.005 C 
ATOM      9  C   UNL     1      58.259  16.823  46.672  1.00  0.00     0.002 C 
ATOM     10  C   UNL     1      59.150  15.505  46.629  1.00  0.00    -0.026 C 
ATOM     11  C   UNL     1      58.306  14.357  45.978  1.00  0.00     0.010 C 
ATOM     12  C   UNL     1      58.892  12.951  46.179  1.00  0.00     0.033 C 
ATOM     13  C   UNL     1      59.089  12.630  47.665  1.00  0.00     0.120 C 
ATOM     14  C   UNL     1      60.034  13.655  48.368  1.00  0.00    -0.006 C 
ATOM     15  C   UNL     1      59.455  15.112  48.124  1.00  0.00     0.003 C 
ATOM     16  C   UNL     1      60.174  16.238  48.927  1.00  0.00     0.005 C 
ATOM     17  C   UNL     1      60.152  17.620  48.257  1.00  0.00     0.008 C 
ATOM     18  C   UNL     1      58.798  18.033  47.584  1.00  0.00    -0.024 C 
ATOM     19  C   UNL     1      58.952  19.483  46.800  1.00  0.00    -0.024 C 
ATOM     20  C   UNL     1      58.768  20.675  47.827  1.00  0.00     0.008 C 
ATOM     21  C   UNL     1      58.866  22.099  47.235  1.00  0.00     0.007 C 
ATOM     22  C   UNL     1      60.397  19.638  46.227  1.00  0.00     0.012 C 
ATOM     23  C   UNL     1      57.793  18.162  48.786  1.00  0.00     0.012 C 
ATOM     24  C   UNL     1      61.497  13.467  47.881  1.00  0.00     0.014 C 
ATOM     25  C   UNL     1      60.015  13.359  49.889  1.00  0.00     0.014 C 
ATOM     26  C   UNL     1      60.449  15.711  45.783  1.00  0.00     0.012 C 
ATOM     27  C   UNL     1      59.177  22.558  44.726  1.00  0.00     0.011 C 
ENDROOT
BRANCH   1  28
ATOM     28  C   UNL     1      56.831  21.587  43.017  1.00  0.00    -0.077 C 
ATOM     29  C   UNL     1      57.128  22.893  42.299  1.00  0.00     0.039 C 
ATOM     30  C   UNL     1      56.881  20.476  42.260  1.00  0.00     0.008 C 
ENDBRANCH   1  28
BRANCH  13  31
ATOM     31  O   UNL     1      59.595  11.322  47.769  1.00  0.00    -0.393 OA
ATOM     32  H   UNL     1      60.375  11.254  47.158  1.00  0.00     0.210 HD
ENDBRANCH  13  31
TORSDOF 2
ENDMDL
MODEL 5
REMARK VINA RESULT:    -5.913      2.977      7.994
REMARK INTER + INTRA:          -6.811
REMARK INTER:                  -6.439
REMARK INTRA:                  -0.373
REMARK UNBOUND:                -0.380
REMARK SMILES C=C(C)[C@@H]1CC[C@@]2(C)CC[C@]3(C)[C@@H](CC[C@H]4[C@]5(C)CC[C@@H](O)C(C)(C)[C@H]5CC[C@]43C)[C@H]12
REMARK SMILES IDX 4 1 5 2 6 3 7 4 31 5 13 6 14 7 15 8 16 9 17 10 19 11 20 12
REMARK SMILES IDX 21 13 23 14 26 15 27 16 28 17 29 18 11 19 10 20 9 21 12 22
REMARK SMILES IDX 30 23 24 24 25 25 18 26 8 27 2 28 3 29 1 30 22 31
REMARK H PARENT 22 32
REMARK Flexibility Score: inf
ROOT
ATOM      1  C   UNL     1      58.298  19.139  48.210  1.00  0.00     0.018 C 
ATOM      2  C   UNL     1      57.597  20.444  48.658  1.00  0.00     0.009 C 
ATOM      3  C   UNL     1      58.609  21.597  48.444  1.00  0.00     0.008 C 
ATOM      4  C   UNL     1      59.931  20.951  47.937  1.00  0.00    -0.029 C 
ATOM      5  C   UNL     1      59.769  19.525  48.499  1.00  0.00     0.006 C 
ATOM      6  C   UNL     1      60.971  18.569  48.228  1.00  0.00    -0.000 C 
ATOM      7  C   UNL     1      60.779  17.255  48.989  1.00  0.00     0.005 C 
ATOM      8  C   UNL     1      61.902  16.306  48.609  1.00  0.00     0.005 C 
ATOM      9  C   UNL     1      63.203  16.728  49.313  1.00  0.00     0.002 C 
ATOM     10  C   UNL     1      64.477  15.864  48.911  1.00  0.00    -0.026 C 
ATOM     11  C   UNL     1      64.147  14.351  49.150  1.00  0.00     0.010 C 
ATOM     12  C   UNL     1      65.373  13.427  49.142  1.00  0.00     0.033 C 
ATOM     13  C   UNL     1      66.417  13.867  50.176  1.00  0.00     0.120 C 
ATOM     14  C   UNL     1      66.908  15.329  49.930  1.00  0.00    -0.006 C 
ATOM     15  C   UNL     1      65.638  16.279  49.893  1.00  0.00     0.003 C 
ATOM     16  C   UNL     1      65.970  17.802  49.853  1.00  0.00     0.005 C 
ATOM     17  C   UNL     1      64.915  18.671  49.150  1.00  0.00     0.008 C 
ATOM     18  C   UNL     1      63.419  18.315  49.456  1.00  0.00    -0.024 C 
ATOM     19  C   UNL     1      62.398  19.245  48.543  1.00  0.00    -0.024 C 
ATOM     20  C   UNL     1      62.175  20.648  49.243  1.00  0.00     0.008 C 
ATOM     21  C   UNL     1      61.223  21.623  48.514  1.00  0.00     0.007 C 
ATOM     22  C   UNL     1      63.047  19.561  47.158  1.00  0.00     0.012 C 
ATOM     23  C   UNL     1      63.249  18.648  50.983  1.00  0.00     0.012 C 
ATOM     24  C   UNL     1      67.787  15.398  48.651  1.00  0.00     0.014 C 
ATOM     25  C   UNL     1      67.804  15.740  51.125  1.00  0.00     0.014 C 
ATOM     26  C   UNL     1      64.861  16.059  47.408  1.00  0.00     0.012 C 
ATOM     27  C   UNL     1      59.955  21.004  46.366  1.00  0.00     0.011 C 
ENDROOT
BRANCH   1  28
ATOM     28  C   UNL     1      57.951  18.723  46.756  1.00  0.00    -0.077 C 
ATOM     29  C   UNL     1      56.905  19.444  45.924  1.00  0.00     0.039 C 
ATOM     30  C   UNL     1      58.411  17.566  46.248  1.00  0.00     0.008 C 
ENDBRANCH   1  28
BRANCH  13  31
ATOM     31  O   UNL     1      67.489  12.959  50.132  1.00  0.00    -0.393 OA
ATOM     32  H   UNL     1      67.823  12.935  49.196  1.00  0.00     0.210 HD
ENDBRANCH  13  31
TORSDOF 2
ENDMDL
MODEL 6
REMARK VINA RESULT:    -5.452      2.588      7.959
REMARK INTER + INTRA:          -6.310
REMARK INTER:                  -5.953
REMARK INTRA:                  -0.357
REMARK UNBOUND:                -0.380
REMARK SMILES C=C(C)[C@@H]1CC[C@@]2(C)CC[C@]3(C)[C@@H](CC[C@H]4[C@]5(C)CC[C@@H](O)C(C)(C)[C@H]5CC[C@]43C)[C@H]12
REMARK SMILES IDX 4 1 5 2 6 3 7 4 31 5 13 6 14 7 15 8 16 9 17 10 19 11 20 12
REMARK SMILES IDX 21 13 23 14 26 15 27 16 28 17 29 18 11 19 10 20 9 21 12 22
REMARK SMILES IDX 30 23 24 24 25 25 18 26 8 27 2 28 3 29 1 30 22 31
REMARK H PARENT 22 32
REMARK Flexibility Score: inf
ROOT
ATOM      1  C   UNL     1      57.070  21.213  46.438  1.00  0.00     0.018 C 
ATOM      2  C   UNL     1      56.572  22.677  46.381  1.00  0.00     0.009 C 
ATOM      3  C   UNL     1      57.763  23.542  45.900  1.00  0.00     0.008 C 
ATOM      4  C   UNL     1      58.983  22.587  45.746  1.00  0.00    -0.029 C 
ATOM      5  C   UNL     1      58.572  21.464  46.719  1.00  0.00     0.006 C 
ATOM      6  C   UNL     1      59.614  20.315  46.876  1.00  0.00    -0.000 C 
ATOM      7  C   UNL     1      59.183  19.367  47.998  1.00  0.00     0.005 C 
ATOM      8  C   UNL     1      60.153  18.198  48.044  1.00  0.00     0.005 C 
ATOM      9  C   UNL     1      61.477  18.644  48.689  1.00  0.00     0.002 C 
ATOM     10  C   UNL     1      62.610  17.526  48.700  1.00  0.00    -0.026 C 
ATOM     11  C   UNL     1      62.032  16.239  49.380  1.00  0.00     0.010 C 
ATOM     12  C   UNL     1      63.093  15.203  49.779  1.00  0.00     0.033 C 
ATOM     13  C   UNL     1      64.153  15.810  50.705  1.00  0.00     0.120 C 
ATOM     14  C   UNL     1      64.882  17.025  50.049  1.00  0.00    -0.006 C 
ATOM     15  C   UNL     1      63.784  18.077  49.597  1.00  0.00     0.003 C 
ATOM     16  C   UNL     1      64.358  19.439  49.101  1.00  0.00     0.005 C 
ATOM     17  C   UNL     1      63.484  20.165  48.065  1.00  0.00     0.008 C 
ATOM     18  C   UNL     1      61.940  20.142  48.335  1.00  0.00    -0.024 C 
ATOM     19  C   UNL     1      61.117  20.851  47.085  1.00  0.00    -0.024 C 
ATOM     20  C   UNL     1      61.096  22.423  47.275  1.00  0.00     0.008 C 
ATOM     21  C   UNL     1      60.342  23.225  46.191  1.00  0.00     0.007 C 
ATOM     22  C   UNL     1      61.862  20.599  45.735  1.00  0.00     0.012 C 
ATOM     23  C   UNL     1      61.767  20.981  49.653  1.00  0.00     0.012 C 
ATOM     24  C   UNL     1      65.809  16.545  48.899  1.00  0.00     0.014 C 
ATOM     25  C   UNL     1      65.786  17.679  51.125  1.00  0.00     0.014 C 
ATOM     26  C   UNL     1      63.079  17.159  47.254  1.00  0.00     0.012 C 
ATOM     27  C   UNL     1      59.075  22.115  44.250  1.00  0.00     0.011 C 
ENDROOT
BRANCH   1  28
ATOM     28  C   UNL     1      56.717  20.393  45.170  1.00  0.00    -0.077 C 
ATOM     29  C   UNL     1      55.882  20.958  44.034  1.00  0.00     0.039 C 
ATOM     30  C   UNL     1      56.956  19.070  45.122  1.00  0.00     0.008 C 
ENDBRANCH   1  28
BRANCH  13  31
ATOM     31  O   UNL     1      65.066  14.798  51.050  1.00  0.00    -0.393 OA
ATOM     32  H   UNL     1      64.657  14.262  51.779  1.00  0.00     0.210 HD
ENDBRANCH  13  31
TORSDOF 2
ENDMDL
MODEL 7
REMARK VINA RESULT:    -5.222      3.187      8.281
REMARK INTER + INTRA:          -6.060
REMARK INTER:                  -6.409
REMARK INTRA:                   0.349
REMARK UNBOUND:                -0.380
REMARK SMILES C=C(C)[C@@H]1CC[C@@]2(C)CC[C@]3(C)[C@@H](CC[C@H]4[C@]5(C)CC[C@@H](O)C(C)(C)[C@H]5CC[C@]43C)[C@H]12
REMARK SMILES IDX 4 1 5 2 6 3 7 4 31 5 13 6 14 7 15 8 16 9 17 10 19 11 20 12
REMARK SMILES IDX 21 13 23 14 26 15 27 16 28 17 29 18 11 19 10 20 9 21 12 22
REMARK SMILES IDX 30 23 24 24 25 25 18 26 8 27 2 28 3 29 1 30 22 31
REMARK H PARENT 22 32
REMARK Flexibility Score: inf
ROOT
ATOM      1  C   UNL     1      58.120  17.873  45.286  1.00  0.00     0.018 C 
ATOM      2  C   UNL     1      57.211  17.204  44.228  1.00  0.00     0.009 C 
ATOM      3  C   UNL     1      56.979  15.744  44.689  1.00  0.00     0.008 C 
ATOM      4  C   UNL     1      57.817  15.539  45.984  1.00  0.00    -0.029 C 
ATOM      5  C   UNL     1      58.891  16.627  45.786  1.00  0.00     0.006 C 
ATOM      6  C   UNL     1      59.981  16.687  46.900  1.00  0.00    -0.000 C 
ATOM      7  C   UNL     1      61.086  17.668  46.500  1.00  0.00     0.005 C 
ATOM      8  C   UNL     1      62.064  17.793  47.656  1.00  0.00     0.005 C 
ATOM      9  C   UNL     1      62.956  16.541  47.723  1.00  0.00     0.002 C 
ATOM     10  C   UNL     1      63.957  16.514  48.959  1.00  0.00    -0.026 C 
ATOM     11  C   UNL     1      64.801  17.833  48.945  1.00  0.00     0.010 C 
ATOM     12  C   UNL     1      66.037  17.804  49.856  1.00  0.00     0.033 C 
ATOM     13  C   UNL     1      66.962  16.629  49.513  1.00  0.00     0.120 C 
ATOM     14  C   UNL     1      66.234  15.253  49.634  1.00  0.00    -0.006 C 
ATOM     15  C   UNL     1      64.933  15.297  48.728  1.00  0.00     0.003 C 
ATOM     16  C   UNL     1      64.197  13.930  48.584  1.00  0.00     0.005 C 
ATOM     17  C   UNL     1      62.683  14.038  48.346  1.00  0.00     0.008 C 
ATOM     18  C   UNL     1      62.223  15.159  47.352  1.00  0.00    -0.024 C 
ATOM     19  C   UNL     1      60.570  15.240  47.286  1.00  0.00    -0.024 C 
ATOM     20  C   UNL     1      60.017  14.157  46.271  1.00  0.00     0.008 C 
ATOM     21  C   UNL     1      58.483  14.125  46.087  1.00  0.00     0.007 C 
ATOM     22  C   UNL     1      59.955  14.873  48.674  1.00  0.00     0.012 C 
ATOM     23  C   UNL     1      62.807  14.707  45.965  1.00  0.00     0.012 C 
ATOM     24  C   UNL     1      65.956  14.917  51.125  1.00  0.00     0.014 C 
ATOM     25  C   UNL     1      67.186  14.159  49.088  1.00  0.00     0.014 C 
ATOM     26  C   UNL     1      63.195  16.424  50.322  1.00  0.00     0.012 C 
ATOM     27  C   UNL     1      56.896  15.791  47.232  1.00  0.00     0.011 C 
ENDROOT
BRANCH   1  28
ATOM     28  C   UNL     1      57.335  18.688  46.346  1.00  0.00    -0.077 C 
ATOM     29  C   UNL     1      57.597  18.561  47.837  1.00  0.00     0.039 C 
ATOM     30  C   UNL     1      56.237  19.383  45.999  1.00  0.00     0.008 C 
ENDBRANCH   1  28
BRANCH  13  31
ATOM     31  O   UNL     1      68.080  16.688  50.363  1.00  0.00    -0.393 OA
ATOM     32  H   UNL     1      68.049  15.889  50.952  1.00  0.00     0.210 HD
ENDBRANCH  13  31
TORSDOF 2
ENDMDL
MODEL 8
REMARK VINA RESULT:    -4.468      1.375      3.511
REMARK INTER + INTRA:          -5.240
REMARK INTER:                  -4.862
REMARK INTRA:                  -0.378
REMARK UNBOUND:                -0.380
REMARK SMILES C=C(C)[C@@H]1CC[C@@]2(C)CC[C@]3(C)[C@@H](CC[C@H]4[C@]5(C)CC[C@@H](O)C(C)(C)[C@H]5CC[C@]43C)[C@H]12
REMARK SMILES IDX 4 1 5 2 6 3 7 4 31 5 13 6 14 7 15 8 16 9 17 10 19 11 20 12
REMARK SMILES IDX 21 13 23 14 26 15 27 16 28 17 29 18 11 19 10 20 9 21 12 22
REMARK SMILES IDX 30 23 24 24 25 25 18 26 8 27 2 28 3 29 1 30 22 31
REMARK H PARENT 22 32
REMARK Flexibility Score: inf
ROOT
ATOM      1  C   UNL     1      65.462  16.001  50.864  1.00  0.00     0.018 C 
ATOM      2  C   UNL     1      65.911  14.544  51.125  1.00  0.00     0.009 C 
ATOM      3  C   UNL     1      65.686  13.758  49.810  1.00  0.00     0.008 C 
ATOM      4  C   UNL     1      65.033  14.745  48.799  1.00  0.00    -0.029 C 
ATOM      5  C   UNL     1      64.389  15.748  49.776  1.00  0.00     0.006 C 
ATOM      6  C   UNL     1      63.569  16.891  49.103  1.00  0.00    -0.000 C 
ATOM      7  C   UNL     1      62.829  17.703  50.169  1.00  0.00     0.005 C 
ATOM      8  C   UNL     1      62.141  18.877  49.492  1.00  0.00     0.005 C 
ATOM      9  C   UNL     1      60.889  18.387  48.744  1.00  0.00     0.002 C 
ATOM     10  C   UNL     1      60.139  19.516  47.911  1.00  0.00    -0.026 C 
ATOM     11  C   UNL     1      59.817  20.710  48.871  1.00  0.00     0.010 C 
ATOM     12  C   UNL     1      58.799  21.716  48.311  1.00  0.00     0.033 C 
ATOM     13  C   UNL     1      57.483  21.030  47.926  1.00  0.00     0.120 C 
ATOM     14  C   UNL     1      57.694  19.907  46.862  1.00  0.00    -0.006 C 
ATOM     15  C   UNL     1      58.777  18.891  47.421  1.00  0.00     0.003 C 
ATOM     16  C   UNL     1      58.959  17.602  46.563  1.00  0.00     0.005 C 
ATOM     17  C   UNL     1      60.362  16.979  46.630  1.00  0.00     0.008 C 
ATOM     18  C   UNL     1      61.029  16.944  48.048  1.00  0.00    -0.024 C 
ATOM     19  C   UNL     1      62.577  16.362  47.952  1.00  0.00    -0.024 C 
ATOM     20  C   UNL     1      62.558  14.778  47.957  1.00  0.00     0.008 C 
ATOM     21  C   UNL     1      63.938  14.086  47.892  1.00  0.00     0.007 C 
ATOM     22  C   UNL     1      63.226  16.773  46.592  1.00  0.00     0.012 C 
ATOM     23  C   UNL     1      60.123  15.964  48.877  1.00  0.00     0.012 C 
ATOM     24  C   UNL     1      58.057  20.526  45.485  1.00  0.00     0.014 C 
ATOM     25  C   UNL     1      56.350  19.156  46.687  1.00  0.00     0.014 C 
ATOM     26  C   UNL     1      61.017  20.047  46.731  1.00  0.00     0.012 C 
ATOM     27  C   UNL     1      66.159  15.380  47.906  1.00  0.00     0.011 C 
ENDROOT
BRANCH   1  28
ATOM     28  C   UNL     1      66.632  16.949  50.491  1.00  0.00    -0.077 C 
ATOM     29  C   UNL     1      68.088  16.524  50.570  1.00  0.00     0.039 C 
ATOM     30  C   UNL     1      66.413  18.260  50.290  1.00  0.00     0.008 C 
ENDBRANCH   1  28
BRANCH  13  31
ATOM     31  O   UNL     1      56.596  22.014  47.455  1.00  0.00    -0.393 OA
ATOM     32  H   UNL     1      56.681  22.803  48.052  1.00  0.00     0.210 HD
ENDBRANCH  13  31
TORSDOF 2
ENDMDL
