MODEL 1
REMARK VINA RESULT:    -7.196      0.000      0.000
REMARK INTER + INTRA:          -7.406
REMARK INTER:                  -7.406
REMARK INTRA:                   0.000
REMARK UNBOUND:                 0.000
REMARK SMILES C=C1CCC[C@@]2(C)C[C@]3(O)OC(=O)C(C)=C3C[C@@H]12
REMARK SMILES IDX 15 1 14 2 16 3 17 4 18 5 2 6 1 7 3 8 4 9 5 10 6 11 8 12 9 13
REMARK SMILES IDX 11 14 12 15 13 16 7 17 10 18
REMARK H PARENT 10 19
REMARK Flexibility Score: inf
ROOT
ATOM      1  C   UNL     1      -1.941 -57.897 -38.978  1.00  0.00     0.052 C 
ATOM      2  C   UNL     1      -2.622 -56.576 -39.169  1.00  0.00     0.040 C 
ATOM      3  C   UNL     1      -3.692 -56.126 -38.513  1.00  0.00     0.012 C 
ATOM      4  C   UNL     1      -4.498 -56.862 -37.493  1.00  0.00     0.047 C 
ATOM      5  C   UNL     1      -5.932 -57.071 -38.029  1.00  0.00     0.025 C 
ATOM      6  C   UNL     1      -6.790 -57.666 -36.925  1.00  0.00    -0.073 C 
ATOM      7  C   UNL     1      -6.994 -58.992 -36.860  1.00  0.00     0.008 C 
ATOM      8  C   UNL     1      -7.276 -56.763 -35.812  1.00  0.00     0.031 C 
ATOM      9  C   UNL     1      -7.879 -55.468 -36.367  1.00  0.00     0.005 C 
ATOM     10  C   UNL     1      -6.969 -54.804 -37.415  1.00  0.00     0.008 C 
ATOM     11  C   UNL     1      -6.589 -55.759 -38.588  1.00  0.00    -0.019 C 
ATOM     12  C   UNL     1      -5.638 -55.031 -39.600  1.00  0.00     0.092 C 
ATOM     13  C   UNL     1      -4.192 -54.840 -39.109  1.00  0.00     0.235 C 
ATOM     14  O   UNL     1      -3.307 -54.616 -40.208  1.00  0.00    -0.426 OA
ATOM     15  C   UNL     1      -2.372 -55.636 -40.239  1.00  0.00     0.336 C 
ATOM     16  O   UNL     1      -1.460 -55.726 -41.101  1.00  0.00    -0.246 OA
ATOM     17  C   UNL     1      -7.873 -56.132 -39.380  1.00  0.00     0.012 C 
ENDROOT
BRANCH  13  18
ATOM     18  O   UNL     1      -4.105 -53.780 -38.192  1.00  0.00    -0.353 OA
ATOM     19  H   UNL     1      -3.213 -53.359 -38.311  1.00  0.00     0.215 HD
ENDBRANCH  13  18
TORSDOF 1
ENDMDL
MODEL 2
REMARK VINA RESULT:    -6.767     16.230     18.061
REMARK INTER + INTRA:          -6.964
REMARK INTER:                  -6.964
REMARK INTRA:                   0.000
REMARK UNBOUND:                 0.000
REMARK SMILES C=C1CCC[C@@]2(C)C[C@]3(O)OC(=O)C(C)=C3C[C@@H]12
REMARK SMILES IDX 15 1 14 2 16 3 17 4 18 5 2 6 1 7 3 8 4 9 5 10 6 11 8 12 9 13
REMARK SMILES IDX 11 14 12 15 13 16 7 17 10 18
REMARK H PARENT 10 19
REMARK Flexibility Score: inf
ROOT
ATOM      1  C   UNL     1     -10.302 -68.810 -27.945  1.00  0.00     0.052 C 
ATOM      2  C   UNL     1      -9.651 -67.897 -26.951  1.00  0.00     0.040 C 
ATOM      3  C   UNL     1     -10.156 -67.492 -25.787  1.00  0.00     0.012 C 
ATOM      4  C   UNL     1     -11.513 -67.796 -25.239  1.00  0.00     0.047 C 
ATOM      5  C   UNL     1     -12.317 -66.482 -25.111  1.00  0.00     0.025 C 
ATOM      6  C   UNL     1     -13.628 -66.774 -24.399  1.00  0.00    -0.073 C 
ATOM      7  C   UNL     1     -14.752 -66.987 -25.102  1.00  0.00     0.008 C 
ATOM      8  C   UNL     1     -13.614 -66.979 -22.900  1.00  0.00     0.031 C 
ATOM      9  C   UNL     1     -12.814 -65.879 -22.194  1.00  0.00     0.005 C 
ATOM     10  C   UNL     1     -11.440 -65.647 -22.848  1.00  0.00     0.008 C 
ATOM     11  C   UNL     1     -11.534 -65.338 -24.374  1.00  0.00    -0.019 C 
ATOM     12  C   UNL     1     -10.102 -65.143 -24.982  1.00  0.00     0.092 C 
ATOM     13  C   UNL     1      -9.289 -66.438 -25.157  1.00  0.00     0.235 C 
ATOM     14  O   UNL     1      -8.241 -66.256 -26.109  1.00  0.00    -0.426 OA
ATOM     15  C   UNL     1      -8.447 -67.124 -27.166  1.00  0.00     0.336 C 
ATOM     16  O   UNL     1      -7.695 -67.196 -28.173  1.00  0.00    -0.246 OA
ATOM     17  C   UNL     1     -12.287 -63.994 -24.579  1.00  0.00     0.012 C 
ENDROOT
BRANCH  13  18
ATOM     18  O   UNL     1      -8.761 -66.873 -23.929  1.00  0.00    -0.353 OA
ATOM     19  H   UNL     1      -8.102 -67.590 -24.129  1.00  0.00     0.215 HD
ENDBRANCH  13  18
TORSDOF 1
ENDMDL
MODEL 3
REMARK VINA RESULT:    -6.224      2.213      3.443
REMARK INTER + INTRA:          -6.406
REMARK INTER:                  -6.406
REMARK INTRA:                   0.000
REMARK UNBOUND:                 0.000
REMARK SMILES C=C1CCC[C@@]2(C)C[C@]3(O)OC(=O)C(C)=C3C[C@@H]12
REMARK SMILES IDX 15 1 14 2 16 3 17 4 18 5 2 6 1 7 3 8 4 9 5 10 6 11 8 12 9 13
REMARK SMILES IDX 11 14 12 15 13 16 7 17 10 18
REMARK H PARENT 10 19
REMARK Flexibility Score: inf
ROOT
ATOM      1  C   UNL     1      -3.143 -53.763 -37.634  1.00  0.00     0.052 C 
ATOM      2  C   UNL     1      -4.444 -54.414 -37.991  1.00  0.00     0.040 C 
ATOM      3  C   UNL     1      -5.331 -54.944 -37.150  1.00  0.00     0.012 C 
ATOM      4  C   UNL     1      -5.199 -55.074 -35.667  1.00  0.00     0.047 C 
ATOM      5  C   UNL     1      -5.171 -56.572 -35.288  1.00  0.00     0.025 C 
ATOM      6  C   UNL     1      -5.207 -56.699 -33.773  1.00  0.00    -0.073 C 
ATOM      7  C   UNL     1      -4.071 -56.857 -33.075  1.00  0.00     0.008 C 
ATOM      8  C   UNL     1      -6.521 -56.482 -33.054  1.00  0.00     0.031 C 
ATOM      9  C   UNL     1      -7.657 -57.267 -33.719  1.00  0.00     0.005 C 
ATOM     10  C   UNL     1      -7.690 -57.064 -35.244  1.00  0.00     0.008 C 
ATOM     11  C   UNL     1      -6.335 -57.405 -35.936  1.00  0.00    -0.019 C 
ATOM     12  C   UNL     1      -6.428 -57.147 -37.480  1.00  0.00     0.092 C 
ATOM     13  C   UNL     1      -6.421 -55.665 -37.893  1.00  0.00     0.235 C 
ATOM     14  O   UNL     1      -6.042 -55.520 -39.262  1.00  0.00    -0.426 OA
ATOM     15  C   UNL     1      -4.880 -54.773 -39.324  1.00  0.00     0.336 C 
ATOM     16  O   UNL     1      -4.288 -54.481 -40.396  1.00  0.00    -0.246 OA
ATOM     17  C   UNL     1      -6.035 -58.919 -35.758  1.00  0.00     0.012 C 
ENDROOT
BRANCH  13  18
ATOM     18  O   UNL     1      -7.675 -55.072 -37.670  1.00  0.00    -0.353 OA
ATOM     19  H   UNL     1      -7.838 -55.086 -36.690  1.00  0.00     0.215 HD
ENDBRANCH  13  18
TORSDOF 1
ENDMDL
MODEL 4
REMARK VINA RESULT:    -6.016      3.134      5.363
REMARK INTER + INTRA:          -6.192
REMARK INTER:                  -6.192
REMARK INTRA:                   0.000
REMARK UNBOUND:                 0.000
REMARK SMILES C=C1CCC[C@@]2(C)C[C@]3(O)OC(=O)C(C)=C3C[C@@H]12
REMARK SMILES IDX 15 1 14 2 16 3 17 4 18 5 2 6 1 7 3 8 4 9 5 10 6 11 8 12 9 13
REMARK SMILES IDX 11 14 12 15 13 16 7 17 10 18
REMARK H PARENT 10 19
REMARK Flexibility Score: inf
ROOT
ATOM      1  C   UNL     1      -7.033 -57.244 -33.071  1.00  0.00     0.052 C 
ATOM      2  C   UNL     1      -6.706 -57.826 -34.413  1.00  0.00     0.040 C 
ATOM      3  C   UNL     1      -5.980 -57.259 -35.375  1.00  0.00     0.012 C 
ATOM      4  C   UNL     1      -5.387 -55.888 -35.366  1.00  0.00     0.047 C 
ATOM      5  C   UNL     1      -6.034 -55.044 -36.488  1.00  0.00     0.025 C 
ATOM      6  C   UNL     1      -5.310 -53.710 -36.582  1.00  0.00    -0.073 C 
ATOM      7  C   UNL     1      -5.797 -52.625 -35.961  1.00  0.00     0.008 C 
ATOM      8  C   UNL     1      -3.953 -53.663 -37.251  1.00  0.00     0.031 C 
ATOM      9  C   UNL     1      -3.967 -54.402 -38.594  1.00  0.00     0.005 C 
ATOM     10  C   UNL     1      -4.608 -55.796 -38.485  1.00  0.00     0.008 C 
ATOM     11  C   UNL     1      -6.047 -55.763 -37.884  1.00  0.00    -0.019 C 
ATOM     12  C   UNL     1      -6.628 -57.215 -37.772  1.00  0.00     0.092 C 
ATOM     13  C   UNL     1      -6.029 -58.068 -36.640  1.00  0.00     0.235 C 
ATOM     14  O   UNL     1      -6.896 -59.153 -36.308  1.00  0.00    -0.426 OA
ATOM     15  C   UNL     1      -7.291 -59.018 -34.989  1.00  0.00     0.336 C 
ATOM     16  O   UNL     1      -8.068 -59.815 -34.403  1.00  0.00    -0.246 OA
ATOM     17  C   UNL     1      -6.986 -54.984 -38.846  1.00  0.00     0.012 C 
ENDROOT
BRANCH  13  18
ATOM     18  O   UNL     1      -4.758 -58.553 -36.991  1.00  0.00    -0.353 OA
ATOM     19  H   UNL     1      -4.378 -57.927 -37.663  1.00  0.00     0.215 HD
ENDBRANCH  13  18
TORSDOF 1
ENDMDL
MODEL 5
REMARK VINA RESULT:    -6.004      2.678      5.017
REMARK INTER + INTRA:          -6.179
REMARK INTER:                  -6.179
REMARK INTRA:                   0.000
REMARK UNBOUND:                 0.000
REMARK SMILES C=C1CCC[C@@]2(C)C[C@]3(O)OC(=O)C(C)=C3C[C@@H]12
REMARK SMILES IDX 15 1 14 2 16 3 17 4 18 5 2 6 1 7 3 8 4 9 5 10 6 11 8 12 9 13
REMARK SMILES IDX 11 14 12 15 13 16 7 17 10 18
REMARK H PARENT 10 19
REMARK Flexibility Score: inf
ROOT
ATOM      1  C   UNL     1      -7.226 -54.862 -33.659  1.00  0.00     0.052 C 
ATOM      2  C   UNL     1      -5.908 -54.368 -34.173  1.00  0.00     0.040 C 
ATOM      3  C   UNL     1      -5.557 -54.207 -35.448  1.00  0.00     0.012 C 
ATOM      4  C   UNL     1      -6.368 -54.546 -36.656  1.00  0.00     0.047 C 
ATOM      5  C   UNL     1      -5.654 -55.661 -37.454  1.00  0.00     0.025 C 
ATOM      6  C   UNL     1      -6.394 -55.883 -38.763  1.00  0.00    -0.073 C 
ATOM      7  C   UNL     1      -7.302 -56.865 -38.874  1.00  0.00     0.008 C 
ATOM      8  C   UNL     1      -6.210 -54.882 -39.884  1.00  0.00     0.031 C 
ATOM      9  C   UNL     1      -4.727 -54.568 -40.113  1.00  0.00     0.005 C 
ATOM     10  C   UNL     1      -3.991 -54.242 -38.801  1.00  0.00     0.008 C 
ATOM     11  C   UNL     1      -4.136 -55.362 -37.725  1.00  0.00    -0.019 C 
ATOM     12  C   UNL     1      -3.391 -54.954 -36.407  1.00  0.00     0.092 C 
ATOM     13  C   UNL     1      -4.097 -53.872 -35.571  1.00  0.00     0.235 C 
ATOM     14  O   UNL     1      -3.636 -53.892 -34.219  1.00  0.00    -0.426 OA
ATOM     15  C   UNL     1      -4.706 -54.176 -33.390  1.00  0.00     0.336 C 
ATOM     16  O   UNL     1      -4.619 -54.274 -32.139  1.00  0.00    -0.246 OA
ATOM     17  C   UNL     1      -3.448 -56.657 -38.238  1.00  0.00     0.012 C 
ENDROOT
BRANCH  13  18
ATOM     18  O   UNL     1      -3.906 -52.597 -36.130  1.00  0.00    -0.353 OA
ATOM     19  H   UNL     1      -3.257 -52.115 -35.551  1.00  0.00     0.215 HD
ENDBRANCH  13  18
TORSDOF 1
ENDMDL
MODEL 6
REMARK VINA RESULT:    -5.978      3.473      5.781
REMARK INTER + INTRA:          -6.152
REMARK INTER:                  -6.152
REMARK INTRA:                   0.000
REMARK UNBOUND:                 0.000
REMARK SMILES C=C1CCC[C@@]2(C)C[C@]3(O)OC(=O)C(C)=C3C[C@@H]12
REMARK SMILES IDX 15 1 14 2 16 3 17 4 18 5 2 6 1 7 3 8 4 9 5 10 6 11 8 12 9 13
REMARK SMILES IDX 11 14 12 15 13 16 7 17 10 18
REMARK H PARENT 10 19
REMARK Flexibility Score: inf
ROOT
ATOM      1  C   UNL     1      -4.720 -55.307 -32.541  1.00  0.00     0.052 C 
ATOM      2  C   UNL     1      -5.843 -56.077 -33.166  1.00  0.00     0.040 C 
ATOM      3  C   UNL     1      -5.921 -56.491 -34.430  1.00  0.00     0.012 C 
ATOM      4  C   UNL     1      -4.945 -56.222 -35.529  1.00  0.00     0.047 C 
ATOM      5  C   UNL     1      -5.630 -55.374 -36.624  1.00  0.00     0.025 C 
ATOM      6  C   UNL     1      -4.688 -55.247 -37.811  1.00  0.00    -0.073 C 
ATOM      7  C   UNL     1      -3.908 -54.163 -37.948  1.00  0.00     0.008 C 
ATOM      8  C   UNL     1      -4.527 -56.428 -38.744  1.00  0.00     0.031 C 
ATOM      9  C   UNL     1      -5.887 -57.005 -39.154  1.00  0.00     0.005 C 
ATOM     10  C   UNL     1      -6.811 -57.232 -37.945  1.00  0.00     0.008 C 
ATOM     11  C   UNL     1      -7.018 -55.948 -37.083  1.00  0.00    -0.019 C 
ATOM     12  C   UNL     1      -7.942 -56.256 -35.855  1.00  0.00     0.092 C 
ATOM     13  C   UNL     1      -7.277 -57.068 -34.729  1.00  0.00     0.235 C 
ATOM     14  O   UNL     1      -7.985 -56.908 -33.500  1.00  0.00    -0.426 OA
ATOM     15  C   UNL     1      -7.137 -56.331 -32.571  1.00  0.00     0.336 C 
ATOM     16  O   UNL     1      -7.472 -56.053 -31.391  1.00  0.00    -0.246 OA
ATOM     17  C   UNL     1      -7.755 -54.875 -37.931  1.00  0.00     0.012 C 
ENDROOT
BRANCH  13  18
ATOM     18  O   UNL     1      -7.194 -58.428 -35.069  1.00  0.00    -0.353 OA
ATOM     19  H   UNL     1      -6.804 -58.482 -35.982  1.00  0.00     0.215 HD
ENDBRANCH  13  18
TORSDOF 1
ENDMDL
MODEL 7
REMARK VINA RESULT:    -5.976      1.659      2.164
REMARK INTER + INTRA:          -6.151
REMARK INTER:                  -6.151
REMARK INTRA:                   0.000
REMARK UNBOUND:                 0.000
REMARK SMILES C=C1CCC[C@@]2(C)C[C@]3(O)OC(=O)C(C)=C3C[C@@H]12
REMARK SMILES IDX 15 1 14 2 16 3 17 4 18 5 2 6 1 7 3 8 4 9 5 10 6 11 8 12 9 13
REMARK SMILES IDX 11 14 12 15 13 16 7 17 10 18
REMARK H PARENT 10 19
REMARK Flexibility Score: inf
ROOT
ATOM      1  C   UNL     1      -2.855 -58.378 -37.006  1.00  0.00     0.052 C 
ATOM      2  C   UNL     1      -3.285 -57.097 -37.654  1.00  0.00     0.040 C 
ATOM      3  C   UNL     1      -4.017 -56.130 -37.103  1.00  0.00     0.012 C 
ATOM      4  C   UNL     1      -4.634 -56.131 -35.742  1.00  0.00     0.047 C 
ATOM      5  C   UNL     1      -6.173 -56.092 -35.880  1.00  0.00     0.025 C 
ATOM      6  C   UNL     1      -6.788 -55.923 -34.501  1.00  0.00    -0.073 C 
ATOM      7  C   UNL     1      -7.224 -56.991 -33.814  1.00  0.00     0.008 C 
ATOM      8  C   UNL     1      -6.754 -54.557 -33.849  1.00  0.00     0.031 C 
ATOM      9  C   UNL     1      -7.219 -53.464 -34.818  1.00  0.00     0.005 C 
ATOM     10  C   UNL     1      -6.525 -53.567 -36.187  1.00  0.00     0.008 C 
ATOM     11  C   UNL     1      -6.686 -54.969 -36.851  1.00  0.00    -0.019 C 
ATOM     12  C   UNL     1      -5.931 -55.015 -38.225  1.00  0.00     0.092 C 
ATOM     13  C   UNL     1      -4.398 -55.091 -38.121  1.00  0.00     0.235 C 
ATOM     14  O   UNL     1      -3.830 -55.589 -39.333  1.00  0.00    -0.426 OA
ATOM     15  C   UNL     1      -3.164 -56.770 -39.058  1.00  0.00     0.336 C 
ATOM     16  O   UNL     1      -2.565 -57.458 -39.926  1.00  0.00    -0.246 OA
ATOM     17  C   UNL     1      -8.188 -55.217 -37.165  1.00  0.00     0.012 C 
ENDROOT
BRANCH  13  18
ATOM     18  O   UNL     1      -3.849 -53.837 -37.807  1.00  0.00    -0.353 OA
ATOM     19  H   UNL     1      -4.005 -53.242 -38.588  1.00  0.00     0.215 HD
ENDBRANCH  13  18
TORSDOF 1
ENDMDL
MODEL 8
REMARK VINA RESULT:    -5.976      3.327      5.057
REMARK INTER + INTRA:          -6.150
REMARK INTER:                  -6.150
REMARK INTRA:                   0.000
REMARK UNBOUND:                 0.000
REMARK SMILES C=C1CCC[C@@]2(C)C[C@]3(O)OC(=O)C(C)=C3C[C@@H]12
REMARK SMILES IDX 15 1 14 2 16 3 17 4 18 5 2 6 1 7 3 8 4 9 5 10 6 11 8 12 9 13
REMARK SMILES IDX 11 14 12 15 13 16 7 17 10 18
REMARK H PARENT 10 19
REMARK Flexibility Score: inf
ROOT
ATOM      1  C   UNL     1      -2.339 -53.199 -34.761  1.00  0.00     0.052 C 
ATOM      2  C   UNL     1      -3.543 -53.953 -34.284  1.00  0.00     0.040 C 
ATOM      3  C   UNL     1      -4.254 -54.843 -34.974  1.00  0.00     0.012 C 
ATOM      4  C   UNL     1      -4.059 -55.240 -36.402  1.00  0.00     0.047 C 
ATOM      5  C   UNL     1      -5.305 -54.832 -37.220  1.00  0.00     0.025 C 
ATOM      6  C   UNL     1      -5.174 -55.386 -38.629  1.00  0.00    -0.073 C 
ATOM      7  C   UNL     1      -4.699 -54.618 -39.622  1.00  0.00     0.008 C 
ATOM      8  C   UNL     1      -5.433 -56.859 -38.860  1.00  0.00     0.031 C 
ATOM      9  C   UNL     1      -6.736 -57.309 -38.189  1.00  0.00     0.005 C 
ATOM     10  C   UNL     1      -6.832 -56.836 -36.728  1.00  0.00     0.008 C 
ATOM     11  C   UNL     1      -6.659 -55.294 -36.571  1.00  0.00    -0.019 C 
ATOM     12  C   UNL     1      -6.736 -54.886 -35.059  1.00  0.00     0.092 C 
ATOM     13  C   UNL     1      -5.493 -55.246 -34.225  1.00  0.00     0.235 C 
ATOM     14  O   UNL     1      -5.434 -54.459 -33.036  1.00  0.00    -0.426 OA
ATOM     15  C   UNL     1      -4.277 -53.700 -33.063  1.00  0.00     0.336 C 
ATOM     16  O   UNL     1      -3.944 -52.894 -32.156  1.00  0.00    -0.246 OA
ATOM     17  C   UNL     1      -7.835 -54.571 -37.284  1.00  0.00     0.012 C 
ENDROOT
BRANCH  13  18
ATOM     18  O   UNL     1      -5.480 -56.613 -33.904  1.00  0.00    -0.353 OA
ATOM     19  H   UNL     1      -5.467 -57.118 -34.761  1.00  0.00     0.215 HD
ENDBRANCH  13  18
TORSDOF 1
ENDMDL
MODEL 9
REMARK VINA RESULT:    -5.958      4.189      5.620
REMARK INTER + INTRA:          -6.132
REMARK INTER:                  -6.132
REMARK INTRA:                   0.000
REMARK UNBOUND:                 0.000
REMARK SMILES C=C1CCC[C@@]2(C)C[C@]3(O)OC(=O)C(C)=C3C[C@@H]12
REMARK SMILES IDX 15 1 14 2 16 3 17 4 18 5 2 6 1 7 3 8 4 9 5 10 6 11 8 12 9 13
REMARK SMILES IDX 11 14 12 15 13 16 7 17 10 18
REMARK H PARENT 10 19
REMARK Flexibility Score: inf
ROOT
ATOM      1  C   UNL     1      -2.740 -53.003 -35.050  1.00  0.00     0.052 C 
ATOM      2  C   UNL     1      -3.068 -54.085 -34.066  1.00  0.00     0.040 C 
ATOM      3  C   UNL     1      -3.942 -55.077 -34.230  1.00  0.00     0.012 C 
ATOM      4  C   UNL     1      -4.845 -55.297 -35.399  1.00  0.00     0.047 C 
ATOM      5  C   UNL     1      -6.316 -55.174 -34.938  1.00  0.00     0.025 C 
ATOM      6  C   UNL     1      -7.228 -55.565 -36.089  1.00  0.00    -0.073 C 
ATOM      7  C   UNL     1      -7.762 -54.624 -36.884  1.00  0.00     0.008 C 
ATOM      8  C   UNL     1      -7.394 -57.032 -36.423  1.00  0.00     0.031 C 
ATOM      9  C   UNL     1      -7.676 -57.862 -35.166  1.00  0.00     0.005 C 
ATOM     10  C   UNL     1      -6.691 -57.545 -34.026  1.00  0.00     0.008 C 
ATOM     11  C   UNL     1      -6.645 -56.029 -33.662  1.00  0.00    -0.019 C 
ATOM     12  C   UNL     1      -5.602 -55.773 -32.519  1.00  0.00     0.092 C 
ATOM     13  C   UNL     1      -4.128 -55.851 -32.955  1.00  0.00     0.235 C 
ATOM     14  O   UNL     1      -3.286 -55.170 -32.025  1.00  0.00    -0.426 OA
ATOM     15  C   UNL     1      -2.650 -54.131 -32.681  1.00  0.00     0.336 C 
ATOM     16  O   UNL     1      -1.847 -53.336 -32.127  1.00  0.00    -0.246 OA
ATOM     17  C   UNL     1      -8.028 -55.594 -33.103  1.00  0.00     0.012 C 
ENDROOT
BRANCH  13  18
ATOM     18  O   UNL     1      -3.714 -57.186 -33.098  1.00  0.00    -0.353 OA
ATOM     19  H   UNL     1      -4.475 -57.763 -32.821  1.00  0.00     0.215 HD
ENDBRANCH  13  18
TORSDOF 1
ENDMDL
