MODEL 1
REMARK VINA RESULT:    -3.923      0.000      0.000
REMARK INTER + INTRA:         -10.220
REMARK INTER:                  -7.592
REMARK INTRA:                  -2.628
REMARK UNBOUND:                -2.628
REMARK SMILES CCCCCCCCCCCCCCCCCC(=O)[O-]
REMARK SMILES IDX 10 1 11 2 12 3 13 4 14 5 15 6 16 7 17 8 18 9 19 10 20 11
REMARK SMILES IDX 9 12 8 13 7 14 6 15 5 16 4 17 3 18 2 19 1 20
REMARK H PARENT
REMARK Flexibility Score: inf
ROOT
ATOM      1  C   UNL     1     172.748 172.819 151.316  1.00  0.00     0.000 C 
ENDROOT
BRANCH   1   2
ATOM      2  C   UNL     1     173.211 171.534 150.618  1.00  0.00     0.000 C 
BRANCH   2   3
ATOM      3  C   UNL     1     174.008 171.855 149.344  1.00  0.00     0.000 C 
BRANCH   3   4
ATOM      4  C   UNL     1     175.278 171.001 149.206  1.00  0.00     0.000 C 
BRANCH   4   5
ATOM      5  C   UNL     1     176.409 171.469 150.138  1.00  0.00     0.000 C 
BRANCH   5   6
ATOM      6  C   UNL     1     176.651 172.985 150.059  1.00  0.00     0.000 C 
BRANCH   6   7
ATOM      7  C   UNL     1     177.048 173.595 151.412  1.00  0.00     0.006 C 
BRANCH   7   8
ATOM      8  C   UNL     1     176.186 173.027 152.543  1.00  0.00     0.053 C 
BRANCH   8   9
ATOM      9  C   UNL     1     177.019 172.203 153.474  1.00  0.00     0.041 C 
ATOM     10  O   UNL     1     176.712 171.004 153.706  1.00  0.00    -0.550 OA
ATOM     11  O   UNL     1     178.106 172.774 154.123  1.00  0.00    -0.550 OA
ENDBRANCH   8   9
ENDBRANCH   7   8
ENDBRANCH   6   7
ENDBRANCH   5   6
ENDBRANCH   4   5
ENDBRANCH   3   4
ENDBRANCH   2   3
ENDBRANCH   1   2
BRANCH   1  12
ATOM     12  C   UNL     1     173.118 174.059 150.489  1.00  0.00     0.000 C 
BRANCH  12  13
ATOM     13  C   UNL     1     173.591 175.232 151.360  1.00  0.00    -0.000 C 
BRANCH  13  14
ATOM     14  C   UNL     1     173.446 176.589 150.654  1.00  0.00    -0.000 C 
BRANCH  14  15
ATOM     15  C   UNL     1     174.036 177.718 151.508  1.00  0.00    -0.000 C 
BRANCH  15  16
ATOM     16  C   UNL     1     175.469 177.383 151.950  1.00  0.00    -0.000 C 
BRANCH  16  17
ATOM     17  C   UNL     1     175.712 177.675 153.440  1.00  0.00    -0.000 C 
BRANCH  17  18
ATOM     18  C   UNL     1     175.884 176.395 154.274  1.00  0.00    -0.000 C 
BRANCH  18  19
ATOM     19  C   UNL     1     174.553 175.878 154.841  1.00  0.00    -0.003 C 
ATOM     20  C   UNL     1     173.582 177.006 155.187  1.00  0.00     0.004 C 
ENDBRANCH  18  19
ENDBRANCH  17  18
ENDBRANCH  16  17
ENDBRANCH  15  16
ENDBRANCH  14  15
ENDBRANCH  13  14
ENDBRANCH  12  13
ENDBRANCH   1  12
TORSDOF 16
ENDMDL
MODEL 2
REMARK VINA RESULT:    -3.901      6.360      7.874
REMARK INTER + INTRA:         -10.179
REMARK INTER:                  -9.311
REMARK INTRA:                  -0.868
REMARK UNBOUND:                -2.628
REMARK SMILES CCCCCCCCCCCCCCCCCC(=O)[O-]
REMARK SMILES IDX 10 1 11 2 12 3 13 4 14 5 15 6 16 7 17 8 18 9 19 10 20 11
REMARK SMILES IDX 9 12 8 13 7 14 6 15 5 16 4 17 3 18 2 19 1 20
REMARK H PARENT
REMARK Flexibility Score: inf
ROOT
ATOM      1  C   UNL     1     169.865 176.015 152.215  1.00  0.00     0.000 C 
ENDROOT
BRANCH   1   2
ATOM      2  C   UNL     1     171.352 176.250 151.919  1.00  0.00     0.000 C 
BRANCH   2   3
ATOM      3  C   UNL     1     171.700 177.744 152.001  1.00  0.00     0.000 C 
BRANCH   3   4
ATOM      4  C   UNL     1     173.112 178.054 151.479  1.00  0.00     0.000 C 
BRANCH   4   5
ATOM      5  C   UNL     1     173.693 176.912 150.628  1.00  0.00     0.000 C 
BRANCH   5   6
ATOM      6  C   UNL     1     175.090 176.477 151.098  1.00  0.00     0.000 C 
BRANCH   6   7
ATOM      7  C   UNL     1     175.065 175.173 151.909  1.00  0.00     0.006 C 
BRANCH   7   8
ATOM      8  C   UNL     1     175.585 173.999 151.075  1.00  0.00     0.053 C 
BRANCH   8   9
ATOM      9  C   UNL     1     177.058 173.828 151.270  1.00  0.00     0.041 C 
ATOM     10  O   UNL     1     177.512 173.484 152.393  1.00  0.00    -0.550 OA
ATOM     11  O   UNL     1     177.934 174.095 150.225  1.00  0.00    -0.550 OA
ENDBRANCH   8   9
ENDBRANCH   7   8
ENDBRANCH   6   7
ENDBRANCH   5   6
ENDBRANCH   4   5
ENDBRANCH   3   4
ENDBRANCH   2   3
ENDBRANCH   1   2
BRANCH   1  12
ATOM     12  C   UNL     1     168.979 176.861 151.291  1.00  0.00     0.000 C 
BRANCH  12  13
ATOM     13  C   UNL     1     167.917 176.027 150.559  1.00  0.00    -0.000 C 
BRANCH  13  14
ATOM     14  C   UNL     1     167.173 176.829 149.481  1.00  0.00    -0.000 C 
BRANCH  14  15
ATOM     15  C   UNL     1     166.108 177.736 150.108  1.00  0.00    -0.000 C 
BRANCH  15  16
ATOM     16  C   UNL     1     165.133 176.925 150.974  1.00  0.00    -0.000 C 
BRANCH  16  17
ATOM     17  C   UNL     1     163.797 177.651 151.201  1.00  0.00    -0.000 C 
BRANCH  17  18
ATOM     18  C   UNL     1     162.582 176.726 151.018  1.00  0.00    -0.000 C 
BRANCH  18  19
ATOM     19  C   UNL     1     161.292 177.503 150.711  1.00  0.00    -0.003 C 
ATOM     20  C   UNL     1     160.293 177.466 151.867  1.00  0.00     0.004 C 
ENDBRANCH  18  19
ENDBRANCH  17  18
ENDBRANCH  16  17
ENDBRANCH  15  16
ENDBRANCH  14  15
ENDBRANCH  13  14
ENDBRANCH  12  13
ENDBRANCH   1  12
TORSDOF 16
ENDMDL
MODEL 3
REMARK VINA RESULT:    -3.827      2.087      5.464
REMARK INTER + INTRA:         -10.035
REMARK INTER:                  -7.516
REMARK INTRA:                  -2.519
REMARK UNBOUND:                -2.628
REMARK SMILES CCCCCCCCCCCCCCCCCC(=O)[O-]
REMARK SMILES IDX 10 1 11 2 12 3 13 4 14 5 15 6 16 7 17 8 18 9 19 10 20 11
REMARK SMILES IDX 9 12 8 13 7 14 6 15 5 16 4 17 3 18 2 19 1 20
REMARK H PARENT
REMARK Flexibility Score: inf
ROOT
ATOM      1  C   UNL     1     171.835 177.056 151.909  1.00  0.00     0.000 C 
ENDROOT
BRANCH   1   2
ATOM      2  C   UNL     1     172.897 178.125 152.196  1.00  0.00     0.000 C 
BRANCH   2   3
ATOM      3  C   UNL     1     173.646 177.820 153.502  1.00  0.00     0.000 C 
BRANCH   3   4
ATOM      4  C   UNL     1     175.172 177.913 153.348  1.00  0.00     0.000 C 
BRANCH   4   5
ATOM      5  C   UNL     1     175.914 176.821 154.137  1.00  0.00     0.000 C 
BRANCH   5   6
ATOM      6  C   UNL     1     174.993 175.662 154.550  1.00  0.00     0.000 C 
BRANCH   6   7
ATOM      7  C   UNL     1     175.771 174.407 154.977  1.00  0.00     0.006 C 
BRANCH   7   8
ATOM      8  C   UNL     1     176.800 174.743 156.060  1.00  0.00     0.053 C 
BRANCH   8   9
ATOM      9  C   UNL     1     176.284 174.358 157.411  1.00  0.00     0.041 C 
ATOM     10  O   UNL     1     175.358 175.022 157.947  1.00  0.00    -0.550 OA
ATOM     11  O   UNL     1     176.859 173.297 158.099  1.00  0.00    -0.550 OA
ENDBRANCH   8   9
ENDBRANCH   7   8
ENDBRANCH   6   7
ENDBRANCH   5   6
ENDBRANCH   4   5
ENDBRANCH   3   4
ENDBRANCH   2   3
ENDBRANCH   1   2
BRANCH   1  12
ATOM     12  C   UNL     1     172.471 175.664 151.792  1.00  0.00     0.000 C 
BRANCH  12  13
ATOM     13  C   UNL     1     173.620 175.620 150.773  1.00  0.00    -0.000 C 
BRANCH  13  14
ATOM     14  C   UNL     1     174.523 174.391 150.952  1.00  0.00    -0.000 C 
BRANCH  14  15
ATOM     15  C   UNL     1     175.996 174.802 151.061  1.00  0.00    -0.000 C 
BRANCH  15  16
ATOM     16  C   UNL     1     176.878 173.600 151.434  1.00  0.00    -0.000 C 
BRANCH  16  17
ATOM     17  C   UNL     1     176.056 172.366 151.839  1.00  0.00    -0.000 C 
BRANCH  17  18
ATOM     18  C   UNL     1     176.425 171.115 151.023  1.00  0.00    -0.000 C 
BRANCH  18  19
ATOM     19  C   UNL     1     176.208 171.308 149.515  1.00  0.00    -0.003 C 
ATOM     20  C   UNL     1     174.739 171.183 149.111  1.00  0.00     0.004 C 
ENDBRANCH  18  19
ENDBRANCH  17  18
ENDBRANCH  16  17
ENDBRANCH  15  16
ENDBRANCH  14  15
ENDBRANCH  13  14
ENDBRANCH  12  13
ENDBRANCH   1  12
TORSDOF 16
ENDMDL
MODEL 4
REMARK VINA RESULT:    -3.799      9.949     11.984
REMARK INTER + INTRA:          -9.981
REMARK INTER:                  -7.342
REMARK INTRA:                  -2.638
REMARK UNBOUND:                -2.628
REMARK SMILES CCCCCCCCCCCCCCCCCC(=O)[O-]
REMARK SMILES IDX 10 1 11 2 12 3 13 4 14 5 15 6 16 7 17 8 18 9 19 10 20 11
REMARK SMILES IDX 9 12 8 13 7 14 6 15 5 16 4 17 3 18 2 19 1 20
REMARK H PARENT
REMARK Flexibility Score: inf
ROOT
ATOM      1  C   UNL     1     162.151 176.919 150.744  1.00  0.00     0.000 C 
ENDROOT
BRANCH   1   2
ATOM      2  C   UNL     1     162.657 177.431 152.099  1.00  0.00     0.000 C 
BRANCH   2   3
ATOM      3  C   UNL     1     164.150 177.787 152.030  1.00  0.00     0.000 C 
BRANCH   3   4
ATOM      4  C   UNL     1     164.865 177.124 150.841  1.00  0.00     0.000 C 
BRANCH   4   5
ATOM      5  C   UNL     1     165.890 178.056 150.172  1.00  0.00     0.000 C 
BRANCH   5   6
ATOM      6  C   UNL     1     167.193 177.331 149.801  1.00  0.00     0.000 C 
BRANCH   6   7
ATOM      7  C   UNL     1     167.435 176.072 150.647  1.00  0.00     0.006 C 
BRANCH   7   8
ATOM      8  C   UNL     1     168.791 176.142 151.356  1.00  0.00     0.053 C 
BRANCH   8   9
ATOM      9  C   UNL     1     168.693 176.969 152.598  1.00  0.00     0.041 C 
ATOM     10  O   UNL     1     169.720 177.520 153.075  1.00  0.00    -0.550 OA
ATOM     11  O   UNL     1     167.476 177.093 153.257  1.00  0.00    -0.550 OA
ENDBRANCH   8   9
ENDBRANCH   7   8
ENDBRANCH   6   7
ENDBRANCH   5   6
ENDBRANCH   4   5
ENDBRANCH   3   4
ENDBRANCH   2   3
ENDBRANCH   1   2
BRANCH   1  12
ATOM     12  C   UNL     1     160.620 176.807 150.735  1.00  0.00     0.000 C 
BRANCH  12  13
ATOM     13  C   UNL     1     160.056 176.276 152.061  1.00  0.00    -0.000 C 
BRANCH  13  14
ATOM     14  C   UNL     1     159.300 174.949 151.894  1.00  0.00    -0.000 C 
BRANCH  14  15
ATOM     15  C   UNL     1     160.057 173.797 152.564  1.00  0.00    -0.000 C 
BRANCH  15  16
ATOM     16  C   UNL     1     161.125 174.329 153.532  1.00  0.00    -0.000 C 
BRANCH  16  17
ATOM     17  C   UNL     1     162.489 173.645 153.343  1.00  0.00    -0.000 C 
BRANCH  17  18
ATOM     18  C   UNL     1     162.865 173.474 151.862  1.00  0.00    -0.000 C 
BRANCH  18  19
ATOM     19  C   UNL     1     164.375 173.612 151.617  1.00  0.00    -0.003 C 
ATOM     20  C   UNL     1     165.131 174.089 152.857  1.00  0.00     0.004 C 
ENDBRANCH  18  19
ENDBRANCH  17  18
ENDBRANCH  16  17
ENDBRANCH  15  16
ENDBRANCH  14  15
ENDBRANCH  13  14
ENDBRANCH  12  13
ENDBRANCH   1  12
TORSDOF 16
ENDMDL
MODEL 5
REMARK VINA RESULT:    -3.798      9.256     10.954
REMARK INTER + INTRA:          -9.980
REMARK INTER:                  -7.479
REMARK INTRA:                  -2.501
REMARK UNBOUND:                -2.628
REMARK SMILES CCCCCCCCCCCCCCCCCC(=O)[O-]
REMARK SMILES IDX 10 1 11 2 12 3 13 4 14 5 15 6 16 7 17 8 18 9 19 10 20 11
REMARK SMILES IDX 9 12 8 13 7 14 6 15 5 16 4 17 3 18 2 19 1 20
REMARK H PARENT
REMARK Flexibility Score: inf
ROOT
ATOM      1  C   UNL     1     165.320 174.913 152.661  1.00  0.00     0.000 C 
ENDROOT
BRANCH   1   2
ATOM      2  C   UNL     1     165.012 173.957 151.501  1.00  0.00     0.000 C 
BRANCH   2   3
ATOM      3  C   UNL     1     165.196 174.659 150.147  1.00  0.00     0.000 C 
BRANCH   3   4
ATOM      4  C   UNL     1     166.592 174.433 149.545  1.00  0.00     0.000 C 
BRANCH   4   5
ATOM      5  C   UNL     1     167.196 175.717 148.952  1.00  0.00     0.000 C 
BRANCH   5   6
ATOM      6  C   UNL     1     167.213 176.880 149.955  1.00  0.00     0.000 C 
BRANCH   6   7
ATOM      7  C   UNL     1     168.571 177.041 150.656  1.00  0.00     0.006 C 
BRANCH   7   8
ATOM      8  C   UNL     1     168.530 176.454 152.070  1.00  0.00     0.053 C 
BRANCH   8   9
ATOM      9  C   UNL     1     169.653 176.997 152.896  1.00  0.00     0.041 C 
ATOM     10  O   UNL     1     170.430 177.864 152.416  1.00  0.00    -0.550 OA
ATOM     11  O   UNL     1     169.872 176.510 154.178  1.00  0.00    -0.550 OA
ENDBRANCH   8   9
ENDBRANCH   7   8
ENDBRANCH   6   7
ENDBRANCH   5   6
ENDBRANCH   4   5
ENDBRANCH   3   4
ENDBRANCH   2   3
ENDBRANCH   1   2
BRANCH   1  12
ATOM     12  C   UNL     1     164.197 175.946 152.837  1.00  0.00     0.000 C 
BRANCH  12  13
ATOM     13  C   UNL     1     164.640 177.371 152.473  1.00  0.00    -0.000 C 
BRANCH  13  14
ATOM     14  C   UNL     1     163.907 177.922 151.241  1.00  0.00    -0.000 C 
BRANCH  14  15
ATOM     15  C   UNL     1     162.596 177.163 150.997  1.00  0.00    -0.000 C 
BRANCH  15  16
ATOM     16  C   UNL     1     161.381 178.076 151.220  1.00  0.00    -0.000 C 
BRANCH  16  17
ATOM     17  C   UNL     1     160.126 177.297 151.645  1.00  0.00    -0.000 C 
BRANCH  17  18
ATOM     18  C   UNL     1     160.439 176.165 152.638  1.00  0.00    -0.000 C 
BRANCH  18  19
ATOM     19  C   UNL     1     160.014 174.785 152.112  1.00  0.00    -0.003 C 
ATOM     20  C   UNL     1     161.193 173.825 151.957  1.00  0.00     0.004 C 
ENDBRANCH  18  19
ENDBRANCH  17  18
ENDBRANCH  16  17
ENDBRANCH  15  16
ENDBRANCH  14  15
ENDBRANCH  13  14
ENDBRANCH  12  13
ENDBRANCH   1  12
TORSDOF 16
ENDMDL
MODEL 6
REMARK VINA RESULT:    -3.766      1.997      3.395
REMARK INTER + INTRA:          -9.916
REMARK INTER:                  -7.732
REMARK INTRA:                  -2.184
REMARK UNBOUND:                -2.628
REMARK SMILES CCCCCCCCCCCCCCCCCC(=O)[O-]
REMARK SMILES IDX 10 1 11 2 12 3 13 4 14 5 15 6 16 7 17 8 18 9 19 10 20 11
REMARK SMILES IDX 9 12 8 13 7 14 6 15 5 16 4 17 3 18 2 19 1 20
REMARK H PARENT
REMARK Flexibility Score: inf
ROOT
ATOM      1  C   UNL     1     173.802 175.647 150.749  1.00  0.00     0.000 C 
ENDROOT
BRANCH   1   2
ATOM      2  C   UNL     1     174.663 174.544 151.377  1.00  0.00     0.000 C 
BRANCH   2   3
ATOM      3  C   UNL     1     176.158 174.881 151.265  1.00  0.00     0.000 C 
BRANCH   3   4
ATOM      4  C   UNL     1     177.047 173.628 151.219  1.00  0.00     0.000 C 
BRANCH   4   5
ATOM      5  C   UNL     1     177.061 172.963 149.832  1.00  0.00     0.000 C 
BRANCH   5   6
ATOM      6  C   UNL     1     176.492 171.536 149.856  1.00  0.00     0.000 C 
BRANCH   6   7
ATOM      7  C   UNL     1     176.423 170.947 151.273  1.00  0.00     0.006 C 
BRANCH   7   8
ATOM      8  C   UNL     1     175.478 169.742 151.320  1.00  0.00     0.053 C 
BRANCH   8   9
ATOM      9  C   UNL     1     174.064 170.175 151.097  1.00  0.00     0.041 C 
ATOM     10  O   UNL     1     173.371 169.633 150.195  1.00  0.00    -0.550 OA
ATOM     11  O   UNL     1     173.526 171.211 151.850  1.00  0.00    -0.550 OA
ENDBRANCH   8   9
ENDBRANCH   7   8
ENDBRANCH   6   7
ENDBRANCH   5   6
ENDBRANCH   4   5
ENDBRANCH   3   4
ENDBRANCH   2   3
ENDBRANCH   1   2
BRANCH   1  12
ATOM     12  C   UNL     1     174.499 177.012 150.846  1.00  0.00     0.000 C 
BRANCH  12  13
ATOM     13  C   UNL     1     173.690 178.035 151.658  1.00  0.00    -0.000 C 
BRANCH  13  14
ATOM     14  C   UNL     1     174.110 178.083 153.135  1.00  0.00    -0.000 C 
BRANCH  14  15
ATOM     15  C   UNL     1     175.635 177.999 153.276  1.00  0.00    -0.000 C 
BRANCH  15  16
ATOM     16  C   UNL     1     176.036 176.905 154.276  1.00  0.00    -0.000 C 
BRANCH  16  17
ATOM     17  C   UNL     1     174.826 176.145 154.840  1.00  0.00    -0.000 C 
BRANCH  17  18
ATOM     18  C   UNL     1     175.195 175.241 156.029  1.00  0.00    -0.000 C 
BRANCH  18  19
ATOM     19  C   UNL     1     176.355 174.286 155.705  1.00  0.00    -0.003 C 
ATOM     20  C   UNL     1     177.505 174.398 156.705  1.00  0.00     0.004 C 
ENDBRANCH  18  19
ENDBRANCH  17  18
ENDBRANCH  16  17
ENDBRANCH  15  16
ENDBRANCH  14  15
ENDBRANCH  13  14
ENDBRANCH  12  13
ENDBRANCH   1  12
TORSDOF 16
ENDMDL
MODEL 7
REMARK VINA RESULT:    -3.721      9.882     11.568
REMARK INTER + INTRA:          -9.830
REMARK INTER:                  -7.161
REMARK INTRA:                  -2.669
REMARK UNBOUND:                -2.628
REMARK SMILES CCCCCCCCCCCCCCCCCC(=O)[O-]
REMARK SMILES IDX 10 1 11 2 12 3 13 4 14 5 15 6 16 7 17 8 18 9 19 10 20 11
REMARK SMILES IDX 9 12 8 13 7 14 6 15 5 16 4 17 3 18 2 19 1 20
REMARK H PARENT
REMARK Flexibility Score: inf
ROOT
ATOM      1  C   UNL     1     165.296 174.097 151.296  1.00  0.00     0.000 C 
ENDROOT
BRANCH   1   2
ATOM      2  C   UNL     1     165.604 174.398 149.823  1.00  0.00     0.000 C 
BRANCH   2   3
ATOM      3  C   UNL     1     167.064 174.842 149.646  1.00  0.00     0.000 C 
BRANCH   3   4
ATOM      4  C   UNL     1     167.192 176.332 149.291  1.00  0.00     0.000 C 
BRANCH   4   5
ATOM      5  C   UNL     1     167.816 177.160 150.428  1.00  0.00     0.000 C 
BRANCH   5   6
ATOM      6  C   UNL     1     168.261 176.291 151.615  1.00  0.00     0.000 C 
BRANCH   6   7
ATOM      7  C   UNL     1     168.010 176.965 152.973  1.00  0.00     0.006 C 
BRANCH   7   8
ATOM      8  C   UNL     1     166.677 177.718 152.972  1.00  0.00     0.053 C 
BRANCH   8   9
ATOM      9  C   UNL     1     165.953 177.507 154.264  1.00  0.00     0.041 C 
ATOM     10  O   UNL     1     164.746 177.846 154.376  1.00  0.00    -0.550 OA
ATOM     11  O   UNL     1     166.626 176.982 155.360  1.00  0.00    -0.550 OA
ENDBRANCH   8   9
ENDBRANCH   7   8
ENDBRANCH   6   7
ENDBRANCH   5   6
ENDBRANCH   4   5
ENDBRANCH   3   4
ENDBRANCH   2   3
ENDBRANCH   1   2
BRANCH   1  12
ATOM     12  C   UNL     1     164.300 175.115 151.870  1.00  0.00     0.000 C 
BRANCH  12  13
ATOM     13  C   UNL     1     163.571 175.912 150.777  1.00  0.00    -0.000 C 
BRANCH  13  14
ATOM     14  C   UNL     1     163.439 177.403 151.121  1.00  0.00    -0.000 C 
BRANCH  14  15
ATOM     15  C   UNL     1     161.970 177.791 151.333  1.00  0.00    -0.000 C 
BRANCH  15  16
ATOM     16  C   UNL     1     161.636 177.887 152.829  1.00  0.00    -0.000 C 
BRANCH  16  17
ATOM     17  C   UNL     1     160.389 177.074 153.210  1.00  0.00    -0.000 C 
BRANCH  17  18
ATOM     18  C   UNL     1     160.733 175.656 153.699  1.00  0.00    -0.000 C 
BRANCH  18  19
ATOM     19  C   UNL     1     160.534 174.592 152.609  1.00  0.00    -0.003 C 
ATOM     20  C   UNL     1     159.281 174.838 151.768  1.00  0.00     0.004 C 
ENDBRANCH  18  19
ENDBRANCH  17  18
ENDBRANCH  16  17
ENDBRANCH  15  16
ENDBRANCH  14  15
ENDBRANCH  13  14
ENDBRANCH  12  13
ENDBRANCH   1  12
TORSDOF 16
ENDMDL
MODEL 8
REMARK VINA RESULT:    -3.720      1.922      4.469
REMARK INTER + INTRA:          -9.828
REMARK INTER:                  -7.031
REMARK INTRA:                  -2.797
REMARK UNBOUND:                -2.628
REMARK SMILES CCCCCCCCCCCCCCCCCC(=O)[O-]
REMARK SMILES IDX 10 1 11 2 12 3 13 4 14 5 15 6 16 7 17 8 18 9 19 10 20 11
REMARK SMILES IDX 9 12 8 13 7 14 6 15 5 16 4 17 3 18 2 19 1 20
REMARK H PARENT
REMARK Flexibility Score: inf
ROOT
ATOM      1  C   UNL     1     176.780 172.442 149.634  1.00  0.00     0.000 C 
ENDROOT
BRANCH   1   2
ATOM      2  C   UNL     1     177.033 173.657 150.536  1.00  0.00     0.000 C 
BRANCH   2   3
ATOM      3  C   UNL     1     177.061 173.248 152.016  1.00  0.00     0.000 C 
BRANCH   3   4
ATOM      4  C   UNL     1     176.035 174.016 152.864  1.00  0.00     0.000 C 
BRANCH   4   5
ATOM      5  C   UNL     1     175.258 173.099 153.825  1.00  0.00     0.000 C 
BRANCH   5   6
ATOM      6  C   UNL     1     176.041 171.829 154.192  1.00  0.00     0.000 C 
BRANCH   6   7
ATOM      7  C   UNL     1     175.281 170.540 153.845  1.00  0.00     0.006 C 
BRANCH   7   8
ATOM      8  C   UNL     1     176.015 169.309 154.383  1.00  0.00     0.053 C 
BRANCH   8   9
ATOM      9  C   UNL     1     176.788 168.639 153.291  1.00  0.00     0.041 C 
ATOM     10  O   UNL     1     177.839 169.168 152.843  1.00  0.00    -0.550 OA
ATOM     11  O   UNL     1     176.320 167.456 152.734  1.00  0.00    -0.550 OA
ENDBRANCH   8   9
ENDBRANCH   7   8
ENDBRANCH   6   7
ENDBRANCH   5   6
ENDBRANCH   4   5
ENDBRANCH   3   4
ENDBRANCH   2   3
ENDBRANCH   1   2
BRANCH   1  12
ATOM     12  C   UNL     1     176.393 171.210 150.466  1.00  0.00     0.000 C 
BRANCH  12  13
ATOM     13  C   UNL     1     175.023 170.637 150.074  1.00  0.00    -0.000 C 
BRANCH  13  14
ATOM     14  C   UNL     1     174.067 171.708 149.527  1.00  0.00    -0.000 C 
BRANCH  14  15
ATOM     15  C   UNL     1     173.365 172.452 150.669  1.00  0.00    -0.000 C 
BRANCH  15  16
ATOM     16  C   UNL     1     173.345 173.967 150.410  1.00  0.00    -0.000 C 
BRANCH  16  17
ATOM     17  C   UNL     1     172.671 174.753 151.546  1.00  0.00    -0.000 C 
BRANCH  17  18
ATOM     18  C   UNL     1     172.968 176.261 151.481  1.00  0.00    -0.000 C 
BRANCH  18  19
ATOM     19  C   UNL     1     174.400 176.559 151.011  1.00  0.00    -0.003 C 
ATOM     20  C   UNL     1     174.490 177.833 150.172  1.00  0.00     0.004 C 
ENDBRANCH  18  19
ENDBRANCH  17  18
ENDBRANCH  16  17
ENDBRANCH  15  16
ENDBRANCH  14  15
ENDBRANCH  13  14
ENDBRANCH  12  13
ENDBRANCH   1  12
TORSDOF 16
ENDMDL
MODEL 9
REMARK VINA RESULT:    -3.709     10.434     12.581
REMARK INTER + INTRA:          -9.806
REMARK INTER:                  -7.763
REMARK INTRA:                  -2.043
REMARK UNBOUND:                -2.628
REMARK SMILES CCCCCCCCCCCCCCCCCC(=O)[O-]
REMARK SMILES IDX 10 1 11 2 12 3 13 4 14 5 15 6 16 7 17 8 18 9 19 10 20 11
REMARK SMILES IDX 9 12 8 13 7 14 6 15 5 16 4 17 3 18 2 19 1 20
REMARK H PARENT
REMARK Flexibility Score: inf
ROOT
ATOM      1  C   UNL     1     163.877 175.427 150.850  1.00  0.00     0.000 C 
ENDROOT
BRANCH   1   2
ATOM      2  C   UNL     1     163.864 176.695 151.713  1.00  0.00     0.000 C 
BRANCH   2   3
ATOM      3  C   UNL     1     162.940 177.763 151.108  1.00  0.00     0.000 C 
BRANCH   3   4
ATOM      4  C   UNL     1     161.562 177.205 150.719  1.00  0.00     0.000 C 
BRANCH   4   5
ATOM      5  C   UNL     1     160.489 177.484 151.785  1.00  0.00     0.000 C 
BRANCH   5   6
ATOM      6  C   UNL     1     160.159 176.243 152.629  1.00  0.00     0.000 C 
BRANCH   6   7
ATOM      7  C   UNL     1     159.661 175.062 151.782  1.00  0.00     0.006 C 
BRANCH   7   8
ATOM      8  C   UNL     1     160.667 173.908 151.807  1.00  0.00     0.053 C 
BRANCH   8   9
ATOM      9  C   UNL     1     159.959 172.597 151.933  1.00  0.00     0.041 C 
ATOM     10  O   UNL     1     159.963 171.780 150.974  1.00  0.00    -0.550 OA
ATOM     11  O   UNL     1     159.251 172.297 153.090  1.00  0.00    -0.550 OA
ENDBRANCH   8   9
ENDBRANCH   7   8
ENDBRANCH   6   7
ENDBRANCH   5   6
ENDBRANCH   4   5
ENDBRANCH   3   4
ENDBRANCH   2   3
ENDBRANCH   1   2
BRANCH   1  12
ATOM     12  C   UNL     1     164.767 174.343 151.476  1.00  0.00     0.000 C 
BRANCH  12  13
ATOM     13  C   UNL     1     165.972 173.982 150.593  1.00  0.00    -0.000 C 
BRANCH  13  14
ATOM     14  C   UNL     1     165.970 174.733 149.254  1.00  0.00    -0.000 C 
BRANCH  14  15
ATOM     15  C   UNL     1     167.245 175.571 149.093  1.00  0.00    -0.000 C 
BRANCH  15  16
ATOM     16  C   UNL     1     167.207 176.812 149.998  1.00  0.00    -0.000 C 
BRANCH  16  17
ATOM     17  C   UNL     1     168.523 177.028 150.762  1.00  0.00    -0.000 C 
BRANCH  17  18
ATOM     18  C   UNL     1     168.657 176.103 151.984  1.00  0.00    -0.000 C 
BRANCH  18  19
ATOM     19  C   UNL     1     169.869 175.164 151.883  1.00  0.00    -0.003 C 
ATOM     20  C   UNL     1     169.473 173.688 151.872  1.00  0.00     0.004 C 
ENDBRANCH  18  19
ENDBRANCH  17  18
ENDBRANCH  16  17
ENDBRANCH  15  16
ENDBRANCH  14  15
ENDBRANCH  13  14
ENDBRANCH  12  13
ENDBRANCH   1  12
TORSDOF 16
ENDMDL
