MODEL 1
REMARK VINA RESULT:    -5.066      0.000      0.000
REMARK INTER + INTRA:         -14.078
REMARK INTER:                 -11.581
REMARK INTRA:                  -2.497
REMARK UNBOUND:                -2.497
REMARK SMILES CCCCCCCCCCCCCCCCCCCCCCCC(=O)[O-]
REMARK SMILES IDX 13 1 14 2 15 3 16 4 17 5 18 6 19 7 20 8 21 9 22 10 23 11
REMARK SMILES IDX 24 12 25 13 26 14 12 15 11 16 10 17 9 18 8 19 7 20 6 21 5 22
REMARK SMILES IDX 4 23 3 24 2 25 1 26
REMARK H PARENT
REMARK Flexibility Score: inf
ROOT
ATOM      1  C   UNL     1     -11.170  -4.041  -8.820  1.00  0.00     0.000 C 
ENDROOT
BRANCH   1   2
ATOM      2  C   UNL     1     -10.655  -2.963  -7.851  1.00  0.00     0.000 C 
BRANCH   2   3
ATOM      3  C   UNL     1     -10.595  -1.562  -8.488  1.00  0.00     0.000 C 
BRANCH   3   4
ATOM      4  C   UNL     1     -11.019  -1.493  -9.967  1.00  0.00     0.000 C 
BRANCH   4   5
ATOM      5  C   UNL     1     -12.254  -0.606 -10.196  1.00  0.00     0.000 C 
BRANCH   5   6
ATOM      6  C   UNL     1     -13.523  -1.424 -10.490  1.00  0.00     0.000 C 
BRANCH   6   7
ATOM      7  C   UNL     1     -14.770  -0.547 -10.669  1.00  0.00     0.000 C 
BRANCH   7   8
ATOM      8  C   UNL     1     -14.977   0.365  -9.453  1.00  0.00     0.000 C 
BRANCH   8   9
ATOM      9  C   UNL     1     -15.002   1.843  -9.866  1.00  0.00     0.000 C 
BRANCH   9  10
ATOM     10  C   UNL     1     -13.717   2.599  -9.481  1.00  0.00     0.006 C 
BRANCH  10  11
ATOM     11  C   UNL     1     -13.919   3.655  -8.380  1.00  0.00     0.053 C 
BRANCH  11  12
ATOM     12  C   UNL     1     -12.665   3.941  -7.613  1.00  0.00     0.041 C 
ATOM     13  O   UNL     1     -12.723   4.293  -6.405  1.00  0.00    -0.550 OA
ATOM     14  O   UNL     1     -11.428   3.842  -8.239  1.00  0.00    -0.550 OA
ENDBRANCH  11  12
ENDBRANCH  10  11
ENDBRANCH   9  10
ENDBRANCH   8   9
ENDBRANCH   7   8
ENDBRANCH   6   7
ENDBRANCH   5   6
ENDBRANCH   4   5
ENDBRANCH   3   4
ENDBRANCH   2   3
ENDBRANCH   1   2
BRANCH   1  15
ATOM     15  C   UNL     1     -10.063  -5.011  -9.265  1.00  0.00     0.000 C 
BRANCH  15  16
ATOM     16  C   UNL     1     -10.599  -6.425  -9.552  1.00  0.00     0.000 C 
BRANCH  16  17
ATOM     17  C   UNL     1     -10.690  -7.291  -8.284  1.00  0.00     0.000 C 
BRANCH  17  18
ATOM     18  C   UNL     1     -11.981  -8.124  -8.227  1.00  0.00    -0.000 C 
BRANCH  18  19
ATOM     19  C   UNL     1     -13.132  -7.496  -9.035  1.00  0.00    -0.000 C 
BRANCH  19  20
ATOM     20  C   UNL     1     -13.915  -6.386  -8.305  1.00  0.00    -0.000 C 
BRANCH  20  21
ATOM     21  C   UNL     1     -15.123  -6.872  -7.481  1.00  0.00    -0.000 C 
BRANCH  21  22
ATOM     22  C   UNL     1     -14.917  -6.849  -5.953  1.00  0.00    -0.000 C 
BRANCH  22  23
ATOM     23  C   UNL     1     -13.966  -7.931  -5.409  1.00  0.00    -0.000 C 
BRANCH  23  24
ATOM     24  C   UNL     1     -12.595  -7.416  -4.927  1.00  0.00    -0.000 C 
BRANCH  24  25
ATOM     25  C   UNL     1     -12.297  -5.947  -5.274  1.00  0.00    -0.003 C 
ATOM     26  C   UNL     1     -10.809  -5.605  -5.187  1.00  0.00     0.004 C 
ENDBRANCH  24  25
ENDBRANCH  23  24
ENDBRANCH  22  23
ENDBRANCH  21  22
ENDBRANCH  20  21
ENDBRANCH  19  20
ENDBRANCH  18  19
ENDBRANCH  17  18
ENDBRANCH  16  17
ENDBRANCH  15  16
ENDBRANCH   1  15
TORSDOF 22
ENDMDL
MODEL 2
REMARK VINA RESULT:    -4.647     15.219     18.333
REMARK INTER + INTRA:         -13.121
REMARK INTER:                  -9.580
REMARK INTRA:                  -3.540
REMARK UNBOUND:                -2.497
REMARK SMILES CCCCCCCCCCCCCCCCCCCCCCCC(=O)[O-]
REMARK SMILES IDX 13 1 14 2 15 3 16 4 17 5 18 6 19 7 20 8 21 9 22 10 23 11
REMARK SMILES IDX 24 12 25 13 26 14 12 15 11 16 10 17 9 18 8 19 7 20 6 21 5 22
REMARK SMILES IDX 4 23 3 24 2 25 1 26
REMARK H PARENT
REMARK Flexibility Score: inf
ROOT
ATOM      1  C   UNL     1      -9.168   6.873   6.958  1.00  0.00     0.000 C 
ENDROOT
BRANCH   1   2
ATOM      2  C   UNL     1      -9.142   7.209   5.456  1.00  0.00     0.000 C 
BRANCH   2   3
ATOM      3  C   UNL     1      -8.864   8.698   5.179  1.00  0.00     0.000 C 
BRANCH   3   4
ATOM      4  C   UNL     1      -7.592   9.263   5.839  1.00  0.00     0.000 C 
BRANCH   4   5
ATOM      5  C   UNL     1      -7.591  10.799   5.919  1.00  0.00     0.000 C 
BRANCH   5   6
ATOM      6  C   UNL     1      -8.610  11.339   6.936  1.00  0.00     0.000 C 
BRANCH   6   7
ATOM      7  C   UNL     1      -9.793  12.058   6.270  1.00  0.00     0.000 C 
BRANCH   7   8
ATOM      8  C   UNL     1     -11.103  11.296   6.512  1.00  0.00     0.000 C 
BRANCH   8   9
ATOM      9  C   UNL     1     -12.028  11.385   5.290  1.00  0.00     0.000 C 
BRANCH   9  10
ATOM     10  C   UNL     1     -11.262  11.454   3.956  1.00  0.00     0.006 C 
BRANCH  10  11
ATOM     11  C   UNL     1     -12.070  12.076   2.803  1.00  0.00     0.053 C 
BRANCH  11  12
ATOM     12  C   UNL     1     -12.467  11.071   1.766  1.00  0.00     0.041 C 
ATOM     13  O   UNL     1     -11.749  10.891   0.747  1.00  0.00    -0.550 OA
ATOM     14  O   UNL     1     -13.644  10.348   1.912  1.00  0.00    -0.550 OA
ENDBRANCH  11  12
ENDBRANCH  10  11
ENDBRANCH   9  10
ENDBRANCH   8   9
ENDBRANCH   7   8
ENDBRANCH   6   7
ENDBRANCH   5   6
ENDBRANCH   4   5
ENDBRANCH   3   4
ENDBRANCH   2   3
ENDBRANCH   1   2
BRANCH   1  15
ATOM     15  C   UNL     1      -9.585   5.417   7.228  1.00  0.00     0.000 C 
BRANCH  15  16
ATOM     16  C   UNL     1     -10.313   5.255   8.575  1.00  0.00     0.000 C 
BRANCH  16  17
ATOM     17  C   UNL     1     -11.388   4.156   8.536  1.00  0.00     0.000 C 
BRANCH  17  18
ATOM     18  C   UNL     1     -12.814   4.719   8.665  1.00  0.00    -0.000 C 
BRANCH  18  19
ATOM     19  C   UNL     1     -12.835   6.188   9.124  1.00  0.00    -0.000 C 
BRANCH  19  20
ATOM     20  C   UNL     1     -13.578   7.158   8.184  1.00  0.00    -0.000 C 
BRANCH  20  21
ATOM     21  C   UNL     1     -12.727   7.736   7.036  1.00  0.00    -0.000 C 
BRANCH  21  22
ATOM     22  C   UNL     1     -13.480   7.931   5.705  1.00  0.00    -0.000 C 
BRANCH  22  23
ATOM     23  C   UNL     1     -14.278   6.704   5.224  1.00  0.00    -0.000 C 
BRANCH  23  24
ATOM     24  C   UNL     1     -13.468   5.675   4.410  1.00  0.00    -0.000 C 
BRANCH  24  25
ATOM     25  C   UNL     1     -12.713   4.632   5.252  1.00  0.00    -0.003 C 
ATOM     26  C   UNL     1     -11.447   4.117   4.567  1.00  0.00     0.004 C 
ENDBRANCH  24  25
ENDBRANCH  23  24
ENDBRANCH  22  23
ENDBRANCH  21  22
ENDBRANCH  20  21
ENDBRANCH  19  20
ENDBRANCH  18  19
ENDBRANCH  17  18
ENDBRANCH  16  17
ENDBRANCH  15  16
ENDBRANCH   1  15
TORSDOF 22
ENDMDL
MODEL 3
REMARK VINA RESULT:    -4.566     16.459     19.534
REMARK INTER + INTRA:         -12.935
REMARK INTER:                  -9.939
REMARK INTRA:                  -2.996
REMARK UNBOUND:                -2.497
REMARK SMILES CCCCCCCCCCCCCCCCCCCCCCCC(=O)[O-]
REMARK SMILES IDX 13 1 14 2 15 3 16 4 17 5 18 6 19 7 20 8 21 9 22 10 23 11
REMARK SMILES IDX 24 12 25 13 26 14 12 15 11 16 10 17 9 18 8 19 7 20 6 21 5 22
REMARK SMILES IDX 4 23 3 24 2 25 1 26
REMARK H PARENT
REMARK Flexibility Score: inf
ROOT
ATOM      1  C   UNL     1     -11.377   3.972   8.904  1.00  0.00     0.000 C 
ENDROOT
BRANCH   1   2
ATOM      2  C   UNL     1     -10.982   3.456   7.509  1.00  0.00     0.000 C 
BRANCH   2   3
ATOM      3  C   UNL     1     -11.994   3.844   6.415  1.00  0.00     0.000 C 
BRANCH   3   4
ATOM      4  C   UNL     1     -11.484   4.865   5.381  1.00  0.00     0.000 C 
BRANCH   4   5
ATOM      5  C   UNL     1     -10.080   5.400   5.709  1.00  0.00     0.000 C 
BRANCH   5   6
ATOM      6  C   UNL     1     -10.116   6.792   6.361  1.00  0.00     0.000 C 
BRANCH   6   7
ATOM      7  C   UNL     1      -8.769   7.525   6.278  1.00  0.00     0.000 C 
BRANCH   7   8
ATOM      8  C   UNL     1      -8.745   8.492   5.087  1.00  0.00     0.000 C 
BRANCH   8   9
ATOM      9  C   UNL     1      -8.332   9.903   5.527  1.00  0.00     0.000 C 
BRANCH   9  10
ATOM     10  C   UNL     1      -6.832  10.185   5.324  1.00  0.00     0.006 C 
BRANCH  10  11
ATOM     11  C   UNL     1      -5.977   9.951   6.582  1.00  0.00     0.053 C 
BRANCH  11  12
ATOM     12  C   UNL     1      -6.214  10.981   7.643  1.00  0.00     0.041 C 
ATOM     13  O   UNL     1      -7.166  10.849   8.457  1.00  0.00    -0.550 OA
ATOM     14  O   UNL     1      -5.397  12.102   7.721  1.00  0.00    -0.550 OA
ENDBRANCH  11  12
ENDBRANCH  10  11
ENDBRANCH   9  10
ENDBRANCH   8   9
ENDBRANCH   7   8
ENDBRANCH   6   7
ENDBRANCH   5   6
ENDBRANCH   4   5
ENDBRANCH   3   4
ENDBRANCH   2   3
ENDBRANCH   1   2
BRANCH   1  15
ATOM     15  C   UNL     1     -12.737   4.689   8.902  1.00  0.00     0.000 C 
BRANCH  15  16
ATOM     16  C   UNL     1     -12.602   6.208   9.118  1.00  0.00     0.000 C 
BRANCH  16  17
ATOM     17  C   UNL     1     -13.835   6.986   8.629  1.00  0.00     0.000 C 
BRANCH  17  18
ATOM     18  C   UNL     1     -14.065   6.839   7.115  1.00  0.00    -0.000 C 
BRANCH  18  19
ATOM     19  C   UNL     1     -14.322   8.188   6.418  1.00  0.00    -0.000 C 
BRANCH  19  20
ATOM     20  C   UNL     1     -13.086   8.831   5.757  1.00  0.00    -0.000 C 
BRANCH  20  21
ATOM     21  C   UNL     1     -12.212   9.685   6.697  1.00  0.00    -0.000 C 
BRANCH  21  22
ATOM     22  C   UNL     1     -12.016  11.147   6.249  1.00  0.00    -0.000 C 
BRANCH  22  23
ATOM     23  C   UNL     1     -12.605  11.489   4.867  1.00  0.00    -0.000 C 
BRANCH  23  24
ATOM     24  C   UNL     1     -11.616  11.384   3.689  1.00  0.00    -0.000 C 
BRANCH  24  25
ATOM     25  C   UNL     1     -12.119  11.985   2.365  1.00  0.00    -0.003 C 
ATOM     26  C   UNL     1     -12.070  10.992   1.205  1.00  0.00     0.004 C 
ENDBRANCH  24  25
ENDBRANCH  23  24
ENDBRANCH  22  23
ENDBRANCH  21  22
ENDBRANCH  20  21
ENDBRANCH  19  20
ENDBRANCH  18  19
ENDBRANCH  17  18
ENDBRANCH  16  17
ENDBRANCH  15  16
ENDBRANCH   1  15
TORSDOF 22
ENDMDL
MODEL 4
REMARK VINA RESULT:    -4.562     15.779     19.154
REMARK INTER + INTRA:         -12.926
REMARK INTER:                  -9.514
REMARK INTRA:                  -3.412
REMARK UNBOUND:                -2.497
REMARK SMILES CCCCCCCCCCCCCCCCCCCCCCCC(=O)[O-]
REMARK SMILES IDX 13 1 14 2 15 3 16 4 17 5 18 6 19 7 20 8 21 9 22 10 23 11
REMARK SMILES IDX 24 12 25 13 26 14 12 15 11 16 10 17 9 18 8 19 7 20 6 21 5 22
REMARK SMILES IDX 4 23 3 24 2 25 1 26
REMARK H PARENT
REMARK Flexibility Score: inf
ROOT
ATOM      1  C   UNL     1     -12.874   4.864   4.646  1.00  0.00     0.000 C 
ENDROOT
BRANCH   1   2
ATOM      2  C   UNL     1     -11.903   3.937   5.399  1.00  0.00     0.000 C 
BRANCH   2   3
ATOM      3  C   UNL     1     -12.152   3.911   6.918  1.00  0.00     0.000 C 
BRANCH   3   4
ATOM      4  C   UNL     1     -10.928   3.550   7.779  1.00  0.00     0.000 C 
BRANCH   4   5
ATOM      5  C   UNL     1     -10.431   4.726   8.638  1.00  0.00     0.000 C 
BRANCH   5   6
ATOM      6  C   UNL     1     -10.480   6.067   7.888  1.00  0.00     0.000 C 
BRANCH   6   7
ATOM      7  C   UNL     1      -9.185   6.367   7.117  1.00  0.00     0.000 C 
BRANCH   7   8
ATOM      8  C   UNL     1      -9.493   6.814   5.682  1.00  0.00     0.000 C 
BRANCH   8   9
ATOM      9  C   UNL     1      -8.734   8.100   5.328  1.00  0.00     0.000 C 
BRANCH   9  10
ATOM     10  C   UNL     1      -8.072   8.766   6.548  1.00  0.00     0.006 C 
BRANCH  10  11
ATOM     11  C   UNL     1      -7.990  10.300   6.454  1.00  0.00     0.053 C 
BRANCH  11  12
ATOM     12  C   UNL     1      -6.633  10.783   6.042  1.00  0.00     0.041 C 
ATOM     13  O   UNL     1      -6.234  10.626   4.858  1.00  0.00    -0.550 OA
ATOM     14  O   UNL     1      -5.797  11.388   6.972  1.00  0.00    -0.550 OA
ENDBRANCH  11  12
ENDBRANCH  10  11
ENDBRANCH   9  10
ENDBRANCH   8   9
ENDBRANCH   7   8
ENDBRANCH   6   7
ENDBRANCH   5   6
ENDBRANCH   4   5
ENDBRANCH   3   4
ENDBRANCH   2   3
ENDBRANCH   1   2
BRANCH   1  15
ATOM     15  C   UNL     1     -13.096   6.200   5.374  1.00  0.00     0.000 C 
BRANCH  15  16
ATOM     16  C   UNL     1     -14.440   6.853   5.006  1.00  0.00     0.000 C 
BRANCH  16  17
ATOM     17  C   UNL     1     -14.757   8.083   5.874  1.00  0.00     0.000 C 
BRANCH  17  18
ATOM     18  C   UNL     1     -14.101   8.011   7.263  1.00  0.00    -0.000 C 
BRANCH  18  19
ATOM     19  C   UNL     1     -13.134   9.180   7.527  1.00  0.00    -0.000 C 
BRANCH  19  20
ATOM     20  C   UNL     1     -12.043   9.382   6.457  1.00  0.00    -0.000 C 
BRANCH  20  21
ATOM     21  C   UNL     1     -11.657  10.850   6.186  1.00  0.00    -0.000 C 
BRANCH  21  22
ATOM     22  C   UNL     1     -11.198  11.145   4.744  1.00  0.00    -0.000 C 
BRANCH  22  23
ATOM     23  C   UNL     1     -12.260  11.809   3.847  1.00  0.00    -0.000 C 
BRANCH  23  24
ATOM     24  C   UNL     1     -13.406  10.882   3.393  1.00  0.00    -0.000 C 
BRANCH  24  25
ATOM     25  C   UNL     1     -13.358  10.470   1.912  1.00  0.00    -0.003 C 
ATOM     26  C   UNL     1     -12.112  10.983   1.191  1.00  0.00     0.004 C 
ENDBRANCH  24  25
ENDBRANCH  23  24
ENDBRANCH  22  23
ENDBRANCH  21  22
ENDBRANCH  20  21
ENDBRANCH  19  20
ENDBRANCH  18  19
ENDBRANCH  17  18
ENDBRANCH  16  17
ENDBRANCH  15  16
ENDBRANCH   1  15
TORSDOF 22
ENDMDL
MODEL 5
REMARK VINA RESULT:    -4.507     15.169     18.344
REMARK INTER + INTRA:         -12.800
REMARK INTER:                  -9.673
REMARK INTRA:                  -3.127
REMARK UNBOUND:                -2.497
REMARK SMILES CCCCCCCCCCCCCCCCCCCCCCCC(=O)[O-]
REMARK SMILES IDX 13 1 14 2 15 3 16 4 17 5 18 6 19 7 20 8 21 9 22 10 23 11
REMARK SMILES IDX 24 12 25 13 26 14 12 15 11 16 10 17 9 18 8 19 7 20 6 21 5 22
REMARK SMILES IDX 4 23 3 24 2 25 1 26
REMARK H PARENT
REMARK Flexibility Score: inf
ROOT
ATOM      1  C   UNL     1      -8.745   7.899   5.218  1.00  0.00     0.000 C 
ENDROOT
BRANCH   1   2
ATOM      2  C   UNL     1      -7.879   8.786   6.129  1.00  0.00     0.000 C 
BRANCH   2   3
ATOM      3  C   UNL     1      -7.176   9.926   5.368  1.00  0.00     0.000 C 
BRANCH   3   4
ATOM      4  C   UNL     1      -7.701  11.341   5.674  1.00  0.00     0.000 C 
BRANCH   4   5
ATOM      5  C   UNL     1      -8.967  11.335   6.547  1.00  0.00     0.000 C 
BRANCH   5   6
ATOM      6  C   UNL     1     -10.247  11.585   5.732  1.00  0.00     0.000 C 
BRANCH   6   7
ATOM      7  C   UNL     1     -11.514  11.600   6.601  1.00  0.00     0.000 C 
BRANCH   7   8
ATOM      8  C   UNL     1     -12.561  10.619   6.057  1.00  0.00     0.000 C 
BRANCH   8   9
ATOM      9  C   UNL     1     -13.329  11.228   4.876  1.00  0.00     0.000 C 
BRANCH   9  10
ATOM     10  C   UNL     1     -13.472  10.261   3.687  1.00  0.00     0.006 C 
BRANCH  10  11
ATOM     11  C   UNL     1     -13.578  10.962   2.321  1.00  0.00     0.053 C 
BRANCH  11  12
ATOM     12  C   UNL     1     -12.244  11.372   1.775  1.00  0.00     0.041 C 
ATOM     13  O   UNL     1     -11.895  11.020   0.617  1.00  0.00    -0.550 OA
ATOM     14  O   UNL     1     -11.375  12.125   2.555  1.00  0.00    -0.550 OA
ENDBRANCH  11  12
ENDBRANCH  10  11
ENDBRANCH   9  10
ENDBRANCH   8   9
ENDBRANCH   7   8
ENDBRANCH   6   7
ENDBRANCH   5   6
ENDBRANCH   4   5
ENDBRANCH   3   4
ENDBRANCH   2   3
ENDBRANCH   1   2
BRANCH   1  15
ATOM     15  C   UNL     1      -9.957   7.304   5.954  1.00  0.00     0.000 C 
BRANCH  15  16
ATOM     16  C   UNL     1      -9.562   6.163   6.910  1.00  0.00     0.000 C 
BRANCH  16  17
ATOM     17  C   UNL     1     -10.198   4.819   6.519  1.00  0.00     0.000 C 
BRANCH  17  18
ATOM     18  C   UNL     1     -10.700   4.026   7.738  1.00  0.00    -0.000 C 
BRANCH  18  19
ATOM     19  C   UNL     1     -11.285   4.930   8.838  1.00  0.00    -0.000 C 
BRANCH  19  20
ATOM     20  C   UNL     1     -12.825   5.003   8.876  1.00  0.00    -0.000 C 
BRANCH  20  21
ATOM     21  C   UNL     1     -13.407   6.410   9.113  1.00  0.00    -0.000 C 
BRANCH  21  22
ATOM     22  C   UNL     1     -13.131   7.425   7.986  1.00  0.00    -0.000 C 
BRANCH  22  23
ATOM     23  C   UNL     1     -14.074   7.321   6.772  1.00  0.00    -0.000 C 
BRANCH  23  24
ATOM     24  C   UNL     1     -13.378   7.053   5.423  1.00  0.00    -0.000 C 
BRANCH  24  25
ATOM     25  C   UNL     1     -13.433   5.592   4.944  1.00  0.00    -0.003 C 
ATOM     26  C   UNL     1     -14.031   5.446   3.545  1.00  0.00     0.004 C 
ENDBRANCH  24  25
ENDBRANCH  23  24
ENDBRANCH  22  23
ENDBRANCH  21  22
ENDBRANCH  20  21
ENDBRANCH  19  20
ENDBRANCH  18  19
ENDBRANCH  17  18
ENDBRANCH  16  17
ENDBRANCH  15  16
ENDBRANCH   1  15
TORSDOF 22
ENDMDL
MODEL 6
REMARK VINA RESULT:    -4.488     15.654     19.716
REMARK INTER + INTRA:         -12.756
REMARK INTER:                  -9.213
REMARK INTRA:                  -3.543
REMARK UNBOUND:                -2.497
REMARK SMILES CCCCCCCCCCCCCCCCCCCCCCCC(=O)[O-]
REMARK SMILES IDX 13 1 14 2 15 3 16 4 17 5 18 6 19 7 20 8 21 9 22 10 23 11
REMARK SMILES IDX 24 12 25 13 26 14 12 15 11 16 10 17 9 18 8 19 7 20 6 21 5 22
REMARK SMILES IDX 4 23 3 24 2 25 1 26
REMARK H PARENT
REMARK Flexibility Score: inf
ROOT
ATOM      1  C   UNL     1      -7.022  10.864   7.669  1.00  0.00     0.000 C 
ENDROOT
BRANCH   1   2
ATOM      2  C   UNL     1      -6.375   9.875   6.684  1.00  0.00     0.000 C 
BRANCH   2   3
ATOM      3  C   UNL     1      -7.050   9.877   5.300  1.00  0.00     0.000 C 
BRANCH   3   4
ATOM      4  C   UNL     1      -8.061   8.741   5.061  1.00  0.00     0.000 C 
BRANCH   4   5
ATOM      5  C   UNL     1      -8.418   7.975   6.347  1.00  0.00     0.000 C 
BRANCH   5   6
ATOM      6  C   UNL     1      -9.587   6.997   6.147  1.00  0.00     0.000 C 
BRANCH   6   7
ATOM      7  C   UNL     1      -9.390   5.670   6.894  1.00  0.00     0.000 C 
BRANCH   7   8
ATOM      8  C   UNL     1     -10.213   5.643   8.189  1.00  0.00     0.000 C 
BRANCH   8   9
ATOM      9  C   UNL     1     -10.958   4.310   8.343  1.00  0.00     0.000 C 
BRANCH   9  10
ATOM     10  C   UNL     1     -11.326   3.664   6.995  1.00  0.00     0.006 C 
BRANCH  10  11
ATOM     11  C   UNL     1     -12.515   4.336   6.284  1.00  0.00     0.053 C 
BRANCH  11  12
ATOM     12  C   UNL     1     -12.281   4.525   4.817  1.00  0.00     0.041 C 
ATOM     13  O   UNL     1     -13.209   4.940   4.073  1.00  0.00    -0.550 OA
ATOM     14  O   UNL     1     -11.044   4.219   4.264  1.00  0.00    -0.550 OA
ENDBRANCH  11  12
ENDBRANCH  10  11
ENDBRANCH   9  10
ENDBRANCH   8   9
ENDBRANCH   7   8
ENDBRANCH   6   7
ENDBRANCH   5   6
ENDBRANCH   4   5
ENDBRANCH   3   4
ENDBRANCH   2   3
ENDBRANCH   1   2
BRANCH   1  15
ATOM     15  C   UNL     1      -7.832  11.960   6.957  1.00  0.00     0.000 C 
BRANCH  15  16
ATOM     16  C   UNL     1      -9.250  12.114   7.537  1.00  0.00     0.000 C 
BRANCH  16  17
ATOM     17  C   UNL     1     -10.291  11.267   6.786  1.00  0.00     0.000 C 
BRANCH  17  18
ATOM     18  C   UNL     1     -10.554  11.781   5.360  1.00  0.00    -0.000 C 
BRANCH  18  19
ATOM     19  C   UNL     1     -11.522  10.880   4.571  1.00  0.00    -0.000 C 
BRANCH  19  20
ATOM     20  C   UNL     1     -12.993  11.342   4.568  1.00  0.00    -0.000 C 
BRANCH  20  21
ATOM     21  C   UNL     1     -13.626  11.514   5.963  1.00  0.00    -0.000 C 
BRANCH  21  22
ATOM     22  C   UNL     1     -14.492  10.328   6.434  1.00  0.00    -0.000 C 
BRANCH  22  23
ATOM     23  C   UNL     1     -14.563   9.145   5.449  1.00  0.00    -0.000 C 
BRANCH  23  24
ATOM     24  C   UNL     1     -13.745   7.904   5.857  1.00  0.00    -0.000 C 
BRANCH  24  25
ATOM     25  C   UNL     1     -12.940   8.057   7.160  1.00  0.00    -0.003 C 
ATOM     26  C   UNL     1     -13.532   7.259   8.321  1.00  0.00     0.004 C 
ENDBRANCH  24  25
ENDBRANCH  23  24
ENDBRANCH  22  23
ENDBRANCH  21  22
ENDBRANCH  20  21
ENDBRANCH  19  20
ENDBRANCH  18  19
ENDBRANCH  17  18
ENDBRANCH  16  17
ENDBRANCH  15  16
ENDBRANCH   1  15
TORSDOF 22
ENDMDL
MODEL 7
REMARK VINA RESULT:    -4.358     15.374     18.216
REMARK INTER + INTRA:         -12.460
REMARK INTER:                  -9.164
REMARK INTRA:                  -3.296
REMARK UNBOUND:                -2.497
REMARK SMILES CCCCCCCCCCCCCCCCCCCCCCCC(=O)[O-]
REMARK SMILES IDX 13 1 14 2 15 3 16 4 17 5 18 6 19 7 20 8 21 9 22 10 23 11
REMARK SMILES IDX 24 12 25 13 26 14 12 15 11 16 10 17 9 18 8 19 7 20 6 21 5 22
REMARK SMILES IDX 4 23 3 24 2 25 1 26
REMARK H PARENT
REMARK Flexibility Score: inf
ROOT
ATOM      1  C   UNL     1      -9.248   7.187   5.770  1.00  0.00     0.000 C 
ENDROOT
BRANCH   1   2
ATOM      2  C   UNL     1      -8.194   8.128   6.380  1.00  0.00     0.000 C 
BRANCH   2   3
ATOM      3  C   UNL     1      -7.615   9.125   5.359  1.00  0.00     0.000 C 
BRANCH   3   4
ATOM      4  C   UNL     1      -6.649  10.174   5.939  1.00  0.00     0.000 C 
BRANCH   4   5
ATOM      5  C   UNL     1      -7.310  11.547   6.148  1.00  0.00     0.000 C 
BRANCH   5   6
ATOM      6  C   UNL     1      -8.767  11.434   6.627  1.00  0.00     0.000 C 
BRANCH   6   7
ATOM      7  C   UNL     1      -9.774  11.989   5.608  1.00  0.00     0.000 C 
BRANCH   7   8
ATOM      8  C   UNL     1     -10.847  10.944   5.276  1.00  0.00     0.000 C 
BRANCH   8   9
ATOM      9  C   UNL     1     -12.255  11.547   5.374  1.00  0.00     0.000 C 
BRANCH   9  10
ATOM     10  C   UNL     1     -13.092  11.339   4.099  1.00  0.00     0.006 C 
BRANCH  10  11
ATOM     11  C   UNL     1     -12.386  11.791   2.808  1.00  0.00     0.053 C 
BRANCH  11  12
ATOM     12  C   UNL     1     -12.619  10.856   1.661  1.00  0.00     0.041 C 
ATOM     13  O   UNL     1     -13.597  10.063   1.676  1.00  0.00    -0.550 OA
ATOM     14  O   UNL     1     -11.741  10.843   0.584  1.00  0.00    -0.550 OA
ENDBRANCH  11  12
ENDBRANCH  10  11
ENDBRANCH   9  10
ENDBRANCH   8   9
ENDBRANCH   7   8
ENDBRANCH   6   7
ENDBRANCH   5   6
ENDBRANCH   4   5
ENDBRANCH   3   4
ENDBRANCH   2   3
ENDBRANCH   1   2
BRANCH   1  15
ATOM     15  C   UNL     1     -10.645   7.396   6.376  1.00  0.00     0.000 C 
BRANCH  15  16
ATOM     16  C   UNL     1     -11.022   6.292   7.381  1.00  0.00     0.000 C 
BRANCH  16  17
ATOM     17  C   UNL     1     -10.367   4.942   7.047  1.00  0.00     0.000 C 
BRANCH  17  18
ATOM     18  C   UNL     1     -11.398   3.816   6.853  1.00  0.00    -0.000 C 
BRANCH  18  19
ATOM     19  C   UNL     1     -12.666   4.290   6.119  1.00  0.00    -0.000 C 
BRANCH  19  20
ATOM     20  C   UNL     1     -12.462   4.670   4.638  1.00  0.00    -0.000 C 
BRANCH  20  21
ATOM     21  C   UNL     1     -13.629   5.446   3.996  1.00  0.00    -0.000 C 
BRANCH  21  22
ATOM     22  C   UNL     1     -14.444   6.317   4.973  1.00  0.00    -0.000 C 
BRANCH  22  23
ATOM     23  C   UNL     1     -14.004   7.791   5.053  1.00  0.00    -0.000 C 
BRANCH  23  24
ATOM     24  C   UNL     1     -14.665   8.612   6.177  1.00  0.00    -0.000 C 
BRANCH  24  25
ATOM     25  C   UNL     1     -14.154   8.300   7.595  1.00  0.00    -0.003 C 
ATOM     26  C   UNL     1     -13.353   9.450   8.205  1.00  0.00     0.004 C 
ENDBRANCH  24  25
ENDBRANCH  23  24
ENDBRANCH  22  23
ENDBRANCH  21  22
ENDBRANCH  20  21
ENDBRANCH  19  20
ENDBRANCH  18  19
ENDBRANCH  17  18
ENDBRANCH  16  17
ENDBRANCH  15  16
ENDBRANCH   1  15
TORSDOF 22
ENDMDL
MODEL 8
REMARK VINA RESULT:    -4.314     16.570     18.937
REMARK INTER + INTRA:         -12.359
REMARK INTER:                  -9.978
REMARK INTRA:                  -2.381
REMARK UNBOUND:                -2.497
REMARK SMILES CCCCCCCCCCCCCCCCCCCCCCCC(=O)[O-]
REMARK SMILES IDX 13 1 14 2 15 3 16 4 17 5 18 6 19 7 20 8 21 9 22 10 23 11
REMARK SMILES IDX 24 12 25 13 26 14 12 15 11 16 10 17 9 18 8 19 7 20 6 21 5 22
REMARK SMILES IDX 4 23 3 24 2 25 1 26
REMARK H PARENT
REMARK Flexibility Score: inf
ROOT
ATOM      1  C   UNL     1     -12.447   4.162   8.382  1.00  0.00     0.000 C 
ENDROOT
BRANCH   1   2
ATOM      2  C   UNL     1     -12.388   5.547   9.050  1.00  0.00     0.000 C 
BRANCH   2   3
ATOM      3  C   UNL     1     -13.593   6.437   8.694  1.00  0.00     0.000 C 
BRANCH   3   4
ATOM      4  C   UNL     1     -13.315   7.532   7.648  1.00  0.00     0.000 C 
BRANCH   4   5
ATOM      5  C   UNL     1     -13.491   7.038   6.202  1.00  0.00     0.000 C 
BRANCH   5   6
ATOM      6  C   UNL     1     -14.474   7.904   5.398  1.00  0.00     0.000 C 
BRANCH   6   7
ATOM      7  C   UNL     1     -13.882   9.264   4.998  1.00  0.00     0.000 C 
BRANCH   7   8
ATOM      8  C   UNL     1     -14.837  10.407   5.368  1.00  0.00     0.000 C 
BRANCH   8   9
ATOM      9  C   UNL     1     -14.984  11.402   4.209  1.00  0.00     0.000 C 
BRANCH   9  10
ATOM     10  C   UNL     1     -14.617  10.795   2.842  1.00  0.00     0.006 C 
BRANCH  10  11
ATOM     11  C   UNL     1     -13.764  11.722   1.956  1.00  0.00     0.053 C 
BRANCH  11  12
ATOM     12  C   UNL     1     -12.328  11.303   1.894  1.00  0.00     0.041 C 
ATOM     13  O   UNL     1     -11.586  11.418   2.905  1.00  0.00    -0.550 OA
ATOM     14  O   UNL     1     -11.799  10.805   0.709  1.00  0.00    -0.550 OA
ENDBRANCH  11  12
ENDBRANCH  10  11
ENDBRANCH   9  10
ENDBRANCH   8   9
ENDBRANCH   7   8
ENDBRANCH   6   7
ENDBRANCH   5   6
ENDBRANCH   4   5
ENDBRANCH   3   4
ENDBRANCH   2   3
ENDBRANCH   1   2
BRANCH   1  15
ATOM     15  C   UNL     1     -11.105   3.755   7.751  1.00  0.00     0.000 C 
BRANCH  15  16
ATOM     16  C   UNL     1     -10.838   4.481   6.419  1.00  0.00     0.000 C 
BRANCH  16  17
ATOM     17  C   UNL     1      -9.568   5.346   6.462  1.00  0.00     0.000 C 
BRANCH  17  18
ATOM     18  C   UNL     1      -9.879   6.851   6.525  1.00  0.00    -0.000 C 
BRANCH  18  19
ATOM     19  C   UNL     1      -8.619   7.727   6.393  1.00  0.00    -0.000 C 
BRANCH  19  20
ATOM     20  C   UNL     1      -8.636   8.726   5.219  1.00  0.00    -0.000 C 
BRANCH  20  21
ATOM     21  C   UNL     1      -9.525   9.968   5.430  1.00  0.00    -0.000 C 
BRANCH  21  22
ATOM     22  C   UNL     1      -8.872  11.101   6.246  1.00  0.00    -0.000 C 
BRANCH  22  23
ATOM     23  C   UNL     1      -7.364  11.293   6.001  1.00  0.00    -0.000 C 
BRANCH  23  24
ATOM     24  C   UNL     1      -6.443  10.695   7.084  1.00  0.00    -0.000 C 
BRANCH  24  25
ATOM     25  C   UNL     1      -5.189   9.983   6.547  1.00  0.00    -0.003 C 
ATOM     26  C   UNL     1      -4.434  10.811   5.508  1.00  0.00     0.004 C 
ENDBRANCH  24  25
ENDBRANCH  23  24
ENDBRANCH  22  23
ENDBRANCH  21  22
ENDBRANCH  20  21
ENDBRANCH  19  20
ENDBRANCH  18  19
ENDBRANCH  17  18
ENDBRANCH  16  17
ENDBRANCH  15  16
ENDBRANCH   1  15
TORSDOF 22
ENDMDL
MODEL 9
REMARK VINA RESULT:    -4.220     16.638     19.589
REMARK INTER + INTRA:         -12.144
REMARK INTER:                  -7.862
REMARK INTRA:                  -4.282
REMARK UNBOUND:                -2.497
REMARK SMILES CCCCCCCCCCCCCCCCCCCCCCCC(=O)[O-]
REMARK SMILES IDX 13 1 14 2 15 3 16 4 17 5 18 6 19 7 20 8 21 9 22 10 23 11
REMARK SMILES IDX 24 12 25 13 26 14 12 15 11 16 10 17 9 18 8 19 7 20 6 21 5 22
REMARK SMILES IDX 4 23 3 24 2 25 1 26
REMARK H PARENT
REMARK Flexibility Score: inf
ROOT
ATOM      1  C   UNL     1     -11.424   3.714   6.366  1.00  0.00     0.000 C 
ENDROOT
BRANCH   1   2
ATOM      2  C   UNL     1     -10.827   4.921   5.620  1.00  0.00     0.000 C 
BRANCH   2   3
ATOM      3  C   UNL     1      -9.492   5.399   6.223  1.00  0.00     0.000 C 
BRANCH   3   4
ATOM      4  C   UNL     1      -9.519   6.809   6.840  1.00  0.00     0.000 C 
BRANCH   4   5
ATOM      5  C   UNL     1      -9.486   7.927   5.784  1.00  0.00     0.000 C 
BRANCH   5   6
ATOM      6  C   UNL     1     -10.408   9.104   6.141  1.00  0.00     0.000 C 
BRANCH   6   7
ATOM      7  C   UNL     1     -10.124  10.360   5.303  1.00  0.00     0.000 C 
BRANCH   7   8
ATOM      8  C   UNL     1     -10.441  11.632   6.100  1.00  0.00     0.000 C 
BRANCH   8   9
ATOM      9  C   UNL     1      -9.583  11.718   7.370  1.00  0.00     0.000 C 
BRANCH   9  10
ATOM     10  C   UNL     1      -8.081  11.880   7.074  1.00  0.00     0.006 C 
BRANCH  10  11
ATOM     11  C   UNL     1      -7.231  10.656   7.460  1.00  0.00     0.053 C 
BRANCH  11  12
ATOM     12  C   UNL     1      -6.303  10.227   6.366  1.00  0.00     0.041 C 
ATOM     13  O   UNL     1      -6.722  10.110   5.184  1.00  0.00    -0.550 OA
ATOM     14  O   UNL     1      -4.976   9.932   6.654  1.00  0.00    -0.550 OA
ENDBRANCH  11  12
ENDBRANCH  10  11
ENDBRANCH   9  10
ENDBRANCH   8   9
ENDBRANCH   7   8
ENDBRANCH   6   7
ENDBRANCH   5   6
ENDBRANCH   4   5
ENDBRANCH   3   4
ENDBRANCH   2   3
ENDBRANCH   1   2
BRANCH   1  15
ATOM     15  C   UNL     1     -11.354   3.873   7.893  1.00  0.00     0.000 C 
BRANCH  15  16
ATOM     16  C   UNL     1     -12.575   4.617   8.464  1.00  0.00     0.000 C 
BRANCH  16  17
ATOM     17  C   UNL     1     -12.233   6.040   8.934  1.00  0.00     0.000 C 
BRANCH  17  18
ATOM     18  C   UNL     1     -13.074   7.116   8.225  1.00  0.00    -0.000 C 
BRANCH  18  19
ATOM     19  C   UNL     1     -13.805   6.577   6.981  1.00  0.00    -0.000 C 
BRANCH  19  20
ATOM     20  C   UNL     1     -13.554   7.367   5.681  1.00  0.00    -0.000 C 
BRANCH  20  21
ATOM     21  C   UNL     1     -14.460   8.598   5.479  1.00  0.00    -0.000 C 
BRANCH  21  22
ATOM     22  C   UNL     1     -13.816   9.753   4.687  1.00  0.00    -0.000 C 
BRANCH  22  23
ATOM     23  C   UNL     1     -14.023  11.153   5.296  1.00  0.00    -0.000 C 
BRANCH  23  24
ATOM     24  C   UNL     1     -14.599  11.166   6.726  1.00  0.00    -0.000 C 
BRANCH  24  25
ATOM     25  C   UNL     1     -13.698  11.831   7.781  1.00  0.00    -0.003 C 
ATOM     26  C   UNL     1     -13.032  10.822   8.717  1.00  0.00     0.004 C 
ENDBRANCH  24  25
ENDBRANCH  23  24
ENDBRANCH  22  23
ENDBRANCH  21  22
ENDBRANCH  20  21
ENDBRANCH  19  20
ENDBRANCH  18  19
ENDBRANCH  17  18
ENDBRANCH  16  17
ENDBRANCH  15  16
ENDBRANCH   1  15
TORSDOF 22
ENDMDL
