MODEL 1
REMARK VINA RESULT:    -2.949      0.000      0.000
REMARK INTER + INTRA:          -3.543
REMARK INTER:                  -3.467
REMARK INTRA:                  -0.076
REMARK UNBOUND:                -0.076
REMARK SMILES CCCCC(=O)[O-]
REMARK SMILES IDX 4 1 5 2 6 3 7 4 3 5 2 6 1 7
REMARK H PARENT
REMARK Flexibility Score: inf
ROOT
ATOM      1  C   UNL     1     185.280 187.868 191.524  1.00  0.00     0.053 C 
ENDROOT
BRANCH   1   2
ATOM      2  C   UNL     1     185.763 186.615 192.184  1.00  0.00     0.041 C 
ATOM      3  O   UNL     1     186.070 185.612 191.489  1.00  0.00    -0.550 OA
ATOM      4  O   UNL     1     185.827 186.539 193.569  1.00  0.00    -0.550 OA
ENDBRANCH   1   2
BRANCH   1   5
ATOM      5  C   UNL     1     183.901 187.646 190.895  1.00  0.00     0.006 C 
BRANCH   5   6
ATOM      6  C   UNL     1     182.830 187.452 191.974  1.00  0.00    -0.003 C 
ATOM      7  C   UNL     1     181.460 187.194 191.352  1.00  0.00     0.004 C 
ENDBRANCH   5   6
ENDBRANCH   1   5
TORSDOF 3
ENDMDL
MODEL 2
REMARK VINA RESULT:    -2.949      8.200      9.600
REMARK INTER + INTRA:          -3.542
REMARK INTER:                  -3.433
REMARK INTRA:                  -0.109
REMARK UNBOUND:                -0.076
REMARK SMILES CCCCC(=O)[O-]
REMARK SMILES IDX 4 1 5 2 6 3 7 4 3 5 2 6 1 7
REMARK H PARENT
REMARK Flexibility Score: inf
ROOT
ATOM      1  C   UNL     1     193.105 182.702 188.963  1.00  0.00     0.053 C 
ENDROOT
BRANCH   1   2
ATOM      2  C   UNL     1     193.470 181.871 190.154  1.00  0.00     0.041 C 
ATOM      3  O   UNL     1     192.716 180.935 190.527  1.00  0.00    -0.550 OA
ATOM      4  O   UNL     1     194.618 182.163 190.880  1.00  0.00    -0.550 OA
ENDBRANCH   1   2
BRANCH   1   5
ATOM      5  C   UNL     1     193.181 184.192 189.306  1.00  0.00     0.006 C 
BRANCH   5   6
ATOM      6  C   UNL     1     192.084 184.582 190.304  1.00  0.00    -0.003 C 
ATOM      7  C   UNL     1     190.700 184.219 189.772  1.00  0.00     0.004 C 
ENDBRANCH   5   6
ENDBRANCH   1   5
TORSDOF 3
ENDMDL
MODEL 3
REMARK VINA RESULT:    -2.948      7.696      8.831
REMARK INTER + INTRA:          -3.541
REMARK INTER:                  -3.510
REMARK INTRA:                  -0.032
REMARK UNBOUND:                -0.076
REMARK SMILES CCCCC(=O)[O-]
REMARK SMILES IDX 4 1 5 2 6 3 7 4 3 5 2 6 1 7
REMARK H PARENT
REMARK Flexibility Score: inf
ROOT
ATOM      1  C   UNL     1     192.308 182.968 189.200  1.00  0.00     0.053 C 
ENDROOT
BRANCH   1   2
ATOM      2  C   UNL     1     193.113 182.094 190.109  1.00  0.00     0.041 C 
ATOM      3  O   UNL     1     192.650 180.991 190.499  1.00  0.00    -0.550 OA
ATOM      4  O   UNL     1     194.353 182.522 190.567  1.00  0.00    -0.550 OA
ENDBRANCH   1   2
BRANCH   1   5
ATOM      5  C   UNL     1     191.733 184.159 189.971  1.00  0.00     0.006 C 
BRANCH   5   6
ATOM      6  C   UNL     1     190.200 184.154 189.926  1.00  0.00    -0.003 C 
ATOM      7  C   UNL     1     189.685 184.744 188.617  1.00  0.00     0.004 C 
ENDBRANCH   5   6
ENDBRANCH   1   5
TORSDOF 3
ENDMDL
MODEL 4
REMARK VINA RESULT:    -2.929      8.174      8.723
REMARK INTER + INTRA:          -3.518
REMARK INTER:                  -3.451
REMARK INTRA:                  -0.067
REMARK UNBOUND:                -0.076
REMARK SMILES CCCCC(=O)[O-]
REMARK SMILES IDX 4 1 5 2 6 3 7 4 3 5 2 6 1 7
REMARK H PARENT
REMARK Flexibility Score: inf
ROOT
ATOM      1  C   UNL     1     186.265 194.181 190.388  1.00  0.00     0.053 C 
ENDROOT
BRANCH   1   2
ATOM      2  C   UNL     1     187.555 194.111 189.633  1.00  0.00     0.041 C 
ATOM      3  O   UNL     1     187.588 193.604 188.482  1.00  0.00    -0.550 OA
ATOM      4  O   UNL     1     188.730 194.560 190.222  1.00  0.00    -0.550 OA
ENDBRANCH   1   2
BRANCH   1   5
ATOM      5  C   UNL     1     185.238 195.018 189.620  1.00  0.00     0.006 C 
BRANCH   5   6
ATOM      6  C   UNL     1     184.815 196.248 190.432  1.00  0.00    -0.003 C 
ATOM      7  C   UNL     1     185.830 197.379 190.290  1.00  0.00     0.004 C 
ENDBRANCH   5   6
ENDBRANCH   1   5
TORSDOF 3
ENDMDL
MODEL 5
REMARK VINA RESULT:    -2.922      7.475      9.294
REMARK INTER + INTRA:          -3.510
REMARK INTER:                  -3.437
REMARK INTRA:                  -0.073
REMARK UNBOUND:                -0.076
REMARK SMILES CCCCC(=O)[O-]
REMARK SMILES IDX 4 1 5 2 6 3 7 4 3 5 2 6 1 7
REMARK H PARENT
REMARK Flexibility Score: inf
ROOT
ATOM      1  C   UNL     1     192.399 184.591 190.293  1.00  0.00     0.053 C 
ENDROOT
BRANCH   1   2
ATOM      2  C   UNL     1     191.073 184.510 189.604  1.00  0.00     0.041 C 
ATOM      3  O   UNL     1     190.071 184.053 190.212  1.00  0.00    -0.550 OA
ATOM      4  O   UNL     1     190.957 184.893 188.274  1.00  0.00    -0.550 OA
ENDBRANCH   1   2
BRANCH   1   5
ATOM      5  C   UNL     1     193.446 183.764 189.541  1.00  0.00     0.006 C 
BRANCH   5   6
ATOM      6  C   UNL     1     193.967 182.615 190.412  1.00  0.00    -0.003 C 
ATOM      7  C   UNL     1     193.005 181.430 190.395  1.00  0.00     0.004 C 
ENDBRANCH   5   6
ENDBRANCH   1   5
TORSDOF 3
ENDMDL
MODEL 6
REMARK VINA RESULT:    -2.889      8.515      9.411
REMARK INTER + INTRA:          -3.471
REMARK INTER:                  -3.385
REMARK INTRA:                  -0.086
REMARK UNBOUND:                -0.076
REMARK SMILES CCCCC(=O)[O-]
REMARK SMILES IDX 4 1 5 2 6 3 7 4 3 5 2 6 1 7
REMARK H PARENT
REMARK Flexibility Score: inf
ROOT
ATOM      1  C   UNL     1     184.929 195.007 189.713  1.00  0.00     0.053 C 
ENDROOT
BRANCH   1   2
ATOM      2  C   UNL     1     184.733 196.267 190.498  1.00  0.00     0.041 C 
ATOM      3  O   UNL     1     183.680 196.439 191.165  1.00  0.00    -0.550 OA
ATOM      4  O   UNL     1     185.692 197.270 190.452  1.00  0.00    -0.550 OA
ENDBRANCH   1   2
BRANCH   1   5
ATOM      5  C   UNL     1     186.021 194.143 190.349  1.00  0.00     0.006 C 
BRANCH   5   6
ATOM      6  C   UNL     1     187.187 193.928 189.377  1.00  0.00    -0.003 C 
ATOM      7  C   UNL     1     188.461 194.596 189.888  1.00  0.00     0.004 C 
ENDBRANCH   5   6
ENDBRANCH   1   5
TORSDOF 3
ENDMDL
MODEL 7
REMARK VINA RESULT:    -2.739     10.067     10.774
REMARK INTER + INTRA:          -3.295
REMARK INTER:                  -3.274
REMARK INTRA:                  -0.021
REMARK UNBOUND:                -0.076
REMARK SMILES CCCCC(=O)[O-]
REMARK SMILES IDX 4 1 5 2 6 3 7 4 3 5 2 6 1 7
REMARK H PARENT
REMARK Flexibility Score: inf
ROOT
ATOM      1  C   UNL     1     185.064 182.583 202.054  1.00  0.00     0.053 C 
ENDROOT
BRANCH   1   2
ATOM      2  C   UNL     1     185.893 183.437 201.147  1.00  0.00     0.041 C 
ATOM      3  O   UNL     1     185.407 183.878 200.074  1.00  0.00    -0.550 OA
ATOM      4  O   UNL     1     187.219 183.703 201.464  1.00  0.00    -0.550 OA
ENDBRANCH   1   2
BRANCH   1   5
ATOM      5  C   UNL     1     183.844 182.035 201.308  1.00  0.00     0.006 C 
BRANCH   5   6
ATOM      6  C   UNL     1     183.146 180.941 202.124  1.00  0.00    -0.003 C 
ATOM      7  C   UNL     1     182.172 180.145 201.261  1.00  0.00     0.004 C 
ENDBRANCH   5   6
ENDBRANCH   1   5
TORSDOF 3
ENDMDL
MODEL 8
REMARK VINA RESULT:    -2.731      8.878      9.566
REMARK INTER + INTRA:          -3.286
REMARK INTER:                  -3.191
REMARK INTRA:                  -0.095
REMARK UNBOUND:                -0.076
REMARK SMILES CCCCC(=O)[O-]
REMARK SMILES IDX 4 1 5 2 6 3 7 4 3 5 2 6 1 7
REMARK H PARENT
REMARK Flexibility Score: inf
ROOT
ATOM      1  C   UNL     1     183.717 182.231 199.475  1.00  0.00     0.053 C 
ENDROOT
BRANCH   1   2
ATOM      2  C   UNL     1     184.829 183.190 199.183  1.00  0.00     0.041 C 
ATOM      3  O   UNL     1     185.612 183.548 200.100  1.00  0.00    -0.550 OA
ATOM      4  O   UNL     1     184.968 183.726 197.909  1.00  0.00    -0.550 OA
ENDBRANCH   1   2
BRANCH   1   5
ATOM      5  C   UNL     1     182.548 182.954 200.149  1.00  0.00     0.006 C 
BRANCH   5   6
ATOM      6  C   UNL     1     182.271 182.373 201.540  1.00  0.00    -0.003 C 
ATOM      7  C   UNL     1     183.069 181.092 201.771  1.00  0.00     0.004 C 
ENDBRANCH   5   6
ENDBRANCH   1   5
TORSDOF 3
ENDMDL
MODEL 9
REMARK VINA RESULT:    -2.729     10.378     11.838
REMARK INTER + INTRA:          -3.283
REMARK INTER:                  -3.247
REMARK INTRA:                  -0.036
REMARK UNBOUND:                -0.076
REMARK SMILES CCCCC(=O)[O-]
REMARK SMILES IDX 4 1 5 2 6 3 7 4 3 5 2 6 1 7
REMARK H PARENT
REMARK Flexibility Score: inf
ROOT
ATOM      1  C   UNL     1     194.956 191.557 192.390  1.00  0.00     0.053 C 
ENDROOT
BRANCH   1   2
ATOM      2  C   UNL     1     193.476 191.465 192.594  1.00  0.00     0.041 C 
ATOM      3  O   UNL     1     192.914 192.165 193.475  1.00  0.00    -0.550 OA
ATOM      4  O   UNL     1     192.726 190.567 191.845  1.00  0.00    -0.550 OA
ENDBRANCH   1   2
BRANCH   1   5
ATOM      5  C   UNL     1     195.325 191.165 190.957  1.00  0.00     0.006 C 
BRANCH   5   6
ATOM      6  C   UNL     1     196.765 190.643 190.884  1.00  0.00    -0.003 C 
ATOM      7  C   UNL     1     197.675 191.402 191.846  1.00  0.00     0.004 C 
ENDBRANCH   5   6
ENDBRANCH   1   5
TORSDOF 3
ENDMDL
