MODEL 1
REMARK VINA RESULT:    -4.994      0.000      0.000
REMARK INTER + INTRA:          -8.044
REMARK INTER:                  -7.038
REMARK INTRA:                  -1.006
REMARK UNBOUND:                -1.006
REMARK SMILES OCC1=C[C@@H](O)[C@H]2C=CO[C@@H](O[C@H]3O[C@H](CO)[C@H](O)[C@H](O)[C@H]3O)[C@H]12
REMARK SMILES IDX 12 1 11 2 8 3 9 4 7 5 10 6 24 7 5 8 3 9 4 10 6 11 2 13 1 14
REMARK SMILES IDX 13 16 22 17 14 18 20 19 15 20 18 21 23 22 21 24 16 26 17 27
REMARK SMILES IDX 19 29
REMARK H PARENT 6 12 1 15 23 23 21 25 17 28 19 30
REMARK Flexibility Score: inf
ROOT
ATOM      1  O   UNL     1      -5.707  92.391 -12.019  1.00  0.00    -0.310 OA
ENDROOT
BRANCH   1   2
ATOM      2  C   UNL     1      -4.905  92.184 -10.872  1.00  0.00     0.316 C 
ATOM      3  C   UNL     1      -5.017  91.298  -8.094  1.00  0.00     0.018 C 
ATOM      4  C   UNL     1      -5.102  90.400  -9.088  1.00  0.00     0.186 C 
ATOM      5  C   UNL     1      -4.661  92.699  -8.475  1.00  0.00     0.061 C 
ATOM      6  O   UNL     1      -5.019  90.807 -10.443  1.00  0.00    -0.472 OA
ATOM      7  C   UNL     1      -5.420  93.080  -9.737  1.00  0.00     0.096 C 
ATOM      8  C   UNL     1      -4.924  93.868  -7.527  1.00  0.00     0.145 C 
ATOM      9  C   UNL     1      -5.215  94.561  -9.759  1.00  0.00    -0.036 C 
ATOM     10  C   UNL     1      -5.017  95.000  -8.511  1.00  0.00     0.007 C 
BRANCH   8  11
ATOM     11  O   UNL     1      -6.147  93.727  -6.856  1.00  0.00    -0.388 OA
ATOM     12  H   UNL     1      -6.025  94.136  -5.960  1.00  0.00     0.211 HD
ENDBRANCH   8  11
BRANCH   9  13
ATOM     13  C   UNL     1      -5.443  95.466 -10.935  1.00  0.00     0.187 C 
BRANCH  13  14
ATOM     14  O   UNL     1      -4.448  95.241 -11.894  1.00  0.00    -0.392 OA
ATOM     15  H   UNL     1      -4.356  94.258 -11.980  1.00  0.00     0.211 HD
ENDBRANCH  13  14
ENDBRANCH   9  13
ENDBRANCH   1   2
BRANCH   1  16
ATOM     16  C   UNL     1      -5.361  91.493 -13.059  1.00  0.00     0.286 C 
ATOM     17  C   UNL     1      -4.091  92.026 -13.750  1.00  0.00     0.202 C 
ATOM     18  O   UNL     1      -6.436  91.411 -13.986  1.00  0.00    -0.341 OA
ATOM     19  C   UNL     1      -3.689  91.096 -14.901  1.00  0.00     0.179 C 
ATOM     20  C   UNL     1      -6.183  90.481 -15.032  1.00  0.00     0.178 C 
ATOM     21  C   UNL     1      -4.900  90.844 -15.826  1.00  0.00     0.177 C 
BRANCH  17  22
ATOM     22  O   UNL     1      -4.319  93.319 -14.256  1.00  0.00    -0.385 OA
ATOM     23  H   UNL     1      -5.083  93.699 -13.748  1.00  0.00     0.211 HD
ENDBRANCH  17  22
BRANCH  19  24
ATOM     24  O   UNL     1      -3.189  89.890 -14.380  1.00  0.00    -0.387 OA
ATOM     25  H   UNL     1      -2.263  89.786 -14.723  1.00  0.00     0.211 HD
ENDBRANCH  19  24
BRANCH  20  26
ATOM     26  C   UNL     1      -6.267  89.019 -14.535  1.00  0.00     0.191 C 
BRANCH  26  27
ATOM     27  O   UNL     1      -7.576  88.713 -14.127  1.00  0.00    -0.394 OA
ATOM     28  H   UNL     1      -7.629  87.727 -14.020  1.00  0.00     0.210 HD
ENDBRANCH  26  27
ENDBRANCH  20  26
BRANCH  21  29
ATOM     29  O   UNL     1      -4.608  89.853 -16.777  1.00  0.00    -0.387 OA
ATOM     30  H   UNL     1      -4.184  89.099 -16.287  1.00  0.00     0.211 HD
ENDBRANCH  21  29
ENDBRANCH   1  16
TORSDOF 10
ENDMDL
MODEL 2
REMARK VINA RESULT:    -4.993      2.977      5.443
REMARK INTER + INTRA:          -8.042
REMARK INTER:                  -6.745
REMARK INTRA:                  -1.297
REMARK UNBOUND:                -1.006
REMARK SMILES OCC1=C[C@@H](O)[C@H]2C=CO[C@@H](O[C@H]3O[C@H](CO)[C@H](O)[C@H](O)[C@H]3O)[C@H]12
REMARK SMILES IDX 12 1 11 2 8 3 9 4 7 5 10 6 24 7 5 8 3 9 4 10 6 11 2 13 1 14
REMARK SMILES IDX 13 16 22 17 14 18 20 19 15 20 18 21 23 22 21 24 16 26 17 27
REMARK SMILES IDX 19 29
REMARK H PARENT 6 12 1 15 23 23 21 25 17 28 19 30
REMARK Flexibility Score: inf
ROOT
ATOM      1  O   UNL     1      -6.388  91.263 -16.484  1.00  0.00    -0.310 OA
ENDROOT
BRANCH   1   2
ATOM      2  C   UNL     1      -6.774  92.139 -15.443  1.00  0.00     0.316 C 
ATOM      3  C   UNL     1      -6.081  94.668 -14.162  1.00  0.00     0.018 C 
ATOM      4  C   UNL     1      -6.678  94.667 -15.364  1.00  0.00     0.186 C 
ATOM      5  C   UNL     1      -5.990  93.357 -13.450  1.00  0.00     0.061 C 
ATOM      6  O   UNL     1      -7.050  93.451 -15.989  1.00  0.00    -0.472 OA
ATOM      7  C   UNL     1      -5.613  92.273 -14.448  1.00  0.00     0.096 C 
ATOM      8  C   UNL     1      -5.006  93.148 -12.299  1.00  0.00     0.145 C 
ATOM      9  C   UNL     1      -5.241  91.153 -13.530  1.00  0.00    -0.036 C 
ATOM     10  C   UNL     1      -4.829  91.656 -12.360  1.00  0.00     0.007 C 
BRANCH   8  11
ATOM     11  O   UNL     1      -3.777  93.777 -12.547  1.00  0.00    -0.388 OA
ATOM     12  H   UNL     1      -3.188  93.091 -12.957  1.00  0.00     0.211 HD
ENDBRANCH   8  11
BRANCH   9  13
ATOM     13  C   UNL     1      -5.098  89.708 -13.912  1.00  0.00     0.187 C 
BRANCH  13  14
ATOM     14  O   UNL     1      -3.822  89.494 -14.449  1.00  0.00    -0.392 OA
ATOM     15  H   UNL     1      -3.180  89.922 -13.828  1.00  0.00     0.211 HD
ENDBRANCH  13  14
ENDBRANCH   9  13
ENDBRANCH   1   2
BRANCH   1  16
ATOM     16  C   UNL     1      -5.194  91.698 -17.109  1.00  0.00     0.286 C 
ATOM     17  C   UNL     1      -5.549  92.213 -18.517  1.00  0.00     0.202 C 
ATOM     18  O   UNL     1      -4.283  90.611 -17.190  1.00  0.00    -0.341 OA
ATOM     19  C   UNL     1      -4.280  92.677 -19.243  1.00  0.00     0.179 C 
ATOM     20  C   UNL     1      -3.034  90.988 -17.757  1.00  0.00     0.178 C 
ATOM     21  C   UNL     1      -3.204  91.572 -19.185  1.00  0.00     0.177 C 
BRANCH  17  22
ATOM     22  O   UNL     1      -6.166  91.195 -19.265  1.00  0.00    -0.385 OA
ATOM     23  H   UNL     1      -5.489  90.482 -19.401  1.00  0.00     0.211 HD
ENDBRANCH  17  22
BRANCH  19  24
ATOM     24  O   UNL     1      -3.815  93.870 -18.664  1.00  0.00    -0.387 OA
ATOM     25  H   UNL     1      -3.194  94.288 -19.315  1.00  0.00     0.211 HD
ENDBRANCH  19  24
BRANCH  20  26
ATOM     26  C   UNL     1      -2.195  91.846 -16.782  1.00  0.00     0.191 C 
BRANCH  26  27
ATOM     27  O   UNL     1      -1.876  91.110 -15.629  1.00  0.00    -0.394 OA
ATOM     28  H   UNL     1      -2.723  90.959 -15.132  1.00  0.00     0.210 HD
ENDBRANCH  26  27
ENDBRANCH  20  26
BRANCH  21  29
ATOM     29  O   UNL     1      -1.975  92.041 -19.679  1.00  0.00    -0.387 OA
ATOM     30  H   UNL     1      -1.761  91.497 -20.482  1.00  0.00     0.211 HD
ENDBRANCH  21  29
ENDBRANCH   1  16
TORSDOF 10
ENDMDL
MODEL 3
REMARK VINA RESULT:    -4.948      1.808      3.764
REMARK INTER + INTRA:          -7.979
REMARK INTER:                  -6.633
REMARK INTRA:                  -1.347
REMARK UNBOUND:                -1.006
REMARK SMILES OCC1=C[C@@H](O)[C@H]2C=CO[C@@H](O[C@H]3O[C@H](CO)[C@H](O)[C@H](O)[C@H]3O)[C@H]12
REMARK SMILES IDX 12 1 11 2 8 3 9 4 7 5 10 6 24 7 5 8 3 9 4 10 6 11 2 13 1 14
REMARK SMILES IDX 13 16 22 17 14 18 20 19 15 20 18 21 23 22 21 24 16 26 17 27
REMARK SMILES IDX 19 29
REMARK H PARENT 6 12 1 15 23 23 21 25 17 28 19 30
REMARK Flexibility Score: inf
ROOT
ATOM      1  O   UNL     1      -7.138  92.111 -11.068  1.00  0.00    -0.310 OA
ENDROOT
BRANCH   1   2
ATOM      2  C   UNL     1      -6.812  93.486 -10.993  1.00  0.00     0.316 C 
ATOM      3  C   UNL     1      -5.284  95.584 -12.327  1.00  0.00     0.018 C 
ATOM      4  C   UNL     1      -6.430  95.141 -12.868  1.00  0.00     0.186 C 
ATOM      5  C   UNL     1      -4.959  95.110 -10.946  1.00  0.00     0.061 C 
ATOM      6  O   UNL     1      -7.202  94.146 -12.220  1.00  0.00    -0.472 OA
ATOM      7  C   UNL     1      -5.291  93.630 -10.838  1.00  0.00     0.096 C 
ATOM      8  C   UNL     1      -3.538  95.204 -10.391  1.00  0.00     0.145 C 
ATOM      9  C   UNL     1      -4.601  93.273  -9.560  1.00  0.00    -0.036 C 
ATOM     10  C   UNL     1      -3.576  94.110  -9.361  1.00  0.00     0.007 C 
BRANCH   8  11
ATOM     11  O   UNL     1      -2.579  94.898 -11.367  1.00  0.00    -0.388 OA
ATOM     12  H   UNL     1      -2.596  95.644 -12.022  1.00  0.00     0.211 HD
ENDBRANCH   8  11
BRANCH   9  13
ATOM     13  C   UNL     1      -4.834  92.033  -8.747  1.00  0.00     0.187 C 
BRANCH  13  14
ATOM     14  O   UNL     1      -4.620  90.904  -9.547  1.00  0.00    -0.392 OA
ATOM     15  H   UNL     1      -4.232  90.209  -8.957  1.00  0.00     0.211 HD
ENDBRANCH  13  14
ENDBRANCH   9  13
ENDBRANCH   1   2
BRANCH   1  16
ATOM     16  C   UNL     1      -6.627  91.524 -12.251  1.00  0.00     0.286 C 
ATOM     17  C   UNL     1      -7.821  91.102 -13.130  1.00  0.00     0.202 C 
ATOM     18  O   UNL     1      -5.835  90.394 -11.911  1.00  0.00    -0.341 OA
ATOM     19  C   UNL     1      -7.317  90.440 -14.418  1.00  0.00     0.179 C 
ATOM     20  C   UNL     1      -5.240  89.784 -13.049  1.00  0.00     0.178 C 
ATOM     21  C   UNL     1      -6.307  89.322 -14.078  1.00  0.00     0.177 C 
BRANCH  17  22
ATOM     22  O   UNL     1      -8.642  90.199 -12.433  1.00  0.00    -0.385 OA
ATOM     23  H   UNL     1      -8.892  90.634 -11.577  1.00  0.00     0.211 HD
ENDBRANCH  17  22
BRANCH  19  24
ATOM     24  O   UNL     1      -6.737  91.410 -15.252  1.00  0.00    -0.387 OA
ATOM     25  H   UNL     1      -6.877  92.291 -14.817  1.00  0.00     0.211 HD
ENDBRANCH  19  24
BRANCH  20  26
ATOM     26  C   UNL     1      -4.088  90.639 -13.625  1.00  0.00     0.191 C 
BRANCH  26  27
ATOM     27  O   UNL     1      -3.116  89.818 -14.221  1.00  0.00    -0.394 OA
ATOM     28  H   UNL     1      -2.271  89.947 -13.715  1.00  0.00     0.210 HD
ENDBRANCH  26  27
ENDBRANCH  20  26
BRANCH  21  29
ATOM     29  O   UNL     1      -5.695  88.827 -15.241  1.00  0.00    -0.387 OA
ATOM     30  H   UNL     1      -5.564  87.851 -15.105  1.00  0.00     0.211 HD
ENDBRANCH  21  29
ENDBRANCH   1  16
TORSDOF 10
ENDMDL
MODEL 4
REMARK VINA RESULT:    -4.928      8.510     11.175
REMARK INTER + INTRA:          -7.950
REMARK INTER:                  -7.126
REMARK INTRA:                  -0.824
REMARK UNBOUND:                -1.006
REMARK SMILES OCC1=C[C@@H](O)[C@H]2C=CO[C@@H](O[C@H]3O[C@H](CO)[C@H](O)[C@H](O)[C@H]3O)[C@H]12
REMARK SMILES IDX 12 1 11 2 8 3 9 4 7 5 10 6 24 7 5 8 3 9 4 10 6 11 2 13 1 14
REMARK SMILES IDX 13 16 22 17 14 18 20 19 15 20 18 21 23 22 21 24 16 26 17 27
REMARK SMILES IDX 19 29
REMARK H PARENT 6 12 1 15 23 23 21 25 17 28 19 30
REMARK Flexibility Score: inf
ROOT
ATOM      1  O   UNL     1      -9.123  82.901  -8.471  1.00  0.00    -0.310 OA
ENDROOT
BRANCH   1   2
ATOM      2  C   UNL     1      -8.774  84.225  -8.118  1.00  0.00     0.316 C 
ATOM      3  C   UNL     1      -9.134  87.010  -8.913  1.00  0.00     0.018 C 
ATOM      4  C   UNL     1     -10.139  86.346  -8.321  1.00  0.00     0.186 C 
ATOM      5  C   UNL     1      -7.801  86.333  -8.945  1.00  0.00     0.061 C 
ATOM      6  O   UNL     1      -9.974  85.003  -7.900  1.00  0.00    -0.472 OA
ATOM      7  C   UNL     1      -7.998  84.862  -9.279  1.00  0.00     0.096 C 
ATOM      8  C   UNL     1      -6.708  86.782  -9.914  1.00  0.00     0.145 C 
ATOM      9  C   UNL     1      -6.597  84.450  -9.600  1.00  0.00    -0.036 C 
ATOM     10  C   UNL     1      -5.908  85.515 -10.028  1.00  0.00     0.007 C 
BRANCH   8  11
ATOM     11  O   UNL     1      -7.235  87.119 -11.170  1.00  0.00    -0.388 OA
ATOM     12  H   UNL     1      -8.023  87.697 -10.998  1.00  0.00     0.211 HD
ENDBRANCH   8  11
BRANCH   9  13
ATOM     13  C   UNL     1      -6.088  83.040  -9.683  1.00  0.00     0.187 C 
BRANCH  13  14
ATOM     14  O   UNL     1      -4.935  83.008 -10.477  1.00  0.00    -0.392 OA
ATOM     15  H   UNL     1      -4.514  83.902 -10.398  1.00  0.00     0.211 HD
ENDBRANCH  13  14
ENDBRANCH   9  13
ENDBRANCH   1   2
BRANCH   1  16
ATOM     16  C   UNL     1     -10.524  82.703  -8.408  1.00  0.00     0.286 C 
ATOM     17  C   UNL     1     -10.814  81.673  -7.298  1.00  0.00     0.202 C 
ATOM     18  O   UNL     1     -10.989  82.226  -9.664  1.00  0.00    -0.341 OA
ATOM     19  C   UNL     1     -12.322  81.410  -7.206  1.00  0.00     0.179 C 
ATOM     20  C   UNL     1     -12.400  82.057  -9.695  1.00  0.00     0.178 C 
ATOM     21  C   UNL     1     -12.885  81.066  -8.603  1.00  0.00     0.177 C 
BRANCH  17  22
ATOM     22  O   UNL     1     -10.147  80.466  -7.569  1.00  0.00    -0.385 OA
ATOM     23  H   UNL     1      -9.797  80.126  -6.704  1.00  0.00     0.211 HD
ENDBRANCH  17  22
BRANCH  19  24
ATOM     24  O   UNL     1     -12.966  82.534  -6.663  1.00  0.00    -0.387 OA
ATOM     25  H   UNL     1     -12.502  82.754  -5.813  1.00  0.00     0.211 HD
ENDBRANCH  19  24
BRANCH  20  26
ATOM     26  C   UNL     1     -13.141  83.413  -9.737  1.00  0.00     0.191 C 
BRANCH  26  27
ATOM     27  O   UNL     1     -14.257  83.338 -10.588  1.00  0.00    -0.394 OA
ATOM     28  H   UNL     1     -14.263  84.163 -11.141  1.00  0.00     0.210 HD
ENDBRANCH  26  27
ENDBRANCH  20  26
BRANCH  21  29
ATOM     29  O   UNL     1     -14.288  81.002  -8.577  1.00  0.00    -0.387 OA
ATOM     30  H   UNL     1     -14.558  80.985  -7.621  1.00  0.00     0.211 HD
ENDBRANCH  21  29
ENDBRANCH   1  16
TORSDOF 10
ENDMDL
MODEL 5
REMARK VINA RESULT:    -4.921      7.721      9.888
REMARK INTER + INTRA:          -7.941
REMARK INTER:                  -6.838
REMARK INTRA:                  -1.103
REMARK UNBOUND:                -1.006
REMARK SMILES OCC1=C[C@@H](O)[C@H]2C=CO[C@@H](O[C@H]3O[C@H](CO)[C@H](O)[C@H](O)[C@H]3O)[C@H]12
REMARK SMILES IDX 12 1 11 2 8 3 9 4 7 5 10 6 24 7 5 8 3 9 4 10 6 11 2 13 1 14
REMARK SMILES IDX 13 16 22 17 14 18 20 19 15 20 18 21 23 22 21 24 16 26 17 27
REMARK SMILES IDX 19 29
REMARK H PARENT 6 12 1 15 23 23 21 25 17 28 19 30
REMARK Flexibility Score: inf
ROOT
ATOM      1  O   UNL     1      -8.540  85.386  -8.734  1.00  0.00    -0.310 OA
ENDROOT
BRANCH   1   2
ATOM      2  C   UNL     1      -9.471  84.423  -8.280  1.00  0.00     0.316 C 
ATOM      3  C   UNL     1     -10.958  82.057  -9.122  1.00  0.00     0.018 C 
ATOM      4  C   UNL     1      -9.643  81.968  -8.868  1.00  0.00     0.186 C 
ATOM      5  C   UNL     1     -11.633  83.340  -8.757  1.00  0.00     0.061 C 
ATOM      6  O   UNL     1      -8.910  83.097  -8.428  1.00  0.00    -0.472 OA
ATOM      7  C   UNL     1     -10.735  84.504  -9.148  1.00  0.00     0.096 C 
ATOM      8  C   UNL     1     -12.992  83.716  -9.347  1.00  0.00     0.145 C 
ATOM      9  C   UNL     1     -11.686  85.652  -9.034  1.00  0.00    -0.036 C 
ATOM     10  C   UNL     1     -12.936  85.213  -9.225  1.00  0.00     0.007 C 
BRANCH   8  11
ATOM     11  O   UNL     1     -13.086  83.359 -10.700  1.00  0.00    -0.388 OA
ATOM     12  H   UNL     1     -13.920  82.827 -10.793  1.00  0.00     0.211 HD
ENDBRANCH   8  11
BRANCH   9  13
ATOM     13  C   UNL     1     -11.314  87.105  -8.973  1.00  0.00     0.187 C 
BRANCH  13  14
ATOM     14  O   UNL     1     -10.363  87.383  -9.963  1.00  0.00    -0.392 OA
ATOM     15  H   UNL     1      -9.547  87.689  -9.491  1.00  0.00     0.211 HD
ENDBRANCH  13  14
ENDBRANCH   9  13
ENDBRANCH   1   2
BRANCH   1  16
ATOM     16  C   UNL     1      -7.214  84.893  -8.670  1.00  0.00     0.286 C 
ATOM     17  C   UNL     1      -6.434  85.747  -7.652  1.00  0.00     0.202 C 
ATOM     18  O   UNL     1      -6.617  84.980  -9.956  1.00  0.00    -0.341 OA
ATOM     19  C   UNL     1      -4.981  85.262  -7.563  1.00  0.00     0.179 C 
ATOM     20  C   UNL     1      -5.299  84.448  -9.983  1.00  0.00     0.178 C 
ATOM     21  C   UNL     1      -4.366  85.174  -8.977  1.00  0.00     0.177 C 
BRANCH  17  22
ATOM     22  O   UNL     1      -6.449  87.099  -8.039  1.00  0.00    -0.385 OA
ATOM     23  H   UNL     1      -5.711  87.224  -8.691  1.00  0.00     0.211 HD
ENDBRANCH  17  22
BRANCH  19  24
ATOM     24  O   UNL     1      -4.938  84.018  -6.913  1.00  0.00    -0.387 OA
ATOM     25  H   UNL     1      -4.697  84.192  -5.966  1.00  0.00     0.211 HD
ENDBRANCH  19  24
BRANCH  20  26
ATOM     26  C   UNL     1      -5.300  82.904  -9.894  1.00  0.00     0.191 C 
BRANCH  26  27
ATOM     27  O   UNL     1      -4.185  82.373 -10.565  1.00  0.00    -0.394 OA
ATOM     28  H   UNL     1      -4.195  81.390 -10.421  1.00  0.00     0.210 HD
ENDBRANCH  26  27
ENDBRANCH  20  26
BRANCH  21  29
ATOM     29  O   UNL     1      -3.103  84.559  -8.938  1.00  0.00    -0.387 OA
ATOM     30  H   UNL     1      -3.151  83.847  -8.246  1.00  0.00     0.211 HD
ENDBRANCH  21  29
ENDBRANCH   1  16
TORSDOF 10
ENDMDL
MODEL 6
REMARK VINA RESULT:    -4.866      4.028      8.921
REMARK INTER + INTRA:          -7.864
REMARK INTER:                  -7.022
REMARK INTRA:                  -0.842
REMARK UNBOUND:                -1.006
REMARK SMILES OCC1=C[C@@H](O)[C@H]2C=CO[C@@H](O[C@H]3O[C@H](CO)[C@H](O)[C@H](O)[C@H]3O)[C@H]12
REMARK SMILES IDX 12 1 11 2 8 3 9 4 7 5 10 6 24 7 5 8 3 9 4 10 6 11 2 13 1 14
REMARK SMILES IDX 13 16 22 17 14 18 20 19 15 20 18 21 23 22 21 24 16 26 17 27
REMARK SMILES IDX 19 29
REMARK H PARENT 6 12 1 15 23 23 21 25 17 28 19 30
REMARK Flexibility Score: inf
ROOT
ATOM      1  O   UNL     1      -4.420  91.132 -18.111  1.00  0.00    -0.310 OA
ENDROOT
BRANCH   1   2
ATOM      2  C   UNL     1      -4.263  92.352 -18.808  1.00  0.00     0.316 C 
ATOM      3  C   UNL     1      -5.363  93.928 -21.005  1.00  0.00     0.018 C 
ATOM      4  C   UNL     1      -6.029  93.840 -19.842  1.00  0.00     0.186 C 
ATOM      5  C   UNL     1      -3.976  93.370 -21.034  1.00  0.00     0.061 C 
ATOM      6  O   UNL     1      -5.497  93.106 -18.754  1.00  0.00    -0.472 OA
ATOM      7  C   UNL     1      -3.955  92.049 -20.281  1.00  0.00     0.096 C 
ATOM      8  C   UNL     1      -3.281  93.046 -22.356  1.00  0.00     0.145 C 
ATOM      9  C   UNL     1      -2.630  91.498 -20.704  1.00  0.00    -0.036 C 
ATOM     10  C   UNL     1      -2.302  92.002 -21.899  1.00  0.00     0.007 C 
BRANCH   8  11
ATOM     11  O   UNL     1      -4.169  92.482 -23.284  1.00  0.00    -0.388 OA
ATOM     12  H   UNL     1      -4.075  91.497 -23.200  1.00  0.00     0.211 HD
ENDBRANCH   8  11
BRANCH   9  13
ATOM     13  C   UNL     1      -1.890  90.373 -20.041  1.00  0.00     0.187 C 
BRANCH  13  14
ATOM     14  O   UNL     1      -2.237  89.163 -20.655  1.00  0.00    -0.392 OA
ATOM     15  H   UNL     1      -3.050  89.343 -21.193  1.00  0.00     0.211 HD
ENDBRANCH  13  14
ENDBRANCH   9  13
ENDBRANCH   1   2
BRANCH   1  16
ATOM     16  C   UNL     1      -4.738  91.353 -16.749  1.00  0.00     0.286 C 
ATOM     17  C   UNL     1      -3.474  91.876 -16.040  1.00  0.00     0.202 C 
ATOM     18  O   UNL     1      -5.169  90.132 -16.163  1.00  0.00    -0.341 OA
ATOM     19  C   UNL     1      -3.764  92.111 -14.553  1.00  0.00     0.179 C 
ATOM     20  C   UNL     1      -5.561  90.288 -14.805  1.00  0.00     0.178 C 
ATOM     21  C   UNL     1      -4.406  90.851 -13.934  1.00  0.00     0.177 C 
BRANCH  17  22
ATOM     22  O   UNL     1      -2.426  90.948 -16.168  1.00  0.00    -0.385 OA
ATOM     23  H   UNL     1      -1.747  91.357 -16.767  1.00  0.00     0.211 HD
ENDBRANCH  17  22
BRANCH  19  24
ATOM     24  O   UNL     1      -4.601  93.230 -14.406  1.00  0.00    -0.387 OA
ATOM     25  H   UNL     1      -5.536  92.896 -14.390  1.00  0.00     0.211 HD
ENDBRANCH  19  24
BRANCH  20  26
ATOM     26  C   UNL     1      -6.912  91.030 -14.678  1.00  0.00     0.191 C 
BRANCH  26  27
ATOM     27  O   UNL     1      -7.600  90.605 -13.529  1.00  0.00    -0.394 OA
ATOM     28  H   UNL     1      -6.923  90.254 -12.892  1.00  0.00     0.210 HD
ENDBRANCH  26  27
ENDBRANCH  20  26
BRANCH  21  29
ATOM     29  O   UNL     1      -4.849  91.104 -12.625  1.00  0.00    -0.387 OA
ATOM     30  H   UNL     1      -5.821  90.897 -12.605  1.00  0.00     0.211 HD
ENDBRANCH  21  29
ENDBRANCH   1  16
TORSDOF 10
ENDMDL
MODEL 7
REMARK VINA RESULT:    -4.810      2.654      5.101
REMARK INTER + INTRA:          -7.784
REMARK INTER:                  -6.657
REMARK INTRA:                  -1.127
REMARK UNBOUND:                -1.006
REMARK SMILES OCC1=C[C@@H](O)[C@H]2C=CO[C@@H](O[C@H]3O[C@H](CO)[C@H](O)[C@H](O)[C@H]3O)[C@H]12
REMARK SMILES IDX 12 1 11 2 8 3 9 4 7 5 10 6 24 7 5 8 3 9 4 10 6 11 2 13 1 14
REMARK SMILES IDX 13 16 22 17 14 18 20 19 15 20 18 21 23 22 21 24 16 26 17 27
REMARK SMILES IDX 19 29
REMARK H PARENT 6 12 1 15 23 23 21 25 17 28 19 30
REMARK Flexibility Score: inf
ROOT
ATOM      1  O   UNL     1      -4.585  92.142 -15.127  1.00  0.00    -0.310 OA
ENDROOT
BRANCH   1   2
ATOM      2  C   UNL     1      -5.627  92.465 -14.225  1.00  0.00     0.316 C 
ATOM      3  C   UNL     1      -6.148  93.655 -11.612  1.00  0.00     0.018 C 
ATOM      4  C   UNL     1      -5.824  94.438 -12.653  1.00  0.00     0.186 C 
ATOM      5  C   UNL     1      -6.425  92.216 -11.907  1.00  0.00     0.061 C 
ATOM      6  O   UNL     1      -5.598  93.882 -13.937  1.00  0.00    -0.472 OA
ATOM      7  C   UNL     1      -5.400  91.707 -12.910  1.00  0.00     0.096 C 
ATOM      8  C   UNL     1      -6.403  91.162 -10.800  1.00  0.00     0.145 C 
ATOM      9  C   UNL     1      -5.613  90.230 -12.814  1.00  0.00    -0.036 C 
ATOM     10  C   UNL     1      -6.099  89.929 -11.605  1.00  0.00     0.007 C 
BRANCH   8  11
ATOM     11  O   UNL     1      -5.365  91.393  -9.885  1.00  0.00    -0.388 OA
ATOM     12  H   UNL     1      -4.685  90.688 -10.048  1.00  0.00     0.211 HD
ENDBRANCH   8  11
BRANCH   9  13
ATOM     13  C   UNL     1      -5.132  89.203 -13.798  1.00  0.00     0.187 C 
BRANCH  13  14
ATOM     14  O   UNL     1      -3.832  89.525 -14.208  1.00  0.00    -0.392 OA
ATOM     15  H   UNL     1      -3.627  90.413 -13.820  1.00  0.00     0.211 HD
ENDBRANCH  13  14
ENDBRANCH   9  13
ENDBRANCH   1   2
BRANCH   1  16
ATOM     16  C   UNL     1      -4.929  92.487 -16.457  1.00  0.00     0.286 C 
ATOM     17  C   UNL     1      -5.617  91.271 -17.105  1.00  0.00     0.202 C 
ATOM     18  O   UNL     1      -3.750  92.833 -17.172  1.00  0.00    -0.341 OA
ATOM     19  C   UNL     1      -5.989  91.590 -18.559  1.00  0.00     0.179 C 
ATOM     20  C   UNL     1      -4.023  93.247 -18.504  1.00  0.00     0.178 C 
ATOM     21  C   UNL     1      -4.759  92.144 -19.310  1.00  0.00     0.177 C 
BRANCH  17  22
ATOM     22  O   UNL     1      -4.760  90.156 -17.079  1.00  0.00    -0.385 OA
ATOM     23  H   UNL     1      -5.096  89.515 -17.759  1.00  0.00     0.211 HD
ENDBRANCH  17  22
BRANCH  19  24
ATOM     24  O   UNL     1      -7.053  92.507 -18.582  1.00  0.00    -0.387 OA
ATOM     25  H   UNL     1      -7.700  92.223 -17.884  1.00  0.00     0.211 HD
ENDBRANCH  19  24
BRANCH  20  26
ATOM     26  C   UNL     1      -4.673  94.649 -18.549  1.00  0.00     0.191 C 
BRANCH  26  27
ATOM     27  O   UNL     1      -3.690  95.642 -18.701  1.00  0.00    -0.394 OA
ATOM     28  H   UNL     1      -3.840  96.317 -17.988  1.00  0.00     0.210 HD
ENDBRANCH  26  27
ENDBRANCH  20  26
BRANCH  21  29
ATOM     29  O   UNL     1      -5.119  92.615 -20.584  1.00  0.00    -0.387 OA
ATOM     30  H   UNL     1      -6.109  92.561 -20.642  1.00  0.00     0.211 HD
ENDBRANCH  21  29
ENDBRANCH   1  16
TORSDOF 10
ENDMDL
MODEL 8
REMARK VINA RESULT:    -4.792      1.588      3.401
REMARK INTER + INTRA:          -7.759
REMARK INTER:                  -6.419
REMARK INTRA:                  -1.340
REMARK UNBOUND:                -1.006
REMARK SMILES OCC1=C[C@@H](O)[C@H]2C=CO[C@@H](O[C@H]3O[C@H](CO)[C@H](O)[C@H](O)[C@H]3O)[C@H]12
REMARK SMILES IDX 12 1 11 2 8 3 9 4 7 5 10 6 24 7 5 8 3 9 4 10 6 11 2 13 1 14
REMARK SMILES IDX 13 16 22 17 14 18 20 19 15 20 18 21 23 22 21 24 16 26 17 27
REMARK SMILES IDX 19 29
REMARK H PARENT 6 12 1 15 23 23 21 25 17 28 19 30
REMARK Flexibility Score: inf
ROOT
ATOM      1  O   UNL     1      -4.351  91.702 -12.276  1.00  0.00    -0.310 OA
ENDROOT
BRANCH   1   2
ATOM      2  C   UNL     1      -4.704  92.928 -11.666  1.00  0.00     0.316 C 
ATOM      3  C   UNL     1      -3.903  94.790  -9.567  1.00  0.00     0.018 C 
ATOM      4  C   UNL     1      -3.203  94.727 -10.711  1.00  0.00     0.186 C 
ATOM      5  C   UNL     1      -5.192  94.034  -9.519  1.00  0.00     0.061 C 
ATOM      6  O   UNL     1      -3.594  93.852 -11.754  1.00  0.00    -0.472 OA
ATOM      7  C   UNL     1      -4.999  92.678 -10.181  1.00  0.00     0.096 C 
ATOM      8  C   UNL     1      -5.863  93.697  -8.188  1.00  0.00     0.145 C 
ATOM      9  C   UNL     1      -6.238  91.965  -9.741  1.00  0.00    -0.036 C 
ATOM     10  C   UNL     1      -6.666  92.491  -8.587  1.00  0.00     0.007 C 
BRANCH   8  11
ATOM     11  O   UNL     1      -4.924  93.333  -7.212  1.00  0.00    -0.388 OA
ATOM     12  H   UNL     1      -5.223  93.753  -6.364  1.00  0.00     0.211 HD
ENDBRANCH   8  11
BRANCH   9  13
ATOM     13  C   UNL     1      -6.788  90.702 -10.336  1.00  0.00     0.187 C 
BRANCH  13  14
ATOM     14  O   UNL     1      -5.752  89.773 -10.494  1.00  0.00    -0.392 OA
ATOM     15  H   UNL     1      -5.965  89.010  -9.899  1.00  0.00     0.211 HD
ENDBRANCH  13  14
ENDBRANCH   9  13
ENDBRANCH   1   2
BRANCH   1  16
ATOM     16  C   UNL     1      -4.668  91.702 -13.657  1.00  0.00     0.286 C 
ATOM     17  C   UNL     1      -5.837  90.724 -13.881  1.00  0.00     0.202 C 
ATOM     18  O   UNL     1      -3.527  91.295 -14.401  1.00  0.00    -0.341 OA
ATOM     19  C   UNL     1      -6.203  90.674 -15.370  1.00  0.00     0.179 C 
ATOM     20  C   UNL     1      -3.753  91.326 -15.805  1.00  0.00     0.178 C 
ATOM     21  C   UNL     1      -4.939  90.413 -16.217  1.00  0.00     0.177 C 
BRANCH  17  22
ATOM     22  O   UNL     1      -5.482  89.434 -13.447  1.00  0.00    -0.385 OA
ATOM     23  H   UNL     1      -4.492  89.375 -13.489  1.00  0.00     0.211 HD
ENDBRANCH  17  22
BRANCH  19  24
ATOM     24  O   UNL     1      -6.824  91.878 -15.744  1.00  0.00    -0.387 OA
ATOM     25  H   UNL     1      -6.391  92.181 -16.584  1.00  0.00     0.211 HD
ENDBRANCH  19  24
BRANCH  20  26
ATOM     26  C   UNL     1      -3.809  92.773 -16.347  1.00  0.00     0.191 C 
BRANCH  26  27
ATOM     27  O   UNL     1      -3.150  92.860 -17.584  1.00  0.00    -0.394 OA
ATOM     28  H   UNL     1      -2.176  92.777 -17.407  1.00  0.00     0.210 HD
ENDBRANCH  26  27
ENDBRANCH  20  26
BRANCH  21  29
ATOM     29  O   UNL     1      -5.216  90.547 -17.587  1.00  0.00    -0.387 OA
ATOM     30  H   UNL     1      -4.817  91.409 -17.879  1.00  0.00     0.211 HD
ENDBRANCH  21  29
ENDBRANCH   1  16
TORSDOF 10
ENDMDL
MODEL 9
REMARK VINA RESULT:    -4.769      1.492      2.497
REMARK INTER + INTRA:          -7.726
REMARK INTER:                  -6.742
REMARK INTRA:                  -0.984
REMARK UNBOUND:                -1.006
REMARK SMILES OCC1=C[C@@H](O)[C@H]2C=CO[C@@H](O[C@H]3O[C@H](CO)[C@H](O)[C@H](O)[C@H]3O)[C@H]12
REMARK SMILES IDX 12 1 11 2 8 3 9 4 7 5 10 6 24 7 5 8 3 9 4 10 6 11 2 13 1 14
REMARK SMILES IDX 13 16 22 17 14 18 20 19 15 20 18 21 23 22 21 24 16 26 17 27
REMARK SMILES IDX 19 29
REMARK H PARENT 6 12 1 15 23 23 21 25 17 28 19 30
REMARK Flexibility Score: inf
ROOT
ATOM      1  O   UNL     1      -5.990  92.935 -12.778  1.00  0.00    -0.310 OA
ENDROOT
BRANCH   1   2
ATOM      2  C   UNL     1      -5.583  92.148 -11.675  1.00  0.00     0.316 C 
ATOM      3  C   UNL     1      -6.348  91.379  -8.966  1.00  0.00     0.018 C 
ATOM      4  C   UNL     1      -7.002  90.864 -10.019  1.00  0.00     0.186 C 
ATOM      5  C   UNL     1      -5.114  92.172  -9.256  1.00  0.00     0.061 C 
ATOM      6  O   UNL     1      -6.625  91.201 -11.343  1.00  0.00    -0.472 OA
ATOM      7  C   UNL     1      -5.368  93.063 -10.462  1.00  0.00     0.096 C 
ATOM      8  C   UNL     1      -4.523  93.125  -8.218  1.00  0.00     0.145 C 
ATOM      9  C   UNL     1      -4.198  93.992 -10.384  1.00  0.00    -0.036 C 
ATOM     10  C   UNL     1      -3.785  94.079  -9.114  1.00  0.00     0.007 C 
BRANCH   8  11
ATOM     11  O   UNL     1      -5.524  93.816  -7.520  1.00  0.00    -0.388 OA
ATOM     12  H   UNL     1      -6.194  93.137  -7.243  1.00  0.00     0.211 HD
ENDBRANCH   8  11
BRANCH   9  13
ATOM     13  C   UNL     1      -3.708  94.889 -11.483  1.00  0.00     0.187 C 
BRANCH  13  14
ATOM     14  O   UNL     1      -2.320  95.043 -11.374  1.00  0.00    -0.392 OA
ATOM     15  H   UNL     1      -1.991  94.266 -10.854  1.00  0.00     0.211 HD
ENDBRANCH  13  14
ENDBRANCH   9  13
ENDBRANCH   1   2
BRANCH   1  16
ATOM     16  C   UNL     1      -5.491  92.413 -13.996  1.00  0.00     0.286 C 
ATOM     17  C   UNL     1      -6.693  91.980 -14.859  1.00  0.00     0.202 C 
ATOM     18  O   UNL     1      -4.648  91.302 -13.722  1.00  0.00    -0.341 OA
ATOM     19  C   UNL     1      -6.201  91.386 -16.185  1.00  0.00     0.179 C 
ATOM     20  C   UNL     1      -4.064  90.758 -14.899  1.00  0.00     0.178 C 
ATOM     21  C   UNL     1      -5.141  90.296 -15.916  1.00  0.00     0.177 C 
BRANCH  17  22
ATOM     22  O   UNL     1      -7.460  91.020 -14.177  1.00  0.00    -0.385 OA
ATOM     23  H   UNL     1      -8.327  90.947 -14.655  1.00  0.00     0.211 HD
ENDBRANCH  17  22
BRANCH  19  24
ATOM     24  O   UNL     1      -5.680  92.409 -16.996  1.00  0.00    -0.387 OA
ATOM     25  H   UNL     1      -5.934  93.272 -16.576  1.00  0.00     0.211 HD
ENDBRANCH  19  24
BRANCH  20  26
ATOM     26  C   UNL     1      -2.961  91.678 -15.471  1.00  0.00     0.191 C 
BRANCH  26  27
ATOM     27  O   UNL     1      -1.876  90.916 -15.935  1.00  0.00    -0.394 OA
ATOM     28  H   UNL     1      -2.187  89.975 -16.009  1.00  0.00     0.210 HD
ENDBRANCH  26  27
ENDBRANCH  20  26
BRANCH  21  29
ATOM     29  O   UNL     1      -4.544  89.869 -17.113  1.00  0.00    -0.387 OA
ATOM     30  H   UNL     1      -4.087  89.009 -16.917  1.00  0.00     0.211 HD
ENDBRANCH  21  29
ENDBRANCH   1  16
TORSDOF 10
ENDMDL
