MODEL 1
REMARK VINA RESULT:    -7.721      0.000      0.000
REMARK INTER + INTRA:          -9.381
REMARK INTER:                  -9.075
REMARK INTRA:                  -0.306
REMARK UNBOUND:                -0.306
REMARK SMILES O=c1c(O)c(-c2ccc(O)c(O)c2)oc2cc(O)ccc12
REMARK SMILES IDX 5 1 3 2 2 3 1 4 21 5 15 6 14 7 16 8 17 9 19 10 20 11 6 12
REMARK SMILES IDX 7 13 8 14 9 15 13 16 11 17 10 18 12 20 4 22 18 24
REMARK H PARENT 10 19 12 21 4 23 18 25
REMARK Flexibility Score: inf
ROOT
ATOM      1  C   UNL     1      17.814  34.685  30.164  1.00  0.00     0.180 A 
ATOM      2  C   UNL     1      17.143  33.767  29.329  1.00  0.00     0.208 A 
ATOM      3  C   UNL     1      17.044  34.048  27.958  1.00  0.00     0.235 A 
ATOM      4  O   UNL     1      16.439  33.248  27.192  1.00  0.00    -0.285 OA
ATOM      5  C   UNL     1      17.628  35.218  27.449  1.00  0.00     0.069 A 
ATOM      6  C   UNL     1      18.302  36.074  28.346  1.00  0.00     0.142 A 
ATOM      7  O   UNL     1      18.366  35.776  29.638  1.00  0.00    -0.452 OA
ATOM      8  C   UNL     1      18.906  37.246  27.875  1.00  0.00     0.094 A 
ATOM      9  C   UNL     1      18.844  37.575  26.517  1.00  0.00     0.119 A 
ATOM     10  C   UNL     1      18.173  36.729  25.623  1.00  0.00     0.047 A 
ATOM     11  C   UNL     1      17.567  35.555  26.083  1.00  0.00     0.020 A 
ENDROOT
BRANCH   1  12
ATOM     12  C   UNL     1      17.946  34.469  31.623  1.00  0.00     0.025 A 
ATOM     13  C   UNL     1      19.003  33.687  32.112  1.00  0.00     0.016 A 
ATOM     14  C   UNL     1      19.160  33.488  33.486  1.00  0.00     0.051 A 
ATOM     15  C   UNL     1      18.273  34.078  34.391  1.00  0.00     0.157 A 
ATOM     16  C   UNL     1      17.068  35.080  32.536  1.00  0.00     0.062 A 
ATOM     17  C   UNL     1      17.224  34.883  33.916  1.00  0.00     0.158 A 
BRANCH  15  18
ATOM     18  O   UNL     1      18.452  33.859  35.757  1.00  0.00    -0.504 OA
ATOM     19  H   UNL     1      19.370  33.746  36.169  1.00  0.00     0.293 HD
ENDBRANCH  15  18
BRANCH  17  20
ATOM     20  O   UNL     1      16.346  35.486  34.814  1.00  0.00    -0.504 OA
ATOM     21  H   UNL     1      16.526  35.490  35.811  1.00  0.00     0.293 HD
ENDBRANCH  17  20
ENDBRANCH   1  12
BRANCH   2  22
ATOM     22  O   UNL     1      16.616  32.586  29.857  1.00  0.00    -0.502 OA
ATOM     23  H   UNL     1      17.170  31.745  29.962  1.00  0.00     0.293 HD
ENDBRANCH   2  22
BRANCH   9  24
ATOM     24  O   UNL     1      19.449  38.745  26.066  1.00  0.00    -0.508 OA
ATOM     25  H   UNL     1      18.939  39.431  25.523  1.00  0.00     0.293 HD
ENDBRANCH   9  24
TORSDOF 5
ENDMDL
MODEL 2
REMARK VINA RESULT:    -7.420      3.338      6.905
REMARK INTER + INTRA:          -9.027
REMARK INTER:                  -8.710
REMARK INTRA:                  -0.317
REMARK UNBOUND:                -0.306
REMARK SMILES O=c1c(O)c(-c2ccc(O)c(O)c2)oc2cc(O)ccc12
REMARK SMILES IDX 5 1 3 2 2 3 1 4 21 5 15 6 14 7 16 8 17 9 19 10 20 11 6 12
REMARK SMILES IDX 7 13 8 14 9 15 13 16 11 17 10 18 12 20 4 22 18 24
REMARK H PARENT 10 19 12 21 4 23 18 25
REMARK Flexibility Score: inf
ROOT
ATOM      1  C   UNL     1      18.573  31.903  30.213  1.00  0.00     0.180 A 
ATOM      2  C   UNL     1      17.374  31.347  30.707  1.00  0.00     0.208 A 
ATOM      3  C   UNL     1      16.938  31.709  31.990  1.00  0.00     0.235 A 
ATOM      4  O   UNL     1      15.875  31.217  32.458  1.00  0.00    -0.285 OA
ATOM      5  C   UNL     1      17.691  32.625  32.742  1.00  0.00     0.069 A 
ATOM      6  C   UNL     1      18.867  33.155  32.169  1.00  0.00     0.142 A 
ATOM      7  O   UNL     1      19.249  32.780  30.953  1.00  0.00    -0.452 OA
ATOM      8  C   UNL     1      19.639  34.079  32.882  1.00  0.00     0.094 A 
ATOM      9  C   UNL     1      19.251  34.481  34.165  1.00  0.00     0.119 A 
ATOM     10  C   UNL     1      18.085  33.955  34.739  1.00  0.00     0.047 A 
ATOM     11  C   UNL     1      17.306  33.033  34.033  1.00  0.00     0.020 A 
ENDROOT
BRANCH   1  12
ATOM     12  C   UNL     1      19.108  31.558  28.877  1.00  0.00     0.025 A 
ATOM     13  C   UNL     1      19.954  30.447  28.738  1.00  0.00     0.016 A 
ATOM     14  C   UNL     1      20.453  30.090  27.483  1.00  0.00     0.051 A 
ATOM     15  C   UNL     1      20.104  30.827  26.347  1.00  0.00     0.157 A 
ATOM     16  C   UNL     1      18.741  32.285  27.731  1.00  0.00     0.062 A 
ATOM     17  C   UNL     1      19.239  31.928  26.469  1.00  0.00     0.158 A 
BRANCH  15  18
ATOM     18  O   UNL     1      20.620  30.449  25.108  1.00  0.00    -0.504 OA
ATOM     19  H   UNL     1      20.023  30.201  24.329  1.00  0.00     0.293 HD
ENDBRANCH  15  18
BRANCH  17  20
ATOM     20  O   UNL     1      18.875  32.658  25.340  1.00  0.00    -0.504 OA
ATOM     21  H   UNL     1      18.087  33.294  25.351  1.00  0.00     0.293 HD
ENDBRANCH  17  20
ENDBRANCH   1  12
BRANCH   2  22
ATOM     22  O   UNL     1      16.621  30.476  29.916  1.00  0.00    -0.502 OA
ATOM     23  H   UNL     1      17.004  29.616  29.542  1.00  0.00     0.293 HD
ENDBRANCH   2  22
BRANCH   9  24
ATOM     24  O   UNL     1      20.031  35.400  34.861  1.00  0.00    -0.508 OA
ATOM     25  H   UNL     1      19.739  35.772  35.757  1.00  0.00     0.293 HD
ENDBRANCH   9  24
TORSDOF 5
ENDMDL
MODEL 3
REMARK VINA RESULT:    -7.302      1.917      3.118
REMARK INTER + INTRA:          -8.889
REMARK INTER:                  -8.780
REMARK INTRA:                  -0.108
REMARK UNBOUND:                -0.306
REMARK SMILES O=c1c(O)c(-c2ccc(O)c(O)c2)oc2cc(O)ccc12
REMARK SMILES IDX 5 1 3 2 2 3 1 4 21 5 15 6 14 7 16 8 17 9 19 10 20 11 6 12
REMARK SMILES IDX 7 13 8 14 9 15 13 16 11 17 10 18 12 20 4 22 18 24
REMARK H PARENT 10 19 12 21 4 23 18 25
REMARK Flexibility Score: inf
ROOT
ATOM      1  C   UNL     1      18.066  33.952  30.410  1.00  0.00     0.180 A 
ATOM      2  C   UNL     1      17.511  35.059  29.735  1.00  0.00     0.208 A 
ATOM      3  C   UNL     1      17.479  35.050  28.332  1.00  0.00     0.235 A 
ATOM      4  O   UNL     1      16.997  36.033  27.705  1.00  0.00    -0.285 OA
ATOM      5  C   UNL     1      17.981  33.937  27.638  1.00  0.00     0.069 A 
ATOM      6  C   UNL     1      18.499  32.860  28.387  1.00  0.00     0.142 A 
ATOM      7  O   UNL     1      18.518  32.911  29.714  1.00  0.00    -0.452 OA
ATOM      8  C   UNL     1      18.999  31.728  27.732  1.00  0.00     0.094 A 
ATOM      9  C   UNL     1      18.990  31.661  26.335  1.00  0.00     0.119 A 
ATOM     10  C   UNL     1      18.478  32.730  25.587  1.00  0.00     0.047 A 
ATOM     11  C   UNL     1      17.975  33.864  26.232  1.00  0.00     0.020 A 
ENDROOT
BRANCH   1  12
ATOM     12  C   UNL     1      18.152  33.894  31.887  1.00  0.00     0.025 A 
ATOM     13  C   UNL     1      19.411  33.836  32.504  1.00  0.00     0.016 A 
ATOM     14  C   UNL     1      19.516  33.803  33.897  1.00  0.00     0.051 A 
ATOM     15  C   UNL     1      18.368  33.841  34.693  1.00  0.00     0.157 A 
ATOM     16  C   UNL     1      16.999  33.955  32.690  1.00  0.00     0.062 A 
ATOM     17  C   UNL     1      17.102  33.923  34.089  1.00  0.00     0.158 A 
BRANCH  15  18
ATOM     18  O   UNL     1      18.503  33.803  36.081  1.00  0.00    -0.504 OA
ATOM     19  H   UNL     1      18.518  32.932  36.597  1.00  0.00     0.293 HD
ENDBRANCH  15  18
BRANCH  17  20
ATOM     20  O   UNL     1      15.955  33.977  34.878  1.00  0.00    -0.504 OA
ATOM     21  H   UNL     1      15.131  34.490  34.582  1.00  0.00     0.293 HD
ENDBRANCH  17  20
ENDBRANCH   1  12
BRANCH   2  22
ATOM     22  O   UNL     1      16.974  36.129  30.455  1.00  0.00    -0.502 OA
ATOM     23  H   UNL     1      16.125  36.043  31.000  1.00  0.00     0.293 HD
ENDBRANCH   2  22
BRANCH   9  24
ATOM     24  O   UNL     1      19.492  30.528  25.698  1.00  0.00    -0.508 OA
ATOM     25  H   UNL     1      19.660  29.666  26.204  1.00  0.00     0.293 HD
ENDBRANCH   9  24
TORSDOF 5
ENDMDL
MODEL 4
REMARK VINA RESULT:    -7.217      2.783      6.232
REMARK INTER + INTRA:          -8.788
REMARK INTER:                  -8.592
REMARK INTRA:                  -0.196
REMARK UNBOUND:                -0.306
REMARK SMILES O=c1c(O)c(-c2ccc(O)c(O)c2)oc2cc(O)ccc12
REMARK SMILES IDX 5 1 3 2 2 3 1 4 21 5 15 6 14 7 16 8 17 9 19 10 20 11 6 12
REMARK SMILES IDX 7 13 8 14 9 15 13 16 11 17 10 18 12 20 4 22 18 24
REMARK H PARENT 10 19 12 21 4 23 18 25
REMARK Flexibility Score: inf
ROOT
ATOM      1  C   UNL     1      18.037  33.226  30.597  1.00  0.00     0.180 A 
ATOM      2  C   UNL     1      17.067  32.605  31.411  1.00  0.00     0.208 A 
ATOM      3  C   UNL     1      16.731  33.199  32.637  1.00  0.00     0.235 A 
ATOM      4  O   UNL     1      15.875  32.656  33.387  1.00  0.00    -0.285 OA
ATOM      5  C   UNL     1      17.351  34.401  33.014  1.00  0.00     0.069 A 
ATOM      6  C   UNL     1      18.294  34.972  32.134  1.00  0.00     0.142 A 
ATOM      7  O   UNL     1      18.590  34.374  30.986  1.00  0.00    -0.452 OA
ATOM      8  C   UNL     1      18.925  36.176  32.469  1.00  0.00     0.094 A 
ATOM      9  C   UNL     1      18.627  36.816  33.677  1.00  0.00     0.119 A 
ATOM     10  C   UNL     1      17.693  36.251  34.555  1.00  0.00     0.047 A 
ATOM     11  C   UNL     1      17.055  35.049  34.228  1.00  0.00     0.020 A 
ENDROOT
BRANCH   1  12
ATOM     12  C   UNL     1      18.458  32.654  29.299  1.00  0.00     0.025 A 
ATOM     13  C   UNL     1      19.175  31.447  29.277  1.00  0.00     0.016 A 
ATOM     14  C   UNL     1      19.564  30.877  28.062  1.00  0.00     0.051 A 
ATOM     15  C   UNL     1      19.230  31.494  26.853  1.00  0.00     0.157 A 
ATOM     16  C   UNL     1      18.105  33.261  28.081  1.00  0.00     0.062 A 
ATOM     17  C   UNL     1      18.493  32.690  26.860  1.00  0.00     0.158 A 
BRANCH  15  18
ATOM     18  O   UNL     1      19.634  30.903  25.655  1.00  0.00    -0.504 OA
ATOM     19  H   UNL     1      19.186  31.115  24.772  1.00  0.00     0.293 HD
ENDBRANCH  15  18
BRANCH  17  20
ATOM     20  O   UNL     1      18.144  33.302  25.658  1.00  0.00    -0.504 OA
ATOM     21  H   UNL     1      18.156  32.794  24.780  1.00  0.00     0.293 HD
ENDBRANCH  17  20
ENDBRANCH   1  12
BRANCH   2  22
ATOM     22  O   UNL     1      16.432  31.436  30.986  1.00  0.00    -0.502 OA
ATOM     23  H   UNL     1      16.254  30.658  31.610  1.00  0.00     0.293 HD
ENDBRANCH   2  22
BRANCH   9  24
ATOM     24  O   UNL     1      19.265  38.012  33.995  1.00  0.00    -0.508 OA
ATOM     25  H   UNL     1      20.178  38.242  33.622  1.00  0.00     0.293 HD
ENDBRANCH   9  24
TORSDOF 5
ENDMDL
MODEL 5
REMARK VINA RESULT:    -7.200      4.053      6.276
REMARK INTER + INTRA:          -8.768
REMARK INTER:                  -8.459
REMARK INTRA:                  -0.309
REMARK UNBOUND:                -0.306
REMARK SMILES O=c1c(O)c(-c2ccc(O)c(O)c2)oc2cc(O)ccc12
REMARK SMILES IDX 5 1 3 2 2 3 1 4 21 5 15 6 14 7 16 8 17 9 19 10 20 11 6 12
REMARK SMILES IDX 7 13 8 14 9 15 13 16 11 17 10 18 12 20 4 22 18 24
REMARK H PARENT 10 19 12 21 4 23 18 25
REMARK Flexibility Score: inf
ROOT
ATOM      1  C   UNL     1      18.449  33.408  32.609  1.00  0.00     0.180 A 
ATOM      2  C   UNL     1      19.508  33.538  33.532  1.00  0.00     0.208 A 
ATOM      3  C   UNL     1      19.650  34.746  34.232  1.00  0.00     0.235 A 
ATOM      4  O   UNL     1      20.596  34.890  35.055  1.00  0.00    -0.285 OA
ATOM      5  C   UNL     1      18.730  35.783  34.014  1.00  0.00     0.069 A 
ATOM      6  C   UNL     1      17.684  35.566  33.091  1.00  0.00     0.142 A 
ATOM      7  O   UNL     1      17.589  34.412  32.443  1.00  0.00    -0.452 OA
ATOM      8  C   UNL     1      16.741  36.573  32.854  1.00  0.00     0.094 A 
ATOM      9  C   UNL     1      16.830  37.796  33.527  1.00  0.00     0.119 A 
ATOM     10  C   UNL     1      17.868  38.016  34.442  1.00  0.00     0.047 A 
ATOM     11  C   UNL     1      18.815  37.016  34.687  1.00  0.00     0.020 A 
ENDROOT
BRANCH   1  12
ATOM     12  C   UNL     1      18.241  32.174  31.819  1.00  0.00     0.025 A 
ATOM     13  C   UNL     1      17.494  31.120  32.369  1.00  0.00     0.016 A 
ATOM     14  C   UNL     1      17.267  29.954  31.633  1.00  0.00     0.051 A 
ATOM     15  C   UNL     1      17.770  29.828  30.335  1.00  0.00     0.157 A 
ATOM     16  C   UNL     1      18.727  32.054  30.506  1.00  0.00     0.062 A 
ATOM     17  C   UNL     1      18.500  30.885  29.765  1.00  0.00     0.158 A 
BRANCH  15  18
ATOM     18  O   UNL     1      17.530  28.652  29.625  1.00  0.00    -0.504 OA
ATOM     19  H   UNL     1      17.682  27.737  30.032  1.00  0.00     0.293 HD
ENDBRANCH  15  18
BRANCH  17  20
ATOM     20  O   UNL     1      18.991  30.772  28.465  1.00  0.00    -0.504 OA
ATOM     21  H   UNL     1      19.514  29.957  28.164  1.00  0.00     0.293 HD
ENDBRANCH  17  20
ENDBRANCH   1  12
BRANCH   2  22
ATOM     22  O   UNL     1      20.378  32.470  33.764  1.00  0.00    -0.502 OA
ATOM     23  H   UNL     1      21.376  32.541  33.607  1.00  0.00     0.293 HD
ENDBRANCH   2  22
BRANCH   9  24
ATOM     24  O   UNL     1      15.883  38.787  33.278  1.00  0.00    -0.508 OA
ATOM     25  H   UNL     1      15.167  38.670  32.572  1.00  0.00     0.293 HD
ENDBRANCH   9  24
TORSDOF 5
ENDMDL
MODEL 6
REMARK VINA RESULT:    -7.169     13.615     15.735
REMARK INTER + INTRA:          -8.732
REMARK INTER:                  -8.450
REMARK INTRA:                  -0.282
REMARK UNBOUND:                -0.306
REMARK SMILES O=c1c(O)c(-c2ccc(O)c(O)c2)oc2cc(O)ccc12
REMARK SMILES IDX 5 1 3 2 2 3 1 4 21 5 15 6 14 7 16 8 17 9 19 10 20 11 6 12
REMARK SMILES IDX 7 13 8 14 9 15 13 16 11 17 10 18 12 20 4 22 18 24
REMARK H PARENT 10 19 12 21 4 23 18 25
REMARK Flexibility Score: inf
ROOT
ATOM      1  C   UNL     1      30.955  34.286  37.161  1.00  0.00     0.180 A 
ATOM      2  C   UNL     1      31.148  35.259  36.158  1.00  0.00     0.208 A 
ATOM      3  C   UNL     1      32.199  35.088  35.244  1.00  0.00     0.235 A 
ATOM      4  O   UNL     1      32.399  35.950  34.344  1.00  0.00    -0.285 OA
ATOM      5  C   UNL     1      33.017  33.951  35.336  1.00  0.00     0.069 A 
ATOM      6  C   UNL     1      32.744  33.012  36.354  1.00  0.00     0.142 A 
ATOM      7  O   UNL     1      31.745  33.215  37.204  1.00  0.00    -0.452 OA
ATOM      8  C   UNL     1      33.531  31.860  36.472  1.00  0.00     0.094 A 
ATOM      9  C   UNL     1      34.590  31.635  35.587  1.00  0.00     0.119 A 
ATOM     10  C   UNL     1      34.865  32.566  34.576  1.00  0.00     0.047 A 
ATOM     11  C   UNL     1      34.084  33.720  34.448  1.00  0.00     0.020 A 
ENDROOT
BRANCH   1  12
ATOM     12  C   UNL     1      29.880  34.403  38.172  1.00  0.00     0.025 A 
ATOM     13  C   UNL     1      28.571  34.028  37.834  1.00  0.00     0.016 A 
ATOM     14  C   UNL     1      27.545  34.109  38.778  1.00  0.00     0.051 A 
ATOM     15  C   UNL     1      27.813  34.550  40.077  1.00  0.00     0.157 A 
ATOM     16  C   UNL     1      30.152  34.825  39.485  1.00  0.00     0.062 A 
ATOM     17  C   UNL     1      29.124  34.906  40.436  1.00  0.00     0.158 A 
BRANCH  15  18
ATOM     18  O   UNL     1      26.768  34.624  40.999  1.00  0.00    -0.504 OA
ATOM     19  H   UNL     1      26.654  33.943  41.739  1.00  0.00     0.293 HD
ENDBRANCH  15  18
BRANCH  17  20
ATOM     20  O   UNL     1      29.401  35.332  41.734  1.00  0.00    -0.504 OA
ATOM     21  H   UNL     1      28.938  36.138  42.138  1.00  0.00     0.293 HD
ENDBRANCH  17  20
ENDBRANCH   1  12
BRANCH   2  22
ATOM     22  O   UNL     1      30.287  36.354  36.060  1.00  0.00    -0.502 OA
ATOM     23  H   UNL     1      29.989  36.731  35.169  1.00  0.00     0.293 HD
ENDBRANCH   2  22
BRANCH   9  24
ATOM     24  O   UNL     1      35.363  30.484  35.719  1.00  0.00    -0.508 OA
ATOM     25  H   UNL     1      36.164  30.312  35.124  1.00  0.00     0.293 HD
ENDBRANCH   9  24
TORSDOF 5
ENDMDL
MODEL 7
REMARK VINA RESULT:    -7.026     13.757     15.352
REMARK INTER + INTRA:          -8.564
REMARK INTER:                  -8.306
REMARK INTRA:                  -0.258
REMARK UNBOUND:                -0.306
REMARK SMILES O=c1c(O)c(-c2ccc(O)c(O)c2)oc2cc(O)ccc12
REMARK SMILES IDX 5 1 3 2 2 3 1 4 21 5 15 6 14 7 16 8 17 9 19 10 20 11 6 12
REMARK SMILES IDX 7 13 8 14 9 15 13 16 11 17 10 18 12 20 4 22 18 24
REMARK H PARENT 10 19 12 21 4 23 18 25
REMARK Flexibility Score: inf
ROOT
ATOM      1  C   UNL     1      31.063  34.021  37.318  1.00  0.00     0.180 A 
ATOM      2  C   UNL     1      31.924  32.906  37.397  1.00  0.00     0.208 A 
ATOM      3  C   UNL     1      32.937  32.764  36.436  1.00  0.00     0.235 A 
ATOM      4  O   UNL     1      33.712  31.769  36.479  1.00  0.00    -0.285 OA
ATOM      5  C   UNL     1      33.080  33.737  35.435  1.00  0.00     0.069 A 
ATOM      6  C   UNL     1      32.194  34.835  35.438  1.00  0.00     0.142 A 
ATOM      7  O   UNL     1      31.244  34.929  36.361  1.00  0.00    -0.452 OA
ATOM      8  C   UNL     1      32.311  35.833  34.462  1.00  0.00     0.094 A 
ATOM      9  C   UNL     1      33.304  35.745  33.481  1.00  0.00     0.119 A 
ATOM     10  C   UNL     1      34.185  34.655  33.474  1.00  0.00     0.047 A 
ATOM     11  C   UNL     1      34.077  33.655  34.445  1.00  0.00     0.020 A 
ENDROOT
BRANCH   1  12
ATOM     12  C   UNL     1      29.962  34.233  38.283  1.00  0.00     0.025 A 
ATOM     13  C   UNL     1      28.646  33.922  37.908  1.00  0.00     0.016 A 
ATOM     14  C   UNL     1      27.593  34.094  38.810  1.00  0.00     0.051 A 
ATOM     15  C   UNL     1      27.839  34.565  40.103  1.00  0.00     0.157 A 
ATOM     16  C   UNL     1      30.210  34.686  39.591  1.00  0.00     0.062 A 
ATOM     17  C   UNL     1      29.155  34.858  40.499  1.00  0.00     0.158 A 
BRANCH  15  18
ATOM     18  O   UNL     1      26.768  34.730  40.981  1.00  0.00    -0.504 OA
ATOM     19  H   UNL     1      25.806  34.707  40.668  1.00  0.00     0.293 HD
ENDBRANCH  15  18
BRANCH  17  20
ATOM     20  O   UNL     1      29.410  35.314  41.791  1.00  0.00    -0.504 OA
ATOM     21  H   UNL     1      29.235  36.276  42.059  1.00  0.00     0.293 HD
ENDBRANCH  17  20
ENDBRANCH   1  12
BRANCH   2  22
ATOM     22  O   UNL     1      31.788  31.980  38.434  1.00  0.00    -0.502 OA
ATOM     23  H   UNL     1      32.423  31.200  38.551  1.00  0.00     0.293 HD
ENDBRANCH   2  22
BRANCH   9  24
ATOM     24  O   UNL     1      33.407  36.746  32.517  1.00  0.00    -0.508 OA
ATOM     25  H   UNL     1      33.569  37.713  32.772  1.00  0.00     0.293 HD
ENDBRANCH   9  24
TORSDOF 5
ENDMDL
MODEL 8
REMARK VINA RESULT:    -6.969      1.538      6.650
REMARK INTER + INTRA:          -8.497
REMARK INTER:                  -8.306
REMARK INTRA:                  -0.192
REMARK UNBOUND:                -0.306
REMARK SMILES O=c1c(O)c(-c2ccc(O)c(O)c2)oc2cc(O)ccc12
REMARK SMILES IDX 5 1 3 2 2 3 1 4 21 5 15 6 14 7 16 8 17 9 19 10 20 11 6 12
REMARK SMILES IDX 7 13 8 14 9 15 13 16 11 17 10 18 12 20 4 22 18 24
REMARK H PARENT 10 19 12 21 4 23 18 25
REMARK Flexibility Score: inf
ROOT
ATOM      1  C   UNL     1      17.680  34.960  29.969  1.00  0.00     0.180 A 
ATOM      2  C   UNL     1      16.790  33.888  30.187  1.00  0.00     0.208 A 
ATOM      3  C   UNL     1      16.664  33.365  31.483  1.00  0.00     0.235 A 
ATOM      4  O   UNL     1      15.883  32.399  31.700  1.00  0.00    -0.285 OA
ATOM      5  C   UNL     1      17.408  33.930  32.530  1.00  0.00     0.069 A 
ATOM      6  C   UNL     1      18.260  35.017  32.236  1.00  0.00     0.142 A 
ATOM      7  O   UNL     1      18.356  35.477  30.994  1.00  0.00    -0.452 OA
ATOM      8  C   UNL     1      19.010  35.615  33.255  1.00  0.00     0.094 A 
ATOM      9  C   UNL     1      18.922  35.138  34.567  1.00  0.00     0.119 A 
ATOM     10  C   UNL     1      18.080  34.058  34.863  1.00  0.00     0.047 A 
ATOM     11  C   UNL     1      17.324  33.455  33.853  1.00  0.00     0.020 A 
ENDROOT
BRANCH   1  12
ATOM     12  C   UNL     1      17.882  35.555  28.629  1.00  0.00     0.025 A 
ATOM     13  C   UNL     1      17.542  36.900  28.413  1.00  0.00     0.016 A 
ATOM     14  C   UNL     1      17.744  37.488  27.162  1.00  0.00     0.051 A 
ATOM     15  C   UNL     1      18.300  36.749  26.114  1.00  0.00     0.157 A 
ATOM     16  C   UNL     1      18.461  34.820  27.580  1.00  0.00     0.062 A 
ATOM     17  C   UNL     1      18.666  35.409  26.324  1.00  0.00     0.158 A 
BRANCH  15  18
ATOM     18  O   UNL     1      18.487  37.362  24.875  1.00  0.00    -0.504 OA
ATOM     19  H   UNL     1      18.853  38.302  24.789  1.00  0.00     0.293 HD
ENDBRANCH  15  18
BRANCH  17  20
ATOM     20  O   UNL     1      19.235  34.671  25.288  1.00  0.00    -0.504 OA
ATOM     21  H   UNL     1      18.704  34.417  24.463  1.00  0.00     0.293 HD
ENDBRANCH  17  20
ENDBRANCH   1  12
BRANCH   2  22
ATOM     22  O   UNL     1      16.026  33.379  29.134  1.00  0.00    -0.502 OA
ATOM     23  H   UNL     1      15.535  32.495  29.198  1.00  0.00     0.293 HD
ENDBRANCH   2  22
BRANCH   9  24
ATOM     24  O   UNL     1      19.676  35.744  35.569  1.00  0.00    -0.508 OA
ATOM     25  H   UNL     1      19.743  35.344  36.498  1.00  0.00     0.293 HD
ENDBRANCH   9  24
TORSDOF 5
ENDMDL
MODEL 9
REMARK VINA RESULT:    -6.908      2.601      3.510
REMARK INTER + INTRA:          -8.425
REMARK INTER:                  -8.217
REMARK INTRA:                  -0.208
REMARK UNBOUND:                -0.306
REMARK SMILES O=c1c(O)c(-c2ccc(O)c(O)c2)oc2cc(O)ccc12
REMARK SMILES IDX 5 1 3 2 2 3 1 4 21 5 15 6 14 7 16 8 17 9 19 10 20 11 6 12
REMARK SMILES IDX 7 13 8 14 9 15 13 16 11 17 10 18 12 20 4 22 18 24
REMARK H PARENT 10 19 12 21 4 23 18 25
REMARK Flexibility Score: inf
ROOT
ATOM      1  C   UNL     1      17.727  32.640  31.302  1.00  0.00     0.180 A 
ATOM      2  C   UNL     1      17.442  31.258  31.329  1.00  0.00     0.208 A 
ATOM      3  C   UNL     1      16.897  30.658  30.184  1.00  0.00     0.235 A 
ATOM      4  O   UNL     1      16.623  29.426  30.187  1.00  0.00    -0.285 OA
ATOM      5  C   UNL     1      16.667  31.437  29.038  1.00  0.00     0.069 A 
ATOM      6  C   UNL     1      17.000  32.807  29.084  1.00  0.00     0.142 A 
ATOM      7  O   UNL     1      17.507  33.339  30.190  1.00  0.00    -0.452 OA
ATOM      8  C   UNL     1      16.796  33.615  27.959  1.00  0.00     0.094 A 
ATOM      9  C   UNL     1      16.259  33.070  26.788  1.00  0.00     0.119 A 
ATOM     10  C   UNL     1      15.925  31.710  26.740  1.00  0.00     0.047 A 
ATOM     11  C   UNL     1      16.126  30.894  27.857  1.00  0.00     0.020 A 
ENDROOT
BRANCH   1  12
ATOM     12  C   UNL     1      18.286  33.350  32.474  1.00  0.00     0.025 A 
ATOM     13  C   UNL     1      19.620  33.121  32.847  1.00  0.00     0.016 A 
ATOM     14  C   UNL     1      20.176  33.796  33.937  1.00  0.00     0.051 A 
ATOM     15  C   UNL     1      19.415  34.719  34.660  1.00  0.00     0.157 A 
ATOM     16  C   UNL     1      17.530  34.295  33.188  1.00  0.00     0.062 A 
ATOM     17  C   UNL     1      18.086  34.975  34.282  1.00  0.00     0.158 A 
BRANCH  15  18
ATOM     18  O   UNL     1      19.995  35.377  35.745  1.00  0.00    -0.504 OA
ATOM     19  H   UNL     1      20.763  34.976  36.268  1.00  0.00     0.293 HD
ENDBRANCH  15  18
BRANCH  17  20
ATOM     20  O   UNL     1      17.326  35.906  34.988  1.00  0.00    -0.504 OA
ATOM     21  H   UNL     1      17.399  36.900  34.804  1.00  0.00     0.293 HD
ENDBRANCH  17  20
ENDBRANCH   1  12
BRANCH   2  22
ATOM     22  O   UNL     1      17.728  30.500  32.466  1.00  0.00    -0.502 OA
ATOM     23  H   UNL     1      17.117  29.760  32.792  1.00  0.00     0.293 HD
ENDBRANCH   2  22
BRANCH   9  24
ATOM     24  O   UNL     1      16.061  33.888  25.678  1.00  0.00    -0.508 OA
ATOM     25  H   UNL     1      16.131  34.896  25.743  1.00  0.00     0.293 HD
ENDBRANCH   9  24
TORSDOF 5
ENDMDL
