MODEL 1
REMARK VINA RESULT:    -3.616      0.000      0.000
REMARK INTER + INTRA:          -5.470
REMARK INTER:                  -5.096
REMARK INTRA:                  -0.374
REMARK UNBOUND:                -0.374
REMARK SMILES C=CCCCCCCC(=O)[O-]
REMARK SMILES IDX 6 1 7 2 8 3 9 4 10 5 11 6 5 7 4 8 3 9 2 10 1 11
REMARK H PARENT
REMARK Flexibility Score: inf
ROOT
ATOM      1  C   UNL     1      -0.688  36.830  35.901  1.00  0.00     0.000 C 
ENDROOT
BRANCH   1   2
ATOM      2  C   UNL     1      -0.432  36.424  37.360  1.00  0.00     0.006 C 
BRANCH   2   3
ATOM      3  C   UNL     1      -1.002  35.033  37.650  1.00  0.00     0.053 C 
BRANCH   3   4
ATOM      4  C   UNL     1      -1.596  34.986  39.022  1.00  0.00     0.041 C 
ATOM      5  O   UNL     1      -2.317  35.932  39.434  1.00  0.00    -0.550 OA
ATOM      6  O   UNL     1      -1.393  33.872  39.829  1.00  0.00    -0.550 OA
ENDBRANCH   3   4
ENDBRANCH   2   3
ENDBRANCH   1   2
BRANCH   1   7
ATOM      7  C   UNL     1       0.042  38.125  35.500  1.00  0.00     0.000 C 
BRANCH   7   8
ATOM      8  C   UNL     1       1.318  38.427  36.306  1.00  0.00     0.004 C 
BRANCH   8   9
ATOM      9  C   UNL     1       1.611  39.931  36.420  1.00  0.00     0.027 C 
BRANCH   9  10
ATOM     10  C   UNL     1       0.357  40.743  36.258  1.00  0.00    -0.035 C 
ATOM     11  C   UNL     1       0.085  41.782  37.055  1.00  0.00     0.004 C 
ENDBRANCH   9  10
ENDBRANCH   8   9
ENDBRANCH   7   8
ENDBRANCH   1   7
TORSDOF 7
ENDMDL
MODEL 2
REMARK VINA RESULT:    -3.526      1.797      2.500
REMARK INTER + INTRA:          -5.343
REMARK INTER:                  -4.996
REMARK INTRA:                  -0.347
REMARK UNBOUND:                -0.374
REMARK SMILES C=CCCCCCCC(=O)[O-]
REMARK SMILES IDX 6 1 7 2 8 3 9 4 10 5 11 6 5 7 4 8 3 9 2 10 1 11
REMARK H PARENT
REMARK Flexibility Score: inf
ROOT
ATOM      1  C   UNL     1      -1.671  35.779  37.449  1.00  0.00     0.000 C 
ENDROOT
BRANCH   1   2
ATOM      2  C   UNL     1      -1.462  35.417  38.927  1.00  0.00     0.006 C 
BRANCH   2   3
ATOM      3  C   UNL     1      -0.474  34.256  39.072  1.00  0.00     0.053 C 
BRANCH   3   4
ATOM      4  C   UNL     1      -1.206  32.958  39.199  1.00  0.00     0.041 C 
ATOM      5  O   UNL     1      -1.501  32.504  40.336  1.00  0.00    -0.550 OA
ATOM      6  O   UNL     1      -1.609  32.273  38.059  1.00  0.00    -0.550 OA
ENDBRANCH   3   4
ENDBRANCH   2   3
ENDBRANCH   1   2
BRANCH   1   7
ATOM      7  C   UNL     1      -0.390  36.298  36.770  1.00  0.00     0.000 C 
BRANCH   7   8
ATOM      8  C   UNL     1      -0.622  37.148  35.509  1.00  0.00     0.004 C 
BRANCH   8   9
ATOM      9  C   UNL     1       0.055  38.525  35.583  1.00  0.00     0.027 C 
BRANCH   9  10
ATOM     10  C   UNL     1       1.077  38.570  36.685  1.00  0.00    -0.035 C 
ATOM     11  C   UNL     1       2.264  39.163  36.520  1.00  0.00     0.004 C 
ENDBRANCH   9  10
ENDBRANCH   8   9
ENDBRANCH   7   8
ENDBRANCH   1   7
TORSDOF 7
ENDMDL
MODEL 3
REMARK VINA RESULT:    -3.523      3.061      6.009
REMARK INTER + INTRA:          -5.339
REMARK INTER:                  -5.053
REMARK INTRA:                  -0.286
REMARK UNBOUND:                -0.374
REMARK SMILES C=CCCCCCCC(=O)[O-]
REMARK SMILES IDX 6 1 7 2 8 3 9 4 10 5 11 6 5 7 4 8 3 9 2 10 1 11
REMARK H PARENT
REMARK Flexibility Score: inf
ROOT
ATOM      1  C   UNL     1      -0.876  36.359  36.039  1.00  0.00     0.000 C 
ENDROOT
BRANCH   1   2
ATOM      2  C   UNL     1       0.057  37.310  36.803  1.00  0.00     0.006 C 
BRANCH   2   3
ATOM      3  C   UNL     1       0.818  38.224  35.838  1.00  0.00     0.053 C 
BRANCH   3   4
ATOM      4  C   UNL     1       1.460  39.353  36.581  1.00  0.00     0.041 C 
ATOM      5  O   UNL     1       2.714  39.430  36.657  1.00  0.00    -0.550 OA
ATOM      6  O   UNL     1       0.673  40.349  37.146  1.00  0.00    -0.550 OA
ENDBRANCH   3   4
ENDBRANCH   2   3
ENDBRANCH   1   2
BRANCH   1   7
ATOM      7  C   UNL     1      -1.400  35.203  36.911  1.00  0.00     0.000 C 
BRANCH   7   8
ATOM      8  C   UNL     1      -1.126  35.350  38.418  1.00  0.00     0.004 C 
BRANCH   8   9
ATOM      9  C   UNL     1      -0.340  34.167  39.002  1.00  0.00     0.027 C 
BRANCH   9  10
ATOM     10  C   UNL     1      -1.231  33.275  39.822  1.00  0.00    -0.035 C 
ATOM     11  C   UNL     1      -1.992  32.331  39.258  1.00  0.00     0.004 C 
ENDBRANCH   9  10
ENDBRANCH   8   9
ENDBRANCH   7   8
ENDBRANCH   1   7
TORSDOF 7
ENDMDL
MODEL 4
REMARK VINA RESULT:    -3.486      3.223      5.870
REMARK INTER + INTRA:          -5.286
REMARK INTER:                  -4.965
REMARK INTRA:                  -0.321
REMARK UNBOUND:                -0.374
REMARK SMILES C=CCCCCCCC(=O)[O-]
REMARK SMILES IDX 6 1 7 2 8 3 9 4 10 5 11 6 5 7 4 8 3 9 2 10 1 11
REMARK H PARENT
REMARK Flexibility Score: inf
ROOT
ATOM      1  C   UNL     1       0.830  38.161  35.773  1.00  0.00     0.000 C 
ENDROOT
BRANCH   1   2
ATOM      2  C   UNL     1       2.022  38.877  36.426  1.00  0.00     0.006 C 
BRANCH   2   3
ATOM      3  C   UNL     1       2.164  40.305  35.889  1.00  0.00     0.053 C 
BRANCH   3   4
ATOM      4  C   UNL     1       0.868  41.042  36.011  1.00  0.00     0.041 C 
ATOM      5  O   UNL     1       0.377  41.277  37.146  1.00  0.00    -0.550 OA
ATOM      6  O   UNL     1       0.227  41.514  34.872  1.00  0.00    -0.550 OA
ENDBRANCH   3   4
ENDBRANCH   2   3
ENDBRANCH   1   2
BRANCH   1   7
ATOM      7  C   UNL     1       0.052  37.270  36.759  1.00  0.00     0.000 C 
BRANCH   7   8
ATOM      8  C   UNL     1      -1.032  36.386  36.118  1.00  0.00     0.004 C 
BRANCH   8   9
ATOM      9  C   UNL     1      -1.304  35.100  36.913  1.00  0.00     0.027 C 
BRANCH   9  10
ATOM     10  C   UNL     1      -0.816  35.224  38.330  1.00  0.00    -0.035 C 
ATOM     11  C   UNL     1      -0.433  34.156  39.037  1.00  0.00     0.004 C 
ENDBRANCH   9  10
ENDBRANCH   8   9
ENDBRANCH   7   8
ENDBRANCH   1   7
TORSDOF 7
ENDMDL
MODEL 5
REMARK VINA RESULT:    -3.472      8.824     10.313
REMARK INTER + INTRA:          -5.266
REMARK INTER:                  -4.505
REMARK INTRA:                  -0.761
REMARK UNBOUND:                -0.374
REMARK SMILES C=CCCCCCCC(=O)[O-]
REMARK SMILES IDX 6 1 7 2 8 3 9 4 10 5 11 6 5 7 4 8 3 9 2 10 1 11
REMARK H PARENT
REMARK Flexibility Score: inf
ROOT
ATOM      1  C   UNL     1       0.106  29.595  32.597  1.00  0.00     0.000 C 
ENDROOT
BRANCH   1   2
ATOM      2  C   UNL     1       0.196  28.163  32.050  1.00  0.00     0.006 C 
BRANCH   2   3
ATOM      3  C   UNL     1      -1.071  27.793  31.273  1.00  0.00     0.053 C 
BRANCH   3   4
ATOM      4  C   UNL     1      -2.203  27.525  32.214  1.00  0.00     0.041 C 
ATOM      5  O   UNL     1      -2.240  26.453  32.872  1.00  0.00    -0.550 OA
ATOM      6  O   UNL     1      -3.192  28.483  32.403  1.00  0.00    -0.550 OA
ENDBRANCH   3   4
ENDBRANCH   2   3
ENDBRANCH   1   2
BRANCH   1   7
ATOM      7  C   UNL     1       1.034  29.837  33.802  1.00  0.00     0.000 C 
BRANCH   7   8
ATOM      8  C   UNL     1       0.315  30.024  35.149  1.00  0.00     0.004 C 
BRANCH   8   9
ATOM      9  C   UNL     1      -1.214  30.073  35.010  1.00  0.00     0.027 C 
BRANCH   9  10
ATOM     10  C   UNL     1      -1.875  29.074  35.918  1.00  0.00    -0.035 C 
ATOM     11  C   UNL     1      -1.499  27.791  35.943  1.00  0.00     0.004 C 
ENDBRANCH   9  10
ENDBRANCH   8   9
ENDBRANCH   7   8
ENDBRANCH   1   7
TORSDOF 7
ENDMDL
MODEL 6
REMARK VINA RESULT:    -3.450      5.427      7.934
REMARK INTER + INTRA:          -5.236
REMARK INTER:                  -4.951
REMARK INTRA:                  -0.285
REMARK UNBOUND:                -0.374
REMARK SMILES C=CCCCCCCC(=O)[O-]
REMARK SMILES IDX 6 1 7 2 8 3 9 4 10 5 11 6 5 7 4 8 3 9 2 10 1 11
REMARK H PARENT
REMARK Flexibility Score: inf
ROOT
ATOM      1  C   UNL     1      -1.682  31.337  35.506  1.00  0.00     0.000 C 
ENDROOT
BRANCH   1   2
ATOM      2  C   UNL     1      -1.841  31.543  37.020  1.00  0.00     0.006 C 
BRANCH   2   3
ATOM      3  C   UNL     1      -1.680  33.020  37.391  1.00  0.00     0.053 C 
BRANCH   3   4
ATOM      4  C   UNL     1      -1.114  33.156  38.769  1.00  0.00     0.041 C 
ATOM      5  O   UNL     1      -1.455  32.352  39.676  1.00  0.00    -0.550 OA
ATOM      6  O   UNL     1      -0.170  34.140  39.039  1.00  0.00    -0.550 OA
ENDBRANCH   3   4
ENDBRANCH   2   3
ENDBRANCH   1   2
BRANCH   1   7
ATOM      7  C   UNL     1      -0.968  30.019  35.151  1.00  0.00     0.000 C 
BRANCH   7   8
ATOM      8  C   UNL     1       0.559  30.127  35.002  1.00  0.00     0.004 C 
BRANCH   8   9
ATOM      9  C   UNL     1       1.054  29.731  33.603  1.00  0.00     0.027 C 
BRANCH   9  10
ATOM     10  C   UNL     1      -0.041  29.082  32.803  1.00  0.00    -0.035 C 
ATOM     11  C   UNL     1       0.219  28.139  31.892  1.00  0.00     0.004 C 
ENDBRANCH   9  10
ENDBRANCH   8   9
ENDBRANCH   7   8
ENDBRANCH   1   7
TORSDOF 7
ENDMDL
MODEL 7
REMARK VINA RESULT:    -3.450      8.513     10.519
REMARK INTER + INTRA:          -5.235
REMARK INTER:                  -4.392
REMARK INTRA:                  -0.843
REMARK UNBOUND:                -0.374
REMARK SMILES C=CCCCCCCC(=O)[O-]
REMARK SMILES IDX 6 1 7 2 8 3 9 4 10 5 11 6 5 7 4 8 3 9 2 10 1 11
REMARK H PARENT
REMARK Flexibility Score: inf
ROOT
ATOM      1  C   UNL     1       0.430  29.935  34.895  1.00  0.00     0.000 C 
ENDROOT
BRANCH   1   2
ATOM      2  C   UNL     1       0.920  29.957  33.440  1.00  0.00     0.006 C 
BRANCH   2   3
ATOM      3  C   UNL     1       0.490  28.690  32.697  1.00  0.00     0.053 C 
BRANCH   3   4
ATOM      4  C   UNL     1      -0.426  29.031  31.564  1.00  0.00     0.041 C 
ATOM      5  O   UNL     1      -0.910  28.120  30.843  1.00  0.00    -0.550 OA
ATOM      6  O   UNL     1      -0.786  30.354  31.336  1.00  0.00    -0.550 OA
ENDBRANCH   3   4
ENDBRANCH   2   3
ENDBRANCH   1   2
BRANCH   1   7
ATOM      7  C   UNL     1      -0.996  30.494  35.058  1.00  0.00     0.000 C 
BRANCH   7   8
ATOM      8  C   UNL     1      -2.060  29.454  35.447  1.00  0.00     0.004 C 
BRANCH   8   9
ATOM      9  C   UNL     1      -1.454  28.133  35.944  1.00  0.00     0.027 C 
BRANCH   9  10
ATOM     10  C   UNL     1      -1.848  26.986  35.055  1.00  0.00    -0.035 C 
ATOM     11  C   UNL     1      -2.645  27.160  33.996  1.00  0.00     0.004 C 
ENDBRANCH   9  10
ENDBRANCH   8   9
ENDBRANCH   7   8
ENDBRANCH   1   7
TORSDOF 7
ENDMDL
MODEL 8
REMARK VINA RESULT:    -3.439      7.194      9.748
REMARK INTER + INTRA:          -5.219
REMARK INTER:                  -4.514
REMARK INTRA:                  -0.705
REMARK UNBOUND:                -0.374
REMARK SMILES C=CCCCCCCC(=O)[O-]
REMARK SMILES IDX 6 1 7 2 8 3 9 4 10 5 11 6 5 7 4 8 3 9 2 10 1 11
REMARK H PARENT
REMARK Flexibility Score: inf
ROOT
ATOM      1  C   UNL     1       1.004  29.873  33.748  1.00  0.00     0.000 C 
ENDROOT
BRANCH   1   2
ATOM      2  C   UNL     1       0.282  29.945  35.102  1.00  0.00     0.006 C 
BRANCH   2   3
ATOM      3  C   UNL     1      -1.211  30.226  34.913  1.00  0.00     0.053 C 
BRANCH   3   4
ATOM      4  C   UNL     1      -1.545  31.613  35.364  1.00  0.00     0.041 C 
ATOM      5  O   UNL     1      -1.907  31.824  36.551  1.00  0.00    -0.550 OA
ATOM      6  O   UNL     1      -1.407  32.681  34.485  1.00  0.00    -0.550 OA
ENDBRANCH   3   4
ENDBRANCH   2   3
ENDBRANCH   1   2
BRANCH   1   7
ATOM      7  C   UNL     1       0.050  29.584  32.574  1.00  0.00     0.000 C 
BRANCH   7   8
ATOM      8  C   UNL     1       0.041  28.124  32.089  1.00  0.00     0.004 C 
BRANCH   8   9
ATOM      9  C   UNL     1      -1.352  27.647  31.652  1.00  0.00     0.027 C 
BRANCH   9  10
ATOM     10  C   UNL     1      -2.182  27.236  32.837  1.00  0.00    -0.035 C 
ATOM     11  C   UNL     1      -1.632  26.678  33.921  1.00  0.00     0.004 C 
ENDBRANCH   9  10
ENDBRANCH   8   9
ENDBRANCH   7   8
ENDBRANCH   1   7
TORSDOF 7
ENDMDL
MODEL 9
REMARK VINA RESULT:    -3.423      8.621     10.187
REMARK INTER + INTRA:          -5.197
REMARK INTER:                  -4.379
REMARK INTRA:                  -0.818
REMARK UNBOUND:                -0.374
REMARK SMILES C=CCCCCCCC(=O)[O-]
REMARK SMILES IDX 6 1 7 2 8 3 9 4 10 5 11 6 5 7 4 8 3 9 2 10 1 11
REMARK H PARENT
REMARK Flexibility Score: inf
ROOT
ATOM      1  C   UNL     1      -2.095  28.263  34.285  1.00  0.00     0.000 C 
ENDROOT
BRANCH   1   2
ATOM      2  C   UNL     1      -1.601  27.225  33.267  1.00  0.00     0.006 C 
BRANCH   2   3
ATOM      3  C   UNL     1      -2.077  27.575  31.854  1.00  0.00     0.053 C 
BRANCH   3   4
ATOM      4  C   UNL     1      -0.962  28.182  31.061  1.00  0.00     0.041 C 
ATOM      5  O   UNL     1       0.219  27.774  31.213  1.00  0.00    -0.550 OA
ATOM      6  O   UNL     1      -1.235  29.164  30.117  1.00  0.00    -0.550 OA
ENDBRANCH   3   4
ENDBRANCH   2   3
ENDBRANCH   1   2
BRANCH   1   7
ATOM      7  C   UNL     1      -1.050  28.585  35.370  1.00  0.00     0.000 C 
BRANCH   7   8
ATOM      8  C   UNL     1      -0.352  29.947  35.215  1.00  0.00     0.004 C 
BRANCH   8   9
ATOM      9  C   UNL     1       0.737  29.941  34.131  1.00  0.00     0.027 C 
BRANCH   9  10
ATOM     10  C   UNL     1       0.393  30.883  33.011  1.00  0.00    -0.035 C 
ATOM     11  C   UNL     1      -0.756  31.566  32.994  1.00  0.00     0.004 C 
ENDBRANCH   9  10
ENDBRANCH   8   9
ENDBRANCH   7   8
ENDBRANCH   1   7
TORSDOF 7
ENDMDL
