MODEL 1
REMARK VINA RESULT:    -3.387      0.000      0.000
REMARK INTER + INTRA:          -3.851
REMARK INTER:                  -3.783
REMARK INTRA:                  -0.068
REMARK UNBOUND:                -0.068
REMARK SMILES CCCC(=O)[O-]
REMARK SMILES IDX 3 1 4 2 5 3 6 4 2 5 1 6
REMARK H PARENT
REMARK Flexibility Score: inf
ROOT
ATOM      1  C   UNL     1       3.649   2.738  -7.813  1.00  0.00     0.052 C 
ENDROOT
BRANCH   1   2
ATOM      2  C   UNL     1       4.723   3.783  -7.770  1.00  0.00     0.041 C 
ATOM      3  O   UNL     1       4.524   4.869  -7.164  1.00  0.00    -0.550 OA
ATOM      4  O   UNL     1       5.928   3.571  -8.428  1.00  0.00    -0.550 OA
ENDBRANCH   1   2
BRANCH   1   5
ATOM      5  C   UNL     1       3.185   2.457  -9.247  1.00  0.00     0.003 C 
ATOM      6  C   UNL     1       2.675   3.715  -9.950  1.00  0.00     0.004 C 
ENDBRANCH   1   5
TORSDOF 2
ENDMDL
MODEL 2
REMARK VINA RESULT:    -3.352     12.061     12.586
REMARK INTER + INTRA:          -3.813
REMARK INTER:                  -3.769
REMARK INTRA:                  -0.044
REMARK UNBOUND:                -0.068
REMARK SMILES CCCC(=O)[O-]
REMARK SMILES IDX 3 1 4 2 5 3 6 4 2 5 1 6
REMARK H PARENT
REMARK Flexibility Score: inf
ROOT
ATOM      1  C   UNL     1      -5.087  10.237  -9.916  1.00  0.00     0.052 C 
ENDROOT
BRANCH   1   2
ATOM      2  C   UNL     1      -5.736  11.516  -9.480  1.00  0.00     0.041 C 
ATOM      3  O   UNL     1      -5.084  12.593  -9.494  1.00  0.00    -0.550 OA
ATOM      4  O   UNL     1      -7.048  11.510  -9.024  1.00  0.00    -0.550 OA
ENDBRANCH   1   2
BRANCH   1   5
ATOM      5  C   UNL     1      -6.122   9.193 -10.351  1.00  0.00     0.003 C 
ATOM      6  C   UNL     1      -6.495   9.321 -11.828  1.00  0.00     0.004 C 
ENDBRANCH   1   5
TORSDOF 2
ENDMDL
MODEL 3
REMARK VINA RESULT:    -3.336     12.121     12.598
REMARK INTER + INTRA:          -3.795
REMARK INTER:                  -3.756
REMARK INTRA:                  -0.039
REMARK UNBOUND:                -0.068
REMARK SMILES CCCC(=O)[O-]
REMARK SMILES IDX 3 1 4 2 5 3 6 4 2 5 1 6
REMARK H PARENT
REMARK Flexibility Score: inf
ROOT
ATOM      1  C   UNL     1      -5.158  10.230  -9.946  1.00  0.00     0.052 C 
ENDROOT
BRANCH   1   2
ATOM      2  C   UNL     1      -5.808  11.495  -9.473  1.00  0.00     0.041 C 
ATOM      3  O   UNL     1      -7.008  11.486  -9.091  1.00  0.00    -0.550 OA
ATOM      4  O   UNL     1      -5.099  12.690  -9.487  1.00  0.00    -0.550 OA
ENDBRANCH   1   2
BRANCH   1   5
ATOM      5  C   UNL     1      -6.194   9.187 -10.381  1.00  0.00     0.003 C 
ATOM      6  C   UNL     1      -6.548   9.300 -11.864  1.00  0.00     0.004 C 
ENDBRANCH   1   5
TORSDOF 2
ENDMDL
MODEL 4
REMARK VINA RESULT:    -3.246      2.272      2.727
REMARK INTER + INTRA:          -3.694
REMARK INTER:                  -3.623
REMARK INTRA:                  -0.071
REMARK UNBOUND:                -0.068
REMARK SMILES CCCC(=O)[O-]
REMARK SMILES IDX 3 1 4 2 5 3 6 4 2 5 1 6
REMARK H PARENT
REMARK Flexibility Score: inf
ROOT
ATOM      1  C   UNL     1       3.160   2.112  -8.253  1.00  0.00     0.052 C 
ENDROOT
BRANCH   1   2
ATOM      2  C   UNL     1       4.150   1.164  -7.646  1.00  0.00     0.041 C 
ATOM      3  O   UNL     1       4.017   0.791  -6.451  1.00  0.00    -0.550 OA
ATOM      4  O   UNL     1       5.236   0.721  -8.390  1.00  0.00    -0.550 OA
ENDBRANCH   1   2
BRANCH   1   5
ATOM      5  C   UNL     1       3.836   3.391  -8.761  1.00  0.00     0.003 C 
ATOM      6  C   UNL     1       4.571   4.142  -7.651  1.00  0.00     0.004 C 
ENDBRANCH   1   5
TORSDOF 2
ENDMDL
MODEL 5
REMARK VINA RESULT:    -3.246     12.128     12.923
REMARK INTER + INTRA:          -3.694
REMARK INTER:                  -3.626
REMARK INTRA:                  -0.068
REMARK UNBOUND:                -0.068
REMARK SMILES CCCC(=O)[O-]
REMARK SMILES IDX 3 1 4 2 5 3 6 4 2 5 1 6
REMARK H PARENT
REMARK Flexibility Score: inf
ROOT
ATOM      1  C   UNL     1      -6.095   9.239  -9.873  1.00  0.00     0.052 C 
ENDROOT
BRANCH   1   2
ATOM      2  C   UNL     1      -7.101   9.564 -10.936  1.00  0.00     0.041 C 
ATOM      3  O   UNL     1      -6.800   9.435 -12.152  1.00  0.00    -0.550 OA
ATOM      4  O   UNL     1      -8.356  10.043 -10.584  1.00  0.00    -0.550 OA
ENDBRANCH   1   2
BRANCH   1   5
ATOM      5  C   UNL     1      -4.914  10.215  -9.889  1.00  0.00     0.003 C 
ATOM      6  C   UNL     1      -5.315  11.623  -9.449  1.00  0.00     0.004 C 
ENDBRANCH   1   5
TORSDOF 2
ENDMDL
MODEL 6
REMARK VINA RESULT:    -3.240     12.733     13.200
REMARK INTER + INTRA:          -3.687
REMARK INTER:                  -3.625
REMARK INTRA:                  -0.062
REMARK UNBOUND:                -0.068
REMARK SMILES CCCC(=O)[O-]
REMARK SMILES IDX 3 1 4 2 5 3 6 4 2 5 1 6
REMARK H PARENT
REMARK Flexibility Score: inf
ROOT
ATOM      1  C   UNL     1      -7.783  10.973  -9.989  1.00  0.00     0.052 C 
ENDROOT
BRANCH   1   2
ATOM      2  C   UNL     1      -6.576  11.201  -9.129  1.00  0.00     0.041 C 
ATOM      3  O   UNL     1      -5.695  12.029  -9.482  1.00  0.00    -0.550 OA
ATOM      4  O   UNL     1      -6.409  10.474  -7.957  1.00  0.00    -0.550 OA
ENDBRANCH   1   2
BRANCH   1   5
ATOM      5  C   UNL     1      -7.788   9.567 -10.601  1.00  0.00     0.003 C 
ATOM      6  C   UNL     1      -6.726   9.401 -11.689  1.00  0.00     0.004 C 
ENDBRANCH   1   5
TORSDOF 2
ENDMDL
MODEL 7
REMARK VINA RESULT:    -3.188      1.818      2.447
REMARK INTER + INTRA:          -3.629
REMARK INTER:                  -3.593
REMARK INTRA:                  -0.036
REMARK UNBOUND:                -0.068
REMARK SMILES CCCC(=O)[O-]
REMARK SMILES IDX 3 1 4 2 5 3 6 4 2 5 1 6
REMARK H PARENT
REMARK Flexibility Score: inf
ROOT
ATOM      1  C   UNL     1       4.459   2.021  -8.350  1.00  0.00     0.052 C 
ENDROOT
BRANCH   1   2
ATOM      2  C   UNL     1       3.966   3.435  -8.422  1.00  0.00     0.041 C 
ATOM      3  O   UNL     1       3.098   3.760  -9.274  1.00  0.00    -0.550 OA
ATOM      4  O   UNL     1       4.492   4.399  -7.571  1.00  0.00    -0.550 OA
ENDBRANCH   1   2
BRANCH   1   5
ATOM      5  C   UNL     1       3.778   1.238  -7.222  1.00  0.00     0.003 C 
ATOM      6  C   UNL     1       2.639   0.354  -7.730  1.00  0.00     0.004 C 
ENDBRANCH   1   5
TORSDOF 2
ENDMDL
MODEL 8
REMARK VINA RESULT:    -3.185     12.039     12.899
REMARK INTER + INTRA:          -3.626
REMARK INTER:                  -3.565
REMARK INTRA:                  -0.061
REMARK UNBOUND:                -0.068
REMARK SMILES CCCC(=O)[O-]
REMARK SMILES IDX 3 1 4 2 5 3 6 4 2 5 1 6
REMARK H PARENT
REMARK Flexibility Score: inf
ROOT
ATOM      1  C   UNL     1      -5.227  11.356  -9.448  1.00  0.00     0.052 C 
ENDROOT
BRANCH   1   2
ATOM      2  C   UNL     1      -6.661  11.579  -9.074  1.00  0.00     0.041 C 
ATOM      3  O   UNL     1      -7.547  10.770  -9.456  1.00  0.00    -0.550 OA
ATOM      4  O   UNL     1      -7.022  12.698  -8.334  1.00  0.00    -0.550 OA
ENDBRANCH   1   2
BRANCH   1   5
ATOM      5  C   UNL     1      -4.755   9.946  -9.076  1.00  0.00     0.003 C 
ATOM      6  C   UNL     1      -4.546   9.778  -7.571  1.00  0.00     0.004 C 
ENDBRANCH   1   5
TORSDOF 2
ENDMDL
MODEL 9
REMARK VINA RESULT:    -3.169     10.703     11.703
REMARK INTER + INTRA:          -3.607
REMARK INTER:                  -3.599
REMARK INTRA:                  -0.008
REMARK UNBOUND:                -0.068
REMARK SMILES CCCC(=O)[O-]
REMARK SMILES IDX 3 1 4 2 5 3 6 4 2 5 1 6
REMARK H PARENT
REMARK Flexibility Score: inf
ROOT
ATOM      1  C   UNL     1      -4.787   9.634  -9.061  1.00  0.00     0.052 C 
ENDROOT
BRANCH   1   2
ATOM      2  C   UNL     1      -5.491  10.855  -9.571  1.00  0.00     0.041 C 
ATOM      3  O   UNL     1      -4.983  11.995  -9.404  1.00  0.00    -0.550 OA
ATOM      4  O   UNL     1      -6.725  10.736 -10.199  1.00  0.00    -0.550 OA
ENDBRANCH   1   2
BRANCH   1   5
ATOM      5  C   UNL     1      -4.318   9.812  -7.612  1.00  0.00     0.003 C 
ATOM      6  C   UNL     1      -3.488   8.626  -7.119  1.00  0.00     0.004 C 
ENDBRANCH   1   5
TORSDOF 2
ENDMDL
