MODEL 1
REMARK VINA RESULT:    -7.587      0.000      0.000
REMARK INTER + INTRA:          -7.587
REMARK INTER:                  -7.587
REMARK INTRA:                   0.000
REMARK UNBOUND:                 0.000
REMARK SMILES C=C1CCC[C@@]2(C)CC(=O)C(=C(C)C)C[C@@H]12
REMARK SMILES IDX 13 1 12 2 11 3 15 4 16 5 2 6 1 7 3 8 4 9 5 10 6 11 8 12 9 13
REMARK SMILES IDX 10 14 7 15 14 16
REMARK H PARENT
REMARK Flexibility Score: inf
ROOT
ATOM      1  C   UNL     1      19.586 201.463  15.918  1.00  0.00     0.039 C 
ATOM      2  C   UNL     1      19.316 202.358  14.731  1.00  0.00    -0.070 C 
ATOM      3  C   UNL     1      19.041 203.686  14.886  1.00  0.00    -0.006 C 
ATOM      4  C   UNL     1      18.854 204.640  13.722  1.00  0.00     0.047 C 
ATOM      5  C   UNL     1      19.857 205.837  13.761  1.00  0.00     0.025 C 
ATOM      6  C   UNL     1      19.426 206.992  12.832  1.00  0.00    -0.073 C 
ATOM      7  C   UNL     1      18.642 206.797  11.752  1.00  0.00     0.008 C 
ATOM      8  C   UNL     1      20.015 208.379  12.986  1.00  0.00     0.031 C 
ATOM      9  C   UNL     1      20.982 208.483  14.156  1.00  0.00     0.005 C 
ATOM     10  C   UNL     1      20.359 207.843  15.391  1.00  0.00     0.008 C 
ATOM     11  C   UNL     1      20.230 206.297  15.246  1.00  0.00    -0.018 C 
ATOM     12  C   UNL     1      19.154 205.831  16.272  1.00  0.00     0.088 C 
ATOM     13  C   UNL     1      18.935 204.350  16.206  1.00  0.00     0.159 C 
ATOM     14  O   UNL     1      18.591 203.727  17.246  1.00  0.00    -0.295 OA
ATOM     15  C   UNL     1      21.594 205.665  15.649  1.00  0.00     0.012 C 
ATOM     16  C   UNL     1      19.405 201.729  13.360  1.00  0.00     0.039 C 
ENDROOT
TORSDOF 0
ENDMDL
MODEL 2
REMARK VINA RESULT:    -5.539      1.886      5.076
REMARK INTER + INTRA:          -5.539
REMARK INTER:                  -5.539
REMARK INTRA:                   0.000
REMARK UNBOUND:                 0.000
REMARK SMILES C=C1CCC[C@@]2(C)CC(=O)C(=C(C)C)C[C@@H]12
REMARK SMILES IDX 13 1 12 2 11 3 15 4 16 5 2 6 1 7 3 8 4 9 5 10 6 11 8 12 9 13
REMARK SMILES IDX 10 14 7 15 14 16
REMARK H PARENT
REMARK Flexibility Score: inf
ROOT
ATOM      1  C   UNL     1      21.337 209.125  14.075  1.00  0.00     0.039 C 
ATOM      2  C   UNL     1      21.994 207.765  14.123  1.00  0.00    -0.070 C 
ATOM      3  C   UNL     1      21.430 206.724  14.803  1.00  0.00    -0.006 C 
ATOM      4  C   UNL     1      22.004 205.320  14.802  1.00  0.00     0.047 C 
ATOM      5  C   UNL     1      20.989 204.257  14.274  1.00  0.00     0.025 C 
ATOM      6  C   UNL     1      21.410 202.816  14.635  1.00  0.00    -0.073 C 
ATOM      7  C   UNL     1      22.694 202.475  14.865  1.00  0.00     0.008 C 
ATOM      8  C   UNL     1      20.418 201.673  14.569  1.00  0.00     0.031 C 
ATOM      9  C   UNL     1      19.017 202.129  14.185  1.00  0.00     0.005 C 
ATOM     10  C   UNL     1      18.632 203.347  15.015  1.00  0.00     0.008 C 
ATOM     11  C   UNL     1      19.471 204.604  14.634  1.00  0.00    -0.018 C 
ATOM     12  C   UNL     1      19.383 205.592  15.835  1.00  0.00     0.088 C 
ATOM     13  C   UNL     1      20.174 206.840  15.580  1.00  0.00     0.159 C 
ATOM     14  O   UNL     1      19.802 207.926  16.096  1.00  0.00    -0.295 OA
ATOM     15  C   UNL     1      18.794 205.272  13.402  1.00  0.00     0.012 C 
ATOM     16  C   UNL     1      23.281 207.594  13.351  1.00  0.00     0.039 C 
ENDROOT
TORSDOF 0
ENDMDL
MODEL 3
REMARK VINA RESULT:    -5.137      1.889      4.788
REMARK INTER + INTRA:          -5.137
REMARK INTER:                  -5.137
REMARK INTRA:                   0.000
REMARK UNBOUND:                 0.000
REMARK SMILES C=C1CCC[C@@]2(C)CC(=O)C(=C(C)C)C[C@@H]12
REMARK SMILES IDX 13 1 12 2 11 3 15 4 16 5 2 6 1 7 3 8 4 9 5 10 6 11 8 12 9 13
REMARK SMILES IDX 10 14 7 15 14 16
REMARK H PARENT
REMARK Flexibility Score: inf
ROOT
ATOM      1  C   UNL     1      19.765 209.115  12.668  1.00  0.00     0.039 C 
ATOM      2  C   UNL     1      19.369 207.672  12.453  1.00  0.00    -0.070 C 
ATOM      3  C   UNL     1      20.022 206.651  13.082  1.00  0.00    -0.006 C 
ATOM      4  C   UNL     1      19.602 205.199  12.969  1.00  0.00     0.047 C 
ATOM      5  C   UNL     1      19.284 204.557  14.357  1.00  0.00     0.025 C 
ATOM      6  C   UNL     1      19.244 203.015  14.293  1.00  0.00    -0.073 C 
ATOM      7  C   UNL     1      18.970 202.345  13.155  1.00  0.00     0.008 C 
ATOM      8  C   UNL     1      19.335 202.178  15.553  1.00  0.00     0.031 C 
ATOM      9  C   UNL     1      19.524 203.020  16.807  1.00  0.00     0.005 C 
ATOM     10  C   UNL     1      20.620 204.051  16.568  1.00  0.00     0.008 C 
ATOM     11  C   UNL     1      20.186 205.140  15.541  1.00  0.00    -0.018 C 
ATOM     12  C   UNL     1      21.488 205.795  14.993  1.00  0.00     0.088 C 
ATOM     13  C   UNL     1      21.186 206.854  13.976  1.00  0.00     0.159 C 
ATOM     14  O   UNL     1      21.965 207.836  13.853  1.00  0.00    -0.295 OA
ATOM     15  C   UNL     1      19.379 206.225  16.310  1.00  0.00     0.012 C 
ATOM     16  C   UNL     1      18.191 207.409  11.544  1.00  0.00     0.039 C 
ENDROOT
TORSDOF 0
ENDMDL
MODEL 4
REMARK VINA RESULT:    -5.136      1.604      5.073
REMARK INTER + INTRA:          -5.136
REMARK INTER:                  -5.136
REMARK INTRA:                   0.000
REMARK UNBOUND:                 0.000
REMARK SMILES C=C1CCC[C@@]2(C)CC(=O)C(=C(C)C)C[C@@H]12
REMARK SMILES IDX 13 1 12 2 11 3 15 4 16 5 2 6 1 7 3 8 4 9 5 10 6 11 8 12 9 13
REMARK SMILES IDX 10 14 7 15 14 16
REMARK H PARENT
REMARK Flexibility Score: inf
ROOT
ATOM      1  C   UNL     1      20.092 207.527  14.995  1.00  0.00     0.039 C 
ATOM      2  C   UNL     1      19.774 206.324  14.136  1.00  0.00    -0.070 C 
ATOM      3  C   UNL     1      20.309 205.097  14.400  1.00  0.00    -0.006 C 
ATOM      4  C   UNL     1      19.948 203.846  13.624  1.00  0.00     0.047 C 
ATOM      5  C   UNL     1      19.374 202.717  14.539  1.00  0.00     0.025 C 
ATOM      6  C   UNL     1      19.378 201.339  13.842  1.00  0.00    -0.073 C 
ATOM      7  C   UNL     1      19.347 201.209  12.500  1.00  0.00     0.008 C 
ATOM      8  C   UNL     1      19.233 200.060  14.639  1.00  0.00     0.031 C 
ATOM      9  C   UNL     1      19.156 200.305  16.139  1.00  0.00     0.005 C 
ATOM     10  C   UNL     1      20.257 201.273  16.556  1.00  0.00     0.008 C 
ATOM     11  C   UNL     1      20.013 202.710  16.005  1.00  0.00    -0.018 C 
ATOM     12  C   UNL     1      21.386 203.446  16.029  1.00  0.00     0.088 C 
ATOM     13  C   UNL     1      21.270 204.844  15.500  1.00  0.00     0.159 C 
ATOM     14  O   UNL     1      22.039 205.739  15.939  1.00  0.00    -0.295 OA
ATOM     15  C   UNL     1      19.050 203.438  16.985  1.00  0.00     0.012 C 
ATOM     16  C   UNL     1      18.803 206.529  12.996  1.00  0.00     0.039 C 
ENDROOT
TORSDOF 0
ENDMDL
MODEL 5
REMARK VINA RESULT:    -5.074      1.798      2.733
REMARK INTER + INTRA:          -5.074
REMARK INTER:                  -5.074
REMARK INTRA:                   0.000
REMARK UNBOUND:                 0.000
REMARK SMILES C=C1CCC[C@@]2(C)CC(=O)C(=C(C)C)C[C@@H]12
REMARK SMILES IDX 13 1 12 2 11 3 15 4 16 5 2 6 1 7 3 8 4 9 5 10 6 11 8 12 9 13
REMARK SMILES IDX 10 14 7 15 14 16
REMARK H PARENT
REMARK Flexibility Score: inf
ROOT
ATOM      1  C   UNL     1      19.459 202.417  16.515  1.00  0.00     0.039 C 
ATOM      2  C   UNL     1      20.692 203.124  15.999  1.00  0.00    -0.070 C 
ATOM      3  C   UNL     1      20.621 204.031  14.982  1.00  0.00    -0.006 C 
ATOM      4  C   UNL     1      21.813 204.832  14.495  1.00  0.00     0.047 C 
ATOM      5  C   UNL     1      21.579 206.374  14.589  1.00  0.00     0.025 C 
ATOM      6  C   UNL     1      22.599 207.172  13.747  1.00  0.00    -0.073 C 
ATOM      7  C   UNL     1      23.818 206.686  13.437  1.00  0.00     0.008 C 
ATOM      8  C   UNL     1      22.345 208.620  13.381  1.00  0.00     0.031 C 
ATOM      9  C   UNL     1      20.996 209.125  13.873  1.00  0.00     0.005 C 
ATOM     10  C   UNL     1      19.914 208.111  13.523  1.00  0.00     0.008 C 
ATOM     11  C   UNL     1      20.057 206.795  14.345  1.00  0.00    -0.018 C 
ATOM     12  C   UNL     1      19.279 205.689  13.572  1.00  0.00     0.088 C 
ATOM     13  C   UNL     1      19.365 204.365  14.271  1.00  0.00     0.159 C 
ATOM     14  O   UNL     1      18.413 203.546  14.168  1.00  0.00    -0.295 OA
ATOM     15  C   UNL     1      19.361 207.013  15.719  1.00  0.00     0.012 C 
ATOM     16  C   UNL     1      22.001 202.815  16.687  1.00  0.00     0.039 C 
ENDROOT
TORSDOF 0
ENDMDL
MODEL 6
REMARK VINA RESULT:    -5.023      1.890      3.397
REMARK INTER + INTRA:          -5.023
REMARK INTER:                  -5.023
REMARK INTRA:                   0.000
REMARK UNBOUND:                 0.000
REMARK SMILES C=C1CCC[C@@]2(C)CC(=O)C(=C(C)C)C[C@@H]12
REMARK SMILES IDX 13 1 12 2 11 3 15 4 16 5 2 6 1 7 3 8 4 9 5 10 6 11 8 12 9 13
REMARK SMILES IDX 10 14 7 15 14 16
REMARK H PARENT
REMARK Flexibility Score: inf
ROOT
ATOM      1  C   UNL     1      19.006 202.400  14.773  1.00  0.00     0.039 C 
ATOM      2  C   UNL     1      19.289 203.557  15.703  1.00  0.00    -0.070 C 
ATOM      3  C   UNL     1      20.425 204.305  15.586  1.00  0.00    -0.006 C 
ATOM      4  C   UNL     1      20.707 205.529  16.435  1.00  0.00     0.047 C 
ATOM      5  C   UNL     1      20.935 206.814  15.577  1.00  0.00     0.025 C 
ATOM      6  C   UNL     1      21.599 207.949  16.387  1.00  0.00    -0.073 C 
ATOM      7  C   UNL     1      21.493 208.036  17.729  1.00  0.00     0.008 C 
ATOM      8  C   UNL     1      22.253 209.125  15.692  1.00  0.00     0.031 C 
ATOM      9  C   UNL     1      22.224 209.005  14.175  1.00  0.00     0.005 C 
ATOM     10  C   UNL     1      22.673 207.607  13.766  1.00  0.00     0.008 C 
ATOM     11  C   UNL     1      21.636 206.517  14.172  1.00  0.00    -0.018 C 
ATOM     12  C   UNL     1      22.392 205.155  14.192  1.00  0.00     0.088 C 
ATOM     13  C   UNL     1      21.486 204.029  14.590  1.00  0.00     0.159 C 
ATOM     14  O   UNL     1      21.698 202.873  14.138  1.00  0.00    -0.295 OA
ATOM     15  C   UNL     1      20.549 206.456  13.061  1.00  0.00     0.012 C 
ATOM     16  C   UNL     1      18.240 203.878  16.742  1.00  0.00     0.039 C 
ENDROOT
TORSDOF 0
ENDMDL
MODEL 7
REMARK VINA RESULT:    -4.857      1.982      5.293
REMARK INTER + INTRA:          -4.857
REMARK INTER:                  -4.857
REMARK INTRA:                   0.000
REMARK UNBOUND:                 0.000
REMARK SMILES C=C1CCC[C@@]2(C)CC(=O)C(=C(C)C)C[C@@H]12
REMARK SMILES IDX 13 1 12 2 11 3 15 4 16 5 2 6 1 7 3 8 4 9 5 10 6 11 8 12 9 13
REMARK SMILES IDX 10 14 7 15 14 16
REMARK H PARENT
REMARK Flexibility Score: inf
ROOT
ATOM      1  C   UNL     1      21.470 209.124  15.238  1.00  0.00     0.039 C 
ATOM      2  C   UNL     1      20.787 208.092  16.106  1.00  0.00    -0.070 C 
ATOM      3  C   UNL     1      20.146 207.016  15.564  1.00  0.00    -0.006 C 
ATOM      4  C   UNL     1      19.527 205.909  16.396  1.00  0.00     0.047 C 
ATOM      5  C   UNL     1      20.116 204.503  16.056  1.00  0.00     0.025 C 
ATOM      6  C   UNL     1      19.236 203.354  16.596  1.00  0.00    -0.073 C 
ATOM      7  C   UNL     1      18.412 203.510  17.652  1.00  0.00     0.008 C 
ATOM      8  C   UNL     1      19.392 201.940  16.075  1.00  0.00     0.031 C 
ATOM      9  C   UNL     1      20.429 201.831  14.966  1.00  0.00     0.005 C 
ATOM     10  C   UNL     1      20.198 202.936  13.942  1.00  0.00     0.008 C 
ATOM     11  C   UNL     1      20.525 204.346  14.519  1.00  0.00    -0.018 C 
ATOM     12  C   UNL     1      19.786 205.387  13.626  1.00  0.00     0.088 C 
ATOM     13  C   UNL     1      20.020 206.788  14.105  1.00  0.00     0.159 C 
ATOM     14  O   UNL     1      20.022 207.735  13.275  1.00  0.00    -0.295 OA
ATOM     15  C   UNL     1      22.057 204.577  14.373  1.00  0.00     0.012 C 
ATOM     16  C   UNL     1      20.879 208.280  17.602  1.00  0.00     0.039 C 
ENDROOT
TORSDOF 0
ENDMDL
MODEL 8
REMARK VINA RESULT:    -4.824      1.870      2.639
REMARK INTER + INTRA:          -4.824
REMARK INTER:                  -4.824
REMARK INTRA:                   0.000
REMARK UNBOUND:                 0.000
REMARK SMILES C=C1CCC[C@@]2(C)CC(=O)C(=C(C)C)C[C@@H]12
REMARK SMILES IDX 13 1 12 2 11 3 15 4 16 5 2 6 1 7 3 8 4 9 5 10 6 11 8 12 9 13
REMARK SMILES IDX 10 14 7 15 14 16
REMARK H PARENT
REMARK Flexibility Score: inf
ROOT
ATOM      1  C   UNL     1      20.348 201.823  15.402  1.00  0.00     0.039 C 
ATOM      2  C   UNL     1      21.365 202.815  14.888  1.00  0.00    -0.070 C 
ATOM      3  C   UNL     1      21.001 204.069  14.490  1.00  0.00    -0.006 C 
ATOM      4  C   UNL     1      21.996 205.127  14.055  1.00  0.00     0.047 C 
ATOM      5  C   UNL     1      21.906 206.427  14.917  1.00  0.00     0.025 C 
ATOM      6  C   UNL     1      22.617 207.624  14.248  1.00  0.00    -0.073 C 
ATOM      7  C   UNL     1      23.619 207.465  13.360  1.00  0.00     0.008 C 
ATOM      8  C   UNL     1      22.342 209.044  14.696  1.00  0.00     0.031 C 
ATOM      9  C   UNL     1      21.283 209.125  15.786  1.00  0.00     0.005 C 
ATOM     10  C   UNL     1      20.085 208.266  15.398  1.00  0.00     0.008 C 
ATOM     11  C   UNL     1      20.423 206.745  15.422  1.00  0.00    -0.018 C 
ATOM     12  C   UNL     1      19.358 206.027  14.541  1.00  0.00     0.088 C 
ATOM     13  C   UNL     1      19.599 204.549  14.481  1.00  0.00     0.159 C 
ATOM     14  O   UNL     1      18.623 203.766  14.341  1.00  0.00    -0.295 OA
ATOM     15  C   UNL     1      20.265 206.245  16.887  1.00  0.00     0.012 C 
ATOM     16  C   UNL     1      22.810 202.374  14.871  1.00  0.00     0.039 C 
ENDROOT
TORSDOF 0
ENDMDL
