MODEL 1
REMARK VINA RESULT:    -4.425      0.000      0.000
REMARK INTER + INTRA:          -5.080
REMARK INTER:                  -5.331
REMARK INTRA:                   0.251
REMARK UNBOUND:                 0.251
REMARK SMILES Oc1cc(O)c2cc(O)c(-c3ccc(O)c(O)c3)[o+]c2c1.[Cl-]
REMARK SMILES IDX 10 1 19 2 20 3 21 4 2 5 3 6 4 7 6 8 7 9 8 10 11 11 12 12
REMARK SMILES IDX 13 13 14 14 18 15 16 16 15 17 17 19 9 21 1 23 5 25
REMARK H PARENT 15 18 17 20 9 22 1 24 5 26
REMARK Flexibility Score: inf
ROOT
ATOM      1  C   UNL     1       7.932   9.019  -3.598  1.00  0.00     0.402 A 
ATOM      2  O   UNL     1       6.675   9.309  -3.922  1.00  0.00    -0.202 OA
ATOM      3  C   UNL     1       6.198   9.210  -5.158  1.00  0.00     0.368 A 
ATOM      4  C   UNL     1       4.862   9.542  -5.401  1.00  0.00     0.162 A 
ATOM      5  C   UNL     1       4.335   9.449  -6.689  1.00  0.00     0.128 A 
ATOM      6  C   UNL     1       5.147   9.022  -7.745  1.00  0.00     0.093 A 
ATOM      7  C   UNL     1       6.489   8.684  -7.528  1.00  0.00     0.136 A 
ATOM      8  C   UNL     1       7.028   8.774  -6.219  1.00  0.00     0.125 A 
ATOM      9  C   UNL     1       8.357   8.444  -5.906  1.00  0.00     0.078 A 
ATOM     10  C   UNL     1       8.815   8.554  -4.590  1.00  0.00     0.223 A 
ENDROOT
BRANCH   1  11
ATOM     11  C   UNL     1       8.347   9.180  -2.186  1.00  0.00     0.087 A 
ATOM     12  C   UNL     1       9.693   9.390  -1.837  1.00  0.00     0.022 A 
ATOM     13  C   UNL     1      10.057   9.563  -0.499  1.00  0.00     0.051 A 
ATOM     14  C   UNL     1       9.083   9.543   0.507  1.00  0.00     0.157 A 
ATOM     15  C   UNL     1       7.371   9.182  -1.175  1.00  0.00     0.068 A 
ATOM     16  C   UNL     1       7.733   9.354   0.166  1.00  0.00     0.158 A 
BRANCH  14  17
ATOM     17  O   UNL     1       9.450   9.714   1.841  1.00  0.00    -0.504 OA
ATOM     18  H   UNL     1      10.384   9.494   2.167  1.00  0.00     0.293 HD
ENDBRANCH  14  17
BRANCH  16  19
ATOM     19  O   UNL     1       6.739   9.336   1.143  1.00  0.00    -0.504 OA
ATOM     20  H   UNL     1       6.640   8.568   1.796  1.00  0.00     0.293 HD
ENDBRANCH  16  19
ENDBRANCH   1  11
BRANCH  10  21
ATOM     21  O   UNL     1      10.120   8.178  -4.270  1.00  0.00    -0.500 OA
ATOM     22  H   UNL     1      10.318   7.331  -3.752  1.00  0.00     0.294 HD
ENDBRANCH  10  21
BRANCH   5  23
ATOM     23  O   UNL     1       3.001   9.784  -6.910  1.00  0.00    -0.507 OA
ATOM     24  H   UNL     1       2.692  10.179  -7.790  1.00  0.00     0.293 HD
ENDBRANCH   5  23
BRANCH   7  25
ATOM     25  O   UNL     1       7.235   8.271  -8.636  1.00  0.00    -0.507 OA
ATOM     26  H   UNL     1       6.849   8.101  -9.553  1.00  0.00     0.293 HD
ENDBRANCH   7  25
TORSDOF 6
ENDMDL
MODEL 2
REMARK VINA RESULT:    -4.040     15.900     18.625
REMARK INTER + INTRA:          -4.615
REMARK INTER:                  -4.610
REMARK INTRA:                  -0.006
REMARK UNBOUND:                 0.251
REMARK SMILES Oc1cc(O)c2cc(O)c(-c3ccc(O)c(O)c3)[o+]c2c1.[Cl-]
REMARK SMILES IDX 10 1 19 2 20 3 21 4 2 5 3 6 4 7 6 8 7 9 8 10 11 11 12 12
REMARK SMILES IDX 13 13 14 14 18 15 16 16 15 17 17 19 9 21 1 23 5 25
REMARK H PARENT 15 18 17 20 9 22 1 24 5 26
REMARK Flexibility Score: inf
ROOT
ATOM      1  C   UNL     1      -9.456   3.446  -6.604  1.00  0.00     0.402 A 
ATOM      2  O   UNL     1      -9.547   2.516  -5.657  1.00  0.00    -0.202 OA
ATOM      3  C   UNL     1      -9.716   1.224  -5.914  1.00  0.00     0.368 A 
ATOM      4  C   UNL     1      -9.804   0.323  -4.850  1.00  0.00     0.162 A 
ATOM      5  C   UNL     1      -9.985  -1.038  -5.091  1.00  0.00     0.128 A 
ATOM      6  C   UNL     1     -10.079  -1.506  -6.406  1.00  0.00     0.093 A 
ATOM      7  C   UNL     1      -9.993  -0.625  -7.491  1.00  0.00     0.136 A 
ATOM      8  C   UNL     1      -9.807   0.761  -7.249  1.00  0.00     0.125 A 
ATOM      9  C   UNL     1      -9.698   1.716  -8.274  1.00  0.00     0.078 A 
ATOM     10  C   UNL     1      -9.510   3.064  -7.958  1.00  0.00     0.223 A 
ENDROOT
BRANCH   1  11
ATOM     11  C   UNL     1      -9.277   4.855  -6.189  1.00  0.00     0.087 A 
ATOM     12  C   UNL     1     -10.110   5.444  -5.221  1.00  0.00     0.022 A 
ATOM     13  C   UNL     1      -9.908   6.770  -4.826  1.00  0.00     0.051 A 
ATOM     14  C   UNL     1      -8.864   7.521  -5.383  1.00  0.00     0.157 A 
ATOM     15  C   UNL     1      -8.220   5.606  -6.727  1.00  0.00     0.068 A 
ATOM     16  C   UNL     1      -8.015   6.935  -6.336  1.00  0.00     0.158 A 
BRANCH  14  17
ATOM     17  O   UNL     1      -8.667   8.844  -4.989  1.00  0.00    -0.504 OA
ATOM     18  H   UNL     1      -7.754   9.183  -4.708  1.00  0.00     0.293 HD
ENDBRANCH  14  17
BRANCH  16  19
ATOM     19  O   UNL     1      -6.963   7.653  -6.902  1.00  0.00    -0.504 OA
ATOM     20  H   UNL     1      -6.958   7.918  -7.880  1.00  0.00     0.293 HD
ENDBRANCH  16  19
ENDBRANCH   1  11
BRANCH  10  21
ATOM     21  O   UNL     1      -9.351   4.006  -8.975  1.00  0.00    -0.500 OA
ATOM     22  H   UNL     1      -8.673   3.878  -9.717  1.00  0.00     0.294 HD
ENDBRANCH  10  21
BRANCH   5  23
ATOM     23  O   UNL     1     -10.070  -1.921  -4.016  1.00  0.00    -0.507 OA
ATOM     24  H   UNL     1     -10.557  -2.806  -4.093  1.00  0.00     0.293 HD
ENDBRANCH   5  23
BRANCH   7  25
ATOM     25  O   UNL     1     -10.101  -1.170  -8.773  1.00  0.00    -0.507 OA
ATOM     26  H   UNL     1     -10.651  -1.985  -9.003  1.00  0.00     0.293 HD
ENDBRANCH   7  25
TORSDOF 6
ENDMDL
MODEL 3
REMARK VINA RESULT:    -4.020      1.425      6.719
REMARK INTER + INTRA:          -4.592
REMARK INTER:                  -4.816
REMARK INTRA:                   0.224
REMARK UNBOUND:                 0.251
REMARK SMILES Oc1cc(O)c2cc(O)c(-c3ccc(O)c(O)c3)[o+]c2c1.[Cl-]
REMARK SMILES IDX 10 1 19 2 20 3 21 4 2 5 3 6 4 7 6 8 7 9 8 10 11 11 12 12
REMARK SMILES IDX 13 13 14 14 18 15 16 16 15 17 17 19 9 21 1 23 5 25
REMARK H PARENT 15 18 17 20 9 22 1 24 5 26
REMARK Flexibility Score: inf
ROOT
ATOM      1  C   UNL     1       6.943   8.885  -4.833  1.00  0.00     0.402 A 
ATOM      2  O   UNL     1       6.410   9.335  -3.701  1.00  0.00    -0.202 OA
ATOM      3  C   UNL     1       7.005   9.223  -2.518  1.00  0.00     0.368 A 
ATOM      4  C   UNL     1       6.362   9.724  -1.383  1.00  0.00     0.162 A 
ATOM      5  C   UNL     1       6.962   9.619  -0.128  1.00  0.00     0.128 A 
ATOM      6  C   UNL     1       8.214   9.007  -0.004  1.00  0.00     0.093 A 
ATOM      7  C   UNL     1       8.880   8.497  -1.127  1.00  0.00     0.136 A 
ATOM      8  C   UNL     1       8.273   8.605  -2.405  1.00  0.00     0.125 A 
ATOM      9  C   UNL     1       8.871   8.134  -3.585  1.00  0.00     0.078 A 
ATOM     10  C   UNL     1       8.214   8.281  -4.810  1.00  0.00     0.223 A 
ENDROOT
BRANCH   1  11
ATOM     11  C   UNL     1       6.176   9.060  -6.087  1.00  0.00     0.087 A 
ATOM     12  C   UNL     1       6.823   9.235  -7.324  1.00  0.00     0.022 A 
ATOM     13  C   UNL     1       6.078   9.374  -8.498  1.00  0.00     0.051 A 
ATOM     14  C   UNL     1       4.678   9.329  -8.456  1.00  0.00     0.157 A 
ATOM     15  C   UNL     1       4.773   8.994  -6.055  1.00  0.00     0.068 A 
ATOM     16  C   UNL     1       4.024   9.135  -7.229  1.00  0.00     0.158 A 
BRANCH  14  17
ATOM     17  O   UNL     1       3.938   9.471  -9.629  1.00  0.00    -0.504 OA
ATOM     18  H   UNL     1       3.075   8.961  -9.777  1.00  0.00     0.293 HD
ENDBRANCH  14  17
BRANCH  16  19
ATOM     19  O   UNL     1       2.633   9.077  -7.155  1.00  0.00    -0.504 OA
ATOM     20  H   UNL     1       2.053   8.986  -7.980  1.00  0.00     0.293 HD
ENDBRANCH  16  19
ENDBRANCH   1  11
BRANCH  10  21
ATOM     21  O   UNL     1       8.829   7.858  -5.989  1.00  0.00    -0.500 OA
ATOM     22  H   UNL     1       8.291   7.619  -6.814  1.00  0.00     0.294 HD
ENDBRANCH  10  21
BRANCH   5  23
ATOM     23  O   UNL     1       6.306  10.125   0.991  1.00  0.00    -0.507 OA
ATOM     24  H   UNL     1       5.908   9.514   1.695  1.00  0.00     0.293 HD
ENDBRANCH   5  23
BRANCH   7  25
ATOM     25  O   UNL     1      10.125   7.897  -0.919  1.00  0.00    -0.507 OA
ATOM     26  H   UNL     1      10.697   8.038  -0.099  1.00  0.00     0.293 HD
ENDBRANCH   7  25
TORSDOF 6
ENDMDL
MODEL 4
REMARK VINA RESULT:    -3.918      2.183      3.316
REMARK INTER + INTRA:          -4.469
REMARK INTER:                  -4.606
REMARK INTRA:                   0.137
REMARK UNBOUND:                 0.251
REMARK SMILES Oc1cc(O)c2cc(O)c(-c3ccc(O)c(O)c3)[o+]c2c1.[Cl-]
REMARK SMILES IDX 10 1 19 2 20 3 21 4 2 5 3 6 4 7 6 8 7 9 8 10 11 11 12 12
REMARK SMILES IDX 13 13 14 14 18 15 16 16 15 17 17 19 9 21 1 23 5 25
REMARK H PARENT 15 18 17 20 9 22 1 24 5 26
REMARK Flexibility Score: inf
ROOT
ATOM      1  C   UNL     1       7.855   9.143  -0.261  1.00  0.00     0.402 A 
ATOM      2  O   UNL     1       6.702   9.419  -0.865  1.00  0.00    -0.202 OA
ATOM      3  C   UNL     1       6.500   9.251  -2.167  1.00  0.00     0.368 A 
ATOM      4  C   UNL     1       5.253   9.573  -2.710  1.00  0.00     0.162 A 
ATOM      5  C   UNL     1       5.015   9.410  -4.074  1.00  0.00     0.128 A 
ATOM      6  C   UNL     1       6.029   8.922  -4.905  1.00  0.00     0.093 A 
ATOM      7  C   UNL     1       7.288   8.592  -4.386  1.00  0.00     0.136 A 
ATOM      8  C   UNL     1       7.533   8.754  -2.998  1.00  0.00     0.125 A 
ATOM      9  C   UNL     1       8.758   8.438  -2.388  1.00  0.00     0.078 A 
ATOM     10  C   UNL     1       8.923   8.620  -1.013  1.00  0.00     0.223 A 
ENDROOT
BRANCH   1  11
ATOM     11  C   UNL     1       7.958   9.382   1.196  1.00  0.00     0.087 A 
ATOM     12  C   UNL     1       9.162   9.807   1.785  1.00  0.00     0.022 A 
ATOM     13  C   UNL     1       9.229  10.050   3.160  1.00  0.00     0.051 A 
ATOM     14  C   UNL     1       8.093   9.884   3.963  1.00  0.00     0.157 A 
ATOM     15  C   UNL     1       6.817   9.239   2.002  1.00  0.00     0.068 A 
ATOM     16  C   UNL     1       6.880   9.480   3.380  1.00  0.00     0.158 A 
BRANCH  14  17
ATOM     17  O   UNL     1       8.164  10.125   5.334  1.00  0.00    -0.504 OA
ATOM     18  H   UNL     1       8.744   9.559   5.943  1.00  0.00     0.293 HD
ENDBRANCH  14  17
BRANCH  16  19
ATOM     19  O   UNL     1       5.730   9.314   4.150  1.00  0.00    -0.504 OA
ATOM     20  H   UNL     1       4.994  10.008   4.174  1.00  0.00     0.293 HD
ENDBRANCH  16  19
ENDBRANCH   1  11
BRANCH  10  21
ATOM     21  O   UNL     1      10.124   8.260  -0.399  1.00  0.00    -0.500 OA
ATOM     22  H   UNL     1      10.954   8.835  -0.476  1.00  0.00     0.294 HD
ENDBRANCH  10  21
BRANCH   5  23
ATOM     23  O   UNL     1       3.765   9.735  -4.596  1.00  0.00    -0.507 OA
ATOM     24  H   UNL     1       3.587  10.636  -5.024  1.00  0.00     0.293 HD
ENDBRANCH   5  23
BRANCH   7  25
ATOM     25  O   UNL     1       8.248   8.115  -5.282  1.00  0.00    -0.507 OA
ATOM     26  H   UNL     1       9.111   8.591  -5.500  1.00  0.00     0.293 HD
ENDBRANCH   7  25
TORSDOF 6
ENDMDL
MODEL 5
REMARK VINA RESULT:    -3.833     16.053     18.267
REMARK INTER + INTRA:          -4.367
REMARK INTER:                  -4.309
REMARK INTRA:                  -0.057
REMARK UNBOUND:                 0.251
REMARK SMILES Oc1cc(O)c2cc(O)c(-c3ccc(O)c(O)c3)[o+]c2c1.[Cl-]
REMARK SMILES IDX 10 1 19 2 20 3 21 4 2 5 3 6 4 7 6 8 7 9 8 10 11 11 12 12
REMARK SMILES IDX 13 13 14 14 18 15 16 16 15 17 17 19 9 21 1 23 5 25
REMARK H PARENT 15 18 17 20 9 22 1 24 5 26
REMARK Flexibility Score: inf
ROOT
ATOM      1  C   UNL     1      -8.952   3.756  -7.122  1.00  0.00     0.402 A 
ATOM      2  O   UNL     1      -9.452   4.427  -6.089  1.00  0.00    -0.202 OA
ATOM      3  C   UNL     1      -9.214   5.716  -5.869  1.00  0.00     0.368 A 
ATOM      4  C   UNL     1      -9.783   6.333  -4.752  1.00  0.00     0.162 A 
ATOM      5  C   UNL     1      -9.548   7.684  -4.496  1.00  0.00     0.128 A 
ATOM      6  C   UNL     1      -8.738   8.426  -5.362  1.00  0.00     0.093 A 
ATOM      7  C   UNL     1      -8.156   7.832  -6.489  1.00  0.00     0.136 A 
ATOM      8  C   UNL     1      -8.395   6.458  -6.754  1.00  0.00     0.125 A 
ATOM      9  C   UNL     1      -7.864   5.783  -7.865  1.00  0.00     0.078 A 
ATOM     10  C   UNL     1      -8.149   4.429  -8.062  1.00  0.00     0.223 A 
ENDROOT
BRANCH   1  11
ATOM     11  C   UNL     1      -9.282   2.320  -7.252  1.00  0.00     0.087 A 
ATOM     12  C   UNL     1      -9.823   1.796  -8.440  1.00  0.00     0.022 A 
ATOM     13  C   UNL     1     -10.105   0.432  -8.547  1.00  0.00     0.051 A 
ATOM     14  C   UNL     1      -9.840  -0.431  -7.475  1.00  0.00     0.157 A 
ATOM     15  C   UNL     1      -8.999   1.446  -6.188  1.00  0.00     0.068 A 
ATOM     16  C   UNL     1      -9.282   0.079  -6.292  1.00  0.00     0.158 A 
BRANCH  14  17
ATOM     17  O   UNL     1     -10.125  -1.791  -7.585  1.00  0.00    -0.504 OA
ATOM     18  H   UNL     1     -11.075  -2.128  -7.693  1.00  0.00     0.293 HD
ENDBRANCH  14  17
BRANCH  16  19
ATOM     19  O   UNL     1      -9.000  -0.754  -5.210  1.00  0.00    -0.504 OA
ATOM     20  H   UNL     1      -9.133  -0.455  -4.252  1.00  0.00     0.293 HD
ENDBRANCH  16  19
ENDBRANCH   1  11
BRANCH  10  21
ATOM     21  O   UNL     1      -7.662   3.769  -9.192  1.00  0.00    -0.500 OA
ATOM     22  H   UNL     1      -6.669   3.648  -9.351  1.00  0.00     0.294 HD
ENDBRANCH  10  21
BRANCH   5  23
ATOM     23  O   UNL     1     -10.125   8.281  -3.377  1.00  0.00    -0.507 OA
ATOM     24  H   UNL     1      -9.691   8.226  -2.463  1.00  0.00     0.293 HD
ENDBRANCH   5  23
BRANCH   7  25
ATOM     25  O   UNL     1      -7.356   8.640  -7.302  1.00  0.00    -0.507 OA
ATOM     26  H   UNL     1      -6.443   8.378  -7.645  1.00  0.00     0.293 HD
ENDBRANCH   7  25
TORSDOF 6
ENDMDL
MODEL 6
REMARK VINA RESULT:    -3.767     15.950     18.450
REMARK INTER + INTRA:          -4.287
REMARK INTER:                  -4.315
REMARK INTRA:                   0.028
REMARK UNBOUND:                 0.251
REMARK SMILES Oc1cc(O)c2cc(O)c(-c3ccc(O)c(O)c3)[o+]c2c1.[Cl-]
REMARK SMILES IDX 10 1 19 2 20 3 21 4 2 5 3 6 4 7 6 8 7 9 8 10 11 11 12 12
REMARK SMILES IDX 13 13 14 14 18 15 16 16 15 17 17 19 9 21 1 23 5 25
REMARK H PARENT 15 18 17 20 9 22 1 24 5 26
REMARK Flexibility Score: inf
ROOT
ATOM      1  C   UNL     1      -9.464   3.759  -5.760  1.00  0.00     0.402 A 
ATOM      2  O   UNL     1      -9.578   3.241  -6.981  1.00  0.00    -0.202 OA
ATOM      3  C   UNL     1      -9.743   1.943  -7.212  1.00  0.00     0.368 A 
ATOM      4  C   UNL     1      -9.849   1.495  -8.531  1.00  0.00     0.162 A 
ATOM      5  C   UNL     1     -10.020   0.137  -8.803  1.00  0.00     0.128 A 
ATOM      6  C   UNL     1     -10.087  -0.781  -7.749  1.00  0.00     0.093 A 
ATOM      7  C   UNL     1      -9.984  -0.357  -6.418  1.00  0.00     0.136 A 
ATOM      8  C   UNL     1      -9.812   1.023  -6.138  1.00  0.00     0.125 A 
ATOM      9  C   UNL     1      -9.712   1.540  -4.836  1.00  0.00     0.078 A 
ATOM     10  C   UNL     1      -9.548   2.914  -4.638  1.00  0.00     0.223 A 
ENDROOT
BRANCH   1  11
ATOM     11  C   UNL     1      -9.273   5.221  -5.634  1.00  0.00     0.087 A 
ATOM     12  C   UNL     1     -10.017   5.980  -4.714  1.00  0.00     0.022 A 
ATOM     13  C   UNL     1      -9.802   7.356  -4.596  1.00  0.00     0.051 A 
ATOM     14  C   UNL     1      -8.834   7.991  -5.385  1.00  0.00     0.157 A 
ATOM     15  C   UNL     1      -8.289   5.859  -6.408  1.00  0.00     0.068 A 
ATOM     16  C   UNL     1      -8.072   7.237  -6.293  1.00  0.00     0.158 A 
BRANCH  14  17
ATOM     17  O   UNL     1      -8.624   9.364  -5.266  1.00  0.00    -0.504 OA
ATOM     18  H   UNL     1      -8.557   9.815  -4.361  1.00  0.00     0.293 HD
ENDBRANCH  14  17
BRANCH  16  19
ATOM     19  O   UNL     1      -7.097   7.837  -7.088  1.00  0.00    -0.504 OA
ATOM     20  H   UNL     1      -7.271   8.695  -7.598  1.00  0.00     0.293 HD
ENDBRANCH  16  19
ENDBRANCH   1  11
BRANCH  10  21
ATOM     21  O   UNL     1      -9.499   3.434  -3.344  1.00  0.00    -0.500 OA
ATOM     22  H   UNL     1      -8.678   3.329  -2.760  1.00  0.00     0.294 HD
ENDBRANCH  10  21
BRANCH   5  23
ATOM     23  O   UNL     1     -10.124  -0.290 -10.124  1.00  0.00    -0.507 OA
ATOM     24  H   UNL     1     -11.012  -0.570 -10.523  1.00  0.00     0.293 HD
ENDBRANCH   5  23
BRANCH   7  25
ATOM     25  O   UNL     1     -10.055  -1.337  -5.423  1.00  0.00    -0.507 OA
ATOM     26  H   UNL     1     -10.194  -1.144  -4.442  1.00  0.00     0.293 HD
ENDBRANCH   7  25
TORSDOF 6
ENDMDL
MODEL 7
REMARK VINA RESULT:    -3.650     15.869     18.161
REMARK INTER + INTRA:          -4.147
REMARK INTER:                  -4.264
REMARK INTRA:                   0.117
REMARK UNBOUND:                 0.251
REMARK SMILES Oc1cc(O)c2cc(O)c(-c3ccc(O)c(O)c3)[o+]c2c1.[Cl-]
REMARK SMILES IDX 10 1 19 2 20 3 21 4 2 5 3 6 4 7 6 8 7 9 8 10 11 11 12 12
REMARK SMILES IDX 13 13 14 14 18 15 16 16 15 17 17 19 9 21 1 23 5 25
REMARK H PARENT 15 18 17 20 9 22 1 24 5 26
REMARK Flexibility Score: inf
ROOT
ATOM      1  C   UNL     1      -9.161   3.837  -6.590  1.00  0.00     0.402 A 
ATOM      2  O   UNL     1      -8.608   4.537  -7.578  1.00  0.00    -0.202 OA
ATOM      3  C   UNL     1      -8.346   5.837  -7.495  1.00  0.00     0.368 A 
ATOM      4  C   UNL     1      -7.767   6.485  -8.588  1.00  0.00     0.162 A 
ATOM      5  C   UNL     1      -7.483   7.850  -8.530  1.00  0.00     0.128 A 
ATOM      6  C   UNL     1      -7.780   8.574  -7.371  1.00  0.00     0.093 A 
ATOM      7  C   UNL     1      -8.362   7.948  -6.261  1.00  0.00     0.136 A 
ATOM      8  C   UNL     1      -8.649   6.559  -6.315  1.00  0.00     0.125 A 
ATOM      9  C   UNL     1      -9.218   5.846  -5.248  1.00  0.00     0.078 A 
ATOM     10  C   UNL     1      -9.468   4.477  -5.375  1.00  0.00     0.223 A 
ENDROOT
BRANCH   1  11
ATOM     11  C   UNL     1      -9.413   2.395  -6.808  1.00  0.00     0.087 A 
ATOM     12  C   UNL     1      -9.909   1.915  -8.034  1.00  0.00     0.022 A 
ATOM     13  C   UNL     1     -10.116   0.547  -8.225  1.00  0.00     0.051 A 
ATOM     14  C   UNL     1      -9.819  -0.363  -7.202  1.00  0.00     0.157 A 
ATOM     15  C   UNL     1      -9.097   1.477  -5.794  1.00  0.00     0.068 A 
ATOM     16  C   UNL     1      -9.304   0.105  -5.981  1.00  0.00     0.158 A 
BRANCH  14  17
ATOM     17  O   UNL     1     -10.029  -1.728  -7.395  1.00  0.00    -0.504 OA
ATOM     18  H   UNL     1     -10.750  -2.071  -8.020  1.00  0.00     0.293 HD
ENDBRANCH  14  17
BRANCH  16  19
ATOM     19  O   UNL     1      -8.992  -0.775  -4.946  1.00  0.00    -0.504 OA
ATOM     20  H   UNL     1      -8.284  -1.492  -5.045  1.00  0.00     0.293 HD
ENDBRANCH  16  19
ENDBRANCH   1  11
BRANCH  10  21
ATOM     21  O   UNL     1      -9.988   3.758  -4.297  1.00  0.00    -0.500 OA
ATOM     22  H   UNL     1      -9.414   3.501  -3.503  1.00  0.00     0.294 HD
ENDBRANCH  10  21
BRANCH   5  23
ATOM     23  O   UNL     1      -6.905   8.478  -9.630  1.00  0.00    -0.507 OA
ATOM     24  H   UNL     1      -5.914   8.688  -9.662  1.00  0.00     0.293 HD
ENDBRANCH   5  23
BRANCH   7  25
ATOM     25  O   UNL     1      -8.632   8.741  -5.142  1.00  0.00    -0.507 OA
ATOM     26  H   UNL     1      -8.403   8.487  -4.193  1.00  0.00     0.293 HD
ENDBRANCH   7  25
TORSDOF 6
ENDMDL
MODEL 8
REMARK VINA RESULT:    -3.407     15.865     17.857
REMARK INTER + INTRA:          -3.854
REMARK INTER:                  -4.154
REMARK INTRA:                   0.300
REMARK UNBOUND:                 0.251
REMARK SMILES Oc1cc(O)c2cc(O)c(-c3ccc(O)c(O)c3)[o+]c2c1.[Cl-]
REMARK SMILES IDX 10 1 19 2 20 3 21 4 2 5 3 6 4 7 6 8 7 9 8 10 11 11 12 12
REMARK SMILES IDX 13 13 14 14 18 15 16 16 15 17 17 19 9 21 1 23 5 25
REMARK H PARENT 15 18 17 20 9 22 1 24 5 26
REMARK Flexibility Score: inf
ROOT
ATOM      1  C   UNL     1      -9.017   4.899  -6.332  1.00  0.00     0.402 A 
ATOM      2  O   UNL     1      -8.413   5.646  -7.253  1.00  0.00    -0.202 OA
ATOM      3  C   UNL     1      -8.299   6.966  -7.162  1.00  0.00     0.368 A 
ATOM      4  C   UNL     1      -7.650   7.665  -8.184  1.00  0.00     0.162 A 
ATOM      5  C   UNL     1      -7.518   9.052  -8.116  1.00  0.00     0.128 A 
ATOM      6  C   UNL     1      -8.038   9.748  -7.020  1.00  0.00     0.093 A 
ATOM      7  C   UNL     1      -8.692   9.072  -5.983  1.00  0.00     0.136 A 
ATOM      8  C   UNL     1      -8.826   7.660  -6.047  1.00  0.00     0.125 A 
ATOM      9  C   UNL     1      -9.455   6.899  -5.049  1.00  0.00     0.078 A 
ATOM     10  C   UNL     1      -9.545   5.510  -5.180  1.00  0.00     0.223 A 
ENDROOT
BRANCH   1  11
ATOM     11  C   UNL     1      -9.088   3.437  -6.553  1.00  0.00     0.087 A 
ATOM     12  C   UNL     1      -9.236   2.540  -5.479  1.00  0.00     0.022 A 
ATOM     13  C   UNL     1      -9.326   1.166  -5.714  1.00  0.00     0.051 A 
ATOM     14  C   UNL     1      -9.282   0.667  -7.023  1.00  0.00     0.157 A 
ATOM     15  C   UNL     1      -9.067   2.934  -7.864  1.00  0.00     0.068 A 
ATOM     16  C   UNL     1      -9.155   1.557  -8.103  1.00  0.00     0.158 A 
BRANCH  14  17
ATOM     17  O   UNL     1      -9.369  -0.704  -7.253  1.00  0.00    -0.504 OA
ATOM     18  H   UNL     1      -8.598  -1.328  -7.043  1.00  0.00     0.293 HD
ENDBRANCH  14  17
BRANCH  16  19
ATOM     19  O   UNL     1      -9.116   1.094  -9.417  1.00  0.00    -0.504 OA
ATOM     20  H   UNL     1      -8.517   0.327  -9.700  1.00  0.00     0.293 HD
ENDBRANCH  16  19
ENDBRANCH   1  11
BRANCH  10  21
ATOM     21  O   UNL     1     -10.125   4.748  -4.165  1.00  0.00    -0.500 OA
ATOM     22  H   UNL     1     -10.665   5.175  -3.421  1.00  0.00     0.294 HD
ENDBRANCH  10  21
BRANCH   5  23
ATOM     23  O   UNL     1      -6.867   9.730  -9.144  1.00  0.00    -0.507 OA
ATOM     24  H   UNL     1      -6.812  10.742  -9.161  1.00  0.00     0.293 HD
ENDBRANCH   5  23
BRANCH   7  25
ATOM     25  O   UNL     1      -9.188   9.840  -4.925  1.00  0.00    -0.507 OA
ATOM     26  H   UNL     1      -9.695   9.466  -4.136  1.00  0.00     0.293 HD
ENDBRANCH   7  25
TORSDOF 6
ENDMDL
