MODEL 1
REMARK VINA RESULT:    -6.249      0.000      0.000
REMARK INTER + INTRA:          -6.249
REMARK INTER:                  -6.249
REMARK INTRA:                   0.000
REMARK UNBOUND:                 0.000
REMARK SMILES c1ccc2ccccc2c1
REMARK SMILES IDX 2 1 1 2 10 3 9 4 8 5 7 6 6 7 5 8 4 9 3 10
REMARK H PARENT
REMARK Flexibility Score: inf
ROOT
ATOM      1  C   UNL     1      15.119  -8.876 -21.167  1.00  0.00     0.001 A 
ATOM      2  C   UNL     1      14.208  -9.852 -21.581  1.00  0.00     0.001 A 
ATOM      3  C   UNL     1      14.392 -11.188 -21.215  1.00  0.00     0.009 A 
ATOM      4  C   UNL     1      15.496 -11.556 -20.429  1.00  0.00    -0.018 A 
ATOM      5  C   UNL     1      15.694 -12.895 -20.054  1.00  0.00     0.009 A 
ATOM      6  C   UNL     1      16.797 -13.248 -19.271  1.00  0.00     0.001 A 
ATOM      7  C   UNL     1      17.708 -12.272 -18.857  1.00  0.00     0.001 A 
ATOM      8  C   UNL     1      17.523 -10.935 -19.224  1.00  0.00     0.009 A 
ATOM      9  C   UNL     1      16.420 -10.567 -20.009  1.00  0.00    -0.018 A 
ATOM     10  C   UNL     1      16.222  -9.229 -20.384  1.00  0.00     0.009 A 
ENDROOT
TORSDOF 0
ENDMDL
MODEL 2
REMARK VINA RESULT:    -6.249      0.014      4.018
REMARK INTER + INTRA:          -6.249
REMARK INTER:                  -6.249
REMARK INTRA:                   0.000
REMARK UNBOUND:                 0.000
REMARK SMILES c1ccc2ccccc2c1
REMARK SMILES IDX 2 1 1 2 10 3 9 4 8 5 7 6 6 7 5 8 4 9 3 10
REMARK H PARENT
REMARK Flexibility Score: inf
ROOT
ATOM      1  C   UNL     1      16.811 -13.239 -19.256  1.00  0.00     0.001 A 
ATOM      2  C   UNL     1      17.721 -12.259 -18.849  1.00  0.00     0.001 A 
ATOM      3  C   UNL     1      17.531 -10.925 -19.221  1.00  0.00     0.009 A 
ATOM      4  C   UNL     1      16.425 -10.564 -20.006  1.00  0.00    -0.018 A 
ATOM      5  C   UNL     1      16.222  -9.228 -20.387  1.00  0.00     0.009 A 
ATOM      6  C   UNL     1      15.116  -8.882 -21.169  1.00  0.00     0.001 A 
ATOM      7  C   UNL     1      14.206  -9.862 -21.576  1.00  0.00     0.001 A 
ATOM      8  C   UNL     1      14.396 -11.197 -21.204  1.00  0.00     0.009 A 
ATOM      9  C   UNL     1      15.503 -11.557 -20.418  1.00  0.00    -0.018 A 
ATOM     10  C   UNL     1      15.705 -12.893 -20.038  1.00  0.00     0.009 A 
ENDROOT
TORSDOF 0
ENDMDL
MODEL 3
REMARK VINA RESULT:    -6.236      0.061      2.082
REMARK INTER + INTRA:          -6.236
REMARK INTER:                  -6.236
REMARK INTRA:                   0.000
REMARK UNBOUND:                 0.000
REMARK SMILES c1ccc2ccccc2c1
REMARK SMILES IDX 2 1 1 2 10 3 9 4 8 5 7 6 6 7 5 8 4 9 3 10
REMARK H PARENT
REMARK Flexibility Score: inf
ROOT
ATOM      1  C   UNL     1      14.207  -9.860 -21.545  1.00  0.00     0.001 A 
ATOM      2  C   UNL     1      15.128  -8.875 -21.176  1.00  0.00     0.001 A 
ATOM      3  C   UNL     1      16.248  -9.211 -20.410  1.00  0.00     0.009 A 
ATOM      4  C   UNL     1      16.451 -10.541 -20.006  1.00  0.00    -0.018 A 
ATOM      5  C   UNL     1      17.571 -10.892 -19.236  1.00  0.00     0.009 A 
ATOM      6  C   UNL     1      17.762 -12.219 -18.842  1.00  0.00     0.001 A 
ATOM      7  C   UNL     1      16.841 -13.204 -19.211  1.00  0.00     0.001 A 
ATOM      8  C   UNL     1      15.721 -12.867 -19.977  1.00  0.00     0.009 A 
ATOM      9  C   UNL     1      15.518 -11.538 -20.381  1.00  0.00    -0.018 A 
ATOM     10  C   UNL     1      14.398 -11.187 -21.151  1.00  0.00     0.009 A 
ENDROOT
TORSDOF 0
ENDMDL
MODEL 4
REMARK VINA RESULT:    -6.232      0.057      3.437
REMARK INTER + INTRA:          -6.232
REMARK INTER:                  -6.232
REMARK INTRA:                   0.000
REMARK UNBOUND:                 0.000
REMARK SMILES c1ccc2ccccc2c1
REMARK SMILES IDX 2 1 1 2 10 3 9 4 8 5 7 6 6 7 5 8 4 9 3 10
REMARK H PARENT
REMARK Flexibility Score: inf
ROOT
ATOM      1  C   UNL     1      17.751 -12.312 -18.861  1.00  0.00     0.001 A 
ATOM      2  C   UNL     1      16.842 -13.293 -19.271  1.00  0.00     0.001 A 
ATOM      3  C   UNL     1      15.732 -12.943 -20.046  1.00  0.00     0.009 A 
ATOM      4  C   UNL     1      15.524 -11.604 -20.413  1.00  0.00    -0.018 A 
ATOM      5  C   UNL     1      14.413 -11.239 -21.190  1.00  0.00     0.009 A 
ATOM      6  C   UNL     1      14.218  -9.902 -21.550  1.00  0.00     0.001 A 
ATOM      7  C   UNL     1      15.127  -8.922 -21.140  1.00  0.00     0.001 A 
ATOM      8  C   UNL     1      16.238  -9.272 -20.365  1.00  0.00     0.009 A 
ATOM      9  C   UNL     1      16.445 -10.611 -19.998  1.00  0.00    -0.018 A 
ATOM     10  C   UNL     1      17.556 -10.976 -19.221  1.00  0.00     0.009 A 
ENDROOT
TORSDOF 0
ENDMDL
MODEL 5
REMARK VINA RESULT:    -5.622      1.287      2.904
REMARK INTER + INTRA:          -5.622
REMARK INTER:                  -5.622
REMARK INTRA:                   0.000
REMARK UNBOUND:                 0.000
REMARK SMILES c1ccc2ccccc2c1
REMARK SMILES IDX 2 1 1 2 10 3 9 4 8 5 7 6 6 7 5 8 4 9 3 10
REMARK H PARENT
REMARK Flexibility Score: inf
ROOT
ATOM      1  C   UNL     1      14.364 -11.495 -20.132  1.00  0.00     0.001 A 
ATOM      2  C   UNL     1      14.943 -12.456 -19.297  1.00  0.00     0.001 A 
ATOM      3  C   UNL     1      16.265 -12.309 -18.867  1.00  0.00     0.009 A 
ATOM      4  C   UNL     1      17.018 -11.196 -19.272  1.00  0.00    -0.018 A 
ATOM      5  C   UNL     1      18.346 -11.036 -18.847  1.00  0.00     0.009 A 
ATOM      6  C   UNL     1      19.085  -9.923 -19.257  1.00  0.00     0.001 A 
ATOM      7  C   UNL     1      18.506  -8.961 -20.091  1.00  0.00     0.001 A 
ATOM      8  C   UNL     1      17.184  -9.108 -20.522  1.00  0.00     0.009 A 
ATOM      9  C   UNL     1      16.431 -10.222 -20.117  1.00  0.00    -0.018 A 
ATOM     10  C   UNL     1      15.102 -10.381 -20.542  1.00  0.00     0.009 A 
ENDROOT
TORSDOF 0
ENDMDL
MODEL 6
REMARK VINA RESULT:    -5.608      1.294      2.882
REMARK INTER + INTRA:          -5.608
REMARK INTER:                  -5.608
REMARK INTRA:                   0.000
REMARK UNBOUND:                 0.000
REMARK SMILES c1ccc2ccccc2c1
REMARK SMILES IDX 2 1 1 2 10 3 9 4 8 5 7 6 6 7 5 8 4 9 3 10
REMARK H PARENT
REMARK Flexibility Score: inf
ROOT
ATOM      1  C   UNL     1      14.838 -12.370 -19.346  1.00  0.00     0.001 A 
ATOM      2  C   UNL     1      14.320 -11.423 -20.235  1.00  0.00     0.001 A 
ATOM      3  C   UNL     1      15.109 -10.350 -20.659  1.00  0.00     0.009 A 
ATOM      4  C   UNL     1      16.426 -10.217 -20.192  1.00  0.00    -0.018 A 
ATOM      5  C   UNL     1      17.229  -9.144 -20.609  1.00  0.00     0.009 A 
ATOM      6  C   UNL     1      18.540  -9.024 -20.137  1.00  0.00     0.001 A 
ATOM      7  C   UNL     1      19.058  -9.971 -19.248  1.00  0.00     0.001 A 
ATOM      8  C   UNL     1      18.269 -11.044 -18.824  1.00  0.00     0.009 A 
ATOM      9  C   UNL     1      16.951 -11.177 -19.291  1.00  0.00    -0.018 A 
ATOM     10  C   UNL     1      16.148 -12.250 -18.874  1.00  0.00     0.009 A 
ENDROOT
TORSDOF 0
ENDMDL
MODEL 7
REMARK VINA RESULT:    -5.431      6.368      8.340
REMARK INTER + INTRA:          -5.431
REMARK INTER:                  -5.431
REMARK INTRA:                   0.000
REMARK UNBOUND:                 0.000
REMARK SMILES c1ccc2ccccc2c1
REMARK SMILES IDX 2 1 1 2 10 3 9 4 8 5 7 6 6 7 5 8 4 9 3 10
REMARK H PARENT
REMARK Flexibility Score: inf
ROOT
ATOM      1  C   UNL     1      18.509 -16.545 -20.240  1.00  0.00     0.001 A 
ATOM      2  C   UNL     1      19.332 -15.535 -20.747  1.00  0.00     0.001 A 
ATOM      3  C   UNL     1      20.235 -15.814 -21.778  1.00  0.00     0.009 A 
ATOM      4  C   UNL     1      20.320 -17.112 -22.307  1.00  0.00    -0.018 A 
ATOM      5  C   UNL     1      21.222 -17.406 -23.342  1.00  0.00     0.009 A 
ATOM      6  C   UNL     1      21.296 -18.702 -23.860  1.00  0.00     0.001 A 
ATOM      7  C   UNL     1      20.473 -19.712 -23.353  1.00  0.00     0.001 A 
ATOM      8  C   UNL     1      19.570 -19.433 -22.322  1.00  0.00     0.009 A 
ATOM      9  C   UNL     1      19.485 -18.135 -21.793  1.00  0.00    -0.018 A 
ATOM     10  C   UNL     1      18.583 -17.841 -20.759  1.00  0.00     0.009 A 
ENDROOT
TORSDOF 0
ENDMDL
MODEL 8
REMARK VINA RESULT:    -5.419      6.462      8.241
REMARK INTER + INTRA:          -5.419
REMARK INTER:                  -5.419
REMARK INTRA:                   0.000
REMARK UNBOUND:                 0.000
REMARK SMILES c1ccc2ccccc2c1
REMARK SMILES IDX 2 1 1 2 10 3 9 4 8 5 7 6 6 7 5 8 4 9 3 10
REMARK H PARENT
REMARK Flexibility Score: inf
ROOT
ATOM      1  C   UNL     1      19.370 -15.629 -20.851  1.00  0.00     0.001 A 
ATOM      2  C   UNL     1      18.543 -16.596 -20.271  1.00  0.00     0.001 A 
ATOM      3  C   UNL     1      18.565 -17.913 -20.740  1.00  0.00     0.009 A 
ATOM      4  C   UNL     1      19.418 -18.269 -21.796  1.00  0.00    -0.018 A 
ATOM      5  C   UNL     1      19.450 -19.588 -22.277  1.00  0.00     0.009 A 
ATOM      6  C   UNL     1      20.304 -19.930 -23.329  1.00  0.00     0.001 A 
ATOM      7  C   UNL     1      21.131 -18.963 -23.909  1.00  0.00     0.001 A 
ATOM      8  C   UNL     1      21.109 -17.646 -23.440  1.00  0.00     0.009 A 
ATOM      9  C   UNL     1      20.256 -17.289 -22.383  1.00  0.00    -0.018 A 
ATOM     10  C   UNL     1      20.224 -15.971 -21.903  1.00  0.00     0.009 A 
ENDROOT
TORSDOF 0
ENDMDL
MODEL 9
REMARK VINA RESULT:    -5.391      6.211      8.525
REMARK INTER + INTRA:          -5.391
REMARK INTER:                  -5.391
REMARK INTRA:                   0.000
REMARK UNBOUND:                 0.000
REMARK SMILES c1ccc2ccccc2c1
REMARK SMILES IDX 2 1 1 2 10 3 9 4 8 5 7 6 6 7 5 8 4 9 3 10
REMARK H PARENT
REMARK Flexibility Score: inf
ROOT
ATOM      1  C   UNL     1      19.676 -20.416 -22.344  1.00  0.00     0.001 A 
ATOM      2  C   UNL     1      18.601 -20.480 -21.452  1.00  0.00     0.001 A 
ATOM      3  C   UNL     1      18.155 -19.325 -20.803  1.00  0.00     0.009 A 
ATOM      4  C   UNL     1      18.786 -18.094 -21.044  1.00  0.00    -0.018 A 
ATOM      5  C   UNL     1      18.349 -16.927 -20.398  1.00  0.00     0.009 A 
ATOM      6  C   UNL     1      18.986 -15.708 -20.647  1.00  0.00     0.001 A 
ATOM      7  C   UNL     1      20.061 -15.643 -21.539  1.00  0.00     0.001 A 
ATOM      8  C   UNL     1      20.507 -16.799 -22.188  1.00  0.00     0.009 A 
ATOM      9  C   UNL     1      19.875 -18.029 -21.947  1.00  0.00    -0.018 A 
ATOM     10  C   UNL     1      20.313 -19.197 -22.593  1.00  0.00     0.009 A 
ENDROOT
TORSDOF 0
ENDMDL
