MODEL 1
REMARK VINA RESULT:    -3.722      0.000      0.000
REMARK INTER + INTRA:          -4.926
REMARK INTER:                  -4.484
REMARK INTRA:                  -0.442
REMARK UNBOUND:                -0.442
REMARK SMILES NC(=O)C[C@@H]([NH3+])C(=O)[O-]
REMARK SMILES IDX 4 1 5 2 6 3 7 7 8 8 9 9 2 10 3 11 1 12
REMARK H PARENT 6 4 6 5 6 6 1 13 1 14
REMARK Flexibility Score: inf
ROOT
ATOM      1  C   UNL     1     112.082 107.262 123.508  1.00  0.00     0.171 C 
ENDROOT
BRANCH   1   2
ATOM      2  C   UNL     1     112.033 107.140 121.972  1.00  0.00     0.237 C 
BRANCH   2   3
ATOM      3  N   UNL     1     110.868 106.359 121.530  1.00  0.00    -0.350 N 
ATOM      4  H   UNL     1     110.560 106.680 120.585  1.00  0.00     0.345 HD
ATOM      5  H   UNL     1     111.098 105.340 121.490  1.00  0.00     0.345 HD
ATOM      6  H   UNL     1     110.072 106.505 122.194  1.00  0.00     0.345 HD
ENDBRANCH   2   3
BRANCH   2   7
ATOM      7  C   UNL     1     112.006 108.512 121.351  1.00  0.00     0.100 C 
ATOM      8  O   UNL     1     111.677 108.661 120.145  1.00  0.00    -0.544 OA
ATOM      9  O   UNL     1     112.327 109.626 122.116  1.00  0.00    -0.544 OA
ENDBRANCH   2   7
ENDBRANCH   1   2
BRANCH   1  10
ATOM     10  C   UNL     1     110.712 107.440 124.094  1.00  0.00     0.223 C 
ATOM     11  O   UNL     1     109.957 106.441 124.235  1.00  0.00    -0.275 OA
ATOM     12  N   UNL     1     110.244 108.738 124.463  1.00  0.00    -0.369 N 
ATOM     13  H   UNL     1     109.287 108.860 124.860  1.00  0.00     0.159 HD
ATOM     14  H   UNL     1     110.848 109.580 124.331  1.00  0.00     0.159 HD
ENDBRANCH   1  10
TORSDOF 4
ENDMDL
MODEL 2
REMARK VINA RESULT:    -3.704      1.957      3.829
REMARK INTER + INTRA:          -4.904
REMARK INTER:                  -4.431
REMARK INTRA:                  -0.473
REMARK UNBOUND:                -0.442
REMARK SMILES NC(=O)C[C@@H]([NH3+])C(=O)[O-]
REMARK SMILES IDX 4 1 5 2 6 3 7 7 8 8 9 9 2 10 3 11 1 12
REMARK H PARENT 6 4 6 5 6 6 1 13 1 14
REMARK Flexibility Score: inf
ROOT
ATOM      1  C   UNL     1     112.024 109.512 122.914  1.00  0.00     0.171 C 
ENDROOT
BRANCH   1   2
ATOM      2  C   UNL     1     110.868 109.071 123.836  1.00  0.00     0.237 C 
BRANCH   2   3
ATOM      3  N   UNL     1     109.610 109.741 123.479  1.00  0.00    -0.350 N 
ATOM      4  H   UNL     1     109.760 110.773 123.412  1.00  0.00     0.345 HD
ATOM      5  H   UNL     1     109.246 109.386 122.565  1.00  0.00     0.345 HD
ATOM      6  H   UNL     1     108.893 109.569 124.223  1.00  0.00     0.345 HD
ENDBRANCH   2   3
BRANCH   2   7
ATOM      7  C   UNL     1     110.700 107.576 123.766  1.00  0.00     0.100 C 
ATOM      8  O   UNL     1     111.139 106.930 122.778  1.00  0.00    -0.544 OA
ATOM      9  O   UNL     1     110.075 106.898 124.805  1.00  0.00    -0.544 OA
ENDBRANCH   2   7
ENDBRANCH   1   2
BRANCH   1  10
ATOM     10  C   UNL     1     111.519 110.008 121.590  1.00  0.00     0.223 C 
ATOM     11  O   UNL     1     111.203 111.220 121.457  1.00  0.00    -0.275 OA
ATOM     12  N   UNL     1     111.362 109.110 120.491  1.00  0.00    -0.369 N 
ATOM     13  H   UNL     1     111.000 109.456 119.576  1.00  0.00     0.159 HD
ATOM     14  H   UNL     1     111.596 108.098 120.592  1.00  0.00     0.159 HD
ENDBRANCH   1  10
TORSDOF 4
ENDMDL
MODEL 3
REMARK VINA RESULT:    -3.691      1.796      2.818
REMARK INTER + INTRA:          -4.889
REMARK INTER:                  -4.628
REMARK INTRA:                  -0.261
REMARK UNBOUND:                -0.442
REMARK SMILES NC(=O)C[C@@H]([NH3+])C(=O)[O-]
REMARK SMILES IDX 4 1 5 2 6 3 7 7 8 8 9 9 2 10 3 11 1 12
REMARK H PARENT 6 4 6 5 6 6 1 13 1 14
REMARK Flexibility Score: inf
ROOT
ATOM      1  C   UNL     1     111.796 107.621 123.821  1.00  0.00     0.171 C 
ENDROOT
BRANCH   1   2
ATOM      2  C   UNL     1     111.392 109.104 123.693  1.00  0.00     0.237 C 
BRANCH   2   3
ATOM      3  N   UNL     1     110.395 109.481 124.705  1.00  0.00    -0.350 N 
ATOM      4  H   UNL     1     110.860 109.981 125.496  1.00  0.00     0.345 HD
ATOM      5  H   UNL     1     109.661 110.099 124.291  1.00  0.00     0.345 HD
ATOM      6  H   UNL     1     109.941 108.621 125.093  1.00  0.00     0.345 HD
ENDBRANCH   2   3
BRANCH   2   7
ATOM      7  C   UNL     1     112.613 109.978 123.815  1.00  0.00     0.100 C 
ATOM      8  O   UNL     1     113.631 109.755 123.108  1.00  0.00    -0.544 OA
ATOM      9  O   UNL     1     112.614 111.051 124.698  1.00  0.00    -0.544 OA
ENDBRANCH   2   7
ENDBRANCH   1   2
BRANCH   1  10
ATOM     10  C   UNL     1     110.638 106.706 123.549  1.00  0.00     0.223 C 
ATOM     11  O   UNL     1     109.818 106.445 124.469  1.00  0.00    -0.275 OA
ATOM     12  N   UNL     1     110.476 106.104 122.265  1.00  0.00    -0.369 N 
ATOM     13  H   UNL     1     109.676 105.460 122.082  1.00  0.00     0.159 HD
ATOM     14  H   UNL     1     111.159 106.291 121.498  1.00  0.00     0.159 HD
ENDBRANCH   1  10
TORSDOF 4
ENDMDL
MODEL 4
REMARK VINA RESULT:    -3.628      2.010      3.721
REMARK INTER + INTRA:          -4.813
REMARK INTER:                  -4.365
REMARK INTRA:                  -0.447
REMARK UNBOUND:                -0.442
REMARK SMILES NC(=O)C[C@@H]([NH3+])C(=O)[O-]
REMARK SMILES IDX 4 1 5 2 6 3 7 7 8 8 9 9 2 10 3 11 1 12
REMARK H PARENT 6 4 6 5 6 6 1 13 1 14
REMARK Flexibility Score: inf
ROOT
ATOM      1  C   UNL     1     112.476 107.928 122.063  1.00  0.00     0.171 C 
ENDROOT
BRANCH   1   2
ATOM      2  C   UNL     1     111.131 107.387 122.588  1.00  0.00     0.237 C 
BRANCH   2   3
ATOM      3  N   UNL     1     110.688 106.212 121.825  1.00  0.00    -0.350 N 
ATOM      4  H   UNL     1     111.118 105.345 122.220  1.00  0.00     0.345 HD
ATOM      5  H   UNL     1     109.647 106.122 121.851  1.00  0.00     0.345 HD
ATOM      6  H   UNL     1     110.999 106.298 120.829  1.00  0.00     0.345 HD
ENDBRANCH   2   3
BRANCH   2   7
ATOM      7  C   UNL     1     111.254 107.042 124.049  1.00  0.00     0.100 C 
ATOM      8  O   UNL     1     110.225 106.877 124.756  1.00  0.00    -0.544 OA
ATOM      9  O   UNL     1     112.510 106.885 124.621  1.00  0.00    -0.544 OA
ENDBRANCH   2   7
ENDBRANCH   1   2
BRANCH   1  10
ATOM     10  C   UNL     1     113.225 106.888 121.282  1.00  0.00     0.223 C 
ATOM     11  O   UNL     1     112.920 106.669 120.079  1.00  0.00    -0.275 OA
ATOM     12  N   UNL     1     114.258 106.121 121.901  1.00  0.00    -0.369 N 
ATOM     13  H   UNL     1     114.769 105.391 121.358  1.00  0.00     0.159 HD
ATOM     14  H   UNL     1     114.507 106.272 122.903  1.00  0.00     0.159 HD
ENDBRANCH   1  10
TORSDOF 4
ENDMDL
MODEL 5
REMARK VINA RESULT:    -3.628      2.040      4.079
REMARK INTER + INTRA:          -4.812
REMARK INTER:                  -4.527
REMARK INTRA:                  -0.285
REMARK UNBOUND:                -0.442
REMARK SMILES NC(=O)C[C@@H]([NH3+])C(=O)[O-]
REMARK SMILES IDX 4 1 5 2 6 3 7 7 8 8 9 9 2 10 3 11 1 12
REMARK H PARENT 6 4 6 5 6 6 1 13 1 14
REMARK Flexibility Score: inf
ROOT
ATOM      1  C   UNL     1     113.085 106.853 120.809  1.00  0.00     0.171 C 
ENDROOT
BRANCH   1   2
ATOM      2  C   UNL     1     112.055 107.265 121.880  1.00  0.00     0.237 C 
BRANCH   2   3
ATOM      3  N   UNL     1     110.862 106.408 121.837  1.00  0.00    -0.350 N 
ATOM      4  H   UNL     1     110.324 106.586 120.960  1.00  0.00     0.345 HD
ATOM      5  H   UNL     1     111.129 105.398 121.879  1.00  0.00     0.345 HD
ATOM      6  H   UNL     1     110.236 106.630 122.647  1.00  0.00     0.345 HD
ENDBRANCH   2   3
BRANCH   2   7
ATOM      7  C   UNL     1     112.688 107.210 123.245  1.00  0.00     0.100 C 
ATOM      8  O   UNL     1     113.872 107.601 123.417  1.00  0.00    -0.544 OA
ATOM      9  O   UNL     1     111.957 106.742 124.331  1.00  0.00    -0.544 OA
ENDBRANCH   2   7
ENDBRANCH   1   2
BRANCH   1  10
ATOM     10  C   UNL     1     112.432 106.587 119.484  1.00  0.00     0.223 C 
ATOM     11  O   UNL     1     111.525 107.357 119.069  1.00  0.00    -0.275 OA
ATOM     12  N   UNL     1     112.806 105.450 118.706  1.00  0.00    -0.369 N 
ATOM     13  H   UNL     1     112.342 105.262 117.791  1.00  0.00     0.159 HD
ATOM     14  H   UNL     1     113.539 104.788 119.047  1.00  0.00     0.159 HD
ENDBRANCH   1  10
TORSDOF 4
ENDMDL
MODEL 6
REMARK VINA RESULT:    -3.594      1.965      2.571
REMARK INTER + INTRA:          -4.772
REMARK INTER:                  -4.262
REMARK INTRA:                  -0.510
REMARK UNBOUND:                -0.442
REMARK SMILES NC(=O)C[C@@H]([NH3+])C(=O)[O-]
REMARK SMILES IDX 4 1 5 2 6 3 7 7 8 8 9 9 2 10 3 11 1 12
REMARK H PARENT 6 4 6 5 6 6 1 13 1 14
REMARK Flexibility Score: inf
ROOT
ATOM      1  C   UNL     1     112.006 108.091 121.960  1.00  0.00     0.171 C 
ENDROOT
BRANCH   1   2
ATOM      2  C   UNL     1     113.096 107.481 121.055  1.00  0.00     0.237 C 
BRANCH   2   3
ATOM      3  N   UNL     1     113.774 106.356 121.714  1.00  0.00    -0.350 N 
ATOM      4  H   UNL     1     113.085 105.794 122.263  1.00  0.00     0.345 HD
ATOM      5  H   UNL     1     114.240 105.739 121.010  1.00  0.00     0.345 HD
ATOM      6  H   UNL     1     114.495 106.718 122.382  1.00  0.00     0.345 HD
ENDBRANCH   2   3
BRANCH   2   7
ATOM      7  C   UNL     1     112.486 107.030 119.753  1.00  0.00     0.100 C 
ATOM      8  O   UNL     1     112.607 107.732 118.715  1.00  0.00    -0.544 OA
ATOM      9  O   UNL     1     111.801 105.824 119.689  1.00  0.00    -0.544 OA
ENDBRANCH   2   7
ENDBRANCH   1   2
BRANCH   1  10
ATOM     10  C   UNL     1     111.445 107.077 122.913  1.00  0.00     0.223 C 
ATOM     11  O   UNL     1     111.937 106.966 124.068  1.00  0.00    -0.275 OA
ATOM     12  N   UNL     1     110.380 106.215 122.512  1.00  0.00    -0.369 N 
ATOM     13  H   UNL     1     110.000 105.504 123.174  1.00  0.00     0.159 HD
ATOM     14  H   UNL     1     109.977 106.278 121.551  1.00  0.00     0.159 HD
ENDBRANCH   1  10
TORSDOF 4
ENDMDL
MODEL 7
REMARK VINA RESULT:    -3.568      2.437      3.852
REMARK INTER + INTRA:          -4.740
REMARK INTER:                  -4.444
REMARK INTRA:                  -0.296
REMARK UNBOUND:                -0.442
REMARK SMILES NC(=O)C[C@@H]([NH3+])C(=O)[O-]
REMARK SMILES IDX 4 1 5 2 6 3 7 7 8 8 9 9 2 10 3 11 1 12
REMARK H PARENT 6 4 6 5 6 6 1 13 1 14
REMARK Flexibility Score: inf
ROOT
ATOM      1  C   UNL     1     113.180 107.444 121.050  1.00  0.00     0.171 C 
ENDROOT
BRANCH   1   2
ATOM      2  C   UNL     1     113.858 106.846 122.300  1.00  0.00     0.237 C 
BRANCH   2   3
ATOM      3  N   UNL     1     115.320 106.985 122.238  1.00  0.00    -0.350 N 
ATOM      4  H   UNL     1     115.612 107.889 122.674  1.00  0.00     0.345 HD
ATOM      5  H   UNL     1     115.789 106.195 122.736  1.00  0.00     0.345 HD
ATOM      6  H   UNL     1     115.633 106.995 121.239  1.00  0.00     0.345 HD
ENDBRANCH   2   3
BRANCH   2   7
ATOM      7  C   UNL     1     113.324 107.515 123.540  1.00  0.00     0.100 C 
ATOM      8  O   UNL     1     114.055 108.286 124.215  1.00  0.00    -0.544 OA
ATOM      9  O   UNL     1     112.010 107.296 123.935  1.00  0.00    -0.544 OA
ENDBRANCH   2   7
ENDBRANCH   1   2
BRANCH   1  10
ATOM     10  C   UNL     1     112.156 106.511 120.475  1.00  0.00     0.223 C 
ATOM     11  O   UNL     1     112.364 105.968 119.357  1.00  0.00    -0.275 OA
ATOM     12  N   UNL     1     110.934 106.259 121.168  1.00  0.00    -0.369 N 
ATOM     13  H   UNL     1     110.219 105.617 120.759  1.00  0.00     0.159 HD
ATOM     14  H   UNL     1     110.735 106.719 122.084  1.00  0.00     0.159 HD
ENDBRANCH   1  10
TORSDOF 4
ENDMDL
MODEL 8
REMARK VINA RESULT:    -3.557      2.251      2.941
REMARK INTER + INTRA:          -4.727
REMARK INTER:                  -4.247
REMARK INTRA:                  -0.480
REMARK UNBOUND:                -0.442
REMARK SMILES NC(=O)C[C@@H]([NH3+])C(=O)[O-]
REMARK SMILES IDX 4 1 5 2 6 3 7 7 8 8 9 9 2 10 3 11 1 12
REMARK H PARENT 6 4 6 5 6 6 1 13 1 14
REMARK Flexibility Score: inf
ROOT
ATOM      1  C   UNL     1     112.922 107.768 121.206  1.00  0.00     0.171 C 
ENDROOT
BRANCH   1   2
ATOM      2  C   UNL     1     112.311 106.506 120.563  1.00  0.00     0.237 C 
BRANCH   2   3
ATOM      3  N   UNL     1     110.958 106.244 121.075  1.00  0.00    -0.350 N 
ATOM      4  H   UNL     1     110.383 105.773 120.340  1.00  0.00     0.345 HD
ATOM      5  H   UNL     1     110.993 105.638 121.926  1.00  0.00     0.345 HD
ATOM      6  H   UNL     1     110.489 107.148 121.317  1.00  0.00     0.345 HD
ENDBRANCH   2   3
BRANCH   2   7
ATOM      7  C   UNL     1     112.280 106.659 119.065  1.00  0.00     0.100 C 
ATOM      8  O   UNL     1     112.020 105.672 118.328  1.00  0.00    -0.544 OA
ATOM      9  O   UNL     1     112.522 107.900 118.489  1.00  0.00    -0.544 OA
ENDBRANCH   2   7
ENDBRANCH   1   2
BRANCH   1  10
ATOM     10  C   UNL     1     111.863 108.689 121.736  1.00  0.00     0.223 C 
ATOM     11  O   UNL     1     111.458 108.558 122.922  1.00  0.00    -0.275 OA
ATOM     12  N   UNL     1     111.287 109.691 120.898  1.00  0.00    -0.369 N 
ATOM     13  H   UNL     1     110.543 110.323 121.267  1.00  0.00     0.159 HD
ATOM     14  H   UNL     1     111.594 109.798 119.906  1.00  0.00     0.159 HD
ENDBRANCH   1  10
TORSDOF 4
ENDMDL
MODEL 9
REMARK VINA RESULT:    -3.530      2.422      4.081
REMARK INTER + INTRA:          -4.694
REMARK INTER:                  -4.400
REMARK INTRA:                  -0.294
REMARK UNBOUND:                -0.442
REMARK SMILES NC(=O)C[C@@H]([NH3+])C(=O)[O-]
REMARK SMILES IDX 4 1 5 2 6 3 7 7 8 8 9 9 2 10 3 11 1 12
REMARK H PARENT 6 4 6 5 6 6 1 13 1 14
REMARK Flexibility Score: inf
ROOT
ATOM      1  C   UNL     1     112.846 107.222 122.522  1.00  0.00     0.171 C 
ENDROOT
BRANCH   1   2
ATOM      2  C   UNL     1     112.368 107.130 123.985  1.00  0.00     0.237 C 
BRANCH   2   3
ATOM      3  N   UNL     1     113.175 107.983 124.870  1.00  0.00    -0.350 N 
ATOM      4  H   UNL     1     112.616 108.811 125.176  1.00  0.00     0.345 HD
ATOM      5  H   UNL     1     113.492 107.450 125.712  1.00  0.00     0.345 HD
ATOM      6  H   UNL     1     114.014 108.337 124.352  1.00  0.00     0.345 HD
ENDBRANCH   2   3
BRANCH   2   7
ATOM      7  C   UNL     1     110.915 107.516 124.074  1.00  0.00     0.100 C 
ATOM      8  O   UNL     1     110.551 108.696 123.824  1.00  0.00    -0.544 OA
ATOM      9  O   UNL     1     109.963 106.563 124.415  1.00  0.00    -0.544 OA
ENDBRANCH   2   7
ENDBRANCH   1   2
BRANCH   1  10
ATOM     10  C   UNL     1     114.274 107.674 122.432  1.00  0.00     0.223 C 
ATOM     11  O   UNL     1     114.544 108.904 122.465  1.00  0.00    -0.275 OA
ATOM     12  N   UNL     1     115.327 106.723 122.275  1.00  0.00    -0.369 N 
ATOM     13  H   UNL     1     116.318 107.041 122.203  1.00  0.00     0.159 HD
ATOM     14  H   UNL     1     115.119 105.701 122.222  1.00  0.00     0.159 HD
ENDBRANCH   1  10
TORSDOF 4
ENDMDL
