MODEL 1
REMARK VINA RESULT:    -5.459      0.000      0.000
REMARK INTER + INTRA:         -15.520
REMARK INTER:                 -13.757
REMARK INTRA:                  -1.763
REMARK UNBOUND:                -1.763
REMARK SMILES CCCCCCCCCCCCCCCCCCCCCCCCCCCC(=O)[O-]
REMARK SMILES IDX 15 1 16 2 17 3 18 4 19 5 20 6 21 7 22 8 23 9 24 10 25 11
REMARK SMILES IDX 26 12 27 13 28 14 29 15 30 16 14 17 13 18 12 19 11 20 10 21
REMARK SMILES IDX 9 22 8 23 7 24 6 25 5 26 4 27 3 28 2 29 1 30
REMARK H PARENT
REMARK Flexibility Score: inf
ROOT
ATOM      1  C   UNL     1       1.416 -36.940 -21.952  1.00  0.00     0.000 C 
ENDROOT
BRANCH   1   2
ATOM      2  C   UNL     1       2.232 -36.255 -23.065  1.00  0.00     0.000 C 
BRANCH   2   3
ATOM      3  C   UNL     1       3.342 -37.110 -23.709  1.00  0.00     0.000 C 
BRANCH   3   4
ATOM      4  C   UNL     1       4.783 -36.612 -23.485  1.00  0.00     0.000 C 
BRANCH   4   5
ATOM      5  C   UNL     1       4.887 -35.561 -22.367  1.00  0.00     0.000 C 
BRANCH   5   6
ATOM      6  C   UNL     1       6.335 -35.119 -22.098  1.00  0.00     0.000 C 
BRANCH   6   7
ATOM      7  C   UNL     1       6.677 -34.992 -20.599  1.00  0.00     0.000 C 
BRANCH   7   8
ATOM      8  C   UNL     1       7.418 -33.682 -20.279  1.00  0.00     0.000 C 
BRANCH   8   9
ATOM      9  C   UNL     1       6.488 -32.584 -19.728  1.00  0.00     0.000 C 
BRANCH   9  10
ATOM     10  C   UNL     1       7.108 -31.669 -18.654  1.00  0.00     0.000 C 
BRANCH  10  11
ATOM     11  C   UNL     1       6.406 -31.690 -17.279  1.00  0.00     0.000 C 
BRANCH  11  12
ATOM     12  C   UNL     1       5.693 -30.374 -16.916  1.00  0.00     0.006 C 
BRANCH  12  13
ATOM     13  C   UNL     1       5.883 -29.244 -17.952  1.00  0.00     0.053 C 
BRANCH  13  14
ATOM     14  C   UNL     1       5.298 -27.941 -17.492  1.00  0.00     0.041 C 
ATOM     15  O   UNL     1       5.688 -27.413 -16.415  1.00  0.00    -0.550 OA
ATOM     16  O   UNL     1       4.275 -27.341 -18.215  1.00  0.00    -0.550 OA
ENDBRANCH  13  14
ENDBRANCH  12  13
ENDBRANCH  11  12
ENDBRANCH  10  11
ENDBRANCH   9  10
ENDBRANCH   8   9
ENDBRANCH   7   8
ENDBRANCH   6   7
ENDBRANCH   5   6
ENDBRANCH   4   5
ENDBRANCH   3   4
ENDBRANCH   2   3
ENDBRANCH   1   2
BRANCH   1  17
ATOM     17  C   UNL     1       0.195 -37.737 -22.453  1.00  0.00     0.000 C 
BRANCH  17  18
ATOM     18  C   UNL     1      -0.705 -38.262 -21.316  1.00  0.00     0.000 C 
BRANCH  18  19
ATOM     19  C   UNL     1      -0.796 -39.797 -21.293  1.00  0.00     0.000 C 
BRANCH  19  20
ATOM     20  C   UNL     1      -1.652 -40.330 -20.134  1.00  0.00     0.000 C 
BRANCH  20  21
ATOM     21  C   UNL     1      -1.035 -41.602 -19.541  1.00  0.00     0.000 C 
BRANCH  21  22
ATOM     22  C   UNL     1      -1.224 -41.657 -18.020  1.00  0.00    -0.000 C 
BRANCH  22  23
ATOM     23  C   UNL     1       0.026 -42.230 -17.335  1.00  0.00    -0.000 C 
BRANCH  23  24
ATOM     24  C   UNL     1       1.127 -42.605 -18.341  1.00  0.00    -0.000 C 
BRANCH  24  25
ATOM     25  C   UNL     1       2.231 -43.470 -17.710  1.00  0.00    -0.000 C 
BRANCH  25  26
ATOM     26  C   UNL     1       1.666 -44.662 -16.904  1.00  0.00    -0.000 C 
BRANCH  26  27
ATOM     27  C   UNL     1       0.959 -45.718 -17.773  1.00  0.00    -0.000 C 
BRANCH  27  28
ATOM     28  C   UNL     1      -0.390 -46.209 -17.218  1.00  0.00    -0.000 C 
BRANCH  28  29
ATOM     29  C   UNL     1      -1.614 -45.654 -17.981  1.00  0.00    -0.003 C 
ATOM     30  C   UNL     1      -2.669 -45.053 -17.054  1.00  0.00     0.004 C 
ENDBRANCH  28  29
ENDBRANCH  27  28
ENDBRANCH  26  27
ENDBRANCH  25  26
ENDBRANCH  24  25
ENDBRANCH  23  24
ENDBRANCH  22  23
ENDBRANCH  21  22
ENDBRANCH  20  21
ENDBRANCH  19  20
ENDBRANCH  18  19
ENDBRANCH  17  18
ENDBRANCH   1  17
TORSDOF 26
ENDMDL
MODEL 2
REMARK VINA RESULT:    -5.337     12.935     16.992
REMARK INTER + INTRA:         -15.211
REMARK INTER:                  -9.140
REMARK INTRA:                  -6.072
REMARK UNBOUND:                -1.763
REMARK SMILES CCCCCCCCCCCCCCCCCCCCCCCCCCCC(=O)[O-]
REMARK SMILES IDX 15 1 16 2 17 3 18 4 19 5 20 6 21 7 22 8 23 9 24 10 25 11
REMARK SMILES IDX 26 12 27 13 28 14 29 15 30 16 14 17 13 18 12 19 11 20 10 21
REMARK SMILES IDX 9 22 8 23 7 24 6 25 5 26 4 27 3 28 2 29 1 30
REMARK H PARENT
REMARK Flexibility Score: inf
ROOT
ATOM      1  C   UNL     1      -3.330 -32.978 -27.449  1.00  0.00     0.000 C 
ENDROOT
BRANCH   1   2
ATOM      2  C   UNL     1      -4.851 -32.827 -27.648  1.00  0.00     0.000 C 
BRANCH   2   3
ATOM      3  C   UNL     1      -5.362 -33.012 -29.091  1.00  0.00     0.000 C 
BRANCH   3   4
ATOM      4  C   UNL     1      -4.486 -33.893 -30.001  1.00  0.00     0.000 C 
BRANCH   4   5
ATOM      5  C   UNL     1      -3.931 -33.134 -31.219  1.00  0.00     0.000 C 
BRANCH   5   6
ATOM      6  C   UNL     1      -5.030 -32.705 -32.205  1.00  0.00     0.000 C 
BRANCH   6   7
ATOM      7  C   UNL     1      -4.506 -32.399 -33.624  1.00  0.00     0.000 C 
BRANCH   7   8
ATOM      8  C   UNL     1      -2.985 -32.171 -33.646  1.00  0.00     0.000 C 
BRANCH   8   9
ATOM      9  C   UNL     1      -2.288 -32.884 -34.821  1.00  0.00     0.000 C 
BRANCH   9  10
ATOM     10  C   UNL     1      -1.117 -33.809 -34.433  1.00  0.00     0.000 C 
BRANCH  10  11
ATOM     11  C   UNL     1      -1.432 -34.852 -33.340  1.00  0.00     0.000 C 
BRANCH  11  12
ATOM     12  C   UNL     1      -2.500 -35.886 -33.744  1.00  0.00     0.006 C 
BRANCH  12  13
ATOM     13  C   UNL     1      -3.393 -36.364 -32.577  1.00  0.00     0.053 C 
BRANCH  13  14
ATOM     14  C   UNL     1      -2.690 -37.343 -31.683  1.00  0.00     0.041 C 
ATOM     15  O   UNL     1      -3.028 -37.457 -30.473  1.00  0.00    -0.550 OA
ATOM     16  O   UNL     1      -1.617 -38.082 -32.164  1.00  0.00    -0.550 OA
ENDBRANCH  13  14
ENDBRANCH  12  13
ENDBRANCH  11  12
ENDBRANCH  10  11
ENDBRANCH   9  10
ENDBRANCH   8   9
ENDBRANCH   7   8
ENDBRANCH   6   7
ENDBRANCH   5   6
ENDBRANCH   4   5
ENDBRANCH   3   4
ENDBRANCH   2   3
ENDBRANCH   1   2
BRANCH   1  17
ATOM     17  C   UNL     1      -2.625 -31.712 -26.922  1.00  0.00     0.000 C 
BRANCH  17  18
ATOM     18  C   UNL     1      -3.340 -30.403 -27.314  1.00  0.00     0.000 C 
BRANCH  18  19
ATOM     19  C   UNL     1      -2.702 -29.723 -28.537  1.00  0.00     0.000 C 
BRANCH  19  20
ATOM     20  C   UNL     1      -3.625 -29.708 -29.765  1.00  0.00     0.000 C 
BRANCH  20  21
ATOM     21  C   UNL     1      -2.808 -29.615 -31.059  1.00  0.00     0.000 C 
BRANCH  21  22
ATOM     22  C   UNL     1      -3.503 -28.721 -32.094  1.00  0.00    -0.000 C 
BRANCH  22  23
ATOM     23  C   UNL     1      -2.477 -27.862 -32.850  1.00  0.00    -0.000 C 
BRANCH  23  24
ATOM     24  C   UNL     1      -1.053 -28.437 -32.763  1.00  0.00    -0.000 C 
BRANCH  24  25
ATOM     25  C   UNL     1      -0.679 -29.271 -33.999  1.00  0.00    -0.000 C 
BRANCH  25  26
ATOM     26  C   UNL     1       0.318 -30.407 -33.672  1.00  0.00    -0.000 C 
BRANCH  26  27
ATOM     27  C   UNL     1       0.614 -30.557 -32.168  1.00  0.00    -0.000 C 
BRANCH  27  28
ATOM     28  C   UNL     1       0.499 -31.995 -31.631  1.00  0.00    -0.000 C 
BRANCH  28  29
ATOM     29  C   UNL     1      -0.565 -32.160 -30.521  1.00  0.00    -0.003 C 
ATOM     30  C   UNL     1      -0.471 -33.506 -29.805  1.00  0.00     0.004 C 
ENDBRANCH  28  29
ENDBRANCH  27  28
ENDBRANCH  26  27
ENDBRANCH  25  26
ENDBRANCH  24  25
ENDBRANCH  23  24
ENDBRANCH  22  23
ENDBRANCH  21  22
ENDBRANCH  20  21
ENDBRANCH  19  20
ENDBRANCH  18  19
ENDBRANCH  17  18
ENDBRANCH   1  17
TORSDOF 26
ENDMDL
MODEL 3
REMARK VINA RESULT:    -5.335     13.161     17.461
REMARK INTER + INTRA:         -15.206
REMARK INTER:                  -9.438
REMARK INTRA:                  -5.768
REMARK UNBOUND:                -1.763
REMARK SMILES CCCCCCCCCCCCCCCCCCCCCCCCCCCC(=O)[O-]
REMARK SMILES IDX 15 1 16 2 17 3 18 4 19 5 20 6 21 7 22 8 23 9 24 10 25 11
REMARK SMILES IDX 26 12 27 13 28 14 29 15 30 16 14 17 13 18 12 19 11 20 10 21
REMARK SMILES IDX 9 22 8 23 7 24 6 25 5 26 4 27 3 28 2 29 1 30
REMARK H PARENT
REMARK Flexibility Score: inf
ROOT
ATOM      1  C   UNL     1      -2.986 -32.554 -28.383  1.00  0.00     0.000 C 
ENDROOT
BRANCH   1   2
ATOM      2  C   UNL     1      -4.229 -33.444 -28.187  1.00  0.00     0.000 C 
BRANCH   2   3
ATOM      3  C   UNL     1      -5.489 -33.020 -28.969  1.00  0.00     0.000 C 
BRANCH   3   4
ATOM      4  C   UNL     1      -6.283 -31.846 -28.369  1.00  0.00     0.000 C 
BRANCH   4   5
ATOM      5  C   UNL     1      -6.495 -30.693 -29.365  1.00  0.00     0.000 C 
BRANCH   5   6
ATOM      6  C   UNL     1      -6.438 -31.154 -30.831  1.00  0.00     0.000 C 
BRANCH   6   7
ATOM      7  C   UNL     1      -5.533 -30.279 -31.722  1.00  0.00     0.000 C 
BRANCH   7   8
ATOM      8  C   UNL     1      -4.201 -30.973 -32.060  1.00  0.00     0.000 C 
BRANCH   8   9
ATOM      9  C   UNL     1      -4.172 -31.554 -33.486  1.00  0.00     0.000 C 
BRANCH   9  10
ATOM     10  C   UNL     1      -4.300 -33.088 -33.578  1.00  0.00     0.000 C 
BRANCH  10  11
ATOM     11  C   UNL     1      -4.276 -33.837 -32.229  1.00  0.00     0.000 C 
BRANCH  11  12
ATOM     12  C   UNL     1      -2.968 -34.604 -31.958  1.00  0.00     0.006 C 
BRANCH  12  13
ATOM     13  C   UNL     1      -3.061 -35.629 -30.805  1.00  0.00     0.053 C 
BRANCH  13  14
ATOM     14  C   UNL     1      -2.945 -37.045 -31.288  1.00  0.00     0.041 C 
ATOM     15  O   UNL     1      -3.462 -37.389 -32.385  1.00  0.00    -0.550 OA
ATOM     16  O   UNL     1      -2.325 -38.003 -30.496  1.00  0.00    -0.550 OA
ENDBRANCH  13  14
ENDBRANCH  12  13
ENDBRANCH  11  12
ENDBRANCH  10  11
ENDBRANCH   9  10
ENDBRANCH   8   9
ENDBRANCH   7   8
ENDBRANCH   6   7
ENDBRANCH   5   6
ENDBRANCH   4   5
ENDBRANCH   3   4
ENDBRANCH   2   3
ENDBRANCH   1   2
BRANCH   1  17
ATOM     17  C   UNL     1      -2.580 -31.738 -27.139  1.00  0.00     0.000 C 
BRANCH  17  18
ATOM     18  C   UNL     1      -3.019 -30.261 -27.203  1.00  0.00     0.000 C 
BRANCH  18  19
ATOM     19  C   UNL     1      -3.070 -29.720 -28.642  1.00  0.00     0.000 C 
BRANCH  19  20
ATOM     20  C   UNL     1      -3.030 -28.186 -28.707  1.00  0.00     0.000 C 
BRANCH  20  21
ATOM     21  C   UNL     1      -4.138 -27.651 -29.623  1.00  0.00     0.000 C 
BRANCH  21  22
ATOM     22  C   UNL     1      -3.564 -27.125 -30.945  1.00  0.00    -0.000 C 
BRANCH  22  23
ATOM     23  C   UNL     1      -2.030 -27.052 -30.883  1.00  0.00    -0.000 C 
BRANCH  23  24
ATOM     24  C   UNL     1      -1.362 -27.695 -32.109  1.00  0.00    -0.000 C 
BRANCH  24  25
ATOM     25  C   UNL     1      -2.357 -27.956 -33.252  1.00  0.00    -0.000 C 
BRANCH  25  26
ATOM     26  C   UNL     1      -1.814 -28.957 -34.297  1.00  0.00    -0.000 C 
BRANCH  26  27
ATOM     27  C   UNL     1      -0.405 -29.488 -33.973  1.00  0.00    -0.000 C 
BRANCH  27  28
ATOM     28  C   UNL     1      -0.360 -30.961 -33.527  1.00  0.00    -0.000 C 
BRANCH  28  29
ATOM     29  C   UNL     1       0.256 -31.165 -32.124  1.00  0.00    -0.003 C 
ATOM     30  C   UNL     1      -0.798 -31.273 -31.022  1.00  0.00     0.004 C 
ENDBRANCH  28  29
ENDBRANCH  27  28
ENDBRANCH  26  27
ENDBRANCH  25  26
ENDBRANCH  24  25
ENDBRANCH  23  24
ENDBRANCH  22  23
ENDBRANCH  21  22
ENDBRANCH  20  21
ENDBRANCH  19  20
ENDBRANCH  18  19
ENDBRANCH  17  18
ENDBRANCH   1  17
TORSDOF 26
ENDMDL
MODEL 4
REMARK VINA RESULT:    -5.252     12.737     17.245
REMARK INTER + INTRA:         -14.999
REMARK INTER:                  -9.425
REMARK INTRA:                  -5.574
REMARK UNBOUND:                -1.763
REMARK SMILES CCCCCCCCCCCCCCCCCCCCCCCCCCCC(=O)[O-]
REMARK SMILES IDX 15 1 16 2 17 3 18 4 19 5 20 6 21 7 22 8 23 9 24 10 25 11
REMARK SMILES IDX 26 12 27 13 28 14 29 15 30 16 14 17 13 18 12 19 11 20 10 21
REMARK SMILES IDX 9 22 8 23 7 24 6 25 5 26 4 27 3 28 2 29 1 30
REMARK H PARENT
REMARK Flexibility Score: inf
ROOT
ATOM      1  C   UNL     1      -1.835 -31.506 -29.658  1.00  0.00     0.000 C 
ENDROOT
BRANCH   1   2
ATOM      2  C   UNL     1      -2.676 -31.098 -30.883  1.00  0.00     0.000 C 
BRANCH   2   3
ATOM      3  C   UNL     1      -4.196 -31.332 -30.763  1.00  0.00     0.000 C 
BRANCH   3   4
ATOM      4  C   UNL     1      -5.069 -30.587 -31.790  1.00  0.00     0.000 C 
BRANCH   4   5
ATOM      5  C   UNL     1      -4.613 -30.813 -33.242  1.00  0.00     0.000 C 
BRANCH   5   6
ATOM      6  C   UNL     1      -5.409 -31.923 -33.949  1.00  0.00     0.000 C 
BRANCH   6   7
ATOM      7  C   UNL     1      -4.597 -33.214 -34.184  1.00  0.00     0.000 C 
BRANCH   7   8
ATOM      8  C   UNL     1      -3.080 -32.972 -34.104  1.00  0.00     0.000 C 
BRANCH   8   9
ATOM      9  C   UNL     1      -2.298 -34.213 -33.633  1.00  0.00     0.000 C 
BRANCH   9  10
ATOM     10  C   UNL     1      -2.190 -34.387 -32.105  1.00  0.00     0.000 C 
BRANCH  10  11
ATOM     11  C   UNL     1      -3.376 -35.113 -31.436  1.00  0.00     0.000 C 
BRANCH  11  12
ATOM     12  C   UNL     1      -2.984 -35.968 -30.216  1.00  0.00     0.006 C 
BRANCH  12  13
ATOM     13  C   UNL     1      -2.951 -37.489 -30.493  1.00  0.00     0.053 C 
BRANCH  13  14
ATOM     14  C   UNL     1      -1.567 -37.985 -30.795  1.00  0.00     0.041 C 
ATOM     15  O   UNL     1      -0.560 -37.386 -30.331  1.00  0.00    -0.550 OA
ATOM     16  O   UNL     1      -1.386 -39.070 -31.643  1.00  0.00    -0.550 OA
ENDBRANCH  13  14
ENDBRANCH  12  13
ENDBRANCH  11  12
ENDBRANCH  10  11
ENDBRANCH   9  10
ENDBRANCH   8   9
ENDBRANCH   7   8
ENDBRANCH   6   7
ENDBRANCH   5   6
ENDBRANCH   4   5
ENDBRANCH   3   4
ENDBRANCH   2   3
ENDBRANCH   1   2
BRANCH   1  17
ATOM     17  C   UNL     1      -2.490 -32.575 -28.759  1.00  0.00     0.000 C 
BRANCH  17  18
ATOM     18  C   UNL     1      -2.656 -32.126 -27.293  1.00  0.00     0.000 C 
BRANCH  18  19
ATOM     19  C   UNL     1      -2.880 -30.611 -27.159  1.00  0.00     0.000 C 
BRANCH  19  20
ATOM     20  C   UNL     1      -4.366 -30.221 -27.157  1.00  0.00     0.000 C 
BRANCH  20  21
ATOM     21  C   UNL     1      -4.589 -28.919 -27.936  1.00  0.00     0.000 C 
BRANCH  21  22
ATOM     22  C   UNL     1      -3.262 -28.332 -28.432  1.00  0.00    -0.000 C 
BRANCH  22  23
ATOM     23  C   UNL     1      -3.495 -27.372 -29.609  1.00  0.00    -0.000 C 
BRANCH  23  24
ATOM     24  C   UNL     1      -2.416 -27.504 -30.696  1.00  0.00    -0.000 C 
BRANCH  24  25
ATOM     25  C   UNL     1      -2.972 -27.262 -32.109  1.00  0.00    -0.000 C 
BRANCH  25  26
ATOM     26  C   UNL     1      -2.147 -27.978 -33.204  1.00  0.00    -0.000 C 
BRANCH  26  27
ATOM     27  C   UNL     1      -0.773 -28.475 -32.719  1.00  0.00    -0.000 C 
BRANCH  27  28
ATOM     28  C   UNL     1       0.019 -29.289 -33.758  1.00  0.00    -0.000 C 
BRANCH  28  29
ATOM     29  C   UNL     1      -0.010 -30.814 -33.505  1.00  0.00    -0.003 C 
ATOM     30  C   UNL     1       0.792 -31.226 -32.272  1.00  0.00     0.004 C 
ENDBRANCH  28  29
ENDBRANCH  27  28
ENDBRANCH  26  27
ENDBRANCH  25  26
ENDBRANCH  24  25
ENDBRANCH  23  24
ENDBRANCH  22  23
ENDBRANCH  21  22
ENDBRANCH  20  21
ENDBRANCH  19  20
ENDBRANCH  18  19
ENDBRANCH  17  18
ENDBRANCH   1  17
TORSDOF 26
ENDMDL
MODEL 5
REMARK VINA RESULT:    -5.223     12.797     15.976
REMARK INTER + INTRA:         -14.924
REMARK INTER:                  -8.779
REMARK INTRA:                  -6.145
REMARK UNBOUND:                -1.763
REMARK SMILES CCCCCCCCCCCCCCCCCCCCCCCCCCCC(=O)[O-]
REMARK SMILES IDX 15 1 16 2 17 3 18 4 19 5 20 6 21 7 22 8 23 9 24 10 25 11
REMARK SMILES IDX 26 12 27 13 28 14 29 15 30 16 14 17 13 18 12 19 11 20 10 21
REMARK SMILES IDX 9 22 8 23 7 24 6 25 5 26 4 27 3 28 2 29 1 30
REMARK H PARENT
REMARK Flexibility Score: inf
ROOT
ATOM      1  C   UNL     1      -2.793 -32.472 -27.415  1.00  0.00     0.000 C 
ENDROOT
BRANCH   1   2
ATOM      2  C   UNL     1      -3.215 -31.075 -26.918  1.00  0.00     0.000 C 
BRANCH   2   3
ATOM      3  C   UNL     1      -2.909 -29.902 -27.872  1.00  0.00     0.000 C 
BRANCH   3   4
ATOM      4  C   UNL     1      -2.415 -30.296 -29.277  1.00  0.00     0.000 C 
BRANCH   4   5
ATOM      5  C   UNL     1      -3.505 -30.168 -30.354  1.00  0.00     0.000 C 
BRANCH   5   6
ATOM      6  C   UNL     1      -4.753 -29.421 -29.854  1.00  0.00     0.000 C 
BRANCH   6   7
ATOM      7  C   UNL     1      -5.105 -28.172 -30.690  1.00  0.00     0.000 C 
BRANCH   7   8
ATOM      8  C   UNL     1      -3.915 -27.683 -31.535  1.00  0.00     0.000 C 
BRANCH   8   9
ATOM      9  C   UNL     1      -4.167 -27.801 -33.050  1.00  0.00     0.000 C 
BRANCH   9  10
ATOM     10  C   UNL     1      -2.901 -27.884 -33.926  1.00  0.00     0.000 C 
BRANCH  10  11
ATOM     11  C   UNL     1      -2.014 -29.125 -33.692  1.00  0.00     0.000 C 
BRANCH  11  12
ATOM     12  C   UNL     1      -0.615 -28.803 -33.133  1.00  0.00     0.006 C 
BRANCH  12  13
ATOM     13  C   UNL     1      -0.112 -29.803 -32.068  1.00  0.00     0.053 C 
BRANCH  13  14
ATOM     14  C   UNL     1       0.900 -30.765 -32.619  1.00  0.00     0.041 C 
ATOM     15  O   UNL     1       1.119 -30.818 -33.859  1.00  0.00    -0.550 OA
ATOM     16  O   UNL     1       1.554 -31.650 -31.771  1.00  0.00    -0.550 OA
ENDBRANCH  13  14
ENDBRANCH  12  13
ENDBRANCH  11  12
ENDBRANCH  10  11
ENDBRANCH   9  10
ENDBRANCH   8   9
ENDBRANCH   7   8
ENDBRANCH   6   7
ENDBRANCH   5   6
ENDBRANCH   4   5
ENDBRANCH   3   4
ENDBRANCH   2   3
ENDBRANCH   1   2
BRANCH   1  17
ATOM     17  C   UNL     1      -3.965 -33.443 -27.663  1.00  0.00     0.000 C 
BRANCH  17  18
ATOM     18  C   UNL     1      -5.187 -32.775 -28.324  1.00  0.00     0.000 C 
BRANCH  18  19
ATOM     19  C   UNL     1      -5.512 -33.369 -29.704  1.00  0.00     0.000 C 
BRANCH  19  20
ATOM     20  C   UNL     1      -6.591 -32.578 -30.459  1.00  0.00     0.000 C 
BRANCH  20  21
ATOM     21  C   UNL     1      -6.453 -32.776 -31.974  1.00  0.00     0.000 C 
BRANCH  21  22
ATOM     22  C   UNL     1      -5.954 -31.499 -32.660  1.00  0.00    -0.000 C 
BRANCH  22  23
ATOM     23  C   UNL     1      -4.839 -31.820 -33.668  1.00  0.00    -0.000 C 
BRANCH  23  24
ATOM     24  C   UNL     1      -4.743 -33.324 -33.977  1.00  0.00    -0.000 C 
BRANCH  24  25
ATOM     25  C   UNL     1      -3.298 -33.780 -34.233  1.00  0.00    -0.000 C 
BRANCH  25  26
ATOM     26  C   UNL     1      -2.252 -32.812 -33.635  1.00  0.00    -0.000 C 
BRANCH  26  27
ATOM     27  C   UNL     1      -1.448 -33.412 -32.467  1.00  0.00    -0.000 C 
BRANCH  27  28
ATOM     28  C   UNL     1      -2.232 -33.541 -31.148  1.00  0.00    -0.000 C 
BRANCH  28  29
ATOM     29  C   UNL     1      -2.214 -34.968 -30.553  1.00  0.00    -0.003 C 
ATOM     30  C   UNL     1      -3.198 -35.911 -31.243  1.00  0.00     0.004 C 
ENDBRANCH  28  29
ENDBRANCH  27  28
ENDBRANCH  26  27
ENDBRANCH  25  26
ENDBRANCH  24  25
ENDBRANCH  23  24
ENDBRANCH  22  23
ENDBRANCH  21  22
ENDBRANCH  20  21
ENDBRANCH  19  20
ENDBRANCH  18  19
ENDBRANCH  17  18
ENDBRANCH   1  17
TORSDOF 26
ENDMDL
MODEL 6
REMARK VINA RESULT:    -5.212     12.497     15.314
REMARK INTER + INTRA:         -14.898
REMARK INTER:                  -9.669
REMARK INTRA:                  -5.230
REMARK UNBOUND:                -1.763
REMARK SMILES CCCCCCCCCCCCCCCCCCCCCCCCCCCC(=O)[O-]
REMARK SMILES IDX 15 1 16 2 17 3 18 4 19 5 20 6 21 7 22 8 23 9 24 10 25 11
REMARK SMILES IDX 26 12 27 13 28 14 29 15 30 16 14 17 13 18 12 19 11 20 10 21
REMARK SMILES IDX 9 22 8 23 7 24 6 25 5 26 4 27 3 28 2 29 1 30
REMARK H PARENT
REMARK Flexibility Score: inf
ROOT
ATOM      1  C   UNL     1      -2.643 -32.083 -27.283  1.00  0.00     0.000 C 
ENDROOT
BRANCH   1   2
ATOM      2  C   UNL     1      -3.115 -30.616 -27.234  1.00  0.00     0.000 C 
BRANCH   2   3
ATOM      3  C   UNL     1      -2.797 -29.765 -28.480  1.00  0.00     0.000 C 
BRANCH   3   4
ATOM      4  C   UNL     1      -2.213 -30.533 -29.680  1.00  0.00     0.000 C 
BRANCH   4   5
ATOM      5  C   UNL     1      -2.019 -29.646 -30.923  1.00  0.00     0.000 C 
BRANCH   5   6
ATOM      6  C   UNL     1      -3.278 -29.568 -31.802  1.00  0.00     0.000 C 
BRANCH   6   7
ATOM      7  C   UNL     1      -3.025 -28.954 -33.195  1.00  0.00     0.000 C 
BRANCH   7   8
ATOM      8  C   UNL     1      -1.542 -28.614 -33.421  1.00  0.00     0.000 C 
BRANCH   8   9
ATOM      9  C   UNL     1      -0.865 -29.534 -34.455  1.00  0.00     0.000 C 
BRANCH   9  10
ATOM     10  C   UNL     1       0.663 -29.677 -34.314  1.00  0.00     0.000 C 
BRANCH  10  11
ATOM     11  C   UNL     1       1.151 -31.019 -33.727  1.00  0.00     0.000 C 
BRANCH  11  12
ATOM     12  C   UNL     1       1.070 -31.101 -32.191  1.00  0.00     0.006 C 
BRANCH  12  13
ATOM     13  C   UNL     1       1.820 -32.307 -31.580  1.00  0.00     0.053 C 
BRANCH  13  14
ATOM     14  C   UNL     1       3.270 -32.013 -31.331  1.00  0.00     0.041 C 
ATOM     15  O   UNL     1       4.033 -31.714 -32.289  1.00  0.00    -0.550 OA
ATOM     16  O   UNL     1       3.796 -32.133 -30.051  1.00  0.00    -0.550 OA
ENDBRANCH  13  14
ENDBRANCH  12  13
ENDBRANCH  11  12
ENDBRANCH  10  11
ENDBRANCH   9  10
ENDBRANCH   8   9
ENDBRANCH   7   8
ENDBRANCH   6   7
ENDBRANCH   5   6
ENDBRANCH   4   5
ENDBRANCH   3   4
ENDBRANCH   2   3
ENDBRANCH   1   2
BRANCH   1  17
ATOM     17  C   UNL     1      -3.781 -33.118 -27.383  1.00  0.00     0.000 C 
BRANCH  17  18
ATOM     18  C   UNL     1      -4.979 -32.636 -28.226  1.00  0.00     0.000 C 
BRANCH  18  19
ATOM     19  C   UNL     1      -5.234 -33.523 -29.456  1.00  0.00     0.000 C 
BRANCH  19  20
ATOM     20  C   UNL     1      -4.807 -32.859 -30.773  1.00  0.00     0.000 C 
BRANCH  20  21
ATOM     21  C   UNL     1      -5.942 -32.912 -31.803  1.00  0.00     0.000 C 
BRANCH  21  22
ATOM     22  C   UNL     1      -5.494 -32.350 -33.158  1.00  0.00    -0.000 C 
BRANCH  22  23
ATOM     23  C   UNL     1      -4.486 -33.294 -33.833  1.00  0.00    -0.000 C 
BRANCH  23  24
ATOM     24  C   UNL     1      -3.177 -32.582 -34.210  1.00  0.00    -0.000 C 
BRANCH  24  25
ATOM     25  C   UNL     1      -2.059 -32.824 -33.183  1.00  0.00    -0.000 C 
BRANCH  25  26
ATOM     26  C   UNL     1      -1.258 -34.116 -33.467  1.00  0.00    -0.000 C 
BRANCH  26  27
ATOM     27  C   UNL     1      -1.271 -35.121 -32.301  1.00  0.00    -0.000 C 
BRANCH  27  28
ATOM     28  C   UNL     1      -2.579 -35.922 -32.158  1.00  0.00    -0.000 C 
BRANCH  28  29
ATOM     29  C   UNL     1      -3.003 -36.162 -30.691  1.00  0.00    -0.003 C 
ATOM     30  C   UNL     1      -2.092 -35.456 -29.688  1.00  0.00     0.004 C 
ENDBRANCH  28  29
ENDBRANCH  27  28
ENDBRANCH  26  27
ENDBRANCH  25  26
ENDBRANCH  24  25
ENDBRANCH  23  24
ENDBRANCH  22  23
ENDBRANCH  21  22
ENDBRANCH  20  21
ENDBRANCH  19  20
ENDBRANCH  18  19
ENDBRANCH  17  18
ENDBRANCH   1  17
TORSDOF 26
ENDMDL
MODEL 7
REMARK VINA RESULT:    -5.210     13.105     17.306
REMARK INTER + INTRA:         -14.893
REMARK INTER:                  -9.143
REMARK INTRA:                  -5.750
REMARK UNBOUND:                -1.763
REMARK SMILES CCCCCCCCCCCCCCCCCCCCCCCCCCCC(=O)[O-]
REMARK SMILES IDX 15 1 16 2 17 3 18 4 19 5 20 6 21 7 22 8 23 9 24 10 25 11
REMARK SMILES IDX 26 12 27 13 28 14 29 15 30 16 14 17 13 18 12 19 11 20 10 21
REMARK SMILES IDX 9 22 8 23 7 24 6 25 5 26 4 27 3 28 2 29 1 30
REMARK H PARENT
REMARK Flexibility Score: inf
ROOT
ATOM      1  C   UNL     1      -4.208 -33.830 -28.448  1.00  0.00     0.000 C 
ENDROOT
BRANCH   1   2
ATOM      2  C   UNL     1      -5.366 -33.242 -29.278  1.00  0.00     0.000 C 
BRANCH   2   3
ATOM      3  C   UNL     1      -5.059 -32.974 -30.765  1.00  0.00     0.000 C 
BRANCH   3   4
ATOM      4  C   UNL     1      -5.308 -31.533 -31.249  1.00  0.00     0.000 C 
BRANCH   4   5
ATOM      5  C   UNL     1      -4.130 -30.589 -30.956  1.00  0.00     0.000 C 
BRANCH   5   6
ATOM      6  C   UNL     1      -2.806 -31.081 -31.565  1.00  0.00     0.000 C 
BRANCH   6   7
ATOM      7  C   UNL     1      -1.586 -30.882 -30.641  1.00  0.00     0.000 C 
BRANCH   7   8
ATOM      8  C   UNL     1      -0.883 -32.210 -30.311  1.00  0.00     0.000 C 
BRANCH   8   9
ATOM      9  C   UNL     1      -1.036 -33.264 -31.425  1.00  0.00     0.000 C 
BRANCH   9  10
ATOM     10  C   UNL     1      -1.851 -34.516 -31.044  1.00  0.00     0.000 C 
BRANCH  10  11
ATOM     11  C   UNL     1      -1.952 -35.599 -32.139  1.00  0.00     0.000 C 
BRANCH  11  12
ATOM     12  C   UNL     1      -3.346 -35.712 -32.785  1.00  0.00     0.006 C 
BRANCH  12  13
ATOM     13  C   UNL     1      -3.413 -35.197 -34.241  1.00  0.00     0.053 C 
BRANCH  13  14
ATOM     14  C   UNL     1      -3.761 -33.739 -34.316  1.00  0.00     0.041 C 
ATOM     15  O   UNL     1      -4.959 -33.363 -34.194  1.00  0.00    -0.550 OA
ATOM     16  O   UNL     1      -2.775 -32.799 -34.587  1.00  0.00    -0.550 OA
ENDBRANCH  13  14
ENDBRANCH  12  13
ENDBRANCH  11  12
ENDBRANCH  10  11
ENDBRANCH   9  10
ENDBRANCH   8   9
ENDBRANCH   7   8
ENDBRANCH   6   7
ENDBRANCH   5   6
ENDBRANCH   4   5
ENDBRANCH   3   4
ENDBRANCH   2   3
ENDBRANCH   1   2
BRANCH   1  17
ATOM     17  C   UNL     1      -3.872 -33.038 -27.168  1.00  0.00     0.000 C 
BRANCH  17  18
ATOM     18  C   UNL     1      -2.617 -32.153 -27.304  1.00  0.00     0.000 C 
BRANCH  18  19
ATOM     19  C   UNL     1      -2.918 -30.660 -27.092  1.00  0.00     0.000 C 
BRANCH  19  20
ATOM     20  C   UNL     1      -4.410 -30.322 -27.236  1.00  0.00     0.000 C 
BRANCH  20  21
ATOM     21  C   UNL     1      -4.598 -28.985 -27.963  1.00  0.00     0.000 C 
BRANCH  21  22
ATOM     22  C   UNL     1      -3.260 -28.258 -28.148  1.00  0.00    -0.000 C 
BRANCH  22  23
ATOM     23  C   UNL     1      -3.427 -27.030 -29.056  1.00  0.00    -0.000 C 
BRANCH  23  24
ATOM     24  C   UNL     1      -2.327 -26.938 -30.126  1.00  0.00    -0.000 C 
BRANCH  24  25
ATOM     25  C   UNL     1      -2.867 -27.172 -31.546  1.00  0.00    -0.000 C 
BRANCH  25  26
ATOM     26  C   UNL     1      -1.799 -27.749 -32.503  1.00  0.00    -0.000 C 
BRANCH  26  27
ATOM     27  C   UNL     1      -2.332 -28.059 -33.913  1.00  0.00    -0.000 C 
BRANCH  27  28
ATOM     28  C   UNL     1      -3.860 -28.231 -33.998  1.00  0.00    -0.000 C 
BRANCH  28  29
ATOM     29  C   UNL     1      -4.300 -29.483 -34.791  1.00  0.00    -0.003 C 
ATOM     30  C   UNL     1      -5.737 -29.905 -34.485  1.00  0.00     0.004 C 
ENDBRANCH  28  29
ENDBRANCH  27  28
ENDBRANCH  26  27
ENDBRANCH  25  26
ENDBRANCH  24  25
ENDBRANCH  23  24
ENDBRANCH  22  23
ENDBRANCH  21  22
ENDBRANCH  20  21
ENDBRANCH  19  20
ENDBRANCH  18  19
ENDBRANCH  17  18
ENDBRANCH   1  17
TORSDOF 26
ENDMDL
MODEL 8
REMARK VINA RESULT:    -5.167     13.068     16.310
REMARK INTER + INTRA:         -14.784
REMARK INTER:                  -9.234
REMARK INTRA:                  -5.549
REMARK UNBOUND:                -1.763
REMARK SMILES CCCCCCCCCCCCCCCCCCCCCCCCCCCC(=O)[O-]
REMARK SMILES IDX 15 1 16 2 17 3 18 4 19 5 20 6 21 7 22 8 23 9 24 10 25 11
REMARK SMILES IDX 26 12 27 13 28 14 29 15 30 16 14 17 13 18 12 19 11 20 10 21
REMARK SMILES IDX 9 22 8 23 7 24 6 25 5 26 4 27 3 28 2 29 1 30
REMARK H PARENT
REMARK Flexibility Score: inf
ROOT
ATOM      1  C   UNL     1      -2.266 -32.493 -27.683  1.00  0.00     0.000 C 
ENDROOT
BRANCH   1   2
ATOM      2  C   UNL     1      -3.669 -32.026 -27.250  1.00  0.00     0.000 C 
BRANCH   2   3
ATOM      3  C   UNL     1      -3.903 -30.501 -27.257  1.00  0.00     0.000 C 
BRANCH   3   4
ATOM      4  C   UNL     1      -2.631 -29.632 -27.235  1.00  0.00     0.000 C 
BRANCH   4   5
ATOM      5  C   UNL     1      -2.772 -28.342 -28.061  1.00  0.00     0.000 C 
BRANCH   5   6
ATOM      6  C   UNL     1      -4.093 -28.278 -28.845  1.00  0.00     0.000 C 
BRANCH   6   7
ATOM      7  C   UNL     1      -4.045 -27.336 -30.067  1.00  0.00     0.000 C 
BRANCH   7   8
ATOM      8  C   UNL     1      -2.617 -27.168 -30.616  1.00  0.00     0.000 C 
BRANCH   8   9
ATOM      9  C   UNL     1      -2.583 -26.930 -32.137  1.00  0.00     0.000 C 
BRANCH   9  10
ATOM     10  C   UNL     1      -1.812 -27.984 -32.955  1.00  0.00     0.000 C 
BRANCH  10  11
ATOM     11  C   UNL     1      -2.562 -28.554 -34.177  1.00  0.00     0.000 C 
BRANCH  11  12
ATOM     12  C   UNL     1      -1.765 -29.607 -34.971  1.00  0.00     0.006 C 
BRANCH  12  13
ATOM     13  C   UNL     1      -1.029 -30.641 -34.090  1.00  0.00     0.053 C 
BRANCH  13  14
ATOM     14  C   UNL     1       0.453 -30.640 -34.322  1.00  0.00     0.041 C 
ATOM     15  O   UNL     1       1.122 -31.698 -34.174  1.00  0.00    -0.550 OA
ATOM     16  O   UNL     1       1.109 -29.456 -34.636  1.00  0.00    -0.550 OA
ENDBRANCH  13  14
ENDBRANCH  12  13
ENDBRANCH  11  12
ENDBRANCH  10  11
ENDBRANCH   9  10
ENDBRANCH   8   9
ENDBRANCH   7   8
ENDBRANCH   6   7
ENDBRANCH   5   6
ENDBRANCH   4   5
ENDBRANCH   3   4
ENDBRANCH   2   3
ENDBRANCH   1   2
BRANCH   1  17
ATOM     17  C   UNL     1      -2.176 -32.978 -29.144  1.00  0.00     0.000 C 
BRANCH  17  18
ATOM     18  C   UNL     1      -1.412 -32.009 -30.068  1.00  0.00     0.000 C 
BRANCH  18  19
ATOM     19  C   UNL     1      -2.333 -30.966 -30.724  1.00  0.00     0.000 C 
BRANCH  19  20
ATOM     20  C   UNL     1      -3.789 -31.442 -30.844  1.00  0.00     0.000 C 
BRANCH  20  21
ATOM     21  C   UNL     1      -4.608 -30.477 -31.710  1.00  0.00     0.000 C 
BRANCH  21  22
ATOM     22  C   UNL     1      -5.566 -31.235 -32.636  1.00  0.00    -0.000 C 
BRANCH  22  23
ATOM     23  C   UNL     1      -4.876 -31.592 -33.962  1.00  0.00    -0.000 C 
BRANCH  23  24
ATOM     24  C   UNL     1      -4.704 -33.110 -34.144  1.00  0.00    -0.000 C 
BRANCH  24  25
ATOM     25  C   UNL     1      -3.241 -33.511 -34.388  1.00  0.00    -0.000 C 
BRANCH  25  26
ATOM     26  C   UNL     1      -2.527 -33.974 -33.097  1.00  0.00    -0.000 C 
BRANCH  26  27
ATOM     27  C   UNL     1      -3.336 -34.990 -32.271  1.00  0.00    -0.000 C 
BRANCH  27  28
ATOM     28  C   UNL     1      -3.236 -36.445 -32.766  1.00  0.00    -0.000 C 
BRANCH  28  29
ATOM     29  C   UNL     1      -1.954 -36.736 -33.580  1.00  0.00    -0.003 C 
ATOM     30  C   UNL     1      -2.236 -36.984 -35.061  1.00  0.00     0.004 C 
ENDBRANCH  28  29
ENDBRANCH  27  28
ENDBRANCH  26  27
ENDBRANCH  25  26
ENDBRANCH  24  25
ENDBRANCH  23  24
ENDBRANCH  22  23
ENDBRANCH  21  22
ENDBRANCH  20  21
ENDBRANCH  19  20
ENDBRANCH  18  19
ENDBRANCH  17  18
ENDBRANCH   1  17
TORSDOF 26
ENDMDL
MODEL 9
REMARK VINA RESULT:    -5.151     12.836     17.118
REMARK INTER + INTRA:         -14.743
REMARK INTER:                  -8.620
REMARK INTRA:                  -6.123
REMARK UNBOUND:                -1.763
REMARK SMILES CCCCCCCCCCCCCCCCCCCCCCCCCCCC(=O)[O-]
REMARK SMILES IDX 15 1 16 2 17 3 18 4 19 5 20 6 21 7 22 8 23 9 24 10 25 11
REMARK SMILES IDX 26 12 27 13 28 14 29 15 30 16 14 17 13 18 12 19 11 20 10 21
REMARK SMILES IDX 9 22 8 23 7 24 6 25 5 26 4 27 3 28 2 29 1 30
REMARK H PARENT
REMARK Flexibility Score: inf
ROOT
ATOM      1  C   UNL     1      -1.622 -34.587 -28.544  1.00  0.00     0.000 C 
ENDROOT
BRANCH   1   2
ATOM      2  C   UNL     1      -3.110 -34.862 -28.838  1.00  0.00     0.000 C 
BRANCH   2   3
ATOM      3  C   UNL     1      -4.110 -33.841 -28.258  1.00  0.00     0.000 C 
BRANCH   3   4
ATOM      4  C   UNL     1      -5.056 -33.180 -29.278  1.00  0.00     0.000 C 
BRANCH   4   5
ATOM      5  C   UNL     1      -4.603 -33.380 -30.734  1.00  0.00     0.000 C 
BRANCH   5   6
ATOM      6  C   UNL     1      -5.191 -32.330 -31.691  1.00  0.00     0.000 C 
BRANCH   6   7
ATOM      7  C   UNL     1      -5.015 -32.682 -33.183  1.00  0.00     0.000 C 
BRANCH   7   8
ATOM      8  C   UNL     1      -4.040 -31.727 -33.896  1.00  0.00     0.000 C 
BRANCH   8   9
ATOM      9  C   UNL     1      -2.574 -32.192 -33.809  1.00  0.00     0.000 C 
BRANCH   9  10
ATOM     10  C   UNL     1      -2.150 -33.244 -34.852  1.00  0.00     0.000 C 
BRANCH  10  11
ATOM     11  C   UNL     1      -1.518 -34.530 -34.278  1.00  0.00     0.000 C 
BRANCH  11  12
ATOM     12  C   UNL     1      -1.986 -34.879 -32.852  1.00  0.00     0.006 C 
BRANCH  12  13
ATOM     13  C   UNL     1      -1.100 -35.921 -32.132  1.00  0.00     0.053 C 
BRANCH  13  14
ATOM     14  C   UNL     1      -1.307 -37.310 -32.660  1.00  0.00     0.041 C 
ATOM     15  O   UNL     1      -0.316 -38.047 -32.919  1.00  0.00    -0.550 OA
ATOM     16  O   UNL     1      -2.589 -37.770 -32.931  1.00  0.00    -0.550 OA
ENDBRANCH  13  14
ENDBRANCH  12  13
ENDBRANCH  11  12
ENDBRANCH  10  11
ENDBRANCH   9  10
ENDBRANCH   8   9
ENDBRANCH   7   8
ENDBRANCH   6   7
ENDBRANCH   5   6
ENDBRANCH   4   5
ENDBRANCH   3   4
ENDBRANCH   2   3
ENDBRANCH   1   2
BRANCH   1  17
ATOM     17  C   UNL     1      -1.199 -33.114 -28.713  1.00  0.00     0.000 C 
BRANCH  17  18
ATOM     18  C   UNL     1      -0.837 -32.741 -30.165  1.00  0.00     0.000 C 
BRANCH  18  19
ATOM     19  C   UNL     1      -1.347 -31.346 -30.563  1.00  0.00     0.000 C 
BRANCH  19  20
ATOM     20  C   UNL     1      -2.281 -30.725 -29.512  1.00  0.00     0.000 C 
BRANCH  20  21
ATOM     21  C   UNL     1      -2.883 -29.412 -30.026  1.00  0.00     0.000 C 
BRANCH  21  22
ATOM     22  C   UNL     1      -2.588 -29.209 -31.517  1.00  0.00    -0.000 C 
BRANCH  22  23
ATOM     23  C   UNL     1      -1.671 -27.995 -31.732  1.00  0.00    -0.000 C 
BRANCH  23  24
ATOM     24  C   UNL     1      -0.420 -28.342 -32.557  1.00  0.00    -0.000 C 
BRANCH  24  25
ATOM     25  C   UNL     1      -0.763 -29.064 -33.870  1.00  0.00    -0.000 C 
BRANCH  25  26
ATOM     26  C   UNL     1       0.391 -29.957 -34.379  1.00  0.00    -0.000 C 
BRANCH  26  27
ATOM     27  C   UNL     1       1.062 -30.792 -33.272  1.00  0.00    -0.000 C 
BRANCH  27  28
ATOM     28  C   UNL     1       1.264 -32.278 -33.621  1.00  0.00    -0.000 C 
BRANCH  28  29
ATOM     29  C   UNL     1       2.054 -33.065 -32.551  1.00  0.00    -0.003 C 
ATOM     30  C   UNL     1       2.648 -32.164 -31.470  1.00  0.00     0.004 C 
ENDBRANCH  28  29
ENDBRANCH  27  28
ENDBRANCH  26  27
ENDBRANCH  25  26
ENDBRANCH  24  25
ENDBRANCH  23  24
ENDBRANCH  22  23
ENDBRANCH  21  22
ENDBRANCH  20  21
ENDBRANCH  19  20
ENDBRANCH  18  19
ENDBRANCH  17  18
ENDBRANCH   1  17
TORSDOF 26
ENDMDL
