MODEL 1
REMARK VINA RESULT:    -3.423      0.000      0.000
REMARK INTER + INTRA:          -4.668
REMARK INTER:                  -4.423
REMARK INTRA:                  -0.245
REMARK UNBOUND:                -0.245
REMARK SMILES CCCCCCC(=O)[O-]
REMARK SMILES IDX 5 1 6 2 7 3 8 4 9 5 4 6 3 7 2 8 1 9
REMARK H PARENT
REMARK Flexibility Score: inf
ROOT
ATOM      1  C   UNL     1       5.588  -8.645  -0.128  1.00  0.00     0.006 C 
ENDROOT
BRANCH   1   2
ATOM      2  C   UNL     1       5.606  -7.661   1.045  1.00  0.00     0.053 C 
BRANCH   2   3
ATOM      3  C   UNL     1       4.427  -6.743   0.976  1.00  0.00     0.041 C 
ATOM      4  O   UNL     1       4.039  -6.291  -0.133  1.00  0.00    -0.550 OA
ATOM      5  O   UNL     1       3.786  -6.346   2.143  1.00  0.00    -0.550 OA
ENDBRANCH   2   3
ENDBRANCH   1   2
BRANCH   1   6
ATOM      6  C   UNL     1       6.774  -9.615  -0.050  1.00  0.00     0.000 C 
BRANCH   6   7
ATOM      7  C   UNL     1       7.040 -10.046   1.397  1.00  0.00    -0.000 C 
BRANCH   7   8
ATOM      8  C   UNL     1       8.539 -10.007   1.715  1.00  0.00    -0.003 C 
ATOM      9  C   UNL     1       8.958  -8.633   2.229  1.00  0.00     0.004 C 
ENDBRANCH   7   8
ENDBRANCH   6   7
ENDBRANCH   1   6
TORSDOF 5
ENDMDL
MODEL 2
REMARK VINA RESULT:    -3.286     19.571     20.111
REMARK INTER + INTRA:          -4.492
REMARK INTER:                  -4.252
REMARK INTRA:                  -0.240
REMARK UNBOUND:                -0.245
REMARK SMILES CCCCCCC(=O)[O-]
REMARK SMILES IDX 5 1 6 2 7 3 8 4 9 5 4 6 3 7 2 8 1 9
REMARK H PARENT
REMARK Flexibility Score: inf
ROOT
ATOM      1  C   UNL     1      -4.940   7.776   3.569  1.00  0.00     0.006 C 
ENDROOT
BRANCH   1   2
ATOM      2  C   UNL     1      -4.906   8.545   2.245  1.00  0.00     0.053 C 
BRANCH   2   3
ATOM      3  C   UNL     1      -5.662   7.802   1.188  1.00  0.00     0.041 C 
ATOM      4  O   UNL     1      -5.842   8.320   0.055  1.00  0.00    -0.550 OA
ATOM      5  O   UNL     1      -6.210   6.558   1.472  1.00  0.00    -0.550 OA
ENDBRANCH   2   3
ENDBRANCH   1   2
BRANCH   1   6
ATOM      6  C   UNL     1      -5.599   8.611   4.673  1.00  0.00     0.000 C 
BRANCH   6   7
ATOM      7  C   UNL     1      -4.866   8.435   6.008  1.00  0.00    -0.000 C 
BRANCH   7   8
ATOM      8  C   UNL     1      -3.365   8.221   5.787  1.00  0.00    -0.003 C 
ATOM      9  C   UNL     1      -2.609   9.545   5.816  1.00  0.00     0.004 C 
ENDBRANCH   7   8
ENDBRANCH   6   7
ENDBRANCH   1   6
TORSDOF 5
ENDMDL
MODEL 3
REMARK VINA RESULT:    -3.252      2.728      3.837
REMARK INTER + INTRA:          -4.447
REMARK INTER:                  -4.308
REMARK INTRA:                  -0.139
REMARK UNBOUND:                -0.245
REMARK SMILES CCCCCCC(=O)[O-]
REMARK SMILES IDX 5 1 6 2 7 3 8 4 9 5 4 6 3 7 2 8 1 9
REMARK H PARENT
REMARK Flexibility Score: inf
ROOT
ATOM      1  C   UNL     1       4.182  -6.391  -0.822  1.00  0.00     0.006 C 
ENDROOT
BRANCH   1   2
ATOM      2  C   UNL     1       3.651  -6.468  -2.257  1.00  0.00     0.053 C 
BRANCH   2   3
ATOM      3  C   UNL     1       4.258  -5.388  -3.098  1.00  0.00     0.041 C 
ATOM      4  O   UNL     1       4.232  -4.191  -2.708  1.00  0.00    -0.550 OA
ATOM      5  O   UNL     1       4.807  -5.698  -4.335  1.00  0.00    -0.550 OA
ENDBRANCH   2   3
ENDBRANCH   1   2
BRANCH   1   6
ATOM      6  C   UNL     1       5.125  -7.562  -0.521  1.00  0.00     0.000 C 
BRANCH   6   7
ATOM      7  C   UNL     1       5.007  -8.002   0.943  1.00  0.00    -0.000 C 
BRANCH   7   8
ATOM      8  C   UNL     1       5.566  -9.416   1.139  1.00  0.00    -0.003 C 
ATOM      9  C   UNL     1       6.687  -9.708   0.147  1.00  0.00     0.004 C 
ENDBRANCH   7   8
ENDBRANCH   6   7
ENDBRANCH   1   6
TORSDOF 5
ENDMDL
MODEL 4
REMARK VINA RESULT:    -3.153     10.743     13.002
REMARK INTER + INTRA:          -4.320
REMARK INTER:                  -4.123
REMARK INTRA:                  -0.197
REMARK UNBOUND:                -0.245
REMARK SMILES CCCCCCC(=O)[O-]
REMARK SMILES IDX 5 1 6 2 7 3 8 4 9 5 4 6 3 7 2 8 1 9
REMARK H PARENT
REMARK Flexibility Score: inf
ROOT
ATOM      1  C   UNL     1      -3.658  -6.422   8.521  1.00  0.00     0.006 C 
ENDROOT
BRANCH   1   2
ATOM      2  C   UNL     1      -3.964  -7.184   7.228  1.00  0.00     0.053 C 
BRANCH   2   3
ATOM      3  C   UNL     1      -2.721  -7.347   6.411  1.00  0.00     0.041 C 
ATOM      4  O   UNL     1      -2.720  -7.037   5.191  1.00  0.00    -0.550 OA
ATOM      5  O   UNL     1      -1.578  -7.889   6.985  1.00  0.00    -0.550 OA
ENDBRANCH   2   3
ENDBRANCH   1   2
BRANCH   1   6
ATOM      6  C   UNL     1      -4.493  -5.138   8.613  1.00  0.00     0.000 C 
BRANCH   6   7
ATOM      7  C   UNL     1      -5.157  -4.815   7.270  1.00  0.00    -0.000 C 
BRANCH   7   8
ATOM      8  C   UNL     1      -5.983  -3.527   7.360  1.00  0.00    -0.003 C 
ATOM      9  C   UNL     1      -5.999  -2.982   8.785  1.00  0.00     0.004 C 
ENDBRANCH   7   8
ENDBRANCH   6   7
ENDBRANCH   1   6
TORSDOF 5
ENDMDL
MODEL 5
REMARK VINA RESULT:    -3.091     19.848     20.544
REMARK INTER + INTRA:          -4.239
REMARK INTER:                  -4.006
REMARK INTRA:                  -0.233
REMARK UNBOUND:                -0.245
REMARK SMILES CCCCCCC(=O)[O-]
REMARK SMILES IDX 5 1 6 2 7 3 8 4 9 5 4 6 3 7 2 8 1 9
REMARK H PARENT
REMARK Flexibility Score: inf
ROOT
ATOM      1  C   UNL     1      -6.037   8.978   4.927  1.00  0.00     0.006 C 
ENDROOT
BRANCH   1   2
ATOM      2  C   UNL     1      -5.251   7.821   4.305  1.00  0.00     0.053 C 
BRANCH   2   3
ATOM      3  C   UNL     1      -4.896   8.132   2.885  1.00  0.00     0.041 C 
ATOM      4  O   UNL     1      -5.316   7.398   1.952  1.00  0.00    -0.550 OA
ATOM      5  O   UNL     1      -4.062   9.204   2.596  1.00  0.00    -0.550 OA
ENDBRANCH   2   3
ENDBRANCH   1   2
BRANCH   1   6
ATOM      6  C   UNL     1      -5.220   9.672   6.024  1.00  0.00     0.000 C 
BRANCH   6   7
ATOM      7  C   UNL     1      -4.063   8.783   6.495  1.00  0.00    -0.000 C 
BRANCH   7   8
ATOM      8  C   UNL     1      -2.733   9.545   6.457  1.00  0.00    -0.003 C 
ATOM      9  C   UNL     1      -1.981   9.407   7.776  1.00  0.00     0.004 C 
ENDBRANCH   7   8
ENDBRANCH   6   7
ENDBRANCH   1   6
TORSDOF 5
ENDMDL
MODEL 6
REMARK VINA RESULT:    -3.076     19.829     20.571
REMARK INTER + INTRA:          -4.221
REMARK INTER:                  -4.018
REMARK INTRA:                  -0.203
REMARK UNBOUND:                -0.245
REMARK SMILES CCCCCCC(=O)[O-]
REMARK SMILES IDX 5 1 6 2 7 3 8 4 9 5 4 6 3 7 2 8 1 9
REMARK H PARENT
REMARK Flexibility Score: inf
ROOT
ATOM      1  C   UNL     1      -5.641   8.970   4.656  1.00  0.00     0.006 C 
ENDROOT
BRANCH   1   2
ATOM      2  C   UNL     1      -4.530  10.012   4.811  1.00  0.00     0.053 C 
BRANCH   2   3
ATOM      3  C   UNL     1      -3.335   9.408   5.482  1.00  0.00     0.041 C 
ATOM      4  O   UNL     1      -2.250   9.289   4.856  1.00  0.00    -0.550 OA
ATOM      5  O   UNL     1      -3.437   8.931   6.783  1.00  0.00    -0.550 OA
ENDBRANCH   2   3
ENDBRANCH   1   2
BRANCH   1   6
ATOM      6  C   UNL     1      -5.203   7.832   3.725  1.00  0.00     0.000 C 
BRANCH   6   7
ATOM      7  C   UNL     1      -4.940   8.351   2.307  1.00  0.00    -0.000 C 
BRANCH   7   8
ATOM      8  C   UNL     1      -5.641   7.476   1.262  1.00  0.00    -0.003 C 
ATOM      9  C   UNL     1      -5.939   8.266  -0.008  1.00  0.00     0.004 C 
ENDBRANCH   7   8
ENDBRANCH   6   7
ENDBRANCH   1   6
TORSDOF 5
ENDMDL
MODEL 7
REMARK VINA RESULT:    -2.972     10.829     12.570
REMARK INTER + INTRA:          -4.086
REMARK INTER:                  -3.826
REMARK INTRA:                  -0.260
REMARK UNBOUND:                -0.245
REMARK SMILES CCCCCCC(=O)[O-]
REMARK SMILES IDX 5 1 6 2 7 3 8 4 9 5 4 6 3 7 2 8 1 9
REMARK H PARENT
REMARK Flexibility Score: inf
ROOT
ATOM      1  C   UNL     1       7.075   0.847  -6.975  1.00  0.00     0.006 C 
ENDROOT
BRANCH   1   2
ATOM      2  C   UNL     1       6.584   0.116  -5.722  1.00  0.00     0.053 C 
BRANCH   2   3
ATOM      3  C   UNL     1       6.382  -1.339  -6.010  1.00  0.00     0.041 C 
ATOM      4  O   UNL     1       6.822  -2.209  -5.214  1.00  0.00    -0.550 OA
ATOM      5  O   UNL     1       5.750  -1.733  -7.182  1.00  0.00    -0.550 OA
ENDBRANCH   2   3
ENDBRANCH   1   2
BRANCH   1   6
ATOM      6  C   UNL     1       5.981   1.760  -7.543  1.00  0.00     0.000 C 
BRANCH   6   7
ATOM      7  C   UNL     1       6.198   3.214  -7.111  1.00  0.00    -0.000 C 
BRANCH   7   8
ATOM      8  C   UNL     1       4.877   3.864  -6.683  1.00  0.00    -0.003 C 
ATOM      9  C   UNL     1       4.232   3.096  -5.534  1.00  0.00     0.004 C 
ENDBRANCH   7   8
ENDBRANCH   6   7
ENDBRANCH   1   6
TORSDOF 5
ENDMDL
MODEL 8
REMARK VINA RESULT:    -2.919     11.030     12.286
REMARK INTER + INTRA:          -4.017
REMARK INTER:                  -3.782
REMARK INTRA:                  -0.235
REMARK UNBOUND:                -0.245
REMARK SMILES CCCCCCC(=O)[O-]
REMARK SMILES IDX 5 1 6 2 7 3 8 4 9 5 4 6 3 7 2 8 1 9
REMARK H PARENT
REMARK Flexibility Score: inf
ROOT
ATOM      1  C   UNL     1       5.651   1.038  -5.944  1.00  0.00     0.006 C 
ENDROOT
BRANCH   1   2
ATOM      2  C   UNL     1       5.659   2.250  -6.879  1.00  0.00     0.053 C 
BRANCH   2   3
ATOM      3  C   UNL     1       4.894   3.384  -6.274  1.00  0.00     0.041 C 
ATOM      4  O   UNL     1       3.744   3.191  -5.799  1.00  0.00    -0.550 OA
ATOM      5  O   UNL     1       5.431   4.665  -6.278  1.00  0.00    -0.550 OA
ENDBRANCH   2   3
ENDBRANCH   1   2
BRANCH   1   6
ATOM      6  C   UNL     1       6.947   0.230  -6.078  1.00  0.00     0.000 C 
BRANCH   6   7
ATOM      7  C   UNL     1       6.658  -1.276  -6.100  1.00  0.00    -0.000 C 
BRANCH   7   8
ATOM      8  C   UNL     1       5.600  -1.618  -7.155  1.00  0.00    -0.003 C 
ATOM      9  C   UNL     1       6.197  -1.607  -8.558  1.00  0.00     0.004 C 
ENDBRANCH   7   8
ENDBRANCH   6   7
ENDBRANCH   1   6
TORSDOF 5
ENDMDL
MODEL 9
REMARK VINA RESULT:    -2.847     11.444     12.634
REMARK INTER + INTRA:          -3.925
REMARK INTER:                  -3.589
REMARK INTRA:                  -0.336
REMARK UNBOUND:                -0.245
REMARK SMILES CCCCCCC(=O)[O-]
REMARK SMILES IDX 5 1 6 2 7 3 8 4 9 5 4 6 3 7 2 8 1 9
REMARK H PARENT
REMARK Flexibility Score: inf
ROOT
ATOM      1  C   UNL     1       5.603   1.500  -7.630  1.00  0.00     0.006 C 
ENDROOT
BRANCH   1   2
ATOM      2  C   UNL     1       4.969   2.892  -7.701  1.00  0.00     0.053 C 
BRANCH   2   3
ATOM      3  C   UNL     1       4.903   3.508  -6.338  1.00  0.00     0.041 C 
ATOM      4  O   UNL     1       5.471   4.609  -6.112  1.00  0.00    -0.550 OA
ATOM      5  O   UNL     1       4.256   2.841  -5.306  1.00  0.00    -0.550 OA
ENDBRANCH   2   3
ENDBRANCH   1   2
BRANCH   1   6
ATOM      6  C   UNL     1       7.133   1.595  -7.575  1.00  0.00     0.000 C 
BRANCH   6   7
ATOM      7  C   UNL     1       7.695   0.768  -6.413  1.00  0.00    -0.000 C 
BRANCH   7   8
ATOM      8  C   UNL     1       6.575   0.029  -5.672  1.00  0.00    -0.003 C 
ATOM      9  C   UNL     1       6.981  -1.405  -5.348  1.00  0.00     0.004 C 
ENDBRANCH   7   8
ENDBRANCH   6   7
ENDBRANCH   1   6
TORSDOF 5
ENDMDL
