MODEL 1
REMARK VINA RESULT:    -4.643      0.000      0.000
REMARK INTER + INTRA:          -4.931
REMARK INTER:                  -4.915
REMARK INTRA:                  -0.016
REMARK UNBOUND:                -0.016
REMARK SMILES O=C([O-])c1cccnc1
REMARK SMILES IDX 4 1 5 2 9 3 6 4 8 5 7 6 2 7 1 8 3 9
REMARK H PARENT
REMARK Flexibility Score: inf
ROOT
ATOM      1  C   UNL     1     107.511 102.667 130.984  1.00  0.00     0.016 A 
ATOM      2  C   UNL     1     107.797 102.768 129.611  1.00  0.00     0.013 A 
ATOM      3  C   UNL     1     107.739 103.789 131.798  1.00  0.00     0.120 A 
ATOM      4  C   UNL     1     108.293 103.962 129.085  1.00  0.00     0.021 A 
ATOM      5  N   UNL     1     108.223 104.941 131.260  1.00  0.00    -0.264 NA
ATOM      6  C   UNL     1     108.502 105.049 129.933  1.00  0.00     0.111 A 
ENDROOT
BRANCH   1   7
ATOM      7  C   UNL     1     106.985 101.407 131.552  1.00  0.00     0.073 C 
ATOM      8  O   UNL     1     107.757 100.440 131.788  1.00  0.00    -0.545 OA
ATOM      9  O   UNL     1     105.631 101.273 131.835  1.00  0.00    -0.545 OA
ENDBRANCH   1   7
TORSDOF 1
ENDMDL
MODEL 2
REMARK VINA RESULT:    -4.052      2.957      3.925
REMARK INTER + INTRA:          -4.305
REMARK INTER:                  -4.287
REMARK INTRA:                  -0.018
REMARK UNBOUND:                -0.016
REMARK SMILES O=C([O-])c1cccnc1
REMARK SMILES IDX 4 1 5 2 9 3 6 4 8 5 7 6 2 7 1 8 3 9
REMARK H PARENT
REMARK Flexibility Score: inf
ROOT
ATOM      1  C   UNL     1     108.654 102.955 130.343  1.00  0.00     0.016 A 
ATOM      2  C   UNL     1     107.332 102.482 130.408  1.00  0.00     0.013 A 
ATOM      3  C   UNL     1     109.612 102.378 131.194  1.00  0.00     0.120 A 
ATOM      4  C   UNL     1     106.996 101.463 131.300  1.00  0.00     0.021 A 
ATOM      5  N   UNL     1     109.258 101.386 132.055  1.00  0.00    -0.264 NA
ATOM      6  C   UNL     1     107.982 100.921 132.125  1.00  0.00     0.111 A 
ENDROOT
BRANCH   1   7
ATOM      7  C   UNL     1     109.022 104.034 129.402  1.00  0.00     0.073 C 
ATOM      8  O   UNL     1     108.511 105.180 129.510  1.00  0.00    -0.545 OA
ATOM      9  O   UNL     1     109.938 103.798 128.384  1.00  0.00    -0.545 OA
ENDBRANCH   1   7
TORSDOF 1
ENDMDL
MODEL 3
REMARK VINA RESULT:    -3.848     13.281     14.197
REMARK INTER + INTRA:          -4.090
REMARK INTER:                  -4.069
REMARK INTRA:                  -0.021
REMARK UNBOUND:                -0.016
REMARK SMILES O=C([O-])c1cccnc1
REMARK SMILES IDX 4 1 5 2 9 3 6 4 8 5 7 6 2 7 1 8 3 9
REMARK H PARENT
REMARK Flexibility Score: inf
ROOT
ATOM      1  C   UNL     1     112.525 112.059 121.616  1.00  0.00     0.016 A 
ATOM      2  C   UNL     1     111.903 110.837 121.924  1.00  0.00     0.013 A 
ATOM      3  C   UNL     1     113.886 112.045 121.263  1.00  0.00     0.120 A 
ATOM      4  C   UNL     1     112.632 109.647 121.875  1.00  0.00     0.021 A 
ATOM      5  N   UNL     1     114.573 110.872 121.223  1.00  0.00    -0.264 NA
ATOM      6  C   UNL     1     113.980 109.684 121.519  1.00  0.00     0.111 A 
ENDROOT
BRANCH   1   7
ATOM      7  C   UNL     1     111.763 113.325 121.664  1.00  0.00     0.073 C 
ATOM      8  O   UNL     1     112.308 114.385 122.073  1.00  0.00    -0.545 OA
ATOM      9  O   UNL     1     110.435 113.363 121.259  1.00  0.00    -0.545 OA
ENDBRANCH   1   7
TORSDOF 1
ENDMDL
MODEL 4
REMARK VINA RESULT:    -3.821     13.389     14.179
REMARK INTER + INTRA:          -4.061
REMARK INTER:                  -4.038
REMARK INTRA:                  -0.023
REMARK UNBOUND:                -0.016
REMARK SMILES O=C([O-])c1cccnc1
REMARK SMILES IDX 4 1 5 2 9 3 6 4 8 5 7 6 2 7 1 8 3 9
REMARK H PARENT
REMARK Flexibility Score: inf
ROOT
ATOM      1  C   UNL     1     112.718 112.006 121.710  1.00  0.00     0.016 A 
ATOM      2  C   UNL     1     114.118 112.127 121.716  1.00  0.00     0.013 A 
ATOM      3  C   UNL     1     112.159 110.717 121.702  1.00  0.00     0.120 A 
ATOM      4  C   UNL     1     114.920 110.984 121.714  1.00  0.00     0.021 A 
ATOM      5  N   UNL     1     112.963 109.619 121.701  1.00  0.00    -0.264 NA
ATOM      6  C   UNL     1     114.319 109.725 121.707  1.00  0.00     0.111 A 
ENDROOT
BRANCH   1   7
ATOM      7  C   UNL     1     111.859 113.209 121.712  1.00  0.00     0.073 C 
ATOM      8  O   UNL     1     112.326 114.329 122.049  1.00  0.00    -0.545 OA
ATOM      9  O   UNL     1     110.523 113.121 121.339  1.00  0.00    -0.545 OA
ENDBRANCH   1   7
TORSDOF 1
ENDMDL
MODEL 5
REMARK VINA RESULT:    -3.811      3.005      3.918
REMARK INTER + INTRA:          -4.050
REMARK INTER:                  -4.028
REMARK INTRA:                  -0.022
REMARK UNBOUND:                -0.016
REMARK SMILES O=C([O-])c1cccnc1
REMARK SMILES IDX 4 1 5 2 9 3 6 4 8 5 7 6 2 7 1 8 3 9
REMARK H PARENT
REMARK Flexibility Score: inf
ROOT
ATOM      1  C   UNL     1     108.459 102.948 131.794  1.00  0.00     0.016 A 
ATOM      2  C   UNL     1     108.896 101.613 131.790  1.00  0.00     0.013 A 
ATOM      3  C   UNL     1     107.087 103.202 131.966  1.00  0.00     0.120 A 
ATOM      4  C   UNL     1     107.978 100.575 131.956  1.00  0.00     0.021 A 
ATOM      5  N   UNL     1     106.213 102.172 132.125  1.00  0.00    -0.264 NA
ATOM      6  C   UNL     1     106.626 100.876 132.123  1.00  0.00     0.111 A 
ENDROOT
BRANCH   1   7
ATOM      7  C   UNL     1     109.423 104.057 131.619  1.00  0.00     0.073 C 
ATOM      8  O   UNL     1     109.051 105.157 131.131  1.00  0.00    -0.545 OA
ATOM      9  O   UNL     1     110.752 103.899 131.992  1.00  0.00    -0.545 OA
ENDBRANCH   1   7
TORSDOF 1
ENDMDL
MODEL 6
REMARK VINA RESULT:    -3.711     13.370     14.001
REMARK INTER + INTRA:          -3.945
REMARK INTER:                  -3.927
REMARK INTRA:                  -0.018
REMARK UNBOUND:                -0.016
REMARK SMILES O=C([O-])c1cccnc1
REMARK SMILES IDX 4 1 5 2 9 3 6 4 8 5 7 6 2 7 1 8 3 9
REMARK H PARENT
REMARK Flexibility Score: inf
ROOT
ATOM      1  C   UNL     1     113.748 111.086 121.682  1.00  0.00     0.016 A 
ATOM      2  C   UNL     1     112.411 110.926 122.085  1.00  0.00     0.013 A 
ATOM      3  C   UNL     1     114.201 112.379 121.369  1.00  0.00     0.120 A 
ATOM      4  C   UNL     1     111.567 112.035 122.168  1.00  0.00     0.021 A 
ATOM      5  N   UNL     1     113.358 113.443 121.459  1.00  0.00    -0.264 NA
ATOM      6  C   UNL     1     112.063 113.298 121.848  1.00  0.00     0.111 A 
ENDROOT
BRANCH   1   7
ATOM      7  C   UNL     1     114.651 109.919 121.589  1.00  0.00     0.073 C 
ATOM      8  O   UNL     1     114.395 108.972 120.799  1.00  0.00    -0.545 OA
ATOM      9  O   UNL     1     115.797 109.851 122.373  1.00  0.00    -0.545 OA
ENDBRANCH   1   7
TORSDOF 1
ENDMDL
MODEL 7
REMARK VINA RESULT:    -3.577     13.112     13.894
REMARK INTER + INTRA:          -3.802
REMARK INTER:                  -3.784
REMARK INTRA:                  -0.018
REMARK UNBOUND:                -0.016
REMARK SMILES O=C([O-])c1cccnc1
REMARK SMILES IDX 4 1 5 2 9 3 6 4 8 5 7 6 2 7 1 8 3 9
REMARK H PARENT
REMARK Flexibility Score: inf
ROOT
ATOM      1  C   UNL     1     113.987 110.583 121.647  1.00  0.00     0.016 A 
ATOM      2  C   UNL     1     114.943 109.626 122.027  1.00  0.00     0.013 A 
ATOM      3  C   UNL     1     114.353 111.940 121.672  1.00  0.00     0.120 A 
ATOM      4  C   UNL     1     116.221 110.030 122.417  1.00  0.00     0.021 A 
ATOM      5  N   UNL     1     115.605 112.307 122.057  1.00  0.00    -0.264 NA
ATOM      6  C   UNL     1     116.538 111.389 122.426  1.00  0.00     0.111 A 
ENDROOT
BRANCH   1   7
ATOM      7  C   UNL     1     112.630 110.168 121.231  1.00  0.00     0.073 C 
ATOM      8  O   UNL     1     111.885 109.532 122.023  1.00  0.00    -0.545 OA
ATOM      9  O   UNL     1     112.157 110.475 119.961  1.00  0.00    -0.545 OA
ENDBRANCH   1   7
TORSDOF 1
ENDMDL
