MODEL 1
REMARK VINA RESULT:    -3.810      0.000      0.000
REMARK INTER + INTRA:          -4.265
REMARK INTER:                  -4.256
REMARK INTRA:                  -0.009
REMARK UNBOUND:                -0.009
REMARK SMILES CCCC(=O)[O-]
REMARK SMILES IDX 3 1 4 2 5 3 6 4 2 5 1 6
REMARK H PARENT
REMARK Flexibility Score: inf
ROOT
ATOM      1  C   UNL     1      17.559  -1.144  -4.362  1.00  0.00     0.052 C 
ENDROOT
BRANCH   1   2
ATOM      2  C   UNL     1      16.329  -0.899  -3.541  1.00  0.00     0.041 C 
ATOM      3  O   UNL     1      16.370  -1.013  -2.287  1.00  0.00    -0.550 OA
ATOM      4  O   UNL     1      15.131  -0.576  -4.164  1.00  0.00    -0.550 OA
ENDBRANCH   1   2
BRANCH   1   5
ATOM      5  C   UNL     1      18.500  -2.150  -3.687  1.00  0.00     0.003 C 
ATOM      6  C   UNL     1      19.718  -2.478  -4.549  1.00  0.00     0.004 C 
ENDBRANCH   1   5
TORSDOF 2
ENDMDL
MODEL 2
REMARK VINA RESULT:    -3.780      0.493      1.411
REMARK INTER + INTRA:          -4.231
REMARK INTER:                  -4.199
REMARK INTRA:                  -0.033
REMARK UNBOUND:                -0.009
REMARK SMILES CCCC(=O)[O-]
REMARK SMILES IDX 3 1 4 2 5 3 6 4 2 5 1 6
REMARK H PARENT
REMARK Flexibility Score: inf
ROOT
ATOM      1  C   UNL     1      17.576  -1.084  -4.386  1.00  0.00     0.052 C 
ENDROOT
BRANCH   1   2
ATOM      2  C   UNL     1      16.341  -0.897  -3.557  1.00  0.00     0.041 C 
ATOM      3  O   UNL     1      15.248  -0.596  -4.106  1.00  0.00    -0.550 OA
ATOM      4  O   UNL     1      16.405  -1.024  -2.175  1.00  0.00    -0.550 OA
ENDBRANCH   1   2
BRANCH   1   5
ATOM      5  C   UNL     1      18.740  -1.632  -3.551  1.00  0.00     0.003 C 
ATOM      6  C   UNL     1      19.113  -3.062  -3.941  1.00  0.00     0.004 C 
ENDBRANCH   1   5
TORSDOF 2
ENDMDL
MODEL 3
REMARK VINA RESULT:    -3.693     11.841     12.782
REMARK INTER + INTRA:          -4.134
REMARK INTER:                  -4.121
REMARK INTRA:                  -0.013
REMARK UNBOUND:                -0.009
REMARK SMILES CCCC(=O)[O-]
REMARK SMILES IDX 3 1 4 2 5 3 6 4 2 5 1 6
REMARK H PARENT
REMARK Flexibility Score: inf
ROOT
ATOM      1  C   UNL     1      27.078  -7.209  -6.089  1.00  0.00     0.052 C 
ENDROOT
BRANCH   1   2
ATOM      2  C   UNL     1      28.218  -7.958  -6.712  1.00  0.00     0.041 C 
ATOM      3  O   UNL     1      28.376  -7.948  -7.961  1.00  0.00    -0.550 OA
ATOM      4  O   UNL     1      29.085  -8.692  -5.913  1.00  0.00    -0.550 OA
ENDBRANCH   1   2
BRANCH   1   5
ATOM      5  C   UNL     1      27.503  -6.507  -4.793  1.00  0.00     0.003 C 
ATOM      6  C   UNL     1      26.342  -6.337  -3.815  1.00  0.00     0.004 C 
ENDBRANCH   1   5
TORSDOF 2
ENDMDL
MODEL 4
REMARK VINA RESULT:    -3.625     11.615     12.797
REMARK INTER + INTRA:          -4.058
REMARK INTER:                  -4.020
REMARK INTRA:                  -0.038
REMARK UNBOUND:                -0.009
REMARK SMILES CCCC(=O)[O-]
REMARK SMILES IDX 3 1 4 2 5 3 6 4 2 5 1 6
REMARK H PARENT
REMARK Flexibility Score: inf
ROOT
ATOM      1  C   UNL     1      28.200  -6.986  -5.166  1.00  0.00     0.052 C 
ENDROOT
BRANCH   1   2
ATOM      2  C   UNL     1      28.610  -8.053  -6.136  1.00  0.00     0.041 C 
ATOM      3  O   UNL     1      29.323  -9.018  -5.754  1.00  0.00    -0.550 OA
ATOM      4  O   UNL     1      28.230  -7.963  -7.469  1.00  0.00    -0.550 OA
ENDBRANCH   1   2
BRANCH   1   5
ATOM      5  C   UNL     1      26.708  -6.653  -5.288  1.00  0.00     0.003 C 
ATOM      6  C   UNL     1      26.469  -5.227  -5.783  1.00  0.00     0.004 C 
ENDBRANCH   1   5
TORSDOF 2
ENDMDL
MODEL 5
REMARK VINA RESULT:    -3.504     12.551     13.119
REMARK INTER + INTRA:          -3.923
REMARK INTER:                  -3.883
REMARK INTRA:                  -0.040
REMARK UNBOUND:                -0.009
REMARK SMILES CCCC(=O)[O-]
REMARK SMILES IDX 3 1 4 2 5 3 6 4 2 5 1 6
REMARK H PARENT
REMARK Flexibility Score: inf
ROOT
ATOM      1  C   UNL     1      29.082  -8.176  -5.385  1.00  0.00     0.052 C 
ENDROOT
BRANCH   1   2
ATOM      2  C   UNL     1      28.116  -7.858  -6.487  1.00  0.00     0.041 C 
ATOM      3  O   UNL     1      28.426  -8.082  -7.687  1.00  0.00    -0.550 OA
ATOM      4  O   UNL     1      26.886  -7.285  -6.189  1.00  0.00    -0.550 OA
ENDBRANCH   1   2
BRANCH   1   5
ATOM      5  C   UNL     1      28.684  -7.494  -4.070  1.00  0.00     0.003 C 
ATOM      6  C   UNL     1      29.457  -6.199  -3.829  1.00  0.00     0.004 C 
ENDBRANCH   1   5
TORSDOF 2
ENDMDL
MODEL 6
REMARK VINA RESULT:    -3.467      2.107      2.604
REMARK INTER + INTRA:          -3.881
REMARK INTER:                  -3.847
REMARK INTRA:                  -0.034
REMARK UNBOUND:                -0.009
REMARK SMILES CCCC(=O)[O-]
REMARK SMILES IDX 3 1 4 2 5 3 6 4 2 5 1 6
REMARK H PARENT
REMARK Flexibility Score: inf
ROOT
ATOM      1  C   UNL     1      15.846  -0.647  -4.285  1.00  0.00     0.052 C 
ENDROOT
BRANCH   1   2
ATOM      2  C   UNL     1      16.720  -1.071  -3.143  1.00  0.00     0.041 C 
ATOM      3  O   UNL     1      16.310  -0.967  -1.957  1.00  0.00    -0.550 OA
ATOM      4  O   UNL     1      18.000  -1.551  -3.389  1.00  0.00    -0.550 OA
ENDBRANCH   1   2
BRANCH   1   5
ATOM      5  C   UNL     1      16.629   0.162  -5.327  1.00  0.00     0.003 C 
ATOM      6  C   UNL     1      16.879  -0.630  -6.610  1.00  0.00     0.004 C 
ENDBRANCH   1   5
TORSDOF 2
ENDMDL
MODEL 7
REMARK VINA RESULT:    -3.458      1.433      2.184
REMARK INTER + INTRA:          -3.871
REMARK INTER:                  -3.840
REMARK INTRA:                  -0.031
REMARK UNBOUND:                -0.009
REMARK SMILES CCCC(=O)[O-]
REMARK SMILES IDX 3 1 4 2 5 3 6 4 2 5 1 6
REMARK H PARENT
REMARK Flexibility Score: inf
ROOT
ATOM      1  C   UNL     1      17.514  -0.684  -4.570  1.00  0.00     0.052 C 
ENDROOT
BRANCH   1   2
ATOM      2  C   UNL     1      16.311  -0.797  -3.681  1.00  0.00     0.041 C 
ATOM      3  O   UNL     1      16.445  -1.103  -2.467  1.00  0.00    -0.550 OA
ATOM      4  O   UNL     1      15.040  -0.593  -4.204  1.00  0.00    -0.550 OA
ENDBRANCH   1   2
BRANCH   1   5
ATOM      5  C   UNL     1      17.171  -1.003  -6.030  1.00  0.00     0.003 C 
ATOM      6  C   UNL     1      17.127   0.249  -6.905  1.00  0.00     0.004 C 
ENDBRANCH   1   5
TORSDOF 2
ENDMDL
MODEL 8
REMARK VINA RESULT:    -3.252     10.720     11.689
REMARK INTER + INTRA:          -3.641
REMARK INTER:                  -3.571
REMARK INTRA:                  -0.071
REMARK UNBOUND:                -0.009
REMARK SMILES CCCC(=O)[O-]
REMARK SMILES IDX 3 1 4 2 5 3 6 4 2 5 1 6
REMARK H PARENT
REMARK Flexibility Score: inf
ROOT
ATOM      1  C   UNL     1      26.746  -7.291  -6.337  1.00  0.00     0.052 C 
ENDROOT
BRANCH   1   2
ATOM      2  C   UNL     1      26.776  -6.163  -5.350  1.00  0.00     0.041 C 
ATOM      3  O   UNL     1      26.274  -6.308  -4.204  1.00  0.00    -0.550 OA
ATOM      4  O   UNL     1      27.332  -4.942  -5.708  1.00  0.00    -0.550 OA
ENDBRANCH   1   2
BRANCH   1   5
ATOM      5  C   UNL     1      28.159  -7.731  -6.738  1.00  0.00     0.003 C 
ATOM      6  C   UNL     1      28.972  -8.234  -5.546  1.00  0.00     0.004 C 
ENDBRANCH   1   5
TORSDOF 2
ENDMDL
MODEL 9
REMARK VINA RESULT:    -3.130      2.568      3.181
REMARK INTER + INTRA:          -3.505
REMARK INTER:                  -3.466
REMARK INTRA:                  -0.039
REMARK UNBOUND:                -0.009
REMARK SMILES CCCC(=O)[O-]
REMARK SMILES IDX 3 1 4 2 5 3 6 4 2 5 1 6
REMARK H PARENT
REMARK Flexibility Score: inf
ROOT
ATOM      1  C   UNL     1      18.984  -2.206  -6.355  1.00  0.00     0.052 C 
ENDROOT
BRANCH   1   2
ATOM      2  C   UNL     1      18.185  -0.951  -6.545  1.00  0.00     0.041 C 
ATOM      3  O   UNL     1      18.693   0.041  -7.130  1.00  0.00    -0.550 OA
ATOM      4  O   UNL     1      16.891  -0.869  -6.047  1.00  0.00    -0.550 OA
ENDBRANCH   1   2
BRANCH   1   5
ATOM      5  C   UNL     1      19.680  -2.232  -4.989  1.00  0.00     0.003 C 
ATOM      6  C   UNL     1      18.934  -3.095  -3.971  1.00  0.00     0.004 C 
ENDBRANCH   1   5
TORSDOF 2
ENDMDL
