MODEL 1
REMARK VINA RESULT:    -4.730      0.000      0.000
REMARK INTER + INTRA:          -6.481
REMARK INTER:                  -6.113
REMARK INTRA:                  -0.368
REMARK UNBOUND:                -0.368
REMARK SMILES CCO[C@H]1O[C@H](CO)[C@@H](O)[C@H](O)[C@@H]1O
REMARK SMILES IDX 4 1 13 2 11 3 9 4 6 5 5 6 3 7 2 8 1 9 14 10 12 12 7 14 8 15
REMARK SMILES IDX 10 17
REMARK H PARENT 14 11 12 13 8 16 10 18
REMARK Flexibility Score: inf
ROOT
ATOM      1  C   UNL     1      32.657  -4.916   9.382  1.00  0.00     0.281 C 
ATOM      2  C   UNL     1      31.950  -6.022  10.184  1.00  0.00     0.202 C 
ATOM      3  C   UNL     1      32.712  -6.297  11.496  1.00  0.00     0.179 C 
ATOM      4  C   UNL     1      34.202  -6.537  11.198  1.00  0.00     0.177 C 
ATOM      5  C   UNL     1      34.762  -5.386  10.326  1.00  0.00     0.178 C 
ATOM      6  O   UNL     1      34.014  -5.261   9.126  1.00  0.00    -0.341 OA
ENDROOT
BRANCH   1   7
ATOM      7  O   UNL     1      32.555  -3.677  10.068  1.00  0.00    -0.350 OA
BRANCH   7   8
ATOM      8  C   UNL     1      31.408  -2.956   9.655  1.00  0.00     0.160 C 
ATOM      9  C   UNL     1      31.395  -1.575  10.300  1.00  0.00     0.035 C 
ENDBRANCH   7   8
ENDBRANCH   1   7
BRANCH   2  10
ATOM     10  O   UNL     1      31.886  -7.188   9.400  1.00  0.00    -0.385 OA
ATOM     11  H   UNL     1      31.235  -7.796   9.836  1.00  0.00     0.211 HD
ENDBRANCH   2  10
BRANCH   3  12
ATOM     12  O   UNL     1      32.178  -7.417  12.152  1.00  0.00    -0.387 OA
ATOM     13  H   UNL     1      32.323  -8.196  11.553  1.00  0.00     0.211 HD
ENDBRANCH   3  12
BRANCH   5  14
ATOM     14  C   UNL     1      36.230  -5.651   9.958  1.00  0.00     0.191 C 
BRANCH  14  15
ATOM     15  O   UNL     1      36.493  -7.030   9.967  1.00  0.00    -0.394 OA
ATOM     16  H   UNL     1      35.869  -7.445   9.316  1.00  0.00     0.210 HD
ENDBRANCH  14  15
ENDBRANCH   5  14
BRANCH   4  17
ATOM     17  O   UNL     1      34.926  -6.673  12.398  1.00  0.00    -0.387 OA
ATOM     18  H   UNL     1      35.637  -5.979  12.400  1.00  0.00     0.211 HD
ENDBRANCH   4  17
TORSDOF 7
ENDMDL
MODEL 2
REMARK VINA RESULT:    -4.300      8.601     10.406
REMARK INTER + INTRA:          -5.924
REMARK INTER:                  -5.580
REMARK INTRA:                  -0.345
REMARK UNBOUND:                -0.368
REMARK SMILES CCO[C@H]1O[C@H](CO)[C@@H](O)[C@H](O)[C@@H]1O
REMARK SMILES IDX 4 1 13 2 11 3 9 4 6 5 5 6 3 7 2 8 1 9 14 10 12 12 7 14 8 15
REMARK SMILES IDX 10 17
REMARK H PARENT 14 11 12 13 8 16 10 18
REMARK Flexibility Score: inf
ROOT
ATOM      1  C   UNL     1      36.770  -4.051   2.458  1.00  0.00     0.281 C 
ATOM      2  C   UNL     1      35.888  -5.151   1.844  1.00  0.00     0.202 C 
ATOM      3  C   UNL     1      35.202  -4.630   0.565  1.00  0.00     0.179 C 
ATOM      4  C   UNL     1      34.498  -3.292   0.852  1.00  0.00     0.177 C 
ATOM      5  C   UNL     1      35.483  -2.310   1.533  1.00  0.00     0.178 C 
ATOM      6  O   UNL     1      36.010  -2.877   2.723  1.00  0.00    -0.341 OA
ENDROOT
BRANCH   1   7
ATOM      7  O   UNL     1      37.871  -3.776   1.604  1.00  0.00    -0.350 OA
BRANCH   7   8
ATOM      8  C   UNL     1      38.754  -4.882   1.537  1.00  0.00     0.160 C 
ATOM      9  C   UNL     1      40.125  -4.429   1.047  1.00  0.00     0.035 C 
ENDBRANCH   7   8
ENDBRANCH   1   7
BRANCH   2  10
ATOM     10  O   UNL     1      34.925  -5.548   2.790  1.00  0.00    -0.385 OA
ATOM     11  H   UNL     1      34.171  -4.907   2.724  1.00  0.00     0.211 HD
ENDBRANCH   2  10
BRANCH   3  12
ATOM     12  O   UNL     1      34.265  -5.562   0.092  1.00  0.00    -0.387 OA
ATOM     13  H   UNL     1      34.678  -6.010  -0.692  1.00  0.00     0.211 HD
ENDBRANCH   3  12
BRANCH   5  14
ATOM     14  C   UNL     1      34.773  -0.996   1.894  1.00  0.00     0.191 C 
BRANCH  14  15
ATOM     15  O   UNL     1      33.381  -1.152   1.799  1.00  0.00    -0.394 OA
ATOM     16  H   UNL     1      33.147  -1.963   2.321  1.00  0.00     0.210 HD
ENDBRANCH  14  15
ENDBRANCH   5  14
BRANCH   4  17
ATOM     17  O   UNL     1      33.970  -2.751  -0.335  1.00  0.00    -0.387 OA
ATOM     18  H   UNL     1      34.282  -1.811  -0.402  1.00  0.00     0.211 HD
ENDBRANCH   4  17
TORSDOF 7
ENDMDL
MODEL 3
REMARK VINA RESULT:    -4.151      2.676      5.046
REMARK INTER + INTRA:          -5.732
REMARK INTER:                  -5.381
REMARK INTRA:                  -0.351
REMARK UNBOUND:                -0.368
REMARK SMILES CCO[C@H]1O[C@H](CO)[C@@H](O)[C@H](O)[C@@H]1O
REMARK SMILES IDX 4 1 13 2 11 3 9 4 6 5 5 6 3 7 2 8 1 9 14 10 12 12 7 14 8 15
REMARK SMILES IDX 10 17
REMARK H PARENT 14 11 12 13 8 16 10 18
REMARK Flexibility Score: inf
ROOT
ATOM      1  C   UNL     1      32.986  -8.448  13.307  1.00  0.00     0.281 C 
ATOM      2  C   UNL     1      31.508  -8.216  12.948  1.00  0.00     0.202 C 
ATOM      3  C   UNL     1      31.364  -7.950  11.436  1.00  0.00     0.179 C 
ATOM      4  C   UNL     1      32.339  -6.842  11.001  1.00  0.00     0.177 C 
ATOM      5  C   UNL     1      33.771  -7.171  11.490  1.00  0.00     0.178 C 
ATOM      6  O   UNL     1      33.788  -7.345  12.900  1.00  0.00    -0.341 OA
ENDROOT
BRANCH   1   7
ATOM      7  O   UNL     1      33.441  -9.663  12.732  1.00  0.00    -0.350 OA
BRANCH   7   8
ATOM      8  C   UNL     1      33.102 -10.772  13.545  1.00  0.00     0.160 C 
ATOM      9  C   UNL     1      32.780 -11.982  12.675  1.00  0.00     0.035 C 
ENDBRANCH   7   8
ENDBRANCH   1   7
BRANCH   2  10
ATOM     10  O   UNL     1      31.023  -7.121  13.687  1.00  0.00    -0.385 OA
ATOM     11  H   UNL     1      30.447  -6.592  13.078  1.00  0.00     0.211 HD
ENDBRANCH   2  10
BRANCH   3  12
ATOM     12  O   UNL     1      30.050  -7.568  11.124  1.00  0.00    -0.387 OA
ATOM     13  H   UNL     1      30.091  -7.084  10.258  1.00  0.00     0.211 HD
ENDBRANCH   3  12
BRANCH   5  14
ATOM     14  C   UNL     1      34.741  -6.037  11.129  1.00  0.00     0.191 C 
BRANCH  14  15
ATOM     15  O   UNL     1      35.428  -6.341   9.944  1.00  0.00    -0.394 OA
ATOM     16  H   UNL     1      35.162  -5.658   9.275  1.00  0.00     0.210 HD
ENDBRANCH  14  15
ENDBRANCH   5  14
BRANCH   4  17
ATOM     17  O   UNL     1      32.299  -6.674   9.604  1.00  0.00    -0.387 OA
ATOM     18  H   UNL     1      32.018  -7.539   9.205  1.00  0.00     0.211 HD
ENDBRANCH   4  17
TORSDOF 7
ENDMDL
MODEL 4
REMARK VINA RESULT:    -4.118     13.820     15.333
REMARK INTER + INTRA:          -5.689
REMARK INTER:                  -5.380
REMARK INTRA:                  -0.309
REMARK UNBOUND:                -0.368
REMARK SMILES CCO[C@H]1O[C@H](CO)[C@@H](O)[C@H](O)[C@@H]1O
REMARK SMILES IDX 4 1 13 2 11 3 9 4 6 5 5 6 3 7 2 8 1 9 14 10 12 12 7 14 8 15
REMARK SMILES IDX 10 17
REMARK H PARENT 14 11 12 13 8 16 10 18
REMARK Flexibility Score: inf
ROOT
ATOM      1  C   UNL     1      33.934  -4.664  -5.035  1.00  0.00     0.281 C 
ATOM      2  C   UNL     1      34.088  -3.850  -3.738  1.00  0.00     0.202 C 
ATOM      3  C   UNL     1      33.038  -4.300  -2.702  1.00  0.00     0.179 C 
ATOM      4  C   UNL     1      31.636  -4.289  -3.334  1.00  0.00     0.177 C 
ATOM      5  C   UNL     1      31.647  -5.082  -4.665  1.00  0.00     0.178 C 
ATOM      6  O   UNL     1      32.615  -4.548  -5.556  1.00  0.00    -0.341 OA
ENDROOT
BRANCH   1   7
ATOM      7  O   UNL     1      34.286  -6.019  -4.804  1.00  0.00    -0.350 OA
BRANCH   7   8
ATOM      8  C   UNL     1      35.108  -6.519  -5.843  1.00  0.00     0.160 C 
ATOM      9  C   UNL     1      36.527  -5.981  -5.695  1.00  0.00     0.035 C 
ENDBRANCH   7   8
ENDBRANCH   1   7
BRANCH   2  10
ATOM     10  O   UNL     1      33.933  -2.483  -4.033  1.00  0.00    -0.385 OA
ATOM     11  H   UNL     1      33.613  -2.423  -4.971  1.00  0.00     0.211 HD
ENDBRANCH   2  10
BRANCH   3  12
ATOM     12  O   UNL     1      33.055  -3.453  -1.583  1.00  0.00    -0.387 OA
ATOM     13  H   UNL     1      33.591  -2.655  -1.836  1.00  0.00     0.211 HD
ENDBRANCH   3  12
BRANCH   5  14
ATOM     14  C   UNL     1      30.272  -5.017  -5.345  1.00  0.00     0.191 C 
BRANCH  14  15
ATOM     15  O   UNL     1      29.562  -6.207  -5.127  1.00  0.00    -0.394 OA
ATOM     16  H   UNL     1      30.168  -6.952  -5.379  1.00  0.00     0.210 HD
ENDBRANCH  14  15
ENDBRANCH   5  14
BRANCH   4  17
ATOM     17  O   UNL     1      30.688  -4.810  -2.434  1.00  0.00    -0.387 OA
ATOM     18  H   UNL     1      30.896  -5.771  -2.299  1.00  0.00     0.211 HD
ENDBRANCH   4  17
TORSDOF 7
ENDMDL
MODEL 5
REMARK VINA RESULT:    -3.998      1.543      2.045
REMARK INTER + INTRA:          -5.534
REMARK INTER:                  -5.231
REMARK INTRA:                  -0.303
REMARK UNBOUND:                -0.368
REMARK SMILES CCO[C@H]1O[C@H](CO)[C@@H](O)[C@H](O)[C@@H]1O
REMARK SMILES IDX 4 1 13 2 11 3 9 4 6 5 5 6 3 7 2 8 1 9 14 10 12 12 7 14 8 15
REMARK SMILES IDX 10 17
REMARK H PARENT 14 11 12 13 8 16 10 18
REMARK Flexibility Score: inf
ROOT
ATOM      1  C   UNL     1      33.184  -5.641  10.063  1.00  0.00     0.281 C 
ATOM      2  C   UNL     1      31.805  -6.300  10.233  1.00  0.00     0.202 C 
ATOM      3  C   UNL     1      31.583  -6.694  11.707  1.00  0.00     0.179 C 
ATOM      4  C   UNL     1      32.781  -7.512  12.220  1.00  0.00     0.177 C 
ATOM      5  C   UNL     1      34.103  -6.764  11.918  1.00  0.00     0.178 C 
ATOM      6  O   UNL     1      34.220  -6.500  10.527  1.00  0.00    -0.341 OA
ENDROOT
BRANCH   1   7
ATOM      7  O   UNL     1      33.210  -4.387  10.729  1.00  0.00    -0.350 OA
BRANCH   7   8
ATOM      8  C   UNL     1      33.076  -3.317   9.810  1.00  0.00     0.160 C 
ATOM      9  C   UNL     1      31.632  -2.832   9.776  1.00  0.00     0.035 C 
ENDBRANCH   7   8
ENDBRANCH   1   7
BRANCH   2  10
ATOM     10  O   UNL     1      31.733  -7.435   9.405  1.00  0.00    -0.385 OA
ATOM     11  H   UNL     1      32.438  -7.335   8.714  1.00  0.00     0.211 HD
ENDBRANCH   2  10
BRANCH   3  12
ATOM     12  O   UNL     1      30.406  -7.447  11.845  1.00  0.00    -0.387 OA
ATOM     13  H   UNL     1      30.677  -8.403  11.841  1.00  0.00     0.211 HD
ENDBRANCH   3  12
BRANCH   5  14
ATOM     14  C   UNL     1      35.311  -7.604  12.356  1.00  0.00     0.191 C 
BRANCH  14  15
ATOM     15  O   UNL     1      35.504  -7.496  13.742  1.00  0.00    -0.394 OA
ATOM     16  H   UNL     1      36.174  -6.776  13.883  1.00  0.00     0.210 HD
ENDBRANCH  14  15
ENDBRANCH   5  14
BRANCH   4  17
ATOM     17  O   UNL     1      32.642  -7.776  13.596  1.00  0.00    -0.387 OA
ATOM     18  H   UNL     1      33.447  -8.278  13.889  1.00  0.00     0.211 HD
ENDBRANCH   4  17
TORSDOF 7
ENDMDL
MODEL 6
REMARK VINA RESULT:    -3.973      3.645      6.004
REMARK INTER + INTRA:          -5.502
REMARK INTER:                  -5.109
REMARK INTRA:                  -0.393
REMARK UNBOUND:                -0.368
REMARK SMILES CCO[C@H]1O[C@H](CO)[C@@H](O)[C@H](O)[C@@H]1O
REMARK SMILES IDX 4 1 13 2 11 3 9 4 6 5 5 6 3 7 2 8 1 9 14 10 12 12 7 14 8 15
REMARK SMILES IDX 10 17
REMARK H PARENT 14 11 12 13 8 16 10 18
REMARK Flexibility Score: inf
ROOT
ATOM      1  C   UNL     1      31.004  -9.982  13.172  1.00  0.00     0.281 C 
ATOM      2  C   UNL     1      30.187  -8.839  12.543  1.00  0.00     0.202 C 
ATOM      3  C   UNL     1      31.025  -8.116  11.470  1.00  0.00     0.179 C 
ATOM      4  C   UNL     1      32.394  -7.718  12.049  1.00  0.00     0.177 C 
ATOM      5  C   UNL     1      33.067  -8.946  12.710  1.00  0.00     0.178 C 
ATOM      6  O   UNL     1      32.226  -9.496  13.714  1.00  0.00    -0.341 OA
ENDROOT
BRANCH   1   7
ATOM      7  O   UNL     1      31.230 -11.004  12.212  1.00  0.00    -0.350 OA
BRANCH   7   8
ATOM      8  C   UNL     1      30.876 -12.275  12.726  1.00  0.00     0.160 C 
ATOM      9  C   UNL     1      32.102 -12.963  13.315  1.00  0.00     0.035 C 
ENDBRANCH   7   8
ENDBRANCH   1   7
BRANCH   2  10
ATOM     10  O   UNL     1      29.804  -7.940  13.555  1.00  0.00    -0.385 OA
ATOM     11  H   UNL     1      30.135  -8.311  14.413  1.00  0.00     0.211 HD
ENDBRANCH   2  10
BRANCH   3  12
ATOM     12  O   UNL     1      30.357  -6.969  11.012  1.00  0.00    -0.387 OA
ATOM     13  H   UNL     1      30.394  -6.304  11.749  1.00  0.00     0.211 HD
ENDBRANCH   3  12
BRANCH   5  14
ATOM     14  C   UNL     1      34.401  -8.546  13.359  1.00  0.00     0.191 C 
BRANCH  14  15
ATOM     15  O   UNL     1      34.359  -7.207  13.776  1.00  0.00    -0.394 OA
ATOM     16  H   UNL     1      33.508  -6.827  13.433  1.00  0.00     0.210 HD
ENDBRANCH  14  15
ENDBRANCH   5  14
BRANCH   4  17
ATOM     17  O   UNL     1      33.209  -7.163  11.044  1.00  0.00    -0.387 OA
ATOM     18  H   UNL     1      32.746  -7.294  10.175  1.00  0.00     0.211 HD
ENDBRANCH   4  17
TORSDOF 7
ENDMDL
MODEL 7
REMARK VINA RESULT:    -3.956     12.649     14.077
REMARK INTER + INTRA:          -5.481
REMARK INTER:                  -5.107
REMARK INTRA:                  -0.374
REMARK UNBOUND:                -0.368
REMARK SMILES CCO[C@H]1O[C@H](CO)[C@@H](O)[C@H](O)[C@@H]1O
REMARK SMILES IDX 4 1 13 2 11 3 9 4 6 5 5 6 3 7 2 8 1 9 14 10 12 12 7 14 8 15
REMARK SMILES IDX 10 17
REMARK H PARENT 14 11 12 13 8 16 10 18
REMARK Flexibility Score: inf
ROOT
ATOM      1  C   UNL     1      33.717  -4.241  -1.935  1.00  0.00     0.281 C 
ATOM      2  C   UNL     1      34.650  -5.306  -2.537  1.00  0.00     0.202 C 
ATOM      3  C   UNL     1      34.565  -5.278  -4.076  1.00  0.00     0.179 C 
ATOM      4  C   UNL     1      33.095  -5.348  -4.525  1.00  0.00     0.177 C 
ATOM      5  C   UNL     1      32.263  -4.269  -3.787  1.00  0.00     0.178 C 
ATOM      6  O   UNL     1      32.378  -4.425  -2.381  1.00  0.00    -0.341 OA
ENDROOT
BRANCH   1   7
ATOM      7  O   UNL     1      34.196  -2.942  -2.250  1.00  0.00    -0.350 OA
BRANCH   7   8
ATOM      8  C   UNL     1      33.801  -1.999  -1.270  1.00  0.00     0.160 C 
ATOM      9  C   UNL     1      34.176  -2.499   0.121  1.00  0.00     0.035 C 
ENDBRANCH   7   8
ENDBRANCH   1   7
BRANCH   2  10
ATOM     10  O   UNL     1      34.276  -6.571  -2.048  1.00  0.00    -0.385 OA
ATOM     11  H   UNL     1      33.750  -7.015  -2.763  1.00  0.00     0.211 HD
ENDBRANCH   2  10
BRANCH   3  12
ATOM     12  O   UNL     1      35.276  -6.354  -4.630  1.00  0.00    -0.387 OA
ATOM     13  H   UNL     1      36.075  -6.494  -4.056  1.00  0.00     0.211 HD
ENDBRANCH   3  12
BRANCH   5  14
ATOM     14  C   UNL     1      30.779  -4.376  -4.168  1.00  0.00     0.191 C 
BRANCH  14  15
ATOM     15  O   UNL     1      30.387  -5.722  -4.229  1.00  0.00    -0.394 OA
ATOM     16  H   UNL     1      30.501  -6.094  -3.315  1.00  0.00     0.210 HD
ENDBRANCH  14  15
ENDBRANCH   5  14
BRANCH   4  17
ATOM     17  O   UNL     1      33.000  -5.204  -5.922  1.00  0.00    -0.387 OA
ATOM     18  H   UNL     1      32.167  -4.700  -6.117  1.00  0.00     0.211 HD
ENDBRANCH   4  17
TORSDOF 7
ENDMDL
MODEL 8
REMARK VINA RESULT:    -3.922     13.297     14.769
REMARK INTER + INTRA:          -5.435
REMARK INTER:                  -5.016
REMARK INTRA:                  -0.419
REMARK UNBOUND:                -0.368
REMARK SMILES CCO[C@H]1O[C@H](CO)[C@@H](O)[C@H](O)[C@@H]1O
REMARK SMILES IDX 4 1 13 2 11 3 9 4 6 5 5 6 3 7 2 8 1 9 14 10 12 12 7 14 8 15
REMARK SMILES IDX 10 17
REMARK H PARENT 14 11 12 13 8 16 10 18
REMARK Flexibility Score: inf
ROOT
ATOM      1  C   UNL     1      33.321  -2.607  -3.855  1.00  0.00     0.281 C 
ATOM      2  C   UNL     1      33.550  -3.519  -2.638  1.00  0.00     0.202 C 
ATOM      3  C   UNL     1      32.842  -4.873  -2.847  1.00  0.00     0.179 C 
ATOM      4  C   UNL     1      31.373  -4.644  -3.243  1.00  0.00     0.177 C 
ATOM      5  C   UNL     1      31.291  -3.654  -4.431  1.00  0.00     0.178 C 
ATOM      6  O   UNL     1      31.931  -2.429  -4.104  1.00  0.00    -0.341 OA
ENDROOT
BRANCH   1   7
ATOM      7  O   UNL     1      33.989  -3.136  -4.991  1.00  0.00    -0.350 OA
BRANCH   7   8
ATOM      8  C   UNL     1      35.395  -3.089  -4.825  1.00  0.00     0.160 C 
ATOM      9  C   UNL     1      36.024  -4.391  -5.309  1.00  0.00     0.035 C 
ENDBRANCH   7   8
ENDBRANCH   1   7
BRANCH   2  10
ATOM     10  O   UNL     1      33.054  -2.879  -1.487  1.00  0.00    -0.385 OA
ATOM     11  H   UNL     1      33.839  -2.559  -0.972  1.00  0.00     0.211 HD
ENDBRANCH   2  10
BRANCH   3  12
ATOM     12  O   UNL     1      32.898  -5.646  -1.677  1.00  0.00    -0.387 OA
ATOM     13  H   UNL     1      32.312  -6.434  -1.827  1.00  0.00     0.211 HD
ENDBRANCH   3  12
BRANCH   5  14
ATOM     14  C   UNL     1      29.827  -3.357  -4.788  1.00  0.00     0.191 C 
BRANCH  14  15
ATOM     15  O   UNL     1      29.007  -3.527  -3.662  1.00  0.00    -0.394 OA
ATOM     16  H   UNL     1      29.607  -3.738  -2.900  1.00  0.00     0.210 HD
ENDBRANCH  14  15
ENDBRANCH   5  14
BRANCH   4  17
ATOM     17  O   UNL     1      30.752  -5.869  -3.551  1.00  0.00    -0.387 OA
ATOM     18  H   UNL     1      30.186  -5.726  -4.354  1.00  0.00     0.211 HD
ENDBRANCH   4  17
TORSDOF 7
ENDMDL
MODEL 9
REMARK VINA RESULT:    -3.884     12.879     14.088
REMARK INTER + INTRA:          -5.387
REMARK INTER:                  -4.992
REMARK INTRA:                  -0.395
REMARK UNBOUND:                -0.368
REMARK SMILES CCO[C@H]1O[C@H](CO)[C@@H](O)[C@H](O)[C@@H]1O
REMARK SMILES IDX 4 1 13 2 11 3 9 4 6 5 5 6 3 7 2 8 1 9 14 10 12 12 7 14 8 15
REMARK SMILES IDX 10 17
REMARK H PARENT 14 11 12 13 8 16 10 18
REMARK Flexibility Score: inf
ROOT
ATOM      1  C   UNL     1      32.392  -3.684  -4.104  1.00  0.00     0.281 C 
ATOM      2  C   UNL     1      33.352  -4.559  -4.928  1.00  0.00     0.202 C 
ATOM      3  C   UNL     1      33.988  -5.639  -4.031  1.00  0.00     0.179 C 
ATOM      4  C   UNL     1      34.591  -4.991  -2.772  1.00  0.00     0.177 C 
ATOM      5  C   UNL     1      33.539  -4.085  -2.087  1.00  0.00     0.178 C 
ATOM      6  O   UNL     1      33.063  -3.100  -2.993  1.00  0.00    -0.341 OA
ENDROOT
BRANCH   1   7
ATOM      7  O   UNL     1      31.269  -4.448  -3.692  1.00  0.00    -0.350 OA
BRANCH   7   8
ATOM      8  C   UNL     1      30.356  -4.631  -4.759  1.00  0.00     0.160 C 
ATOM      9  C   UNL     1      29.352  -3.485  -4.794  1.00  0.00     0.035 C 
ENDBRANCH   7   8
ENDBRANCH   1   7
BRANCH   2  10
ATOM     10  O   UNL     1      34.348  -3.742  -5.493  1.00  0.00    -0.385 OA
ATOM     11  H   UNL     1      34.666  -4.197  -6.315  1.00  0.00     0.211 HD
ENDBRANCH   2  10
BRANCH   3  12
ATOM     12  O   UNL     1      34.991  -6.333  -4.727  1.00  0.00    -0.387 OA
ATOM     13  H   UNL     1      35.843  -5.854  -4.553  1.00  0.00     0.211 HD
ENDBRANCH   3  12
BRANCH   5  14
ATOM     14  C   UNL     1      34.149  -3.372  -0.871  1.00  0.00     0.191 C 
BRANCH  14  15
ATOM     15  O   UNL     1      34.198  -4.240   0.230  1.00  0.00    -0.394 OA
ATOM     16  H   UNL     1      33.631  -3.836   0.938  1.00  0.00     0.210 HD
ENDBRANCH  14  15
ENDBRANCH   5  14
BRANCH   4  17
ATOM     17  O   UNL     1      35.069  -5.980  -1.892  1.00  0.00    -0.387 OA
ATOM     18  H   UNL     1      34.283  -6.392  -1.446  1.00  0.00     0.211 HD
ENDBRANCH   4  17
TORSDOF 7
ENDMDL
