MODEL 1
REMARK VINA RESULT:    -5.437      0.000      0.000
REMARK INTER + INTRA:         -11.306
REMARK INTER:                  -9.569
REMARK INTRA:                  -1.736
REMARK UNBOUND:                -1.736
REMARK SMILES CCCCCCCCCCCCCCC(=O)[O-]
REMARK SMILES IDX 9 1 10 2 11 3 12 4 13 5 14 6 15 7 16 8 17 9 8 10 7 11 6 12
REMARK SMILES IDX 5 13 4 14 3 15 2 16 1 17
REMARK H PARENT
REMARK Flexibility Score: inf
ROOT
ATOM      1  C   UNL     1      10.918  23.290 -10.142  1.00  0.00     0.000 C 
ENDROOT
BRANCH   1   2
ATOM      2  C   UNL     1       9.554  23.472  -9.450  1.00  0.00     0.000 C 
BRANCH   2   3
ATOM      3  C   UNL     1       8.472  22.531 -10.001  1.00  0.00     0.000 C 
BRANCH   3   4
ATOM      4  C   UNL     1       7.082  22.938  -9.496  1.00  0.00     0.000 C 
BRANCH   4   5
ATOM      5  C   UNL     1       7.185  24.009  -8.400  1.00  0.00     0.006 C 
BRANCH   5   6
ATOM      6  C   UNL     1       6.240  23.730  -7.225  1.00  0.00     0.053 C 
BRANCH   6   7
ATOM      7  C   UNL     1       6.838  24.156  -5.919  1.00  0.00     0.041 C 
ATOM      8  O   UNL     1       6.716  25.345  -5.522  1.00  0.00    -0.550 OA
ATOM      9  O   UNL     1       7.502  23.230  -5.124  1.00  0.00    -0.550 OA
ENDBRANCH   6   7
ENDBRANCH   5   6
ENDBRANCH   4   5
ENDBRANCH   3   4
ENDBRANCH   2   3
ENDBRANCH   1   2
BRANCH   1  10
ATOM     10  C   UNL     1      11.965  24.373  -9.823  1.00  0.00     0.000 C 
BRANCH  10  11
ATOM     11  C   UNL     1      12.384  24.383  -8.344  1.00  0.00    -0.000 C 
BRANCH  11  12
ATOM     12  C   UNL     1      13.817  23.863  -8.124  1.00  0.00    -0.000 C 
BRANCH  12  13
ATOM     13  C   UNL     1      13.926  22.378  -7.721  1.00  0.00    -0.000 C 
BRANCH  13  14
ATOM     14  C   UNL     1      12.625  21.747  -7.195  1.00  0.00    -0.000 C 
BRANCH  14  15
ATOM     15  C   UNL     1      12.128  20.588  -8.075  1.00  0.00    -0.000 C 
BRANCH  15  16
ATOM     16  C   UNL     1      10.635  20.292  -7.871  1.00  0.00    -0.003 C 
ATOM     17  C   UNL     1       9.990  21.210  -6.832  1.00  0.00     0.004 C 
ENDBRANCH  15  16
ENDBRANCH  14  15
ENDBRANCH  13  14
ENDBRANCH  12  13
ENDBRANCH  11  12
ENDBRANCH  10  11
ENDBRANCH   1  10
TORSDOF 13
ENDMDL
MODEL 2
REMARK VINA RESULT:    -5.315      2.837      5.989
REMARK INTER + INTRA:         -11.090
REMARK INTER:                  -9.234
REMARK INTRA:                  -1.856
REMARK UNBOUND:                -1.736
REMARK SMILES CCCCCCCCCCCCCCC(=O)[O-]
REMARK SMILES IDX 9 1 10 2 11 3 12 4 13 5 14 6 15 7 16 8 17 9 8 10 7 11 6 12
REMARK SMILES IDX 5 13 4 14 3 15 2 16 1 17
REMARK H PARENT
REMARK Flexibility Score: inf
ROOT
ATOM      1  C   UNL     1       8.456  21.694  -5.197  1.00  0.00     0.000 C 
ENDROOT
BRANCH   1   2
ATOM      2  C   UNL     1       9.782  21.765  -5.977  1.00  0.00     0.000 C 
BRANCH   2   3
ATOM      3  C   UNL     1       9.856  20.751  -7.128  1.00  0.00     0.000 C 
BRANCH   3   4
ATOM      4  C   UNL     1      10.376  21.413  -8.410  1.00  0.00     0.000 C 
BRANCH   4   5
ATOM      5  C   UNL     1      10.740  22.884  -8.162  1.00  0.00     0.006 C 
BRANCH   5   6
ATOM      6  C   UNL     1      10.682  23.721  -9.447  1.00  0.00     0.053 C 
BRANCH   6   7
ATOM      7  C   UNL     1      11.951  24.484  -9.670  1.00  0.00     0.041 C 
ATOM      8  O   UNL     1      12.875  24.443  -8.815  1.00  0.00    -0.550 OA
ATOM      9  O   UNL     1      12.127  25.215 -10.838  1.00  0.00    -0.550 OA
ENDBRANCH   6   7
ENDBRANCH   5   6
ENDBRANCH   4   5
ENDBRANCH   3   4
ENDBRANCH   2   3
ENDBRANCH   1   2
BRANCH   1  10
ATOM     10  C   UNL     1       7.633  22.995  -5.182  1.00  0.00     0.000 C 
BRANCH  10  11
ATOM     11  C   UNL     1       6.840  23.217  -6.481  1.00  0.00    -0.000 C 
BRANCH  11  12
ATOM     12  C   UNL     1       7.214  24.530  -7.194  1.00  0.00    -0.000 C 
BRANCH  12  13
ATOM     13  C   UNL     1       7.262  24.455  -8.734  1.00  0.00    -0.000 C 
BRANCH  13  14
ATOM     14  C   UNL     1       7.091  23.044  -9.324  1.00  0.00    -0.000 C 
BRANCH  14  15
ATOM     15  C   UNL     1       6.124  23.012 -10.519  1.00  0.00    -0.000 C 
BRANCH  15  16
ATOM     16  C   UNL     1       4.685  23.374 -10.121  1.00  0.00    -0.003 C 
ATOM     17  C   UNL     1       4.154  22.510  -8.978  1.00  0.00     0.004 C 
ENDBRANCH  15  16
ENDBRANCH  14  15
ENDBRANCH  13  14
ENDBRANCH  12  13
ENDBRANCH  11  12
ENDBRANCH  10  11
ENDBRANCH   1  10
TORSDOF 13
ENDMDL
MODEL 3
REMARK VINA RESULT:    -5.167      2.567      5.781
REMARK INTER + INTRA:         -10.831
REMARK INTER:                  -9.277
REMARK INTRA:                  -1.554
REMARK UNBOUND:                -1.736
REMARK SMILES CCCCCCCCCCCCCCC(=O)[O-]
REMARK SMILES IDX 9 1 10 2 11 3 12 4 13 5 14 6 15 7 16 8 17 9 8 10 7 11 6 12
REMARK SMILES IDX 5 13 4 14 3 15 2 16 1 17
REMARK H PARENT
REMARK Flexibility Score: inf
ROOT
ATOM      1  C   UNL     1      10.900  23.109 -10.169  1.00  0.00     0.000 C 
ENDROOT
BRANCH   1   2
ATOM      2  C   UNL     1      11.815  24.281  -9.770  1.00  0.00     0.000 C 
BRANCH   2   3
ATOM      3  C   UNL     1      12.256  24.224  -8.300  1.00  0.00     0.000 C 
BRANCH   3   4
ATOM      4  C   UNL     1      13.783  24.134  -8.188  1.00  0.00     0.000 C 
BRANCH   4   5
ATOM      5  C   UNL     1      14.207  22.863  -7.438  1.00  0.00     0.006 C 
BRANCH   5   6
ATOM      6  C   UNL     1      13.240  22.509  -6.301  1.00  0.00     0.053 C 
BRANCH   6   7
ATOM      7  C   UNL     1      13.881  22.671  -4.957  1.00  0.00     0.041 C 
ATOM      8  O   UNL     1      15.086  23.023  -4.867  1.00  0.00    -0.550 OA
ATOM      9  O   UNL     1      13.136  22.467  -3.802  1.00  0.00    -0.550 OA
ENDBRANCH   6   7
ENDBRANCH   5   6
ENDBRANCH   4   5
ENDBRANCH   3   4
ENDBRANCH   2   3
ENDBRANCH   1   2
BRANCH   1  10
ATOM     10  C   UNL     1      10.660  22.058  -9.069  1.00  0.00     0.000 C 
BRANCH  10  11
ATOM     11  C   UNL     1       9.180  21.940  -8.667  1.00  0.00    -0.000 C 
BRANCH  11  12
ATOM     12  C   UNL     1       8.218  22.370  -9.790  1.00  0.00    -0.000 C 
BRANCH  12  13
ATOM     13  C   UNL     1       7.164  23.423  -9.391  1.00  0.00    -0.000 C 
BRANCH  13  14
ATOM     14  C   UNL     1       7.699  24.593  -8.547  1.00  0.00    -0.000 C 
BRANCH  14  15
ATOM     15  C   UNL     1       6.949  24.758  -7.215  1.00  0.00    -0.000 C 
BRANCH  15  16
ATOM     16  C   UNL     1       6.597  23.410  -6.568  1.00  0.00    -0.003 C 
ATOM     17  C   UNL     1       7.510  23.064  -5.393  1.00  0.00     0.004 C 
ENDBRANCH  15  16
ENDBRANCH  14  15
ENDBRANCH  13  14
ENDBRANCH  12  13
ENDBRANCH  11  12
ENDBRANCH  10  11
ENDBRANCH   1  10
TORSDOF 13
ENDMDL
MODEL 4
REMARK VINA RESULT:    -5.140      2.696      5.958
REMARK INTER + INTRA:         -10.783
REMARK INTER:                  -9.191
REMARK INTRA:                  -1.592
REMARK UNBOUND:                -1.736
REMARK SMILES CCCCCCCCCCCCCCC(=O)[O-]
REMARK SMILES IDX 9 1 10 2 11 3 12 4 13 5 14 6 15 7 16 8 17 9 8 10 7 11 6 12
REMARK SMILES IDX 5 13 4 14 3 15 2 16 1 17
REMARK H PARENT
REMARK Flexibility Score: inf
ROOT
ATOM      1  C   UNL     1      10.051  21.895  -6.400  1.00  0.00     0.000 C 
ENDROOT
BRANCH   1   2
ATOM      2  C   UNL     1      10.195  21.146  -7.738  1.00  0.00     0.000 C 
BRANCH   2   3
ATOM      3  C   UNL     1       9.459  21.837  -8.895  1.00  0.00     0.000 C 
BRANCH   3   4
ATOM      4  C   UNL     1       9.966  23.270  -9.091  1.00  0.00     0.000 C 
BRANCH   4   5
ATOM      5  C   UNL     1      11.388  23.277  -9.671  1.00  0.00     0.006 C 
BRANCH   5   6
ATOM      6  C   UNL     1      12.263  24.376  -9.054  1.00  0.00     0.053 C 
BRANCH   6   7
ATOM      7  C   UNL     1      13.300  23.808  -8.134  1.00  0.00     0.041 C 
ATOM      8  O   UNL     1      13.362  22.566  -7.937  1.00  0.00    -0.550 OA
ATOM      9  O   UNL     1      14.219  24.649  -7.520  1.00  0.00    -0.550 OA
ENDBRANCH   6   7
ENDBRANCH   5   6
ENDBRANCH   4   5
ENDBRANCH   3   4
ENDBRANCH   2   3
ENDBRANCH   1   2
BRANCH   1  10
ATOM     10  C   UNL     1       8.745  21.619  -5.631  1.00  0.00     0.000 C 
BRANCH  10  11
ATOM     11  C   UNL     1       8.030  22.906  -5.187  1.00  0.00    -0.000 C 
BRANCH  11  12
ATOM     12  C   UNL     1       6.817  23.252  -6.072  1.00  0.00    -0.000 C 
BRANCH  12  13
ATOM     13  C   UNL     1       6.904  24.603  -6.813  1.00  0.00    -0.000 C 
BRANCH  13  14
ATOM     14  C   UNL     1       6.922  24.504  -8.348  1.00  0.00    -0.000 C 
BRANCH  14  15
ATOM     15  C   UNL     1       6.027  23.374  -8.882  1.00  0.00    -0.000 C 
BRANCH  15  16
ATOM     16  C   UNL     1       6.093  23.243 -10.411  1.00  0.00    -0.003 C 
ATOM     17  C   UNL     1       4.946  23.967 -11.115  1.00  0.00     0.004 C 
ENDBRANCH  15  16
ENDBRANCH  14  15
ENDBRANCH  13  14
ENDBRANCH  12  13
ENDBRANCH  11  12
ENDBRANCH  10  11
ENDBRANCH   1  10
TORSDOF 13
ENDMDL
MODEL 5
REMARK VINA RESULT:    -5.133      2.980      6.641
REMARK INTER + INTRA:         -10.771
REMARK INTER:                  -9.193
REMARK INTRA:                  -1.578
REMARK UNBOUND:                -1.736
REMARK SMILES CCCCCCCCCCCCCCC(=O)[O-]
REMARK SMILES IDX 9 1 10 2 11 3 12 4 13 5 14 6 15 7 16 8 17 9 8 10 7 11 6 12
REMARK SMILES IDX 5 13 4 14 3 15 2 16 1 17
REMARK H PARENT
REMARK Flexibility Score: inf
ROOT
ATOM      1  C   UNL     1       7.749  23.458  -7.269  1.00  0.00     0.000 C 
ENDROOT
BRANCH   1   2
ATOM      2  C   UNL     1       8.079  23.979  -8.680  1.00  0.00     0.000 C 
BRANCH   2   3
ATOM      3  C   UNL     1       8.702  22.905  -9.585  1.00  0.00     0.000 C 
BRANCH   3   4
ATOM      4  C   UNL     1       9.574  21.941  -8.772  1.00  0.00     0.000 C 
BRANCH   4   5
ATOM      5  C   UNL     1      11.064  22.151  -9.081  1.00  0.00     0.006 C 
BRANCH   5   6
ATOM      6  C   UNL     1      11.774  22.965  -7.992  1.00  0.00     0.053 C 
BRANCH   6   7
ATOM      7  C   UNL     1      12.584  24.083  -8.575  1.00  0.00     0.041 C 
ATOM      8  O   UNL     1      12.197  24.670  -9.619  1.00  0.00    -0.550 OA
ATOM      9  O   UNL     1      13.750  24.498  -7.944  1.00  0.00    -0.550 OA
ENDBRANCH   6   7
ENDBRANCH   5   6
ENDBRANCH   4   5
ENDBRANCH   3   4
ENDBRANCH   2   3
ENDBRANCH   1   2
BRANCH   1  10
ATOM     10  C   UNL     1       6.533  24.119  -6.593  1.00  0.00     0.000 C 
BRANCH  10  11
ATOM     11  C   UNL     1       5.522  23.096  -6.048  1.00  0.00    -0.000 C 
BRANCH  11  12
ATOM     12  C   UNL     1       4.130  23.229  -6.694  1.00  0.00    -0.000 C 
BRANCH  12  13
ATOM     13  C   UNL     1       3.869  22.302  -7.900  1.00  0.00    -0.000 C 
BRANCH  13  14
ATOM     14  C   UNL     1       3.966  22.981  -9.277  1.00  0.00    -0.000 C 
BRANCH  14  15
ATOM     15  C   UNL     1       5.096  22.404 -10.146  1.00  0.00    -0.000 C 
BRANCH  15  16
ATOM     16  C   UNL     1       5.460  23.321 -11.323  1.00  0.00    -0.003 C 
ATOM     17  C   UNL     1       4.950  24.749 -11.136  1.00  0.00     0.004 C 
ENDBRANCH  15  16
ENDBRANCH  14  15
ENDBRANCH  13  14
ENDBRANCH  12  13
ENDBRANCH  11  12
ENDBRANCH  10  11
ENDBRANCH   1  10
TORSDOF 13
ENDMDL
MODEL 6
REMARK VINA RESULT:    -5.115      2.647      6.302
REMARK INTER + INTRA:         -10.739
REMARK INTER:                  -9.518
REMARK INTRA:                  -1.222
REMARK UNBOUND:                -1.736
REMARK SMILES CCCCCCCCCCCCCCC(=O)[O-]
REMARK SMILES IDX 9 1 10 2 11 3 12 4 13 5 14 6 15 7 16 8 17 9 8 10 7 11 6 12
REMARK SMILES IDX 5 13 4 14 3 15 2 16 1 17
REMARK H PARENT
REMARK Flexibility Score: inf
ROOT
ATOM      1  C   UNL     1       9.155  22.080  -9.059  1.00  0.00     0.000 C 
ENDROOT
BRANCH   1   2
ATOM      2  C   UNL     1       9.418  22.483  -7.596  1.00  0.00     0.000 C 
BRANCH   2   3
ATOM      3  C   UNL     1      10.362  21.515  -6.867  1.00  0.00     0.000 C 
BRANCH   3   4
ATOM      4  C   UNL     1      11.101  20.614  -7.864  1.00  0.00     0.000 C 
BRANCH   4   5
ATOM      5  C   UNL     1      12.498  21.171  -8.179  1.00  0.00     0.006 C 
BRANCH   5   6
ATOM      6  C   UNL     1      12.932  22.250  -7.179  1.00  0.00     0.053 C 
BRANCH   6   7
ATOM      7  C   UNL     1      13.351  23.511  -7.871  1.00  0.00     0.041 C 
ATOM      8  O   UNL     1      12.506  24.196  -8.506  1.00  0.00    -0.550 OA
ATOM      9  O   UNL     1      14.666  23.948  -7.785  1.00  0.00    -0.550 OA
ENDBRANCH   6   7
ENDBRANCH   5   6
ENDBRANCH   4   5
ENDBRANCH   3   4
ENDBRANCH   2   3
ENDBRANCH   1   2
BRANCH   1  10
ATOM     10  C   UNL     1       8.076  22.905  -9.784  1.00  0.00     0.000 C 
BRANCH  10  11
ATOM     11  C   UNL     1       7.007  22.031 -10.461  1.00  0.00    -0.000 C 
BRANCH  11  12
ATOM     12  C   UNL     1       5.571  22.445 -10.089  1.00  0.00    -0.000 C 
BRANCH  12  13
ATOM     13  C   UNL     1       5.443  23.330  -8.832  1.00  0.00    -0.000 C 
BRANCH  13  14
ATOM     14  C   UNL     1       4.487  22.794  -7.752  1.00  0.00    -0.000 C 
BRANCH  14  15
ATOM     15  C   UNL     1       4.920  23.182  -6.328  1.00  0.00    -0.000 C 
BRANCH  15  16
ATOM     16  C   UNL     1       6.381  23.652  -6.266  1.00  0.00    -0.003 C 
ATOM     17  C   UNL     1       6.524  25.053  -5.672  1.00  0.00     0.004 C 
ENDBRANCH  15  16
ENDBRANCH  14  15
ENDBRANCH  13  14
ENDBRANCH  12  13
ENDBRANCH  11  12
ENDBRANCH  10  11
ENDBRANCH   1  10
TORSDOF 13
ENDMDL
MODEL 7
REMARK VINA RESULT:    -5.108      1.079      3.523
REMARK INTER + INTRA:         -10.726
REMARK INTER:                  -9.366
REMARK INTRA:                  -1.360
REMARK UNBOUND:                -1.736
REMARK SMILES CCCCCCCCCCCCCCC(=O)[O-]
REMARK SMILES IDX 9 1 10 2 11 3 12 4 13 5 14 6 15 7 16 8 17 9 8 10 7 11 6 12
REMARK SMILES IDX 5 13 4 14 3 15 2 16 1 17
REMARK H PARENT
REMARK Flexibility Score: inf
ROOT
ATOM      1  C   UNL     1      12.286  22.238  -7.090  1.00  0.00     0.000 C 
ENDROOT
BRANCH   1   2
ATOM      2  C   UNL     1      11.669  20.911  -7.568  1.00  0.00     0.000 C 
BRANCH   2   3
ATOM      3  C   UNL     1      10.170  20.798  -7.252  1.00  0.00     0.000 C 
BRANCH   3   4
ATOM      4  C   UNL     1       9.782  21.723  -6.093  1.00  0.00     0.000 C 
BRANCH   4   5
ATOM      5  C   UNL     1       8.644  22.671  -6.501  1.00  0.00     0.006 C 
BRANCH   5   6
ATOM      6  C   UNL     1       7.642  22.899  -5.363  1.00  0.00     0.053 C 
BRANCH   6   7
ATOM      7  C   UNL     1       6.510  23.784  -5.789  1.00  0.00     0.041 C 
ATOM      8  O   UNL     1       6.647  25.036  -5.784  1.00  0.00    -0.550 OA
ATOM      9  O   UNL     1       5.316  23.224  -6.224  1.00  0.00    -0.550 OA
ENDBRANCH   6   7
ENDBRANCH   5   6
ENDBRANCH   4   5
ENDBRANCH   3   4
ENDBRANCH   2   3
ENDBRANCH   1   2
BRANCH   1  10
ATOM     10  C   UNL     1      13.078  23.016  -8.156  1.00  0.00     0.000 C 
BRANCH  10  11
ATOM     11  C   UNL     1      12.427  24.361  -8.523  1.00  0.00    -0.000 C 
BRANCH  11  12
ATOM     12  C   UNL     1      11.817  24.365  -9.937  1.00  0.00    -0.000 C 
BRANCH  12  13
ATOM     13  C   UNL     1      10.794  23.244 -10.218  1.00  0.00    -0.000 C 
BRANCH  13  14
ATOM     14  C   UNL     1       9.434  23.412  -9.517  1.00  0.00    -0.000 C 
BRANCH  14  15
ATOM     15  C   UNL     1       8.348  22.491 -10.099  1.00  0.00    -0.000 C 
BRANCH  15  16
ATOM     16  C   UNL     1       6.932  22.926  -9.695  1.00  0.00    -0.003 C 
ATOM     17  C   UNL     1       5.970  22.974 -10.881  1.00  0.00     0.004 C 
ENDBRANCH  15  16
ENDBRANCH  14  15
ENDBRANCH  13  14
ENDBRANCH  12  13
ENDBRANCH  11  12
ENDBRANCH  10  11
ENDBRANCH   1  10
TORSDOF 13
ENDMDL
MODEL 8
REMARK VINA RESULT:    -5.074      1.354      2.255
REMARK INTER + INTRA:         -10.667
REMARK INTER:                  -9.220
REMARK INTRA:                  -1.447
REMARK UNBOUND:                -1.736
REMARK SMILES CCCCCCCCCCCCCCC(=O)[O-]
REMARK SMILES IDX 9 1 10 2 11 3 12 4 13 5 14 6 15 7 16 8 17 9 8 10 7 11 6 12
REMARK SMILES IDX 5 13 4 14 3 15 2 16 1 17
REMARK H PARENT
REMARK Flexibility Score: inf
ROOT
ATOM      1  C   UNL     1       8.583  22.346  -9.330  1.00  0.00     0.000 C 
ENDROOT
BRANCH   1   2
ATOM      2  C   UNL     1       7.292  22.632 -10.120  1.00  0.00     0.000 C 
BRANCH   2   3
ATOM      3  C   UNL     1       6.401  23.689  -9.452  1.00  0.00     0.000 C 
BRANCH   3   4
ATOM      4  C   UNL     1       7.052  24.227  -8.172  1.00  0.00     0.000 C 
BRANCH   4   5
ATOM      5  C   UNL     1       6.425  23.589  -6.924  1.00  0.00     0.006 C 
BRANCH   5   6
ATOM      6  C   UNL     1       7.328  23.716  -5.691  1.00  0.00     0.053 C 
BRANCH   6   7
ATOM      7  C   UNL     1       8.076  22.447  -5.418  1.00  0.00     0.041 C 
ATOM      8  O   UNL     1       9.183  22.230  -5.978  1.00  0.00    -0.550 OA
ATOM      9  O   UNL     1       7.567  21.519  -4.518  1.00  0.00    -0.550 OA
ENDBRANCH   6   7
ENDBRANCH   5   6
ENDBRANCH   4   5
ENDBRANCH   3   4
ENDBRANCH   2   3
ENDBRANCH   1   2
BRANCH   1  10
ATOM     10  C   UNL     1       9.870  22.929  -9.942  1.00  0.00     0.000 C 
BRANCH  10  11
ATOM     11  C   UNL     1      10.476  24.061  -9.094  1.00  0.00    -0.000 C 
BRANCH  11  12
ATOM     12  C   UNL     1      11.913  24.421  -9.517  1.00  0.00    -0.000 C 
BRANCH  12  13
ATOM     13  C   UNL     1      13.026  23.914  -8.577  1.00  0.00    -0.000 C 
BRANCH  13  14
ATOM     14  C   UNL     1      12.531  23.205  -7.304  1.00  0.00    -0.000 C 
BRANCH  14  15
ATOM     15  C   UNL     1      12.969  21.733  -7.235  1.00  0.00    -0.000 C 
BRANCH  15  16
ATOM     16  C   UNL     1      12.396  20.894  -8.387  1.00  0.00    -0.003 C 
ATOM     17  C   UNL     1      11.221  20.020  -7.952  1.00  0.00     0.004 C 
ENDBRANCH  15  16
ENDBRANCH  14  15
ENDBRANCH  13  14
ENDBRANCH  12  13
ENDBRANCH  11  12
ENDBRANCH  10  11
ENDBRANCH   1  10
TORSDOF 13
ENDMDL
MODEL 9
REMARK VINA RESULT:    -5.057      2.886      6.968
REMARK INTER + INTRA:         -10.638
REMARK INTER:                  -8.889
REMARK INTRA:                  -1.748
REMARK UNBOUND:                -1.736
REMARK SMILES CCCCCCCCCCCCCCC(=O)[O-]
REMARK SMILES IDX 9 1 10 2 11 3 12 4 13 5 14 6 15 7 16 8 17 9 8 10 7 11 6 12
REMARK SMILES IDX 5 13 4 14 3 15 2 16 1 17
REMARK H PARENT
REMARK Flexibility Score: inf
ROOT
ATOM      1  C   UNL     1       5.818  22.866  -5.961  1.00  0.00     0.000 C 
ENDROOT
BRANCH   1   2
ATOM      2  C   UNL     1       7.138  23.532  -6.393  1.00  0.00     0.000 C 
BRANCH   2   3
ATOM      3  C   UNL     1       6.953  24.555  -7.523  1.00  0.00     0.000 C 
BRANCH   3   4
ATOM      4  C   UNL     1       7.986  24.339  -8.634  1.00  0.00     0.000 C 
BRANCH   4   5
ATOM      5  C   UNL     1       8.371  22.857  -8.749  1.00  0.00     0.006 C 
BRANCH   5   6
ATOM      6  C   UNL     1       9.868  22.665  -9.023  1.00  0.00     0.053 C 
BRANCH   6   7
ATOM      7  C   UNL     1      10.524  21.833  -7.964  1.00  0.00     0.041 C 
ATOM      8  O   UNL     1      10.236  20.613  -7.846  1.00  0.00    -0.550 OA
ATOM      9  O   UNL     1      11.480  22.398  -7.129  1.00  0.00    -0.550 OA
ENDBRANCH   6   7
ENDBRANCH   5   6
ENDBRANCH   4   5
ENDBRANCH   3   4
ENDBRANCH   2   3
ENDBRANCH   1   2
BRANCH   1  10
ATOM     10  C   UNL     1       4.551  23.421  -6.637  1.00  0.00     0.000 C 
BRANCH  10  11
ATOM     11  C   UNL     1       3.898  22.415  -7.600  1.00  0.00    -0.000 C 
BRANCH  11  12
ATOM     12  C   UNL     1       3.902  22.898  -9.063  1.00  0.00    -0.000 C 
BRANCH  12  13
ATOM     13  C   UNL     1       5.019  22.309  -9.950  1.00  0.00    -0.000 C 
BRANCH  13  14
ATOM     14  C   UNL     1       5.485  23.217 -11.101  1.00  0.00    -0.000 C 
BRANCH  14  15
ATOM     15  C   UNL     1       5.013  24.672 -10.939  1.00  0.00    -0.000 C 
BRANCH  15  16
ATOM     16  C   UNL     1       4.326  25.212 -12.202  1.00  0.00    -0.003 C 
ATOM     17  C   UNL     1       4.250  26.738 -12.224  1.00  0.00     0.004 C 
ENDBRANCH  15  16
ENDBRANCH  14  15
ENDBRANCH  13  14
ENDBRANCH  12  13
ENDBRANCH  11  12
ENDBRANCH  10  11
ENDBRANCH   1  10
TORSDOF 13
ENDMDL
