MODEL 1
REMARK VINA RESULT:    -4.201      0.000      0.000
REMARK INTER + INTRA:          -4.570
REMARK INTER:                  -4.570
REMARK INTRA:                   0.000
REMARK UNBOUND:                 0.000
REMARK SMILES Oc1cccc(O)c1O
REMARK SMILES IDX 4 1 5 2 6 3 8 4 2 5 3 6 7 7 1 9 9 11
REMARK H PARENT 7 8 1 10 9 12
REMARK Flexibility Score: inf
ROOT
ATOM      1  C   UNL     1       0.658 -15.108  -5.661  1.00  0.00     0.008 A 
ATOM      2  C   UNL     1       0.561 -15.630  -6.953  1.00  0.00     0.050 A 
ATOM      3  C   UNL     1      -0.571 -15.365  -7.738  1.00  0.00     0.161 A 
ATOM      4  C   UNL     1      -1.610 -14.571  -7.219  1.00  0.00     0.200 A 
ATOM      5  C   UNL     1      -1.508 -14.049  -5.922  1.00  0.00     0.161 A 
ATOM      6  C   UNL     1      -0.372 -14.320  -5.145  1.00  0.00     0.050 A 
ENDROOT
BRANCH   3   7
ATOM      7  O   UNL     1      -0.667 -15.886  -9.028  1.00  0.00    -0.504 OA
ATOM      8  H   UNL     1      -1.439 -16.482  -9.303  1.00  0.00     0.293 HD
ENDBRANCH   3   7
BRANCH   5   9
ATOM      9  O   UNL     1      -2.540 -13.263  -5.411  1.00  0.00    -0.504 OA
ATOM     10  H   UNL     1      -2.392 -12.293  -5.160  1.00  0.00     0.293 HD
ENDBRANCH   5   9
BRANCH   4  11
ATOM     11  O   UNL     1      -2.746 -14.292  -7.979  1.00  0.00    -0.502 OA
ATOM     12  H   UNL     1      -3.288 -15.022  -8.426  1.00  0.00     0.293 HD
ENDBRANCH   4  11
TORSDOF 3
ENDMDL
MODEL 2
REMARK VINA RESULT:    -4.188      0.037      2.798
REMARK INTER + INTRA:          -4.556
REMARK INTER:                  -4.556
REMARK INTRA:                   0.000
REMARK UNBOUND:                 0.000
REMARK SMILES Oc1cccc(O)c1O
REMARK SMILES IDX 4 1 5 2 6 3 8 4 2 5 3 6 7 7 1 9 9 11
REMARK H PARENT 7 8 1 10 9 12
REMARK Flexibility Score: inf
ROOT
ATOM      1  C   UNL     1       0.671 -15.085  -5.657  1.00  0.00     0.008 A 
ATOM      2  C   UNL     1      -0.351 -14.290  -5.132  1.00  0.00     0.050 A 
ATOM      3  C   UNL     1      -1.495 -14.018  -5.896  1.00  0.00     0.161 A 
ATOM      4  C   UNL     1      -1.611 -14.547  -7.194  1.00  0.00     0.200 A 
ATOM      5  C   UNL     1      -0.583 -15.344  -7.717  1.00  0.00     0.161 A 
ATOM      6  C   UNL     1       0.557 -15.611  -6.945  1.00  0.00     0.050 A 
ENDROOT
BRANCH   3   7
ATOM      7  O   UNL     1      -2.515 -13.225  -5.371  1.00  0.00    -0.504 OA
ATOM      8  H   UNL     1      -3.115 -12.667  -5.969  1.00  0.00     0.293 HD
ENDBRANCH   3   7
BRANCH   5   9
ATOM      9  O   UNL     1      -0.700 -15.867  -9.004  1.00  0.00    -0.504 OA
ATOM     10  H   UNL     1      -0.333 -15.375  -9.810  1.00  0.00     0.293 HD
ENDBRANCH   5   9
BRANCH   4  11
ATOM     11  O   UNL     1      -2.739 -14.291  -7.975  1.00  0.00    -0.502 OA
ATOM     12  H   UNL     1      -2.701 -14.275  -8.987  1.00  0.00     0.293 HD
ENDBRANCH   4  11
TORSDOF 3
ENDMDL
MODEL 3
REMARK VINA RESULT:    -4.150      1.006      2.857
REMARK INTER + INTRA:          -4.514
REMARK INTER:                  -4.514
REMARK INTRA:                   0.000
REMARK UNBOUND:                 0.000
REMARK SMILES Oc1cccc(O)c1O
REMARK SMILES IDX 4 1 5 2 6 3 8 4 2 5 3 6 7 7 1 9 9 11
REMARK H PARENT 7 8 1 10 9 12
REMARK Flexibility Score: inf
ROOT
ATOM      1  C   UNL     1       0.126 -14.367  -5.544  1.00  0.00     0.008 A 
ATOM      2  C   UNL     1      -1.055 -13.931  -6.149  1.00  0.00     0.050 A 
ATOM      3  C   UNL     1      -1.537 -14.571  -7.300  1.00  0.00     0.161 A 
ATOM      4  C   UNL     1      -0.827 -15.657  -7.844  1.00  0.00     0.200 A 
ATOM      5  C   UNL     1       0.358 -16.093  -7.233  1.00  0.00     0.161 A 
ATOM      6  C   UNL     1       0.831 -15.445  -6.083  1.00  0.00     0.050 A 
ENDROOT
BRANCH   3   7
ATOM      7  O   UNL     1      -2.715 -14.134  -7.904  1.00  0.00    -0.504 OA
ATOM      8  H   UNL     1      -3.544 -13.924  -7.359  1.00  0.00     0.293 HD
ENDBRANCH   3   7
BRANCH   5   9
ATOM      9  O   UNL     1       1.059 -17.169  -7.775  1.00  0.00    -0.504 OA
ATOM     10  H   UNL     1       2.066 -17.244  -7.685  1.00  0.00     0.293 HD
ENDBRANCH   5   9
BRANCH   4  11
ATOM     11  O   UNL     1      -1.284 -16.312  -8.988  1.00  0.00    -0.502 OA
ATOM     12  H   UNL     1      -1.840 -17.157  -8.939  1.00  0.00     0.293 HD
ENDBRANCH   4  11
TORSDOF 3
ENDMDL
MODEL 4
REMARK VINA RESULT:    -4.140      1.028      1.819
REMARK INTER + INTRA:          -4.503
REMARK INTER:                  -4.503
REMARK INTRA:                   0.000
REMARK UNBOUND:                 0.000
REMARK SMILES Oc1cccc(O)c1O
REMARK SMILES IDX 4 1 5 2 6 3 8 4 2 5 3 6 7 7 1 9 9 11
REMARK H PARENT 7 8 1 10 9 12
REMARK Flexibility Score: inf
ROOT
ATOM      1  C   UNL     1       0.166 -14.407  -5.575  1.00  0.00     0.008 A 
ATOM      2  C   UNL     1       0.856 -15.493  -6.119  1.00  0.00     0.050 A 
ATOM      3  C   UNL     1       0.363 -16.142  -7.260  1.00  0.00     0.161 A 
ATOM      4  C   UNL     1      -0.830 -15.696  -7.857  1.00  0.00     0.200 A 
ATOM      5  C   UNL     1      -1.519 -14.605  -7.308  1.00  0.00     0.161 A 
ATOM      6  C   UNL     1      -1.018 -13.963  -6.167  1.00  0.00     0.050 A 
ENDROOT
BRANCH   3   7
ATOM      7  O   UNL     1       1.053 -17.226  -7.802  1.00  0.00    -0.504 OA
ATOM      8  H   UNL     1       1.678 -17.792  -7.239  1.00  0.00     0.293 HD
ENDBRANCH   3   7
BRANCH   5   9
ATOM      9  O   UNL     1      -2.702 -14.166  -7.902  1.00  0.00    -0.504 OA
ATOM     10  H   UNL     1      -2.983 -14.485  -8.822  1.00  0.00     0.293 HD
ENDBRANCH   5   9
BRANCH   4  11
ATOM     11  O   UNL     1      -1.341 -16.324  -8.993  1.00  0.00    -0.502 OA
ATOM     12  H   UNL     1      -2.336 -16.385  -9.172  1.00  0.00     0.293 HD
ENDBRANCH   4  11
TORSDOF 3
ENDMDL
MODEL 5
REMARK VINA RESULT:    -4.103      0.988      2.766
REMARK INTER + INTRA:          -4.463
REMARK INTER:                  -4.463
REMARK INTRA:                   0.000
REMARK UNBOUND:                 0.000
REMARK SMILES Oc1cccc(O)c1O
REMARK SMILES IDX 4 1 5 2 6 3 8 4 2 5 3 6 7 7 1 9 9 11
REMARK H PARENT 7 8 1 10 9 12
REMARK Flexibility Score: inf
ROOT
ATOM      1  C   UNL     1       0.505 -15.668  -7.175  1.00  0.00     0.008 A 
ATOM      2  C   UNL     1       0.709 -15.178  -5.883  1.00  0.00     0.050 A 
ATOM      3  C   UNL     1      -0.260 -14.366  -5.275  1.00  0.00     0.161 A 
ATOM      4  C   UNL     1      -1.440 -14.047  -5.971  1.00  0.00     0.200 A 
ATOM      5  C   UNL     1      -1.641 -14.542  -7.268  1.00  0.00     0.161 A 
ATOM      6  C   UNL     1      -0.666 -15.352  -7.866  1.00  0.00     0.050 A 
ENDROOT
BRANCH   3   7
ATOM      7  O   UNL     1      -0.055 -13.878  -3.985  1.00  0.00    -0.504 OA
ATOM      8  H   UNL     1       0.075 -12.888  -3.807  1.00  0.00     0.293 HD
ENDBRANCH   3   7
BRANCH   5   9
ATOM      9  O   UNL     1      -2.811 -14.222  -7.955  1.00  0.00    -0.504 OA
ATOM     10  H   UNL     1      -2.839 -13.467  -8.629  1.00  0.00     0.293 HD
ENDBRANCH   5   9
BRANCH   4  11
ATOM     11  O   UNL     1      -2.419 -13.242  -5.389  1.00  0.00    -0.502 OA
ATOM     12  H   UNL     1      -2.907 -13.513  -4.544  1.00  0.00     0.293 HD
ENDBRANCH   4  11
TORSDOF 3
ENDMDL
MODEL 6
REMARK VINA RESULT:    -3.877      2.148      4.043
REMARK INTER + INTRA:          -4.217
REMARK INTER:                  -4.217
REMARK INTRA:                   0.000
REMARK UNBOUND:                 0.000
REMARK SMILES Oc1cccc(O)c1O
REMARK SMILES IDX 4 1 5 2 6 3 8 4 2 5 3 6 7 7 1 9 9 11
REMARK H PARENT 7 8 1 10 9 12
REMARK Flexibility Score: inf
ROOT
ATOM      1  C   UNL     1      -2.435 -17.764  -8.856  1.00  0.00     0.008 A 
ATOM      2  C   UNL     1      -2.940 -16.508  -8.513  1.00  0.00     0.050 A 
ATOM      3  C   UNL     1      -2.069 -15.478  -8.129  1.00  0.00     0.161 A 
ATOM      4  C   UNL     1      -0.683 -15.713  -8.091  1.00  0.00     0.200 A 
ATOM      5  C   UNL     1      -0.180 -16.976  -8.437  1.00  0.00     0.161 A 
ATOM      6  C   UNL     1      -1.059 -17.999  -8.819  1.00  0.00     0.050 A 
ENDROOT
BRANCH   3   7
ATOM      7  O   UNL     1      -2.575 -14.225  -7.786  1.00  0.00    -0.504 OA
ATOM      8  H   UNL     1      -2.300 -13.387  -8.287  1.00  0.00     0.293 HD
ENDBRANCH   3   7
BRANCH   5   9
ATOM      9  O   UNL     1       1.195 -17.206  -8.397  1.00  0.00    -0.504 OA
ATOM     10  H   UNL     1       1.790 -16.996  -9.189  1.00  0.00     0.293 HD
ENDBRANCH   5   9
BRANCH   4  11
ATOM     11  O   UNL     1       0.205 -14.706  -7.713  1.00  0.00    -0.502 OA
ATOM     12  H   UNL     1       0.028 -14.102  -6.919  1.00  0.00     0.293 HD
ENDBRANCH   4  11
TORSDOF 3
ENDMDL
MODEL 7
REMARK VINA RESULT:    -3.863      1.697      2.238
REMARK INTER + INTRA:          -4.202
REMARK INTER:                  -4.202
REMARK INTRA:                   0.000
REMARK UNBOUND:                 0.000
REMARK SMILES Oc1cccc(O)c1O
REMARK SMILES IDX 4 1 5 2 6 3 8 4 2 5 3 6 7 7 1 9 9 11
REMARK H PARENT 7 8 1 10 9 12
REMARK Flexibility Score: inf
ROOT
ATOM      1  C   UNL     1       0.118 -17.223  -7.808  1.00  0.00     0.008 A 
ATOM      2  C   UNL     1      -1.068 -17.343  -8.535  1.00  0.00     0.050 A 
ATOM      3  C   UNL     1      -2.010 -16.304  -8.525  1.00  0.00     0.161 A 
ATOM      4  C   UNL     1      -1.756 -15.138  -7.780  1.00  0.00     0.200 A 
ATOM      5  C   UNL     1      -0.563 -15.022  -7.052  1.00  0.00     0.161 A 
ATOM      6  C   UNL     1       0.372 -16.066  -7.069  1.00  0.00     0.050 A 
ENDROOT
BRANCH   3   7
ATOM      7  O   UNL     1      -3.195 -16.425  -9.251  1.00  0.00    -0.504 OA
ATOM      8  H   UNL     1      -3.384 -15.841 -10.059  1.00  0.00     0.293 HD
ENDBRANCH   3   7
BRANCH   5   9
ATOM      9  O   UNL     1      -0.315 -13.865  -6.314  1.00  0.00    -0.504 OA
ATOM     10  H   UNL     1      -0.405 -13.852  -5.305  1.00  0.00     0.293 HD
ENDBRANCH   5   9
BRANCH   4  11
ATOM     11  O   UNL     1      -2.676 -14.090  -7.753  1.00  0.00    -0.502 OA
ATOM     12  H   UNL     1      -3.469 -14.053  -8.382  1.00  0.00     0.293 HD
ENDBRANCH   4  11
TORSDOF 3
ENDMDL
MODEL 8
REMARK VINA RESULT:    -3.834      1.677      3.039
REMARK INTER + INTRA:          -4.170
REMARK INTER:                  -4.170
REMARK INTRA:                   0.000
REMARK UNBOUND:                 0.000
REMARK SMILES Oc1cccc(O)c1O
REMARK SMILES IDX 4 1 5 2 6 3 8 4 2 5 3 6 7 7 1 9 9 11
REMARK H PARENT 7 8 1 10 9 12
REMARK Flexibility Score: inf
ROOT
ATOM      1  C   UNL     1       0.267 -17.241  -7.774  1.00  0.00     0.008 A 
ATOM      2  C   UNL     1       0.432 -16.091  -7.000  1.00  0.00     0.050 A 
ATOM      3  C   UNL     1      -0.557 -15.096  -6.995  1.00  0.00     0.161 A 
ATOM      4  C   UNL     1      -1.716 -15.260  -7.774  1.00  0.00     0.200 A 
ATOM      5  C   UNL     1      -1.878 -16.417  -8.550  1.00  0.00     0.161 A 
ATOM      6  C   UNL     1      -0.884 -17.406  -8.548  1.00  0.00     0.050 A 
ENDROOT
BRANCH   3   7
ATOM      7  O   UNL     1      -0.391 -13.947  -6.222  1.00  0.00    -0.504 OA
ATOM      8  H   UNL     1      -1.157 -13.302  -6.059  1.00  0.00     0.293 HD
ENDBRANCH   3   7
BRANCH   5   9
ATOM      9  O   UNL     1      -3.028 -16.576  -9.322  1.00  0.00    -0.504 OA
ATOM     10  H   UNL     1      -3.753 -17.233  -9.062  1.00  0.00     0.293 HD
ENDBRANCH   5   9
BRANCH   4  11
ATOM     11  O   UNL     1      -2.715 -14.286  -7.788  1.00  0.00    -0.502 OA
ATOM     12  H   UNL     1      -3.133 -13.955  -8.649  1.00  0.00     0.293 HD
ENDBRANCH   4  11
TORSDOF 3
ENDMDL
MODEL 9
REMARK VINA RESULT:    -3.720      2.662      3.413
REMARK INTER + INTRA:          -4.047
REMARK INTER:                  -4.047
REMARK INTRA:                   0.000
REMARK UNBOUND:                 0.000
REMARK SMILES Oc1cccc(O)c1O
REMARK SMILES IDX 4 1 5 2 6 3 8 4 2 5 3 6 7 7 1 9 9 11
REMARK H PARENT 7 8 1 10 9 12
REMARK Flexibility Score: inf
ROOT
ATOM      1  C   UNL     1      -1.299 -18.126  -6.435  1.00  0.00     0.008 A 
ATOM      2  C   UNL     1       0.019 -18.420  -6.791  1.00  0.00     0.050 A 
ATOM      3  C   UNL     1       0.657 -17.687  -7.803  1.00  0.00     0.161 A 
ATOM      4  C   UNL     1      -0.036 -16.654  -8.459  1.00  0.00     0.200 A 
ATOM      5  C   UNL     1      -1.359 -16.362  -8.099  1.00  0.00     0.161 A 
ATOM      6  C   UNL     1      -1.988 -17.101  -7.086  1.00  0.00     0.050 A 
ENDROOT
BRANCH   3   7
ATOM      7  O   UNL     1       1.973 -17.981  -8.157  1.00  0.00    -0.504 OA
ATOM      8  H   UNL     1       2.455 -17.465  -8.884  1.00  0.00     0.293 HD
ENDBRANCH   3   7
BRANCH   5   9
ATOM      9  O   UNL     1      -2.043 -15.338  -8.752  1.00  0.00    -0.504 OA
ATOM     10  H   UNL     1      -2.769 -14.805  -8.287  1.00  0.00     0.293 HD
ENDBRANCH   5   9
BRANCH   4  11
ATOM     11  O   UNL     1       0.576 -15.910  -9.469  1.00  0.00    -0.502 OA
ATOM     12  H   UNL     1       0.179 -15.833 -10.397  1.00  0.00     0.293 HD
ENDBRANCH   4  11
TORSDOF 3
ENDMDL
