MODEL 1
REMARK VINA RESULT:    -3.229      0.000      0.000
REMARK INTER + INTRA:          -3.229
REMARK INTER:                  -3.229
REMARK INTRA:                   0.000
REMARK UNBOUND:                 0.000
REMARK SMILES CC(=O)[O-]
REMARK SMILES IDX 1 1 2 2 3 3 4 4
REMARK H PARENT
REMARK Flexibility Score: inf
ROOT
ATOM      1  C   UNL     1      -3.785   8.648  -0.350  1.00  0.00     0.063 C 
ATOM      2  C   UNL     1      -4.545   9.011  -1.581  1.00  0.00     0.038 C 
ATOM      3  O   UNL     1      -4.016   8.872  -2.714  1.00  0.00    -0.550 OA
ATOM      4  O   UNL     1      -5.858   9.453  -1.483  1.00  0.00    -0.550 OA
ENDROOT
TORSDOF 0
ENDMDL
MODEL 2
REMARK VINA RESULT:    -3.198      0.505      1.625
REMARK INTER + INTRA:          -3.198
REMARK INTER:                  -3.198
REMARK INTRA:                   0.000
REMARK UNBOUND:                 0.000
REMARK SMILES CC(=O)[O-]
REMARK SMILES IDX 1 1 2 2 3 3 4 4
REMARK H PARENT
REMARK Flexibility Score: inf
ROOT
ATOM      1  C   UNL     1      -3.577   8.487  -0.238  1.00  0.00     0.063 C 
ATOM      2  C   UNL     1      -4.360   9.117  -1.339  1.00  0.00     0.038 C 
ATOM      3  O   UNL     1      -5.241   9.977  -1.075  1.00  0.00    -0.550 OA
ATOM      4  O   UNL     1      -4.083   8.797  -2.662  1.00  0.00    -0.550 OA
ENDROOT
TORSDOF 0
ENDMDL
MODEL 3
REMARK VINA RESULT:    -2.942      2.184      2.419
REMARK INTER + INTRA:          -2.942
REMARK INTER:                  -2.942
REMARK INTRA:                   0.000
REMARK UNBOUND:                 0.000
REMARK SMILES CC(=O)[O-]
REMARK SMILES IDX 1 1 2 2 3 3 4 4
REMARK H PARENT
REMARK Flexibility Score: inf
ROOT
ATOM      1  C   UNL     1      -4.443   8.950  -1.391  1.00  0.00     0.063 C 
ATOM      2  C   UNL     1      -3.426   8.736  -0.321  1.00  0.00     0.038 C 
ATOM      3  O   UNL     1      -2.390   8.062  -0.561  1.00  0.00    -0.550 OA
ATOM      4  O   UNL     1      -3.592   9.324   0.925  1.00  0.00    -0.550 OA
ENDROOT
TORSDOF 0
ENDMDL
MODEL 4
REMARK VINA RESULT:    -2.744      1.773      1.979
REMARK INTER + INTRA:          -2.744
REMARK INTER:                  -2.744
REMARK INTRA:                   0.000
REMARK UNBOUND:                 0.000
REMARK SMILES CC(=O)[O-]
REMARK SMILES IDX 1 1 2 2 3 3 4 4
REMARK H PARENT
REMARK Flexibility Score: inf
ROOT
ATOM      1  C   UNL     1      -3.509   9.471   0.909  1.00  0.00     0.063 C 
ATOM      2  C   UNL     1      -3.383   8.726  -0.377  1.00  0.00     0.038 C 
ATOM      3  O   UNL     1      -2.349   8.051  -0.618  1.00  0.00    -0.550 OA
ATOM      4  O   UNL     1      -4.430   8.733  -1.290  1.00  0.00    -0.550 OA
ENDROOT
TORSDOF 0
ENDMDL
MODEL 5
REMARK VINA RESULT:    -2.568      9.996     10.485
REMARK INTER + INTRA:          -2.568
REMARK INTER:                  -2.568
REMARK INTRA:                   0.000
REMARK UNBOUND:                 0.000
REMARK SMILES CC(=O)[O-]
REMARK SMILES IDX 1 1 2 2 3 3 4 4
REMARK H PARENT
REMARK Flexibility Score: inf
ROOT
ATOM      1  C   UNL     1      -4.224   4.211   8.180  1.00  0.00     0.063 C 
ATOM      2  C   UNL     1      -3.201   5.285   8.024  1.00  0.00     0.038 C 
ATOM      3  O   UNL     1      -2.438   5.574   8.983  1.00  0.00    -0.550 OA
ATOM      4  O   UNL     1      -3.052   5.932   6.805  1.00  0.00    -0.550 OA
ENDROOT
TORSDOF 0
ENDMDL
MODEL 6
REMARK VINA RESULT:    -2.553     10.460     10.898
REMARK INTER + INTRA:          -2.553
REMARK INTER:                  -2.553
REMARK INTRA:                   0.000
REMARK UNBOUND:                 0.000
REMARK SMILES CC(=O)[O-]
REMARK SMILES IDX 1 1 2 2 3 3 4 4
REMARK H PARENT
REMARK Flexibility Score: inf
ROOT
ATOM      1  C   UNL     1      -3.391   5.449   7.234  1.00  0.00     0.063 C 
ATOM      2  C   UNL     1      -4.134   4.703   8.290  1.00  0.00     0.038 C 
ATOM      3  O   UNL     1      -5.013   5.286   8.976  1.00  0.00    -0.550 OA
ATOM      4  O   UNL     1      -3.895   3.348   8.484  1.00  0.00    -0.550 OA
ENDROOT
TORSDOF 0
ENDMDL
MODEL 7
REMARK VINA RESULT:    -2.548      9.989     10.445
REMARK INTER + INTRA:          -2.548
REMARK INTER:                  -2.548
REMARK INTRA:                   0.000
REMARK UNBOUND:                 0.000
REMARK SMILES CC(=O)[O-]
REMARK SMILES IDX 1 1 2 2 3 3 4 4
REMARK H PARENT
REMARK Flexibility Score: inf
ROOT
ATOM      1  C   UNL     1      -4.138   4.241   8.103  1.00  0.00     0.063 C 
ATOM      2  C   UNL     1      -3.117   5.317   7.954  1.00  0.00     0.038 C 
ATOM      3  O   UNL     1      -2.997   5.928   6.860  1.00  0.00    -0.550 OA
ATOM      4  O   UNL     1      -2.331   5.685   9.039  1.00  0.00    -0.550 OA
ENDROOT
TORSDOF 0
ENDMDL
MODEL 8
REMARK VINA RESULT:    -2.464     10.130     10.535
REMARK INTER + INTRA:          -2.464
REMARK INTER:                  -2.464
REMARK INTRA:                   0.000
REMARK UNBOUND:                 0.000
REMARK SMILES CC(=O)[O-]
REMARK SMILES IDX 1 1 2 2 3 3 4 4
REMARK H PARENT
REMARK Flexibility Score: inf
ROOT
ATOM      1  C   UNL     1      -3.376   5.637   6.728  1.00  0.00     0.063 C 
ATOM      2  C   UNL     1      -3.547   5.298   8.170  1.00  0.00     0.038 C 
ATOM      3  O   UNL     1      -2.561   5.340   8.951  1.00  0.00    -0.550 OA
ATOM      4  O   UNL     1      -4.806   4.986   8.667  1.00  0.00    -0.550 OA
ENDROOT
TORSDOF 0
ENDMDL
MODEL 9
REMARK VINA RESULT:    -2.395     10.519     11.015
REMARK INTER + INTRA:          -2.395
REMARK INTER:                  -2.395
REMARK INTRA:                   0.000
REMARK UNBOUND:                 0.000
REMARK SMILES CC(=O)[O-]
REMARK SMILES IDX 1 1 2 2 3 3 4 4
REMARK H PARENT
REMARK Flexibility Score: inf
ROOT
ATOM      1  C   UNL     1      -4.608   5.679   9.816  1.00  0.00     0.063 C 
ATOM      2  C   UNL     1      -4.202   4.991   8.556  1.00  0.00     0.038 C 
ATOM      3  O   UNL     1      -4.162   5.629   7.472  1.00  0.00    -0.550 OA
ATOM      4  O   UNL     1      -3.815   3.657   8.586  1.00  0.00    -0.550 OA
ENDROOT
TORSDOF 0
ENDMDL
