MODEL 1
REMARK VINA RESULT:    -3.468      0.000      0.000
REMARK INTER + INTRA:          -4.603
REMARK INTER:                  -4.279
REMARK INTRA:                  -0.323
REMARK UNBOUND:                -0.323
REMARK SMILES C=CC[C@H](C)C(=O)CC
REMARK SMILES IDX 4 1 5 2 6 3 7 4 8 5 9 6 3 7 2 8 1 9
REMARK H PARENT
REMARK Flexibility Score: inf
ROOT
ATOM      1  C   UNL     1      20.949  26.861  29.243  1.00  0.00     0.057 C 
ATOM      2  C   UNL     1      19.634  27.397  28.668  1.00  0.00     0.016 C 
ENDROOT
BRANCH   1   3
ATOM      3  C   UNL     1      22.111  27.695  28.743  1.00  0.00     0.135 C 
ATOM      4  O   UNL     1      22.011  28.914  28.703  1.00  0.00    -0.299 OA
BRANCH   3   5
ATOM      5  C   UNL     1      23.389  27.049  28.277  1.00  0.00     0.072 C 
ATOM      6  C   UNL     1      24.165  27.984  27.356  1.00  0.00     0.012 C 
ENDBRANCH   3   5
ENDBRANCH   1   3
BRANCH   1   7
ATOM      7  C   UNL     1      21.135  25.374  28.878  1.00  0.00     0.038 C 
BRANCH   7   8
ATOM      8  C   UNL     1      20.277  24.965  27.709  1.00  0.00    -0.034 C 
ATOM      9  C   UNL     1      20.771  24.264  26.684  1.00  0.00     0.004 C 
ENDBRANCH   7   8
ENDBRANCH   1   7
TORSDOF 4
ENDMDL
MODEL 2
REMARK VINA RESULT:    -3.420      6.372      7.849
REMARK INTER + INTRA:          -4.542
REMARK INTER:                  -4.269
REMARK INTRA:                  -0.273
REMARK UNBOUND:                -0.323
REMARK SMILES C=CC[C@H](C)C(=O)CC
REMARK SMILES IDX 4 1 5 2 6 3 7 4 8 5 9 6 3 7 2 8 1 9
REMARK H PARENT
REMARK Flexibility Score: inf
ROOT
ATOM      1  C   UNL     1      17.875  32.824  29.058  1.00  0.00     0.057 C 
ATOM      2  C   UNL     1      18.393  31.395  29.250  1.00  0.00     0.016 C 
ENDROOT
BRANCH   1   3
ATOM      3  C   UNL     1      18.400  33.718  30.162  1.00  0.00     0.135 C 
ATOM      4  O   UNL     1      18.176  33.435  31.331  1.00  0.00    -0.299 OA
BRANCH   3   5
ATOM      5  C   UNL     1      19.183  34.965  29.847  1.00  0.00     0.072 C 
ATOM      6  C   UNL     1      20.673  34.658  29.747  1.00  0.00     0.012 C 
ENDBRANCH   3   5
ENDBRANCH   1   3
BRANCH   1   7
ATOM      7  C   UNL     1      16.333  32.841  29.013  1.00  0.00     0.038 C 
BRANCH   7   8
ATOM      8  C   UNL     1      15.734  31.610  29.643  1.00  0.00    -0.034 C 
ATOM      9  C   UNL     1      15.003  31.676  30.760  1.00  0.00     0.004 C 
ENDBRANCH   7   8
ENDBRANCH   1   7
TORSDOF 4
ENDMDL
MODEL 3
REMARK VINA RESULT:    -3.341      1.622      3.156
REMARK INTER + INTRA:          -4.445
REMARK INTER:                  -3.965
REMARK INTRA:                  -0.480
REMARK UNBOUND:                -0.323
REMARK SMILES C=CC[C@H](C)C(=O)CC
REMARK SMILES IDX 4 1 5 2 6 3 7 4 8 5 9 6 3 7 2 8 1 9
REMARK H PARENT
REMARK Flexibility Score: inf
ROOT
ATOM      1  C   UNL     1      21.110  27.814  29.566  1.00  0.00     0.057 C 
ATOM      2  C   UNL     1      21.724  29.063  28.924  1.00  0.00     0.016 C 
ENDROOT
BRANCH   1   3
ATOM      3  C   UNL     1      21.625  26.569  28.874  1.00  0.00     0.135 C 
ATOM      4  O   UNL     1      22.640  26.628  28.193  1.00  0.00    -0.299 OA
BRANCH   3   5
ATOM      5  C   UNL     1      20.899  25.255  28.995  1.00  0.00     0.072 C 
ATOM      6  C   UNL     1      20.643  24.648  27.621  1.00  0.00     0.012 C 
ENDBRANCH   3   5
ENDBRANCH   1   3
BRANCH   1   7
ATOM      7  C   UNL     1      19.570  27.881  29.518  1.00  0.00     0.038 C 
BRANCH   7   8
ATOM      8  C   UNL     1      19.064  28.355  28.181  1.00  0.00    -0.034 C 
ATOM      9  C   UNL     1      18.244  27.611  27.433  1.00  0.00     0.004 C 
ENDBRANCH   7   8
ENDBRANCH   1   7
TORSDOF 4
ENDMDL
MODEL 4
REMARK VINA RESULT:    -3.320      2.276      3.656
REMARK INTER + INTRA:          -4.420
REMARK INTER:                  -4.139
REMARK INTRA:                  -0.281
REMARK UNBOUND:                -0.323
REMARK SMILES C=CC[C@H](C)C(=O)CC
REMARK SMILES IDX 4 1 5 2 6 3 7 4 8 5 9 6 3 7 2 8 1 9
REMARK H PARENT
REMARK Flexibility Score: inf
ROOT
ATOM      1  C   UNL     1      19.783  25.943  28.479  1.00  0.00     0.057 C 
ATOM      2  C   UNL     1      20.570  27.190  28.894  1.00  0.00     0.016 C 
ENDROOT
BRANCH   1   3
ATOM      3  C   UNL     1      20.689  24.980  27.741  1.00  0.00     0.135 C 
ATOM      4  O   UNL     1      21.890  24.973  27.978  1.00  0.00    -0.299 OA
BRANCH   3   5
ATOM      5  C   UNL     1      20.141  24.034  26.705  1.00  0.00     0.072 C 
ATOM      6  C   UNL     1      21.072  23.951  25.501  1.00  0.00     0.012 C 
ENDBRANCH   3   5
ENDBRANCH   1   3
BRANCH   1   7
ATOM      7  C   UNL     1      18.565  26.333  27.616  1.00  0.00     0.038 C 
BRANCH   7   8
ATOM      8  C   UNL     1      17.273  25.813  28.189  1.00  0.00    -0.034 C 
ATOM      9  C   UNL     1      16.480  24.985  27.502  1.00  0.00     0.004 C 
ENDBRANCH   7   8
ENDBRANCH   1   7
TORSDOF 4
ENDMDL
MODEL 5
REMARK VINA RESULT:    -3.289     11.631     13.044
REMARK INTER + INTRA:          -4.381
REMARK INTER:                  -3.907
REMARK INTRA:                  -0.475
REMARK UNBOUND:                -0.323
REMARK SMILES C=CC[C@H](C)C(=O)CC
REMARK SMILES IDX 4 1 5 2 6 3 7 4 8 5 9 6 3 7 2 8 1 9
REMARK H PARENT
REMARK Flexibility Score: inf
ROOT
ATOM      1  C   UNL     1      33.124  30.919  27.543  1.00  0.00     0.057 C 
ATOM      2  C   UNL     1      32.855  30.137  26.253  1.00  0.00     0.016 C 
ENDROOT
BRANCH   1   3
ATOM      3  C   UNL     1      31.955  31.833  27.849  1.00  0.00     0.135 C 
ATOM      4  O   UNL     1      30.835  31.539  27.455  1.00  0.00    -0.299 OA
BRANCH   3   5
ATOM      5  C   UNL     1      32.149  33.111  28.621  1.00  0.00     0.072 C 
ATOM      6  C   UNL     1      31.679  34.312  27.808  1.00  0.00     0.012 C 
ENDBRANCH   3   5
ENDBRANCH   1   3
BRANCH   1   7
ATOM      7  C   UNL     1      34.439  31.716  27.430  1.00  0.00     0.038 C 
BRANCH   7   8
ATOM      8  C   UNL     1      34.753  32.094  26.006  1.00  0.00    -0.034 C 
ATOM      9  C   UNL     1      34.822  33.370  25.615  1.00  0.00     0.004 C 
ENDBRANCH   7   8
ENDBRANCH   1   7
TORSDOF 4
ENDMDL
MODEL 6
REMARK VINA RESULT:    -3.284      1.931      3.357
REMARK INTER + INTRA:          -4.375
REMARK INTER:                  -3.967
REMARK INTRA:                  -0.408
REMARK UNBOUND:                -0.323
REMARK SMILES C=CC[C@H](C)C(=O)CC
REMARK SMILES IDX 4 1 5 2 6 3 7 4 8 5 9 6 3 7 2 8 1 9
REMARK H PARENT
REMARK Flexibility Score: inf
ROOT
ATOM      1  C   UNL     1      20.164  25.557  27.491  1.00  0.00     0.057 C 
ATOM      2  C   UNL     1      20.430  24.144  26.963  1.00  0.00     0.016 C 
ENDROOT
BRANCH   1   3
ATOM      3  C   UNL     1      21.044  25.836  28.692  1.00  0.00     0.135 C 
ATOM      4  O   UNL     1      21.118  25.013  29.595  1.00  0.00    -0.299 OA
BRANCH   3   5
ATOM      5  C   UNL     1      21.821  27.120  28.806  1.00  0.00     0.072 C 
ATOM      6  C   UNL     1      21.148  28.078  29.782  1.00  0.00     0.012 C 
ENDBRANCH   3   5
ENDBRANCH   1   3
BRANCH   1   7
ATOM      7  C   UNL     1      18.672  25.733  27.841  1.00  0.00     0.038 C 
BRANCH   7   8
ATOM      8  C   UNL     1      18.187  27.133  27.569  1.00  0.00    -0.034 C 
ATOM      9  C   UNL     1      17.596  27.870  28.515  1.00  0.00     0.004 C 
ENDBRANCH   7   8
ENDBRANCH   1   7
TORSDOF 4
ENDMDL
MODEL 7
REMARK VINA RESULT:    -3.255      1.749      3.377
REMARK INTER + INTRA:          -4.339
REMARK INTER:                  -3.914
REMARK INTRA:                  -0.425
REMARK UNBOUND:                -0.323
REMARK SMILES C=CC[C@H](C)C(=O)CC
REMARK SMILES IDX 4 1 5 2 6 3 7 4 8 5 9 6 3 7 2 8 1 9
REMARK H PARENT
REMARK Flexibility Score: inf
ROOT
ATOM      1  C   UNL     1      20.725  26.995  28.535  1.00  0.00     0.057 C 
ATOM      2  C   UNL     1      21.744  27.873  29.269  1.00  0.00     0.016 C 
ENDROOT
BRANCH   1   3
ATOM      3  C   UNL     1      19.323  27.516  28.775  1.00  0.00     0.135 C 
ATOM      4  O   UNL     1      19.022  27.963  29.873  1.00  0.00    -0.299 OA
BRANCH   3   5
ATOM      5  C   UNL     1      18.283  27.480  27.687  1.00  0.00     0.072 C 
ATOM      6  C   UNL     1      17.305  26.332  27.909  1.00  0.00     0.012 C 
ENDBRANCH   3   5
ENDBRANCH   1   3
BRANCH   1   7
ATOM      7  C   UNL     1      20.856  25.524  28.980  1.00  0.00     0.038 C 
BRANCH   7   8
ATOM      8  C   UNL     1      21.208  24.613  27.834  1.00  0.00    -0.034 C 
ATOM      9  C   UNL     1      20.433  24.513  26.750  1.00  0.00     0.004 C 
ENDBRANCH   7   8
ENDBRANCH   1   7
TORSDOF 4
ENDMDL
MODEL 8
REMARK VINA RESULT:    -3.226      5.595      7.132
REMARK INTER + INTRA:          -4.304
REMARK INTER:                  -3.921
REMARK INTRA:                  -0.383
REMARK UNBOUND:                -0.323
REMARK SMILES C=CC[C@H](C)C(=O)CC
REMARK SMILES IDX 4 1 5 2 6 3 7 4 8 5 9 6 3 7 2 8 1 9
REMARK H PARENT
REMARK Flexibility Score: inf
ROOT
ATOM      1  C   UNL     1      18.567  33.468  29.909  1.00  0.00     0.057 C 
ATOM      2  C   UNL     1      18.933  34.955  29.965  1.00  0.00     0.016 C 
ENDROOT
BRANCH   1   3
ATOM      3  C   UNL     1      19.824  32.629  29.794  1.00  0.00     0.135 C 
ATOM      4  O   UNL     1      20.847  33.127  29.343  1.00  0.00    -0.299 OA
BRANCH   3   5
ATOM      5  C   UNL     1      19.835  31.183  30.214  1.00  0.00     0.072 C 
ATOM      6  C   UNL     1      19.748  30.266  29.000  1.00  0.00     0.012 C 
ENDBRANCH   3   5
ENDBRANCH   1   3
BRANCH   1   7
ATOM      7  C   UNL     1      17.604  33.190  28.736  1.00  0.00     0.038 C 
BRANCH   7   8
ATOM      8  C   UNL     1      16.240  32.763  29.211  1.00  0.00    -0.034 C 
ATOM      9  C   UNL     1      16.014  31.541  29.700  1.00  0.00     0.004 C 
ENDBRANCH   7   8
ENDBRANCH   1   7
TORSDOF 4
ENDMDL
MODEL 9
REMARK VINA RESULT:    -3.226      5.522      7.262
REMARK INTER + INTRA:          -4.303
REMARK INTER:                  -3.903
REMARK INTRA:                  -0.400
REMARK UNBOUND:                -0.323
REMARK SMILES C=CC[C@H](C)C(=O)CC
REMARK SMILES IDX 4 1 5 2 6 3 7 4 8 5 9 6 3 7 2 8 1 9
REMARK H PARENT
REMARK Flexibility Score: inf
ROOT
ATOM      1  C   UNL     1      17.869  32.808  29.003  1.00  0.00     0.057 C 
ATOM      2  C   UNL     1      16.349  32.951  29.121  1.00  0.00     0.016 C 
ENDROOT
BRANCH   1   3
ATOM      3  C   UNL     1      18.322  31.523  29.666  1.00  0.00     0.135 C 
ATOM      4  O   UNL     1      18.223  31.398  30.879  1.00  0.00    -0.299 OA
BRANCH   3   5
ATOM      5  C   UNL     1      18.908  30.395  28.857  1.00  0.00     0.072 C 
ATOM      6  C   UNL     1      20.409  30.278  29.099  1.00  0.00     0.012 C 
ENDBRANCH   3   5
ENDBRANCH   1   3
BRANCH   1   7
ATOM      7  C   UNL     1      18.579  34.031  29.619  1.00  0.00     0.038 C 
BRANCH   7   8
ATOM      8  C   UNL     1      20.072  33.980  29.424  1.00  0.00    -0.034 C 
ATOM      9  C   UNL     1      20.922  34.181  30.435  1.00  0.00     0.004 C 
ENDBRANCH   7   8
ENDBRANCH   1   7
TORSDOF 4
ENDMDL
