MODEL 1
REMARK VINA RESULT:    -6.896      0.000      0.000
REMARK INTER + INTRA:         -10.252
REMARK INTER:                  -9.718
REMARK INTRA:                  -0.534
REMARK UNBOUND:                -0.534
REMARK SMILES C=C(CC[C@H](C(=O)[O-])[C@@H]1[C@H](O)C[C@@]2(C)C3=C(CC[C@]12C)[C@@]1(C)CC[C@@H](O)C(C)(C)[C@H]1CC3)C(C)C
REMARK SMILES IDX 4 1 5 2 6 3 7 4 8 5 9 6 10 7 19 8 12 9 13 10 18 11 20 12
REMARK SMILES IDX 14 13 15 14 17 15 16 16 32 17 21 18 31 19 30 20 23 21 22 22
REMARK SMILES IDX 27 23 24 24 25 25 28 26 29 27 11 28 26 30 3 32 2 33 1 34
REMARK SMILES IDX 33 35 34 36 35 37
REMARK H PARENT 11 29 26 31
REMARK Flexibility Score: inf
ROOT
ATOM      1  C   UNL     1      12.158   7.172  48.568  1.00  0.00     0.014 C 
ENDROOT
BRANCH   1   2
ATOM      2  C   UNL     1      11.936   7.825  47.163  1.00  0.00     0.042 C 
BRANCH   2   3
ATOM      3  C   UNL     1      12.465   9.228  47.310  1.00  0.00     0.045 C 
ATOM      4  O   UNL     1      12.977   9.818  46.319  1.00  0.00    -0.550 OA
ATOM      5  O   UNL     1      12.468   9.849  48.557  1.00  0.00    -0.550 OA
ENDBRANCH   2   3
BRANCH   2   6
ATOM      6  C   UNL     1      10.422   7.790  46.696  1.00  0.00     0.033 C 
ATOM      7  C   UNL     1      10.183   8.154  45.186  1.00  0.00     0.119 C 
ATOM      8  C   UNL     1       9.282   8.605  47.455  1.00  0.00    -0.017 C 
ATOM      9  C   UNL     1       9.016   9.158  45.124  1.00  0.00     0.043 C 
ATOM     10  C   UNL     1       8.962   9.805  46.517  1.00  0.00    -0.003 C 
ATOM     11  C   UNL     1       9.519   9.202  48.862  1.00  0.00     0.012 C 
ATOM     12  C   UNL     1       8.067   7.612  47.587  1.00  0.00     0.013 C 
ATOM     13  C   UNL     1      10.015  10.957  46.578  1.00  0.00     0.017 C 
ATOM     14  C   UNL     1       7.638  10.441  46.931  1.00  0.00    -0.064 C 
ATOM     15  C   UNL     1       8.325  10.079  49.336  1.00  0.00     0.032 C 
ATOM     16  C   UNL     1       7.365  10.640  48.254  1.00  0.00    -0.064 C 
ATOM     17  C   UNL     1       6.700  11.002  45.901  1.00  0.00     0.032 C 
ATOM     18  C   UNL     1       6.041  11.367  48.652  1.00  0.00    -0.008 C 
ATOM     19  C   UNL     1       5.249  10.669  46.242  1.00  0.00     0.009 C 
ATOM     20  C   UNL     1       4.851  10.786  47.764  1.00  0.00     0.007 C 
ATOM     21  C   UNL     1       6.190  12.915  48.438  1.00  0.00     0.014 C 
ATOM     22  C   UNL     1       5.766  11.126  50.165  1.00  0.00     0.016 C 
ATOM     23  C   UNL     1       3.431  11.499  48.004  1.00  0.00    -0.006 C 
ATOM     24  C   UNL     1       4.940  13.598  47.838  1.00  0.00     0.033 C 
ATOM     25  C   UNL     1       3.626  13.012  48.401  1.00  0.00     0.120 C 
ATOM     26  C   UNL     1       2.483  11.375  46.767  1.00  0.00     0.014 C 
ATOM     27  C   UNL     1       2.656  10.767  49.140  1.00  0.00     0.014 C 
BRANCH   7  28
ATOM     28  O   UNL     1      11.324   8.656  44.527  1.00  0.00    -0.393 OA
ATOM     29  H   UNL     1      12.095   8.060  44.678  1.00  0.00     0.210 HD
ENDBRANCH   7  28
BRANCH  25  30
ATOM     30  O   UNL     1       2.518  13.808  48.039  1.00  0.00    -0.393 OA
ATOM     31  H   UNL     1       1.697  13.378  48.386  1.00  0.00     0.210 HD
ENDBRANCH  25  30
ENDBRANCH   2   6
ENDBRANCH   1   2
BRANCH   1  32
ATOM     32  C   UNL     1      12.253   5.639  48.595  1.00  0.00     0.031 C 
BRANCH  32  33
ATOM     33  C   UNL     1      10.971   5.026  49.124  1.00  0.00    -0.075 C 
ATOM     34  C   UNL     1      10.164   4.348  48.288  1.00  0.00     0.008 C 
BRANCH  33  35
ATOM     35  C   UNL     1      10.604   5.211  50.589  1.00  0.00     0.008 C 
ATOM     36  C   UNL     1      11.218   4.102  51.453  1.00  0.00     0.012 C 
ATOM     37  C   UNL     1       9.086   5.304  50.794  1.00  0.00     0.012 C 
ENDBRANCH  33  35
ENDBRANCH  32  33
ENDBRANCH   1  32
TORSDOF 8
ENDMDL
MODEL 2
REMARK VINA RESULT:    -6.859      2.269      7.607
REMARK INTER + INTRA:         -10.200
REMARK INTER:                  -9.384
REMARK INTRA:                  -0.816
REMARK UNBOUND:                -0.534
REMARK SMILES C=C(CC[C@H](C(=O)[O-])[C@@H]1[C@H](O)C[C@@]2(C)C3=C(CC[C@]12C)[C@@]1(C)CC[C@@H](O)C(C)(C)[C@H]1CC3)C(C)C
REMARK SMILES IDX 4 1 5 2 6 3 7 4 8 5 9 6 10 7 19 8 12 9 13 10 18 11 20 12
REMARK SMILES IDX 14 13 15 14 17 15 16 16 32 17 21 18 31 19 30 20 23 21 22 22
REMARK SMILES IDX 27 23 24 24 25 25 28 26 29 27 11 28 26 30 3 32 2 33 1 34
REMARK SMILES IDX 33 35 34 36 35 37
REMARK H PARENT 11 29 26 31
REMARK Flexibility Score: inf
ROOT
ATOM      1  C   UNL     1       6.078  12.724  45.833  1.00  0.00     0.014 C 
ENDROOT
BRANCH   1   2
ATOM      2  C   UNL     1       7.593  13.024  46.091  1.00  0.00     0.042 C 
BRANCH   2   3
ATOM      3  C   UNL     1       8.299  12.472  44.880  1.00  0.00     0.045 C 
ATOM      4  O   UNL     1       9.403  12.960  44.514  1.00  0.00    -0.550 OA
ATOM      5  O   UNL     1       7.699  11.477  44.111  1.00  0.00    -0.550 OA
ENDBRANCH   2   3
BRANCH   2   6
ATOM      6  C   UNL     1       8.127  12.398  47.446  1.00  0.00     0.033 C 
ATOM      7  C   UNL     1       9.487  12.991  47.962  1.00  0.00     0.119 C 
ATOM      8  C   UNL     1       8.312  10.828  47.638  1.00  0.00    -0.017 C 
ATOM      9  C   UNL     1      10.393  11.810  48.360  1.00  0.00     0.043 C 
ATOM     10  C   UNL     1       9.851  10.601  47.579  1.00  0.00    -0.003 C 
ATOM     11  C   UNL     1       7.684   9.814  46.653  1.00  0.00     0.012 C 
ATOM     12  C   UNL     1       7.718  10.501  49.059  1.00  0.00     0.013 C 
ATOM     13  C   UNL     1      10.441  10.631  46.133  1.00  0.00     0.017 C 
ATOM     14  C   UNL     1      10.189   9.218  48.128  1.00  0.00    -0.064 C 
ATOM     15  C   UNL     1       8.124   8.353  46.954  1.00  0.00     0.032 C 
ATOM     16  C   UNL     1       9.423   8.143  47.777  1.00  0.00    -0.064 C 
ATOM     17  C   UNL     1      11.447   8.991  48.916  1.00  0.00     0.032 C 
ATOM     18  C   UNL     1       9.834   6.724  48.284  1.00  0.00    -0.008 C 
ATOM     19  C   UNL     1      11.190   8.060  50.100  1.00  0.00     0.009 C 
ATOM     20  C   UNL     1      10.244   6.829  49.821  1.00  0.00     0.007 C 
ATOM     21  C   UNL     1      11.025   6.169  47.427  1.00  0.00     0.014 C 
ATOM     22  C   UNL     1       8.631   5.753  48.102  1.00  0.00     0.016 C 
ATOM     23  C   UNL     1      10.772   5.454  50.464  1.00  0.00    -0.006 C 
ATOM     24  C   UNL     1      12.106   5.426  48.244  1.00  0.00     0.033 C 
ATOM     25  C   UNL     1      11.499   4.572  49.378  1.00  0.00     0.120 C 
ATOM     26  C   UNL     1      11.710   5.691  51.693  1.00  0.00     0.014 C 
ATOM     27  C   UNL     1       9.576   4.653  51.060  1.00  0.00     0.014 C 
BRANCH   7  28
ATOM     28  O   UNL     1      10.133  13.841  47.039  1.00  0.00    -0.393 OA
ATOM     29  H   UNL     1      10.035  14.782  47.317  1.00  0.00     0.210 HD
ENDBRANCH   7  28
BRANCH  25  30
ATOM     30  O   UNL     1      12.467   3.714  49.944  1.00  0.00    -0.393 OA
ATOM     31  H   UNL     1      13.039   4.246  50.552  1.00  0.00     0.210 HD
ENDBRANCH  25  30
ENDBRANCH   2   6
ENDBRANCH   1   2
BRANCH   1  32
ATOM     32  C   UNL     1       5.133  12.939  47.024  1.00  0.00     0.031 C 
BRANCH  32  33
ATOM     33  C   UNL     1       4.513  11.628  47.467  1.00  0.00    -0.075 C 
ATOM     34  C   UNL     1       4.222  10.687  46.551  1.00  0.00     0.008 C 
BRANCH  33  35
ATOM     35  C   UNL     1       4.204  11.409  48.941  1.00  0.00     0.008 C 
ATOM     36  C   UNL     1       2.720  11.075  49.147  1.00  0.00     0.012 C 
ATOM     37  C   UNL     1       4.632  12.605  49.801  1.00  0.00     0.012 C 
ENDBRANCH  33  35
ENDBRANCH  32  33
ENDBRANCH   1  32
TORSDOF 8
ENDMDL
MODEL 3
REMARK VINA RESULT:    -6.814      3.483      6.963
REMARK INTER + INTRA:         -10.137
REMARK INTER:                  -9.835
REMARK INTRA:                  -0.302
REMARK UNBOUND:                -0.534
REMARK SMILES C=C(CC[C@H](C(=O)[O-])[C@@H]1[C@H](O)C[C@@]2(C)C3=C(CC[C@]12C)[C@@]1(C)CC[C@@H](O)C(C)(C)[C@H]1CC3)C(C)C
REMARK SMILES IDX 4 1 5 2 6 3 7 4 8 5 9 6 10 7 19 8 12 9 13 10 18 11 20 12
REMARK SMILES IDX 14 13 15 14 17 15 16 16 32 17 21 18 31 19 30 20 23 21 22 22
REMARK SMILES IDX 27 23 24 24 25 25 28 26 29 27 11 28 26 30 3 32 2 33 1 34
REMARK SMILES IDX 33 35 34 36 35 37
REMARK H PARENT 11 29 26 31
REMARK Flexibility Score: inf
ROOT
ATOM      1  C   UNL     1      10.519   4.972  54.269  1.00  0.00     0.014 C 
ENDROOT
BRANCH   1   2
ATOM      2  C   UNL     1      11.666   4.071  53.698  1.00  0.00     0.042 C 
BRANCH   2   3
ATOM      3  C   UNL     1      12.652   3.953  54.830  1.00  0.00     0.045 C 
ATOM      4  O   UNL     1      13.691   3.250  54.693  1.00  0.00    -0.550 OA
ATOM      5  O   UNL     1      12.384   4.549  56.060  1.00  0.00    -0.550 OA
ENDBRANCH   2   3
BRANCH   2   6
ATOM      6  C   UNL     1      12.318   4.658  52.379  1.00  0.00     0.033 C 
ATOM      7  C   UNL     1      13.299   5.865  52.602  1.00  0.00     0.119 C 
ATOM      8  C   UNL     1      11.439   5.123  51.134  1.00  0.00    -0.017 C 
ATOM      9  C   UNL     1      12.940   6.957  51.576  1.00  0.00     0.043 C 
ATOM     10  C   UNL     1      11.481   6.678  51.180  1.00  0.00    -0.003 C 
ATOM     11  C   UNL     1       9.948   4.731  51.008  1.00  0.00     0.012 C 
ATOM     12  C   UNL     1      12.165   4.545  49.862  1.00  0.00     0.013 C 
ATOM     13  C   UNL     1      10.538   7.308  52.254  1.00  0.00     0.017 C 
ATOM     14  C   UNL     1      11.010   7.245  49.843  1.00  0.00    -0.064 C 
ATOM     15  C   UNL     1       9.260   5.422  49.796  1.00  0.00     0.032 C 
ATOM     16  C   UNL     1       9.920   6.705  49.224  1.00  0.00    -0.064 C 
ATOM     17  C   UNL     1      11.626   8.492  49.277  1.00  0.00     0.032 C 
ATOM     18  C   UNL     1       9.406   7.351  47.898  1.00  0.00    -0.008 C 
ATOM     19  C   UNL     1      11.829   8.367  47.769  1.00  0.00     0.009 C 
ATOM     20  C   UNL     1      10.658   7.676  46.967  1.00  0.00     0.007 C 
ATOM     21  C   UNL     1       8.594   8.656  48.214  1.00  0.00     0.014 C 
ATOM     22  C   UNL     1       8.440   6.356  47.191  1.00  0.00     0.016 C 
ATOM     23  C   UNL     1      10.291   8.424  45.593  1.00  0.00    -0.006 C 
ATOM     24  C   UNL     1       8.860   9.824  47.237  1.00  0.00     0.033 C 
ATOM     25  C   UNL     1       9.022   9.342  45.779  1.00  0.00     0.120 C 
ATOM     26  C   UNL     1      11.489   9.254  45.026  1.00  0.00     0.014 C 
ATOM     27  C   UNL     1      10.006   7.375  44.478  1.00  0.00     0.014 C 
BRANCH   7  28
ATOM     28  O   UNL     1      13.292   6.377  53.917  1.00  0.00    -0.393 OA
ATOM     29  H   UNL     1      13.447   5.651  54.566  1.00  0.00     0.210 HD
ENDBRANCH   7  28
BRANCH  25  30
ATOM     30  O   UNL     1       9.011  10.429  44.879  1.00  0.00    -0.393 OA
ATOM     31  H   UNL     1       8.238  10.323  44.270  1.00  0.00     0.210 HD
ENDBRANCH  25  30
ENDBRANCH   2   6
ENDBRANCH   1   2
BRANCH   1  32
ATOM     32  C   UNL     1       9.207   4.256  54.622  1.00  0.00     0.031 C 
BRANCH  32  33
ATOM     33  C   UNL     1       8.069   4.748  53.749  1.00  0.00    -0.075 C 
ATOM     34  C   UNL     1       7.880   6.070  53.586  1.00  0.00     0.008 C 
BRANCH  33  35
ATOM     35  C   UNL     1       7.142   3.738  53.092  1.00  0.00     0.008 C 
ATOM     36  C   UNL     1       5.788   4.375  52.750  1.00  0.00     0.012 C 
ATOM     37  C   UNL     1       6.966   2.477  53.949  1.00  0.00     0.012 C 
ENDBRANCH  33  35
ENDBRANCH  32  33
ENDBRANCH   1  32
TORSDOF 8
ENDMDL
MODEL 4
REMARK VINA RESULT:    -6.803      2.745      5.148
REMARK INTER + INTRA:         -10.120
REMARK INTER:                  -9.294
REMARK INTRA:                  -0.826
REMARK UNBOUND:                -0.534
REMARK SMILES C=C(CC[C@H](C(=O)[O-])[C@@H]1[C@H](O)C[C@@]2(C)C3=C(CC[C@]12C)[C@@]1(C)CC[C@@H](O)C(C)(C)[C@H]1CC3)C(C)C
REMARK SMILES IDX 4 1 5 2 6 3 7 4 8 5 9 6 10 7 19 8 12 9 13 10 18 11 20 12
REMARK SMILES IDX 14 13 15 14 17 15 16 16 32 17 21 18 31 19 30 20 23 21 22 22
REMARK SMILES IDX 27 23 24 24 25 25 28 26 29 27 11 28 26 30 3 32 2 33 1 34
REMARK SMILES IDX 33 35 34 36 35 37
REMARK H PARENT 11 29 26 31
REMARK Flexibility Score: inf
ROOT
ATOM      1  C   UNL     1      11.904   3.586  53.080  1.00  0.00     0.014 C 
ENDROOT
BRANCH   1   2
ATOM      2  C   UNL     1      12.493   3.644  51.631  1.00  0.00     0.042 C 
BRANCH   2   3
ATOM      3  C   UNL     1      13.598   4.664  51.713  1.00  0.00     0.045 C 
ATOM      4  O   UNL     1      14.590   4.588  50.937  1.00  0.00    -0.550 OA
ATOM      5  O   UNL     1      13.572   5.649  52.698  1.00  0.00    -0.550 OA
ENDBRANCH   2   3
BRANCH   2   6
ATOM      6  C   UNL     1      11.408   4.006  50.534  1.00  0.00     0.033 C 
ATOM      7  C   UNL     1      11.841   3.722  49.051  1.00  0.00     0.119 C 
ATOM      8  C   UNL     1      10.735   5.447  50.452  1.00  0.00    -0.017 C 
ATOM      9  C   UNL     1      11.480   4.963  48.211  1.00  0.00     0.043 C 
ATOM     10  C   UNL     1      11.397   6.123  49.217  1.00  0.00    -0.003 C 
ATOM     11  C   UNL     1      10.850   6.459  51.617  1.00  0.00     0.012 C 
ATOM     12  C   UNL     1       9.197   5.186  50.235  1.00  0.00     0.013 C 
ATOM     13  C   UNL     1      12.839   6.662  49.484  1.00  0.00     0.017 C 
ATOM     14  C   UNL     1      10.579   7.341  48.797  1.00  0.00    -0.064 C 
ATOM     15  C   UNL     1      10.248   7.846  51.251  1.00  0.00     0.032 C 
ATOM     16  C   UNL     1      10.098   8.196  49.747  1.00  0.00    -0.064 C 
ATOM     17  C   UNL     1      10.431   7.705  47.347  1.00  0.00     0.032 C 
ATOM     18  C   UNL     1       9.334   9.480  49.292  1.00  0.00    -0.008 C 
ATOM     19  C   UNL     1       9.007   8.161  47.039  1.00  0.00     0.009 C 
ATOM     20  C   UNL     1       8.327   9.088  48.120  1.00  0.00     0.007 C 
ATOM     21  C   UNL     1      10.352  10.571  48.808  1.00  0.00     0.014 C 
ATOM     22  C   UNL     1       8.559  10.066  50.508  1.00  0.00     0.016 C 
ATOM     23  C   UNL     1       7.523  10.328  47.490  1.00  0.00    -0.006 C 
ATOM     24  C   UNL     1       9.903  11.348  47.550  1.00  0.00     0.033 C 
ATOM     25  C   UNL     1       8.387  11.645  47.555  1.00  0.00     0.120 C 
ATOM     26  C   UNL     1       7.054  10.053  46.024  1.00  0.00     0.014 C 
ATOM     27  C   UNL     1       6.192  10.549  48.269  1.00  0.00     0.014 C 
BRANCH   7  28
ATOM     28  O   UNL     1      13.203   3.384  48.903  1.00  0.00    -0.393 OA
ATOM     29  H   UNL     1      13.452   3.387  47.949  1.00  0.00     0.210 HD
ENDBRANCH   7  28
BRANCH  25  30
ATOM     30  O   UNL     1       8.044  12.562  46.538  1.00  0.00    -0.393 OA
ATOM     31  H   UNL     1       7.798  12.051  45.726  1.00  0.00     0.210 HD
ENDBRANCH  25  30
ENDBRANCH   2   6
ENDBRANCH   1   2
BRANCH   1  32
ATOM     32  C   UNL     1      10.549   2.879  53.232  1.00  0.00     0.031 C 
BRANCH  32  33
ATOM     33  C   UNL     1       9.508   3.819  53.809  1.00  0.00    -0.075 C 
ATOM     34  C   UNL     1       9.889   4.793  54.655  1.00  0.00     0.008 C 
BRANCH  33  35
ATOM     35  C   UNL     1       8.045   3.627  53.443  1.00  0.00     0.008 C 
ATOM     36  C   UNL     1       7.273   4.950  53.552  1.00  0.00     0.012 C 
ATOM     37  C   UNL     1       7.383   2.523  54.278  1.00  0.00     0.012 C 
ENDBRANCH  33  35
ENDBRANCH  32  33
ENDBRANCH   1  32
TORSDOF 8
ENDMDL
MODEL 5
REMARK VINA RESULT:    -6.764      2.899      8.382
REMARK INTER + INTRA:         -10.066
REMARK INTER:                  -9.855
REMARK INTRA:                  -0.211
REMARK UNBOUND:                -0.534
REMARK SMILES C=C(CC[C@H](C(=O)[O-])[C@@H]1[C@H](O)C[C@@]2(C)C3=C(CC[C@]12C)[C@@]1(C)CC[C@@H](O)C(C)(C)[C@H]1CC3)C(C)C
REMARK SMILES IDX 4 1 5 2 6 3 7 4 8 5 9 6 10 7 19 8 12 9 13 10 18 11 20 12
REMARK SMILES IDX 14 13 15 14 17 15 16 16 32 17 21 18 31 19 30 20 23 21 22 22
REMARK SMILES IDX 27 23 24 24 25 25 28 26 29 27 11 28 26 30 3 32 2 33 1 34
REMARK SMILES IDX 33 35 34 36 35 37
REMARK H PARENT 11 29 26 31
REMARK Flexibility Score: inf
ROOT
ATOM      1  C   UNL     1       4.201  11.513  46.732  1.00  0.00     0.014 C 
ENDROOT
BRANCH   1   2
ATOM      2  C   UNL     1       5.556  11.230  47.464  1.00  0.00     0.042 C 
BRANCH   2   3
ATOM      3  C   UNL     1       5.382  11.840  48.830  1.00  0.00     0.045 C 
ATOM      4  O   UNL     1       5.266  13.090  48.955  1.00  0.00    -0.550 OA
ATOM      5  O   UNL     1       5.431  11.037  49.967  1.00  0.00    -0.550 OA
ENDBRANCH   2   3
BRANCH   2   6
ATOM      6  C   UNL     1       6.811  11.814  46.691  1.00  0.00     0.033 C 
ATOM      7  C   UNL     1       6.850  11.499  45.152  1.00  0.00     0.119 C 
ATOM      8  C   UNL     1       8.305  11.525  47.164  1.00  0.00    -0.017 C 
ATOM      9  C   UNL     1       8.269  11.009  44.809  1.00  0.00     0.043 C 
ATOM     10  C   UNL     1       8.853  10.494  46.135  1.00  0.00    -0.003 C 
ATOM     11  C   UNL     1       8.611  10.948  48.565  1.00  0.00     0.012 C 
ATOM     12  C   UNL     1       9.052  12.909  47.075  1.00  0.00     0.013 C 
ATOM     13  C   UNL     1       8.352   9.034  46.372  1.00  0.00     0.017 C 
ATOM     14  C   UNL     1      10.374  10.424  46.237  1.00  0.00    -0.064 C 
ATOM     15  C   UNL     1      10.119  10.609  48.745  1.00  0.00     0.032 C 
ATOM     16  C   UNL     1      10.971  10.404  47.465  1.00  0.00    -0.064 C 
ATOM     17  C   UNL     1      11.218  10.213  45.012  1.00  0.00     0.032 C 
ATOM     18  C   UNL     1      12.524  10.249  47.548  1.00  0.00    -0.008 C 
ATOM     19  C   UNL     1      12.471  11.085  45.054  1.00  0.00     0.009 C 
ATOM     20  C   UNL     1      13.192  11.196  46.454  1.00  0.00     0.007 C 
ATOM     21  C   UNL     1      12.931   8.753  47.312  1.00  0.00     0.014 C 
ATOM     22  C   UNL     1      12.995  10.645  48.978  1.00  0.00     0.016 C 
ATOM     23  C   UNL     1      14.792  11.084  46.363  1.00  0.00    -0.006 C 
ATOM     24  C   UNL     1      14.191   8.565  46.438  1.00  0.00     0.033 C 
ATOM     25  C   UNL     1      15.272   9.629  46.734  1.00  0.00     0.120 C 
ATOM     26  C   UNL     1      15.342  11.501  44.960  1.00  0.00     0.014 C 
ATOM     27  C   UNL     1      15.451  12.106  47.338  1.00  0.00     0.014 C 
BRANCH   7  28
ATOM     28  O   UNL     1       5.873  10.573  44.728  1.00  0.00    -0.393 OA
ATOM     29  H   UNL     1       5.258  10.365  45.470  1.00  0.00     0.210 HD
ENDBRANCH   7  28
BRANCH  25  30
ATOM     30  O   UNL     1      16.497   9.295  46.118  1.00  0.00    -0.393 OA
ATOM     31  H   UNL     1      16.423   8.379  45.751  1.00  0.00     0.210 HD
ENDBRANCH  25  30
ENDBRANCH   2   6
ENDBRANCH   1   2
BRANCH   1  32
ATOM     32  C   UNL     1       3.179  10.367  46.734  1.00  0.00     0.031 C 
BRANCH  32  33
ATOM     33  C   UNL     1       1.808  10.863  47.152  1.00  0.00    -0.075 C 
ATOM     34  C   UNL     1       1.205  11.830  46.436  1.00  0.00     0.008 C 
BRANCH  33  35
ATOM     35  C   UNL     1       1.148  10.279  48.391  1.00  0.00     0.008 C 
ATOM     36  C   UNL     1       2.117  10.279  49.581  1.00  0.00     0.012 C 
ATOM     37  C   UNL     1       0.580   8.877  48.132  1.00  0.00     0.012 C 
ENDBRANCH  33  35
ENDBRANCH  32  33
ENDBRANCH   1  32
TORSDOF 8
ENDMDL
MODEL 6
REMARK VINA RESULT:    -6.672      3.109      8.985
REMARK INTER + INTRA:          -9.937
REMARK INTER:                  -9.622
REMARK INTRA:                  -0.315
REMARK UNBOUND:                -0.534
REMARK SMILES C=C(CC[C@H](C(=O)[O-])[C@@H]1[C@H](O)C[C@@]2(C)C3=C(CC[C@]12C)[C@@]1(C)CC[C@@H](O)C(C)(C)[C@H]1CC3)C(C)C
REMARK SMILES IDX 4 1 5 2 6 3 7 4 8 5 9 6 10 7 19 8 12 9 13 10 18 11 20 12
REMARK SMILES IDX 14 13 15 14 17 15 16 16 32 17 21 18 31 19 30 20 23 21 22 22
REMARK SMILES IDX 27 23 24 24 25 25 28 26 29 27 11 28 26 30 3 32 2 33 1 34
REMARK SMILES IDX 33 35 34 36 35 37
REMARK H PARENT 11 29 26 31
REMARK Flexibility Score: inf
ROOT
ATOM      1  C   UNL     1       9.684   9.055  46.106  1.00  0.00     0.014 C 
ENDROOT
BRANCH   1   2
ATOM      2  C   UNL     1       9.328   8.474  47.516  1.00  0.00     0.042 C 
BRANCH   2   3
ATOM      3  C   UNL     1       8.665   9.616  48.239  1.00  0.00     0.045 C 
ATOM      4  O   UNL     1       7.419   9.603  48.436  1.00  0.00    -0.550 OA
ATOM      5  O   UNL     1       9.409  10.730  48.622  1.00  0.00    -0.550 OA
ENDBRANCH   2   3
BRANCH   2   6
ATOM      6  C   UNL     1      10.590   7.910  48.291  1.00  0.00     0.033 C 
ATOM      7  C   UNL     1      11.397   6.798  47.528  1.00  0.00     0.119 C 
ATOM      8  C   UNL     1      10.486   7.338  49.774  1.00  0.00    -0.017 C 
ATOM      9  C   UNL     1      11.670   5.652  48.521  1.00  0.00     0.043 C 
ATOM     10  C   UNL     1      10.595   5.794  49.611  1.00  0.00    -0.003 C 
ATOM     11  C   UNL     1       9.240   7.597  50.654  1.00  0.00     0.012 C 
ATOM     12  C   UNL     1      11.716   7.942  50.549  1.00  0.00     0.013 C 
ATOM     13  C   UNL     1       9.280   5.114  49.112  1.00  0.00     0.017 C 
ATOM     14  C   UNL     1      10.896   5.154  50.963  1.00  0.00    -0.064 C 
ATOM     15  C   UNL     1       9.299   6.817  51.999  1.00  0.00     0.032 C 
ATOM     16  C   UNL     1      10.234   5.581  52.079  1.00  0.00    -0.064 C 
ATOM     17  C   UNL     1      11.788   3.950  51.062  1.00  0.00     0.032 C 
ATOM     18  C   UNL     1      10.497   4.858  53.438  1.00  0.00    -0.008 C 
ATOM     19  C   UNL     1      12.714   4.052  52.272  1.00  0.00     0.009 C 
ATOM     20  C   UNL     1      12.065   4.618  53.595  1.00  0.00     0.007 C 
ATOM     21  C   UNL     1       9.718   3.497  53.484  1.00  0.00     0.014 C 
ATOM     22  C   UNL     1       9.959   5.747  54.597  1.00  0.00     0.016 C 
ATOM     23  C   UNL     1      12.486   3.805  54.916  1.00  0.00    -0.006 C 
ATOM     24  C   UNL     1      10.510   2.331  54.117  1.00  0.00     0.033 C 
ATOM     25  C   UNL     1      11.355   2.786  55.328  1.00  0.00     0.120 C 
ATOM     26  C   UNL     1      13.854   3.066  54.753  1.00  0.00     0.014 C 
ATOM     27  C   UNL     1      12.737   4.796  56.091  1.00  0.00     0.014 C 
BRANCH   7  28
ATOM     28  O   UNL     1      10.761   6.323  46.362  1.00  0.00    -0.393 OA
ATOM     29  H   UNL     1      11.432   5.977  45.726  1.00  0.00     0.210 HD
ENDBRANCH   7  28
BRANCH  25  30
ATOM     30  O   UNL     1      11.864   1.679  56.039  1.00  0.00    -0.393 OA
ATOM     31  H   UNL     1      12.834   1.604  55.851  1.00  0.00     0.210 HD
ENDBRANCH  25  30
ENDBRANCH   2   6
ENDBRANCH   1   2
BRANCH   1  32
ATOM     32  C   UNL     1       8.504   9.565  45.266  1.00  0.00     0.031 C 
BRANCH  32  33
ATOM     33  C   UNL     1       8.701  11.018  44.879  1.00  0.00    -0.075 C 
ATOM     34  C   UNL     1       9.925  11.570  44.968  1.00  0.00     0.008 C 
BRANCH  33  35
ATOM     35  C   UNL     1       7.504  11.837  44.422  1.00  0.00     0.008 C 
ATOM     36  C   UNL     1       7.804  13.341  44.503  1.00  0.00     0.012 C 
ATOM     37  C   UNL     1       6.231  11.478  45.199  1.00  0.00     0.012 C 
ENDBRANCH  33  35
ENDBRANCH  32  33
ENDBRANCH   1  32
TORSDOF 8
ENDMDL
MODEL 7
REMARK VINA RESULT:    -6.527      3.646      6.997
REMARK INTER + INTRA:          -9.731
REMARK INTER:                  -9.107
REMARK INTRA:                  -0.624
REMARK UNBOUND:                -0.534
REMARK SMILES C=C(CC[C@H](C(=O)[O-])[C@@H]1[C@H](O)C[C@@]2(C)C3=C(CC[C@]12C)[C@@]1(C)CC[C@@H](O)C(C)(C)[C@H]1CC3)C(C)C
REMARK SMILES IDX 4 1 5 2 6 3 7 4 8 5 9 6 10 7 19 8 12 9 13 10 18 11 20 12
REMARK SMILES IDX 14 13 15 14 17 15 16 16 32 17 21 18 31 19 30 20 23 21 22 22
REMARK SMILES IDX 27 23 24 24 25 25 28 26 29 27 11 28 26 30 3 32 2 33 1 34
REMARK SMILES IDX 33 35 34 36 35 37
REMARK H PARENT 11 29 26 31
REMARK Flexibility Score: inf
ROOT
ATOM      1  C   UNL     1      11.424   4.955  55.492  1.00  0.00     0.014 C 
ENDROOT
BRANCH   1   2
ATOM      2  C   UNL     1      10.576   5.170  54.193  1.00  0.00     0.042 C 
BRANCH   2   3
ATOM      3  C   UNL     1      10.058   3.798  53.849  1.00  0.00     0.045 C 
ATOM      4  O   UNL     1       8.984   3.380  54.363  1.00  0.00    -0.550 OA
ATOM      5  O   UNL     1      10.801   2.952  53.029  1.00  0.00    -0.550 OA
ENDBRANCH   2   3
BRANCH   2   6
ATOM      6  C   UNL     1      11.406   5.822  53.012  1.00  0.00     0.033 C 
ATOM      7  C   UNL     1      12.107   7.184  53.364  1.00  0.00     0.119 C 
ATOM      8  C   UNL     1      10.767   6.097  51.579  1.00  0.00    -0.017 C 
ATOM      9  C   UNL     1      11.819   8.170  52.217  1.00  0.00     0.043 C 
ATOM     10  C   UNL     1      10.550   7.638  51.532  1.00  0.00    -0.003 C 
ATOM     11  C   UNL     1       9.424   5.455  51.157  1.00  0.00     0.012 C 
ATOM     12  C   UNL     1      11.843   5.616  50.534  1.00  0.00     0.013 C 
ATOM     13  C   UNL     1       9.302   8.128  52.333  1.00  0.00     0.017 C 
ATOM     14  C   UNL     1      10.308   8.079  50.091  1.00  0.00    -0.064 C 
ATOM     15  C   UNL     1       8.925   5.986  49.783  1.00  0.00     0.032 C 
ATOM     16  C   UNL     1       9.485   7.345  49.286  1.00  0.00    -0.064 C 
ATOM     17  C   UNL     1      10.829   9.397  49.593  1.00  0.00     0.032 C 
ATOM     18  C   UNL     1       9.186   7.858  47.841  1.00  0.00    -0.008 C 
ATOM     19  C   UNL     1      11.383   9.266  48.175  1.00  0.00     0.009 C 
ATOM     20  C   UNL     1      10.547   8.365  47.186  1.00  0.00     0.007 C 
ATOM     21  C   UNL     1       8.127   9.015  47.888  1.00  0.00     0.014 C 
ATOM     22  C   UNL     1       8.574   6.695  47.007  1.00  0.00     0.016 C 
ATOM     23  C   UNL     1      10.384   9.001  45.719  1.00  0.00    -0.006 C 
ATOM     24  C   UNL     1       8.416  10.184  46.919  1.00  0.00     0.033 C 
ATOM     25  C   UNL     1       8.977   9.696  45.565  1.00  0.00     0.120 C 
ATOM     26  C   UNL     1      11.531  10.006  45.373  1.00  0.00     0.014 C 
ATOM     27  C   UNL     1      10.528   7.888  44.639  1.00  0.00     0.014 C 
BRANCH   7  28
ATOM     28  O   UNL     1      11.724   7.723  54.610  1.00  0.00    -0.393 OA
ATOM     29  H   UNL     1      11.809   7.041  55.317  1.00  0.00     0.210 HD
ENDBRANCH   7  28
BRANCH  25  30
ATOM     30  O   UNL     1       8.996  10.740  44.616  1.00  0.00    -0.393 OA
ATOM     31  H   UNL     1       9.713  11.377  44.865  1.00  0.00     0.210 HD
ENDBRANCH  25  30
ENDBRANCH   2   6
ENDBRANCH   1   2
BRANCH   1  32
ATOM     32  C   UNL     1      12.527   3.889  55.412  1.00  0.00     0.031 C 
BRANCH  32  33
ATOM     33  C   UNL     1      13.900   4.531  55.388  1.00  0.00    -0.075 C 
ATOM     34  C   UNL     1      14.133   5.632  56.125  1.00  0.00     0.008 C 
BRANCH  33  35
ATOM     35  C   UNL     1      14.988   3.935  54.507  1.00  0.00     0.008 C 
ATOM     36  C   UNL     1      16.226   4.842  54.472  1.00  0.00     0.012 C 
ATOM     37  C   UNL     1      14.478   3.629  53.092  1.00  0.00     0.012 C 
ENDBRANCH  33  35
ENDBRANCH  32  33
ENDBRANCH   1  32
TORSDOF 8
ENDMDL
MODEL 8
REMARK VINA RESULT:    -6.442      3.428      6.654
REMARK INTER + INTRA:          -9.612
REMARK INTER:                  -9.243
REMARK INTRA:                  -0.370
REMARK UNBOUND:                -0.534
REMARK SMILES C=C(CC[C@H](C(=O)[O-])[C@@H]1[C@H](O)C[C@@]2(C)C3=C(CC[C@]12C)[C@@]1(C)CC[C@@H](O)C(C)(C)[C@H]1CC3)C(C)C
REMARK SMILES IDX 4 1 5 2 6 3 7 4 8 5 9 6 10 7 19 8 12 9 13 10 18 11 20 12
REMARK SMILES IDX 14 13 15 14 17 15 16 16 32 17 21 18 31 19 30 20 23 21 22 22
REMARK SMILES IDX 27 23 24 24 25 25 28 26 29 27 11 28 26 30 3 32 2 33 1 34
REMARK SMILES IDX 33 35 34 36 35 37
REMARK H PARENT 11 29 26 31
REMARK Flexibility Score: inf
ROOT
ATOM      1  C   UNL     1       9.971   4.909  53.475  1.00  0.00     0.014 C 
ENDROOT
BRANCH   1   2
ATOM      2  C   UNL     1      11.491   4.782  53.121  1.00  0.00     0.042 C 
BRANCH   2   3
ATOM      3  C   UNL     1      12.173   4.587  54.449  1.00  0.00     0.045 C 
ATOM      4  O   UNL     1      11.504   4.635  55.518  1.00  0.00    -0.550 OA
ATOM      5  O   UNL     1      13.557   4.436  54.511  1.00  0.00    -0.550 OA
ENDBRANCH   2   3
BRANCH   2   6
ATOM      6  C   UNL     1      12.049   6.033  52.325  1.00  0.00     0.033 C 
ATOM      7  C   UNL     1      11.894   7.412  53.062  1.00  0.00     0.119 C 
ATOM      8  C   UNL     1      11.595   6.360  50.833  1.00  0.00    -0.017 C 
ATOM      9  C   UNL     1      11.331   8.426  52.047  1.00  0.00     0.043 C 
ATOM     10  C   UNL     1      10.636   7.578  50.969  1.00  0.00    -0.003 C 
ATOM     11  C   UNL     1      10.852   5.314  49.969  1.00  0.00     0.012 C 
ATOM     12  C   UNL     1      12.916   6.726  50.058  1.00  0.00     0.013 C 
ATOM     13  C   UNL     1       9.203   7.205  51.468  1.00  0.00     0.017 C 
ATOM     14  C   UNL     1      10.435   8.229  49.604  1.00  0.00    -0.064 C 
ATOM     15  C   UNL     1      10.377   5.905  48.611  1.00  0.00     0.032 C 
ATOM     16  C   UNL     1      10.239   7.447  48.502  1.00  0.00    -0.064 C 
ATOM     17  C   UNL     1      10.285   9.718  49.477  1.00  0.00     0.032 C 
ATOM     18  C   UNL     1       9.953   8.134  47.128  1.00  0.00    -0.008 C 
ATOM     19  C   UNL     1      11.045  10.243  48.261  1.00  0.00     0.009 C 
ATOM     20  C   UNL     1      10.952   9.364  46.954  1.00  0.00     0.007 C 
ATOM     21  C   UNL     1       8.462   8.616  47.065  1.00  0.00     0.014 C 
ATOM     22  C   UNL     1      10.159   7.094  45.989  1.00  0.00     0.016 C 
ATOM     23  C   UNL     1      10.723  10.224  45.616  1.00  0.00    -0.006 C 
ATOM     24  C   UNL     1       8.266  10.000  46.406  1.00  0.00     0.033 C 
ATOM     25  C   UNL     1       9.204  10.209  45.196  1.00  0.00     0.120 C 
ATOM     26  C   UNL     1      11.238  11.694  45.754  1.00  0.00     0.014 C 
ATOM     27  C   UNL     1      11.582   9.638  44.455  1.00  0.00     0.014 C 
BRANCH   7  28
ATOM     28  O   UNL     1      11.098   7.358  54.225  1.00  0.00    -0.393 OA
ATOM     29  H   UNL     1      11.029   8.254  54.633  1.00  0.00     0.210 HD
ENDBRANCH   7  28
BRANCH  25  30
ATOM     30  O   UNL     1       8.839  11.358  44.461  1.00  0.00    -0.393 OA
ATOM     31  H   UNL     1       8.890  11.142  43.496  1.00  0.00     0.210 HD
ENDBRANCH  25  30
ENDBRANCH   2   6
ENDBRANCH   1   2
BRANCH   1  32
ATOM     32  C   UNL     1       9.034   3.887  52.816  1.00  0.00     0.031 C 
BRANCH  32  33
ATOM     33  C   UNL     1       7.668   3.899  53.474  1.00  0.00    -0.075 C 
ATOM     34  C   UNL     1       6.933   5.026  53.462  1.00  0.00     0.008 C 
BRANCH  33  35
ATOM     35  C   UNL     1       7.161   2.642  54.164  1.00  0.00     0.008 C 
ATOM     36  C   UNL     1       8.269   1.585  54.263  1.00  0.00     0.012 C 
ATOM     37  C   UNL     1       5.909   2.077  53.480  1.00  0.00     0.012 C 
ENDBRANCH  33  35
ENDBRANCH  32  33
ENDBRANCH   1  32
TORSDOF 8
ENDMDL
MODEL 9
REMARK VINA RESULT:    -6.436      4.049      7.339
REMARK INTER + INTRA:          -9.604
REMARK INTER:                  -8.744
REMARK INTRA:                  -0.860
REMARK UNBOUND:                -0.534
REMARK SMILES C=C(CC[C@H](C(=O)[O-])[C@@H]1[C@H](O)C[C@@]2(C)C3=C(CC[C@]12C)[C@@]1(C)CC[C@@H](O)C(C)(C)[C@H]1CC3)C(C)C
REMARK SMILES IDX 4 1 5 2 6 3 7 4 8 5 9 6 10 7 19 8 12 9 13 10 18 11 20 12
REMARK SMILES IDX 14 13 15 14 17 15 16 16 32 17 21 18 31 19 30 20 23 21 22 22
REMARK SMILES IDX 27 23 24 24 25 25 28 26 29 27 11 28 26 30 3 32 2 33 1 34
REMARK SMILES IDX 33 35 34 36 35 37
REMARK H PARENT 11 29 26 31
REMARK Flexibility Score: inf
ROOT
ATOM      1  C   UNL     1      12.320   5.218  54.637  1.00  0.00     0.014 C 
ENDROOT
BRANCH   1   2
ATOM      2  C   UNL     1      11.015   4.369  54.468  1.00  0.00     0.042 C 
BRANCH   2   3
ATOM      3  C   UNL     1      11.323   3.063  55.152  1.00  0.00     0.045 C 
ATOM      4  O   UNL     1      12.461   2.867  55.660  1.00  0.00    -0.550 OA
ATOM      5  O   UNL     1      10.383   2.034  55.156  1.00  0.00    -0.550 OA
ENDBRANCH   2   3
BRANCH   2   6
ATOM      6  C   UNL     1      10.592   4.179  52.952  1.00  0.00     0.033 C 
ATOM      7  C   UNL     1      11.585   3.322  52.087  1.00  0.00     0.119 C 
ATOM      8  C   UNL     1      10.251   5.415  52.007  1.00  0.00    -0.017 C 
ATOM      9  C   UNL     1      11.823   4.075  50.764  1.00  0.00     0.043 C 
ATOM     10  C   UNL     1      11.483   5.544  51.065  1.00  0.00    -0.003 C 
ATOM     11  C   UNL     1       9.995   6.827  52.586  1.00  0.00     0.012 C 
ATOM     12  C   UNL     1       8.946   5.006  51.227  1.00  0.00     0.013 C 
ATOM     13  C   UNL     1      12.723   6.221  51.731  1.00  0.00     0.017 C 
ATOM     14  C   UNL     1      11.129   6.428  49.873  1.00  0.00    -0.064 C 
ATOM     15  C   UNL     1       9.833   7.898  51.470  1.00  0.00     0.032 C 
ATOM     16  C   UNL     1      10.415   7.576  50.068  1.00  0.00    -0.064 C 
ATOM     17  C   UNL     1      11.691   6.142  48.510  1.00  0.00     0.032 C 
ATOM     18  C   UNL     1      10.134   8.508  48.846  1.00  0.00    -0.008 C 
ATOM     19  C   UNL     1      10.634   6.350  47.427  1.00  0.00     0.009 C 
ATOM     20  C   UNL     1       9.698   7.607  47.605  1.00  0.00     0.007 C 
ATOM     21  C   UNL     1      11.413   9.348  48.502  1.00  0.00     0.014 C 
ATOM     22  C   UNL     1       9.002   9.508  49.223  1.00  0.00     0.016 C 
ATOM     23  C   UNL     1       9.452   8.424  46.243  1.00  0.00    -0.006 C 
ATOM     24  C   UNL     1      11.688   9.500  46.989  1.00  0.00     0.033 C 
ATOM     25  C   UNL     1      10.389   9.690  46.175  1.00  0.00     0.120 C 
ATOM     26  C   UNL     1       9.640   7.535  44.971  1.00  0.00     0.014 C 
ATOM     27  C   UNL     1       7.965   8.881  46.160  1.00  0.00     0.014 C 
BRANCH   7  28
ATOM     28  O   UNL     1      12.804   3.026  52.732  1.00  0.00    -0.393 OA
ATOM     29  H   UNL     1      12.635   2.730  53.658  1.00  0.00     0.210 HD
ENDBRANCH   7  28
BRANCH  25  30
ATOM     30  O   UNL     1      10.672  10.076  44.847  1.00  0.00    -0.393 OA
ATOM     31  H   UNL     1      10.296  10.980  44.697  1.00  0.00     0.210 HD
ENDBRANCH  25  30
ENDBRANCH   2   6
ENDBRANCH   1   2
BRANCH   1  32
ATOM     32  C   UNL     1      12.229   6.414  55.596  1.00  0.00     0.031 C 
BRANCH  32  33
ATOM     33  C   UNL     1      13.155   7.532  55.157  1.00  0.00    -0.075 C 
ATOM     34  C   UNL     1      14.448   7.263  54.901  1.00  0.00     0.008 C 
BRANCH  33  35
ATOM     35  C   UNL     1      12.612   8.948  55.039  1.00  0.00     0.008 C 
ATOM     36  C   UNL     1      12.513   9.378  53.569  1.00  0.00     0.012 C 
ATOM     37  C   UNL     1      13.435   9.949  55.860  1.00  0.00     0.012 C 
ENDBRANCH  33  35
ENDBRANCH  32  33
ENDBRANCH   1  32
TORSDOF 8
ENDMDL
