MODEL 1
REMARK VINA RESULT:    -5.028      0.000      0.000
REMARK INTER + INTRA:          -5.841
REMARK INTER:                  -5.763
REMARK INTRA:                  -0.078
REMARK UNBOUND:                -0.078
REMARK SMILES COc1cc(C(=O)[O-])ccc1O
REMARK SMILES IDX 5 1 9 2 4 3 10 4 3 5 11 6 6 7 7 8 8 9 2 10 1 11 12 12
REMARK H PARENT 12 13
REMARK Flexibility Score: inf
ROOT
ATOM      1  C   UNL     1      64.529 150.991   5.187  1.00  0.00     0.001 A 
ATOM      2  C   UNL     1      65.032 149.920   4.431  1.00  0.00     0.014 A 
ATOM      3  C   UNL     1      63.465 150.758   6.078  1.00  0.00     0.060 A 
ATOM      4  C   UNL     1      64.484 148.643   4.562  1.00  0.00     0.051 A 
ATOM      5  C   UNL     1      62.908 149.470   6.214  1.00  0.00     0.161 A 
ATOM      6  C   UNL     1      63.427 148.413   5.447  1.00  0.00     0.157 A 
ENDROOT
BRANCH   1   7
ATOM      7  C   UNL     1      65.114 152.343   5.044  1.00  0.00     0.072 C 
ATOM      8  O   UNL     1      64.949 153.005   3.985  1.00  0.00    -0.545 OA
ATOM      9  O   UNL     1      65.854 152.903   6.079  1.00  0.00    -0.545 OA
ENDBRANCH   1   7
BRANCH   5  10
ATOM     10  O   UNL     1      61.845 149.209   7.094  1.00  0.00    -0.493 OA
ATOM     11  C   UNL     1      61.695 149.803   8.380  1.00  0.00     0.278 C 
ENDBRANCH   5  10
BRANCH   6  12
ATOM     12  O   UNL     1      62.905 147.123   5.550  1.00  0.00    -0.504 OA
ATOM     13  H   UNL     1      62.017 146.934   5.996  1.00  0.00     0.293 HD
ENDBRANCH   6  12
TORSDOF 3
ENDMDL
MODEL 2
REMARK VINA RESULT:    -4.912      2.110      2.816
REMARK INTER + INTRA:          -5.708
REMARK INTER:                  -5.615
REMARK INTRA:                  -0.093
REMARK UNBOUND:                -0.078
REMARK SMILES COc1cc(C(=O)[O-])ccc1O
REMARK SMILES IDX 5 1 9 2 4 3 10 4 3 5 11 6 6 7 7 8 8 9 2 10 1 11 12 12
REMARK H PARENT 12 13
REMARK Flexibility Score: inf
ROOT
ATOM      1  C   UNL     1      63.056 151.913   5.732  1.00  0.00     0.001 A 
ATOM      2  C   UNL     1      64.145 152.203   4.895  1.00  0.00     0.014 A 
ATOM      3  C   UNL     1      62.758 150.569   6.024  1.00  0.00     0.060 A 
ATOM      4  C   UNL     1      64.921 151.174   4.361  1.00  0.00     0.051 A 
ATOM      5  C   UNL     1      63.540 149.525   5.489  1.00  0.00     0.161 A 
ATOM      6  C   UNL     1      64.626 149.839   4.653  1.00  0.00     0.157 A 
ENDROOT
BRANCH   1   7
ATOM      7  C   UNL     1      62.235 153.008   6.294  1.00  0.00     0.072 C 
ATOM      8  O   UNL     1      60.978 152.919   6.323  1.00  0.00    -0.545 OA
ATOM      9  O   UNL     1      62.839 154.153   6.801  1.00  0.00    -0.545 OA
ENDBRANCH   1   7
BRANCH   5  10
ATOM     10  O   UNL     1      63.267 148.174   5.763  1.00  0.00    -0.493 OA
ATOM     11  C   UNL     1      62.074 147.496   5.380  1.00  0.00     0.278 C 
ENDBRANCH   5  10
BRANCH   6  12
ATOM     12  O   UNL     1      65.426 148.838   4.101  1.00  0.00    -0.504 OA
ATOM     13  H   UNL     1      65.283 148.491   3.161  1.00  0.00     0.293 HD
ENDBRANCH   6  12
TORSDOF 3
ENDMDL
MODEL 3
REMARK VINA RESULT:    -4.911      2.743      3.138
REMARK INTER + INTRA:          -5.707
REMARK INTER:                  -5.624
REMARK INTRA:                  -0.083
REMARK UNBOUND:                -0.078
REMARK SMILES COc1cc(C(=O)[O-])ccc1O
REMARK SMILES IDX 5 1 9 2 4 3 10 4 3 5 11 6 6 7 7 8 8 9 2 10 1 11 12 12
REMARK H PARENT 12 13
REMARK Flexibility Score: inf
ROOT
ATOM      1  C   UNL     1      62.242 151.440   3.874  1.00  0.00     0.001 A 
ATOM      2  C   UNL     1      63.532 151.532   3.327  1.00  0.00     0.014 A 
ATOM      3  C   UNL     1      62.050 150.690   5.049  1.00  0.00     0.060 A 
ATOM      4  C   UNL     1      64.608 150.890   3.941  1.00  0.00     0.051 A 
ATOM      5  C   UNL     1      63.134 150.040   5.674  1.00  0.00     0.161 A 
ATOM      6  C   UNL     1      64.417 150.147   5.109  1.00  0.00     0.157 A 
ENDROOT
BRANCH   1   7
ATOM      7  C   UNL     1      61.104 152.122   3.219  1.00  0.00     0.072 C 
ATOM      8  O   UNL     1      61.085 152.283   1.969  1.00  0.00    -0.545 OA
ATOM      9  O   UNL     1      60.037 152.596   3.974  1.00  0.00    -0.545 OA
ENDBRANCH   1   7
BRANCH   5  10
ATOM     10  O   UNL     1      62.973 149.285   6.848  1.00  0.00    -0.493 OA
ATOM     11  C   UNL     1      62.097 149.629   7.917  1.00  0.00     0.278 C 
ENDBRANCH   5  10
BRANCH   6  12
ATOM     12  O   UNL     1      65.518 149.519   5.694  1.00  0.00    -0.504 OA
ATOM     13  H   UNL     1      66.073 148.832   5.199  1.00  0.00     0.293 HD
ENDBRANCH   6  12
TORSDOF 3
ENDMDL
MODEL 4
REMARK VINA RESULT:    -4.853      1.594      4.253
REMARK INTER + INTRA:          -5.640
REMARK INTER:                  -5.561
REMARK INTRA:                  -0.079
REMARK UNBOUND:                -0.078
REMARK SMILES COc1cc(C(=O)[O-])ccc1O
REMARK SMILES IDX 5 1 9 2 4 3 10 4 3 5 11 6 6 7 7 8 8 9 2 10 1 11 12 12
REMARK H PARENT 12 13
REMARK Flexibility Score: inf
ROOT
ATOM      1  C   UNL     1      62.858 149.168   5.568  1.00  0.00     0.001 A 
ATOM      2  C   UNL     1      64.200 149.021   5.183  1.00  0.00     0.014 A 
ATOM      3  C   UNL     1      62.372 150.452   5.876  1.00  0.00     0.060 A 
ATOM      4  C   UNL     1      65.040 150.133   5.108  1.00  0.00     0.051 A 
ATOM      5  C   UNL     1      63.216 151.579   5.800  1.00  0.00     0.161 A 
ATOM      6  C   UNL     1      64.556 151.408   5.413  1.00  0.00     0.157 A 
ENDROOT
BRANCH   1   7
ATOM      7  C   UNL     1      61.971 147.985   5.647  1.00  0.00     0.072 C 
ATOM      8  O   UNL     1      62.262 146.923   5.033  1.00  0.00    -0.545 OA
ATOM      9  O   UNL     1      60.805 148.028   6.402  1.00  0.00    -0.545 OA
ENDBRANCH   1   7
BRANCH   5  10
ATOM     10  O   UNL     1      62.758 152.873   6.102  1.00  0.00    -0.493 OA
ATOM     11  C   UNL     1      61.422 153.190   6.479  1.00  0.00     0.278 C 
ENDBRANCH   5  10
BRANCH   6  12
ATOM     12  O   UNL     1      65.426 152.496   5.326  1.00  0.00    -0.504 OA
ATOM     13  H   UNL     1      65.426 153.243   6.009  1.00  0.00     0.293 HD
ENDBRANCH   6  12
TORSDOF 3
ENDMDL
MODEL 5
REMARK VINA RESULT:    -4.797      5.370      5.813
REMARK INTER + INTRA:          -5.576
REMARK INTER:                  -5.494
REMARK INTRA:                  -0.083
REMARK UNBOUND:                -0.078
REMARK SMILES COc1cc(C(=O)[O-])ccc1O
REMARK SMILES IDX 5 1 9 2 4 3 10 4 3 5 11 6 6 7 7 8 8 9 2 10 1 11 12 12
REMARK H PARENT 12 13
REMARK Flexibility Score: inf
ROOT
ATOM      1  C   UNL     1      59.984 153.321   1.929  1.00  0.00     0.001 A 
ATOM      2  C   UNL     1      61.155 152.601   1.645  1.00  0.00     0.014 A 
ATOM      3  C   UNL     1      59.439 153.256   3.225  1.00  0.00     0.060 A 
ATOM      4  C   UNL     1      61.770 151.832   2.633  1.00  0.00     0.051 A 
ATOM      5  C   UNL     1      60.057 152.482   4.228  1.00  0.00     0.161 A 
ATOM      6  C   UNL     1      61.229 151.769   3.921  1.00  0.00     0.157 A 
ENDROOT
BRANCH   1   7
ATOM      7  C   UNL     1      59.335 154.135   0.876  1.00  0.00     0.072 C 
ATOM      8  O   UNL     1      59.774 154.124  -0.305  1.00  0.00    -0.545 OA
ATOM      9  O   UNL     1      58.229 154.922   1.176  1.00  0.00    -0.545 OA
ENDBRANCH   1   7
BRANCH   5  10
ATOM     10  O   UNL     1      59.537 152.398   5.530  1.00  0.00    -0.493 OA
ATOM     11  C   UNL     1      58.159 152.544   5.862  1.00  0.00     0.278 C 
ENDBRANCH   5  10
BRANCH   6  12
ATOM     12  O   UNL     1      61.873 150.989   4.882  1.00  0.00    -0.504 OA
ATOM     13  H   UNL     1      61.449 150.158   5.275  1.00  0.00     0.293 HD
ENDBRANCH   6  12
TORSDOF 3
ENDMDL
MODEL 6
REMARK VINA RESULT:    -4.786      4.876      5.859
REMARK INTER + INTRA:          -5.564
REMARK INTER:                  -5.460
REMARK INTRA:                  -0.103
REMARK UNBOUND:                -0.078
REMARK SMILES COc1cc(C(=O)[O-])ccc1O
REMARK SMILES IDX 5 1 9 2 4 3 10 4 3 5 11 6 6 7 7 8 8 9 2 10 1 11 12 12
REMARK H PARENT 12 13
REMARK Flexibility Score: inf
ROOT
ATOM      1  C   UNL     1      60.405 153.225   1.775  1.00  0.00     0.001 A 
ATOM      2  C   UNL     1      59.438 153.299   2.789  1.00  0.00     0.014 A 
ATOM      3  C   UNL     1      61.590 152.503   2.012  1.00  0.00     0.060 A 
ATOM      4  C   UNL     1      59.648 152.665   4.015  1.00  0.00     0.051 A 
ATOM      5  C   UNL     1      61.807 151.861   3.248  1.00  0.00     0.161 A 
ATOM      6  C   UNL     1      60.824 151.948   4.249  1.00  0.00     0.157 A 
ENDROOT
BRANCH   1   7
ATOM      7  C   UNL     1      60.177 153.899   0.477  1.00  0.00     0.072 C 
ATOM      8  O   UNL     1      59.042 154.360   0.184  1.00  0.00    -0.545 OA
ATOM      9  O   UNL     1      61.215 154.035  -0.438  1.00  0.00    -0.545 OA
ENDBRANCH   1   7
BRANCH   5  10
ATOM     10  O   UNL     1      62.979 151.133   3.513  1.00  0.00    -0.493 OA
ATOM     11  C   UNL     1      64.223 151.715   3.892  1.00  0.00     0.278 C 
ENDBRANCH   5  10
BRANCH   6  12
ATOM     12  O   UNL     1      60.998 151.328   5.487  1.00  0.00    -0.504 OA
ATOM     13  H   UNL     1      60.775 151.793   6.359  1.00  0.00     0.293 HD
ENDBRANCH   6  12
TORSDOF 3
ENDMDL
MODEL 7
REMARK VINA RESULT:    -4.739      3.148      3.593
REMARK INTER + INTRA:          -5.509
REMARK INTER:                  -5.413
REMARK INTRA:                  -0.096
REMARK UNBOUND:                -0.078
REMARK SMILES COc1cc(C(=O)[O-])ccc1O
REMARK SMILES IDX 5 1 9 2 4 3 10 4 3 5 11 6 6 7 7 8 8 9 2 10 1 11 12 12
REMARK H PARENT 12 13
REMARK Flexibility Score: inf
ROOT
ATOM      1  C   UNL     1      63.478 151.535   4.670  1.00  0.00     0.001 A 
ATOM      2  C   UNL     1      63.348 151.617   3.274  1.00  0.00     0.014 A 
ATOM      3  C   UNL     1      62.329 151.663   5.472  1.00  0.00     0.060 A 
ATOM      4  C   UNL     1      62.097 151.822   2.691  1.00  0.00     0.051 A 
ATOM      5  C   UNL     1      61.062 151.870   4.888  1.00  0.00     0.161 A 
ATOM      6  C   UNL     1      60.956 151.948   3.488  1.00  0.00     0.157 A 
ENDROOT
BRANCH   1   7
ATOM      7  C   UNL     1      64.807 151.318   5.283  1.00  0.00     0.072 C 
ATOM      8  O   UNL     1      65.497 152.294   5.684  1.00  0.00    -0.545 OA
ATOM      9  O   UNL     1      65.315 150.032   5.428  1.00  0.00    -0.545 OA
ENDBRANCH   1   7
BRANCH   5  10
ATOM     10  O   UNL     1      59.898 152.002   5.663  1.00  0.00    -0.493 OA
ATOM     11  C   UNL     1      59.475 153.210   6.289  1.00  0.00     0.278 C 
ENDBRANCH   5  10
BRANCH   6  12
ATOM     12  O   UNL     1      59.722 152.153   2.868  1.00  0.00    -0.504 OA
ATOM     13  H   UNL     1      59.636 152.643   1.987  1.00  0.00     0.293 HD
ENDBRANCH   6  12
TORSDOF 3
ENDMDL
MODEL 8
REMARK VINA RESULT:    -4.521     18.069     19.854
REMARK INTER + INTRA:          -5.260
REMARK INTER:                  -5.166
REMARK INTRA:                  -0.093
REMARK UNBOUND:                -0.078
REMARK SMILES COc1cc(C(=O)[O-])ccc1O
REMARK SMILES IDX 5 1 9 2 4 3 10 4 3 5 11 6 6 7 7 8 8 9 2 10 1 11 12 12
REMARK H PARENT 12 13
REMARK Flexibility Score: inf
ROOT
ATOM      1  C   UNL     1      70.800 138.715  -7.705  1.00  0.00     0.001 A 
ATOM      2  C   UNL     1      70.124 138.998  -8.902  1.00  0.00     0.014 A 
ATOM      3  C   UNL     1      72.168 139.031  -7.601  1.00  0.00     0.060 A 
ATOM      4  C   UNL     1      70.798 139.585  -9.973  1.00  0.00     0.051 A 
ATOM      5  C   UNL     1      72.853 139.626  -8.680  1.00  0.00     0.161 A 
ATOM      6  C   UNL     1      72.156 139.901  -9.869  1.00  0.00     0.157 A 
ENDROOT
BRANCH   1   7
ATOM      7  C   UNL     1      70.081 138.091  -6.572  1.00  0.00     0.072 C 
ATOM      8  O   UNL     1      70.286 136.885  -6.267  1.00  0.00    -0.545 OA
ATOM      9  O   UNL     1      69.168 138.827  -5.825  1.00  0.00    -0.545 OA
ENDBRANCH   1   7
BRANCH   5  10
ATOM     10  O   UNL     1      74.218 139.953  -8.605  1.00  0.00    -0.493 OA
ATOM     11  C   UNL     1      74.757 140.992  -7.792  1.00  0.00     0.278 C 
ENDBRANCH   5  10
BRANCH   6  12
ATOM     12  O   UNL     1      72.796 140.488 -10.961  1.00  0.00    -0.504 OA
ATOM     13  H   UNL     1      73.264 139.938 -11.671  1.00  0.00     0.293 HD
ENDBRANCH   6  12
TORSDOF 3
ENDMDL
MODEL 9
REMARK VINA RESULT:    -4.492     17.658     19.545
REMARK INTER + INTRA:          -5.227
REMARK INTER:                  -5.147
REMARK INTRA:                  -0.079
REMARK UNBOUND:                -0.078
REMARK SMILES COc1cc(C(=O)[O-])ccc1O
REMARK SMILES IDX 5 1 9 2 4 3 10 4 3 5 11 6 6 7 7 8 8 9 2 10 1 11 12 12
REMARK H PARENT 12 13
REMARK Flexibility Score: inf
ROOT
ATOM      1  C   UNL     1      70.474 139.108  -8.800  1.00  0.00     0.001 A 
ATOM      2  C   UNL     1      69.486 139.506  -7.885  1.00  0.00     0.014 A 
ATOM      3  C   UNL     1      71.552 138.326  -8.346  1.00  0.00     0.060 A 
ATOM      4  C   UNL     1      69.573 139.130  -6.544  1.00  0.00     0.051 A 
ATOM      5  C   UNL     1      71.644 137.943  -6.992  1.00  0.00     0.161 A 
ATOM      6  C   UNL     1      70.643 138.352  -6.093  1.00  0.00     0.157 A 
ENDROOT
BRANCH   1   7
ATOM      7  C   UNL     1      70.378 139.510 -10.222  1.00  0.00     0.072 C 
ATOM      8  O   UNL     1      71.398 139.503 -10.961  1.00  0.00    -0.545 OA
ATOM      9  O   UNL     1      69.158 139.900 -10.763  1.00  0.00    -0.545 OA
ENDBRANCH   1   7
BRANCH   5  10
ATOM     10  O   UNL     1      72.708 137.163  -6.510  1.00  0.00    -0.493 OA
ATOM     11  C   UNL     1      73.902 136.886  -7.236  1.00  0.00     0.278 C 
ENDBRANCH   5  10
BRANCH   6  12
ATOM     12  O   UNL     1      70.695 137.997  -4.745  1.00  0.00    -0.504 OA
ATOM     13  H   UNL     1      70.277 137.144  -4.395  1.00  0.00     0.293 HD
ENDBRANCH   6  12
TORSDOF 3
ENDMDL
