MODEL 1
REMARK VINA RESULT:    -3.842      0.000      0.000
REMARK INTER + INTRA:          -4.083
REMARK INTER:                  -4.067
REMARK INTRA:                  -0.016
REMARK UNBOUND:                -0.016
REMARK SMILES O=C([O-])c1cccnc1
REMARK SMILES IDX 4 1 5 2 9 3 6 4 8 5 7 6 2 7 1 8 3 9
REMARK H PARENT
REMARK Flexibility Score: inf
ROOT
ATOM      1  C   UNL     1     -18.853  45.183  -5.918  1.00  0.00     0.016 A 
ATOM      2  C   UNL     1     -17.670  44.429  -5.972  1.00  0.00     0.013 A 
ATOM      3  C   UNL     1     -18.751  46.579  -5.794  1.00  0.00     0.120 A 
ATOM      4  C   UNL     1     -16.428  45.064  -5.901  1.00  0.00     0.021 A 
ATOM      5  N   UNL     1     -17.529  47.175  -5.728  1.00  0.00    -0.264 NA
ATOM      6  C   UNL     1     -16.378  46.454  -5.779  1.00  0.00     0.111 A 
ENDROOT
BRANCH   1   7
ATOM      7  C   UNL     1     -20.177  44.528  -5.990  1.00  0.00     0.073 C 
ATOM      8  O   UNL     1     -20.845  44.548  -7.058  1.00  0.00    -0.545 OA
ATOM      9  O   UNL     1     -20.705  43.881  -4.878  1.00  0.00    -0.545 OA
ENDBRANCH   1   7
TORSDOF 1
ENDMDL
MODEL 2
REMARK VINA RESULT:    -3.795      0.923      1.929
REMARK INTER + INTRA:          -4.033
REMARK INTER:                  -4.017
REMARK INTRA:                  -0.016
REMARK UNBOUND:                -0.016
REMARK SMILES O=C([O-])c1cccnc1
REMARK SMILES IDX 4 1 5 2 9 3 6 4 8 5 7 6 2 7 1 8 3 9
REMARK H PARENT
REMARK Flexibility Score: inf
ROOT
ATOM      1  C   UNL     1     -18.882  45.149  -5.922  1.00  0.00     0.016 A 
ATOM      2  C   UNL     1     -18.774  46.547  -5.846  1.00  0.00     0.013 A 
ATOM      3  C   UNL     1     -17.701  44.388  -5.942  1.00  0.00     0.120 A 
ATOM      4  C   UNL     1     -17.517  47.152  -5.793  1.00  0.00     0.021 A 
ATOM      5  N   UNL     1     -16.488  45.002  -5.889  1.00  0.00    -0.264 NA
ATOM      6  C   UNL     1     -16.373  46.354  -5.815  1.00  0.00     0.111 A 
ENDROOT
BRANCH   1   7
ATOM      7  C   UNL     1     -20.204  44.489  -5.980  1.00  0.00     0.073 C 
ATOM      8  O   UNL     1     -20.666  43.890  -4.973  1.00  0.00    -0.545 OA
ATOM      9  O   UNL     1     -20.957  44.521  -7.148  1.00  0.00    -0.545 OA
ENDBRANCH   1   7
TORSDOF 1
ENDMDL
MODEL 3
REMARK VINA RESULT:    -3.708      2.637      3.426
REMARK INTER + INTRA:          -3.941
REMARK INTER:                  -3.924
REMARK INTRA:                  -0.017
REMARK UNBOUND:                -0.016
REMARK SMILES O=C([O-])c1cccnc1
REMARK SMILES IDX 4 1 5 2 9 3 6 4 8 5 7 6 2 7 1 8 3 9
REMARK H PARENT
REMARK Flexibility Score: inf
ROOT
ATOM      1  C   UNL     1     -19.345  44.016  -8.113  1.00  0.00     0.016 A 
ATOM      2  C   UNL     1     -19.849  44.623  -6.952  1.00  0.00     0.013 A 
ATOM      3  C   UNL     1     -18.031  43.518  -8.090  1.00  0.00     0.120 A 
ATOM      4  C   UNL     1     -19.053  44.723  -5.809  1.00  0.00     0.021 A 
ATOM      5  N   UNL     1     -17.275  43.628  -6.964  1.00  0.00    -0.264 NA
ATOM      6  C   UNL     1     -17.754  44.213  -5.835  1.00  0.00     0.111 A 
ENDROOT
BRANCH   1   7
ATOM      7  C   UNL     1     -20.172  43.902  -9.333  1.00  0.00     0.073 C 
ATOM      8  O   UNL     1     -20.600  42.780  -9.714  1.00  0.00    -0.545 OA
ATOM      9  O   UNL     1     -20.489  45.032 -10.079  1.00  0.00    -0.545 OA
ENDBRANCH   1   7
TORSDOF 1
ENDMDL
MODEL 4
REMARK VINA RESULT:    -3.701      2.923      3.758
REMARK INTER + INTRA:          -3.933
REMARK INTER:                  -3.915
REMARK INTRA:                  -0.018
REMARK UNBOUND:                -0.016
REMARK SMILES O=C([O-])c1cccnc1
REMARK SMILES IDX 4 1 5 2 9 3 6 4 8 5 7 6 2 7 1 8 3 9
REMARK H PARENT
REMARK Flexibility Score: inf
ROOT
ATOM      1  C   UNL     1     -18.503  46.102  -6.487  1.00  0.00     0.016 A 
ATOM      2  C   UNL     1     -19.514  45.274  -5.973  1.00  0.00     0.013 A 
ATOM      3  C   UNL     1     -18.318  46.145  -7.880  1.00  0.00     0.120 A 
ATOM      4  C   UNL     1     -20.309  44.517  -6.836  1.00  0.00     0.021 A 
ATOM      5  N   UNL     1     -19.107  45.398  -8.700  1.00  0.00    -0.264 NA
ATOM      6  C   UNL     1     -20.088  44.594  -8.212  1.00  0.00     0.111 A 
ENDROOT
BRANCH   1   7
ATOM      7  C   UNL     1     -17.650  46.909  -5.589  1.00  0.00     0.073 C 
ATOM      8  O   UNL     1     -18.161  47.764  -4.817  1.00  0.00    -0.545 OA
ATOM      9  O   UNL     1     -16.270  46.737  -5.584  1.00  0.00    -0.545 OA
ENDBRANCH   1   7
TORSDOF 1
ENDMDL
MODEL 5
REMARK VINA RESULT:    -3.672      3.195      4.041
REMARK INTER + INTRA:          -3.903
REMARK INTER:                  -3.886
REMARK INTRA:                  -0.016
REMARK UNBOUND:                -0.016
REMARK SMILES O=C([O-])c1cccnc1
REMARK SMILES IDX 4 1 5 2 9 3 6 4 8 5 7 6 2 7 1 8 3 9
REMARK H PARENT
REMARK Flexibility Score: inf
ROOT
ATOM      1  C   UNL     1     -16.703  45.809  -5.941  1.00  0.00     0.016 A 
ATOM      2  C   UNL     1     -17.141  44.475  -5.968  1.00  0.00     0.013 A 
ATOM      3  C   UNL     1     -17.669  46.829  -5.897  1.00  0.00     0.120 A 
ATOM      4  C   UNL     1     -18.507  44.185  -5.951  1.00  0.00     0.021 A 
ATOM      5  N   UNL     1     -18.994  46.520  -5.881  1.00  0.00    -0.264 NA
ATOM      6  C   UNL     1     -19.428  45.232  -5.906  1.00  0.00     0.111 A 
ENDROOT
BRANCH   1   7
ATOM      7  C   UNL     1     -15.262  46.138  -5.959  1.00  0.00     0.073 C 
ATOM      8  O   UNL     1     -14.572  46.054  -4.908  1.00  0.00    -0.545 OA
ATOM      9  O   UNL     1     -14.646  46.545  -7.137  1.00  0.00    -0.545 OA
ENDBRANCH   1   7
TORSDOF 1
ENDMDL
MODEL 6
REMARK VINA RESULT:    -3.624      3.261      3.935
REMARK INTER + INTRA:          -3.852
REMARK INTER:                  -3.829
REMARK INTRA:                  -0.023
REMARK UNBOUND:                -0.016
REMARK SMILES O=C([O-])c1cccnc1
REMARK SMILES IDX 4 1 5 2 9 3 6 4 8 5 7 6 2 7 1 8 3 9
REMARK H PARENT
REMARK Flexibility Score: inf
ROOT
ATOM      1  C   UNL     1     -18.157  43.866  -7.961  1.00  0.00     0.016 A 
ATOM      2  C   UNL     1     -17.621  43.788  -6.665  1.00  0.00     0.013 A 
ATOM      3  C   UNL     1     -19.496  44.267  -8.106  1.00  0.00     0.120 A 
ATOM      4  C   UNL     1     -18.411  44.105  -5.558  1.00  0.00     0.021 A 
ATOM      5  N   UNL     1     -20.245  44.570  -7.011  1.00  0.00    -0.264 NA
ATOM      6  C   UNL     1     -19.735  44.499  -5.754  1.00  0.00     0.111 A 
ENDROOT
BRANCH   1   7
ATOM      7  C   UNL     1     -17.337  43.534  -9.145  1.00  0.00     0.073 C 
ATOM      8  O   UNL     1     -16.080  43.512  -9.068  1.00  0.00    -0.545 OA
ATOM      9  O   UNL     1     -17.942  43.242 -10.362  1.00  0.00    -0.545 OA
ENDBRANCH   1   7
TORSDOF 1
ENDMDL
MODEL 7
REMARK VINA RESULT:    -3.610      2.648      3.035
REMARK INTER + INTRA:          -3.838
REMARK INTER:                  -3.822
REMARK INTRA:                  -0.016
REMARK UNBOUND:                -0.016
REMARK SMILES O=C([O-])c1cccnc1
REMARK SMILES IDX 4 1 5 2 9 3 6 4 8 5 7 6 2 7 1 8 3 9
REMARK H PARENT
REMARK Flexibility Score: inf
ROOT
ATOM      1  C   UNL     1     -18.657  44.217  -7.010  1.00  0.00     0.016 A 
ATOM      2  C   UNL     1     -17.447  43.546  -6.767  1.00  0.00     0.013 A 
ATOM      3  C   UNL     1     -19.158  44.236  -8.324  1.00  0.00     0.120 A 
ATOM      4  C   UNL     1     -16.769  42.919  -7.815  1.00  0.00     0.021 A 
ATOM      5  N   UNL     1     -18.478  43.617  -9.327  1.00  0.00    -0.264 NA
ATOM      6  C   UNL     1     -17.307  42.966  -9.102  1.00  0.00     0.111 A 
ENDROOT
BRANCH   1   7
ATOM      7  C   UNL     1     -19.389  44.888  -5.915  1.00  0.00     0.073 C 
ATOM      8  O   UNL     1     -19.168  46.098  -5.643  1.00  0.00    -0.545 OA
ATOM      9  O   UNL     1     -20.334  44.192  -5.169  1.00  0.00    -0.545 OA
ENDBRANCH   1   7
TORSDOF 1
ENDMDL
MODEL 8
REMARK VINA RESULT:    -3.564      3.286      4.187
REMARK INTER + INTRA:          -3.789
REMARK INTER:                  -3.765
REMARK INTRA:                  -0.024
REMARK UNBOUND:                -0.016
REMARK SMILES O=C([O-])c1cccnc1
REMARK SMILES IDX 4 1 5 2 9 3 6 4 8 5 7 6 2 7 1 8 3 9
REMARK H PARENT
REMARK Flexibility Score: inf
ROOT
ATOM      1  C   UNL     1     -18.672  44.151  -7.454  1.00  0.00     0.016 A 
ATOM      2  C   UNL     1     -20.019  44.220  -7.846  1.00  0.00     0.013 A 
ATOM      3  C   UNL     1     -17.800  43.340  -8.201  1.00  0.00     0.120 A 
ATOM      4  C   UNL     1     -20.466  43.496  -8.953  1.00  0.00     0.021 A 
ATOM      5  N   UNL     1     -18.261  42.644  -9.275  1.00  0.00    -0.264 NA
ATOM      6  C   UNL     1     -19.562  42.705  -9.663  1.00  0.00     0.111 A 
ENDROOT
BRANCH   1   7
ATOM      7  C   UNL     1     -18.179  44.909  -6.285  1.00  0.00     0.073 C 
ATOM      8  O   UNL     1     -18.896  45.794  -5.746  1.00  0.00    -0.545 OA
ATOM      9  O   UNL     1     -16.915  44.657  -5.762  1.00  0.00    -0.545 OA
ENDBRANCH   1   7
TORSDOF 1
ENDMDL
MODEL 9
REMARK VINA RESULT:    -3.398      2.416      2.999
REMARK INTER + INTRA:          -3.612
REMARK INTER:                  -3.595
REMARK INTRA:                  -0.017
REMARK UNBOUND:                -0.016
REMARK SMILES O=C([O-])c1cccnc1
REMARK SMILES IDX 4 1 5 2 9 3 6 4 8 5 7 6 2 7 1 8 3 9
REMARK H PARENT
REMARK Flexibility Score: inf
ROOT
ATOM      1  C   UNL     1     -19.052  44.637  -8.075  1.00  0.00     0.016 A 
ATOM      2  C   UNL     1     -19.410  44.673  -6.717  1.00  0.00     0.013 A 
ATOM      3  C   UNL     1     -18.453  45.778  -8.637  1.00  0.00     0.120 A 
ATOM      4  C   UNL     1     -19.172  45.820  -5.958  1.00  0.00     0.021 A 
ATOM      5  N   UNL     1     -18.232  46.883  -7.875  1.00  0.00    -0.264 NA
ATOM      6  C   UNL     1     -18.575  46.927  -6.561  1.00  0.00     0.111 A 
ENDROOT
BRANCH   1   7
ATOM      7  C   UNL     1     -19.297  43.433  -8.896  1.00  0.00     0.073 C 
ATOM      8  O   UNL     1     -18.334  42.748  -9.332  1.00  0.00    -0.545 OA
ATOM      9  O   UNL     1     -20.595  43.038  -9.199  1.00  0.00    -0.545 OA
ENDBRANCH   1   7
TORSDOF 1
ENDMDL
