MODEL 1
REMARK VINA RESULT:    -6.318      0.000      0.000
REMARK INTER + INTRA:          -7.382
REMARK INTER:                  -7.242
REMARK INTRA:                  -0.140
REMARK UNBOUND:                -0.140
REMARK SMILES O=C([O-])C=Cc1ccc(O)cc1
REMARK SMILES IDX 6 1 7 2 12 3 8 4 11 5 9 6 5 7 4 8 2 9 1 10 3 11 10 12
REMARK H PARENT 10 13
REMARK Flexibility Score: inf
ROOT
ATOM      1  C   UNL     1      12.288  49.753  -4.940  1.00  0.00    -0.025 A 
ATOM      2  C   UNL     1      11.532  48.659  -5.395  1.00  0.00     0.012 A 
ATOM      3  C   UNL     1      12.446  49.940  -3.551  1.00  0.00     0.012 A 
ATOM      4  C   UNL     1      10.967  47.758  -4.486  1.00  0.00     0.047 A 
ATOM      5  C   UNL     1      11.878  49.037  -2.647  1.00  0.00     0.047 A 
ATOM      6  C   UNL     1      11.140  47.942  -3.113  1.00  0.00     0.115 A 
ENDROOT
BRANCH   1   7
ATOM      7  C   UNL     1      12.859  50.687  -5.942  1.00  0.00     0.010 C 
ATOM      8  C   UNL     1      13.227  51.945  -5.663  1.00  0.00     0.025 C 
BRANCH   8   9
ATOM      9  C   UNL     1      13.800  52.833  -6.688  1.00  0.00     0.064 C 
ATOM     10  O   UNL     1      14.988  52.658  -7.066  1.00  0.00    -0.545 OA
ATOM     11  O   UNL     1      13.051  53.864  -7.244  1.00  0.00    -0.545 OA
ENDBRANCH   8   9
ENDBRANCH   1   7
BRANCH   6  12
ATOM     12  O   UNL     1      10.572  47.036  -2.220  1.00  0.00    -0.508 OA
ATOM     13  H   UNL     1       9.589  46.794  -2.266  1.00  0.00     0.293 HD
ENDBRANCH   6  12
TORSDOF 3
ENDMDL
MODEL 2
REMARK VINA RESULT:    -6.284      0.236      1.415
REMARK INTER + INTRA:          -7.342
REMARK INTER:                  -7.192
REMARK INTRA:                  -0.150
REMARK UNBOUND:                -0.140
REMARK SMILES O=C([O-])C=Cc1ccc(O)cc1
REMARK SMILES IDX 6 1 7 2 12 3 8 4 11 5 9 6 5 7 4 8 2 9 1 10 3 11 10 12
REMARK H PARENT 10 13
REMARK Flexibility Score: inf
ROOT
ATOM      1  C   UNL     1      12.199  49.604  -4.860  1.00  0.00    -0.025 A 
ATOM      2  C   UNL     1      12.473  49.835  -3.501  1.00  0.00     0.012 A 
ATOM      3  C   UNL     1      11.408  48.492  -5.216  1.00  0.00     0.012 A 
ATOM      4  C   UNL     1      11.950  48.989  -2.518  1.00  0.00     0.047 A 
ATOM      5  C   UNL     1      10.889  47.649  -4.229  1.00  0.00     0.047 A 
ATOM      6  C   UNL     1      11.156  47.898  -2.877  1.00  0.00     0.115 A 
ENDROOT
BRANCH   1   7
ATOM      7  C   UNL     1      12.784  50.523  -5.869  1.00  0.00     0.010 C 
ATOM      8  C   UNL     1      13.258  51.742  -5.579  1.00  0.00     0.025 C 
BRANCH   8   9
ATOM      9  C   UNL     1      13.842  52.615  -6.611  1.00  0.00     0.064 C 
ATOM     10  O   UNL     1      15.030  52.428  -6.981  1.00  0.00    -0.545 OA
ATOM     11  O   UNL     1      13.102  53.644  -7.183  1.00  0.00    -0.545 OA
ENDBRANCH   8   9
ENDBRANCH   1   7
BRANCH   6  12
ATOM     12  O   UNL     1      10.642  47.065  -1.886  1.00  0.00    -0.508 OA
ATOM     13  H   UNL     1      10.925  46.095  -1.811  1.00  0.00     0.293 HD
ENDBRANCH   6  12
TORSDOF 3
ENDMDL
MODEL 3
REMARK VINA RESULT:    -5.935      1.189      5.862
REMARK INTER + INTRA:          -6.943
REMARK INTER:                  -6.789
REMARK INTRA:                  -0.154
REMARK UNBOUND:                -0.140
REMARK SMILES O=C([O-])C=Cc1ccc(O)cc1
REMARK SMILES IDX 6 1 7 2 12 3 8 4 11 5 9 6 5 7 4 8 2 9 1 10 3 11 10 12
REMARK H PARENT 10 13
REMARK Flexibility Score: inf
ROOT
ATOM      1  C   UNL     1      12.721  50.672  -5.064  1.00  0.00    -0.025 A 
ATOM      2  C   UNL     1      13.144  51.534  -4.038  1.00  0.00     0.012 A 
ATOM      3  C   UNL     1      12.887  51.077  -6.405  1.00  0.00     0.012 A 
ATOM      4  C   UNL     1      13.741  52.761  -4.342  1.00  0.00     0.047 A 
ATOM      5  C   UNL     1      13.483  52.306  -6.703  1.00  0.00     0.047 A 
ATOM      6  C   UNL     1      13.915  53.149  -5.673  1.00  0.00     0.115 A 
ENDROOT
BRANCH   1   7
ATOM      7  C   UNL     1      12.083  49.384  -4.692  1.00  0.00     0.010 C 
ATOM      8  C   UNL     1      11.696  49.077  -3.447  1.00  0.00     0.025 C 
BRANCH   8   9
ATOM      9  C   UNL     1      11.056  47.791  -3.127  1.00  0.00     0.064 C 
ATOM     10  O   UNL     1      10.405  47.183  -4.017  1.00  0.00    -0.545 OA
ATOM     11  O   UNL     1      11.157  47.235  -1.857  1.00  0.00    -0.545 OA
ENDBRANCH   8   9
ENDBRANCH   1   7
BRANCH   6  12
ATOM     12  O   UNL     1      14.512  54.375  -5.959  1.00  0.00    -0.508 OA
ATOM     13  H   UNL     1      14.472  54.779  -6.888  1.00  0.00     0.293 HD
ENDBRANCH   6  12
TORSDOF 3
ENDMDL
MODEL 4
REMARK VINA RESULT:    -5.895      1.681      1.911
REMARK INTER + INTRA:          -6.896
REMARK INTER:                  -6.756
REMARK INTRA:                  -0.140
REMARK UNBOUND:                -0.140
REMARK SMILES O=C([O-])C=Cc1ccc(O)cc1
REMARK SMILES IDX 6 1 7 2 12 3 8 4 11 5 9 6 5 7 4 8 2 9 1 10 3 11 10 12
REMARK H PARENT 10 13
REMARK Flexibility Score: inf
ROOT
ATOM      1  C   UNL     1      12.886  50.736  -4.334  1.00  0.00    -0.025 A 
ATOM      2  C   UNL     1      12.514  50.096  -5.530  1.00  0.00     0.012 A 
ATOM      3  C   UNL     1      12.462  50.184  -3.107  1.00  0.00     0.012 A 
ATOM      4  C   UNL     1      11.758  48.920  -5.501  1.00  0.00     0.047 A 
ATOM      5  C   UNL     1      11.705  49.008  -3.085  1.00  0.00     0.047 A 
ATOM      6  C   UNL     1      11.354  48.372  -4.281  1.00  0.00     0.115 A 
ENDROOT
BRANCH   1   7
ATOM      7  C   UNL     1      13.679  51.987  -4.416  1.00  0.00     0.010 C 
ATOM      8  C   UNL     1      13.229  53.120  -4.972  1.00  0.00     0.025 C 
BRANCH   8   9
ATOM      9  C   UNL     1      14.049  54.342  -5.019  1.00  0.00     0.064 C 
ATOM     10  O   UNL     1      14.584  54.771  -3.963  1.00  0.00    -0.545 OA
ATOM     11  O   UNL     1      14.242  55.032  -6.211  1.00  0.00    -0.545 OA
ENDBRANCH   8   9
ENDBRANCH   1   7
BRANCH   6  12
ATOM     12  O   UNL     1      10.602  47.200  -4.269  1.00  0.00    -0.508 OA
ATOM     13  H   UNL     1      11.002  46.312  -4.547  1.00  0.00     0.293 HD
ENDBRANCH   6  12
TORSDOF 3
ENDMDL
MODEL 5
REMARK VINA RESULT:    -5.866      1.796      2.362
REMARK INTER + INTRA:          -6.863
REMARK INTER:                  -6.729
REMARK INTRA:                  -0.134
REMARK UNBOUND:                -0.140
REMARK SMILES O=C([O-])C=Cc1ccc(O)cc1
REMARK SMILES IDX 6 1 7 2 12 3 8 4 11 5 9 6 5 7 4 8 2 9 1 10 3 11 10 12
REMARK H PARENT 10 13
REMARK Flexibility Score: inf
ROOT
ATOM      1  C   UNL     1      12.845  50.743  -4.348  1.00  0.00    -0.025 A 
ATOM      2  C   UNL     1      12.460  50.175  -3.121  1.00  0.00     0.012 A 
ATOM      3  C   UNL     1      12.484  50.088  -5.544  1.00  0.00     0.012 A 
ATOM      4  C   UNL     1      11.711  48.995  -3.088  1.00  0.00     0.047 A 
ATOM      5  C   UNL     1      11.735  48.908  -5.505  1.00  0.00     0.047 A 
ATOM      6  C   UNL     1      11.345  48.360  -4.277  1.00  0.00     0.115 A 
ENDROOT
BRANCH   1   7
ATOM      7  C   UNL     1      13.648  51.991  -4.332  1.00  0.00     0.010 C 
ATOM      8  C   UNL     1      13.197  53.173  -4.772  1.00  0.00     0.025 C 
BRANCH   8   9
ATOM      9  C   UNL     1      14.027  54.388  -4.726  1.00  0.00     0.064 C 
ATOM     10  O   UNL     1      14.490  54.780  -3.623  1.00  0.00    -0.545 OA
ATOM     11  O   UNL     1      14.306  55.111  -5.880  1.00  0.00    -0.545 OA
ENDBRANCH   8   9
ENDBRANCH   1   7
BRANCH   6  12
ATOM     12  O   UNL     1      10.598  47.185  -4.228  1.00  0.00    -0.508 OA
ATOM     13  H   UNL     1      10.381  46.660  -5.067  1.00  0.00     0.293 HD
ENDBRANCH   6  12
TORSDOF 3
ENDMDL
MODEL 6
REMARK VINA RESULT:    -5.865      2.462      2.803
REMARK INTER + INTRA:          -6.863
REMARK INTER:                  -6.723
REMARK INTRA:                  -0.140
REMARK UNBOUND:                -0.140
REMARK SMILES O=C([O-])C=Cc1ccc(O)cc1
REMARK SMILES IDX 6 1 7 2 12 3 8 4 11 5 9 6 5 7 4 8 2 9 1 10 3 11 10 12
REMARK H PARENT 10 13
REMARK Flexibility Score: inf
ROOT
ATOM      1  C   UNL     1      12.994  51.117  -4.127  1.00  0.00    -0.025 A 
ATOM      2  C   UNL     1      12.824  50.799  -5.485  1.00  0.00     0.012 A 
ATOM      3  C   UNL     1      12.477  50.238  -3.152  1.00  0.00     0.012 A 
ATOM      4  C   UNL     1      12.176  49.619  -5.863  1.00  0.00     0.047 A 
ATOM      5  C   UNL     1      11.829  49.060  -3.535  1.00  0.00     0.047 A 
ATOM      6  C   UNL     1      11.680  48.746  -4.891  1.00  0.00     0.115 A 
ENDROOT
BRANCH   1   7
ATOM      7  C   UNL     1      13.679  52.386  -3.775  1.00  0.00     0.010 C 
ATOM      8  C   UNL     1      13.257  53.595  -4.171  1.00  0.00     0.025 C 
BRANCH   8   9
ATOM      9  C   UNL     1      13.963  54.828  -3.788  1.00  0.00     0.064 C 
ATOM     10  O   UNL     1      14.910  55.249  -4.503  1.00  0.00    -0.545 OA
ATOM     11  O   UNL     1      13.603  55.537  -2.647  1.00  0.00    -0.545 OA
ENDBRANCH   8   9
ENDBRANCH   1   7
BRANCH   6  12
ATOM     12  O   UNL     1      11.037  47.574  -5.283  1.00  0.00    -0.508 OA
ATOM     13  H   UNL     1      10.611  47.485  -6.198  1.00  0.00     0.293 HD
ENDBRANCH   6  12
TORSDOF 3
ENDMDL
MODEL 7
REMARK VINA RESULT:    -5.639      9.217     10.158
REMARK INTER + INTRA:          -6.603
REMARK INTER:                  -6.450
REMARK INTRA:                  -0.153
REMARK UNBOUND:                -0.140
REMARK SMILES O=C([O-])C=Cc1ccc(O)cc1
REMARK SMILES IDX 6 1 7 2 12 3 8 4 11 5 9 6 5 7 4 8 2 9 1 10 3 11 10 12
REMARK H PARENT 10 13
REMARK Flexibility Score: inf
ROOT
ATOM      1  C   UNL     1      11.040  54.994   3.907  1.00  0.00    -0.025 A 
ATOM      2  C   UNL     1       9.675  54.685   4.040  1.00  0.00     0.012 A 
ATOM      3  C   UNL     1      11.771  55.355   5.058  1.00  0.00     0.012 A 
ATOM      4  C   UNL     1       9.060  54.711   5.295  1.00  0.00     0.047 A 
ATOM      5  C   UNL     1      11.151  55.380   6.310  1.00  0.00     0.047 A 
ATOM      6  C   UNL     1       9.795  55.056   6.433  1.00  0.00     0.115 A 
ENDROOT
BRANCH   1   7
ATOM      7  C   UNL     1      11.647  54.963   2.553  1.00  0.00     0.010 C 
ATOM      8  C   UNL     1      10.949  54.750   1.429  1.00  0.00     0.025 C 
BRANCH   8   9
ATOM      9  C   UNL     1      11.592  54.739   0.105  1.00  0.00     0.064 C 
ATOM     10  O   UNL     1      10.881  54.647  -0.930  1.00  0.00    -0.545 OA
ATOM     11  O   UNL     1      12.974  54.827  -0.023  1.00  0.00    -0.545 OA
ENDBRANCH   8   9
ENDBRANCH   1   7
BRANCH   6  12
ATOM     12  O   UNL     1       9.167  55.077   7.676  1.00  0.00    -0.508 OA
ATOM     13  H   UNL     1       9.067  55.936   8.203  1.00  0.00     0.293 HD
ENDBRANCH   6  12
TORSDOF 3
ENDMDL
MODEL 8
REMARK VINA RESULT:    -5.603     12.443     13.604
REMARK INTER + INTRA:          -6.562
REMARK INTER:                  -6.422
REMARK INTRA:                  -0.140
REMARK UNBOUND:                -0.140
REMARK SMILES O=C([O-])C=Cc1ccc(O)cc1
REMARK SMILES IDX 6 1 7 2 12 3 8 4 11 5 9 6 5 7 4 8 2 9 1 10 3 11 10 12
REMARK H PARENT 10 13
REMARK Flexibility Score: inf
ROOT
ATOM      1  C   UNL     1      11.757  55.740   6.533  1.00  0.00    -0.025 A 
ATOM      2  C   UNL     1      11.520  55.747   5.147  1.00  0.00     0.012 A 
ATOM      3  C   UNL     1      10.709  55.365   7.400  1.00  0.00     0.012 A 
ATOM      4  C   UNL     1      10.275  55.366   4.637  1.00  0.00     0.047 A 
ATOM      5  C   UNL     1       9.467  54.986   6.884  1.00  0.00     0.047 A 
ATOM      6  C   UNL     1       9.247  54.983   5.502  1.00  0.00     0.115 A 
ENDROOT
BRANCH   1   7
ATOM      7  C   UNL     1      13.091  56.162   7.027  1.00  0.00     0.010 C 
ATOM      8  C   UNL     1      13.314  56.626   8.264  1.00  0.00     0.025 C 
BRANCH   8   9
ATOM      9  C   UNL     1      14.658  57.022   8.715  1.00  0.00     0.064 C 
ATOM     10  O   UNL     1      15.489  56.136   9.044  1.00  0.00    -0.545 OA
ATOM     11  O   UNL     1      15.026  58.362   8.786  1.00  0.00    -0.545 OA
ENDBRANCH   8   9
ENDBRANCH   1   7
BRANCH   6  12
ATOM     12  O   UNL     1       8.013  54.605   4.978  1.00  0.00    -0.508 OA
ATOM     13  H   UNL     1       7.922  54.274   4.024  1.00  0.00     0.293 HD
ENDBRANCH   6  12
TORSDOF 3
ENDMDL
MODEL 9
REMARK VINA RESULT:    -5.528     10.766     12.399
REMARK INTER + INTRA:          -6.476
REMARK INTER:                  -6.324
REMARK INTRA:                  -0.151
REMARK UNBOUND:                -0.140
REMARK SMILES O=C([O-])C=Cc1ccc(O)cc1
REMARK SMILES IDX 6 1 7 2 12 3 8 4 11 5 9 6 5 7 4 8 2 9 1 10 3 11 10 12
REMARK H PARENT 10 13
REMARK Flexibility Score: inf
ROOT
ATOM      1  C   UNL     1      10.961  55.390   4.740  1.00  0.00    -0.025 A 
ATOM      2  C   UNL     1      12.107  55.798   4.036  1.00  0.00     0.012 A 
ATOM      3  C   UNL     1       9.809  55.027   4.012  1.00  0.00     0.012 A 
ATOM      4  C   UNL     1      12.113  55.819   2.638  1.00  0.00     0.047 A 
ATOM      5  C   UNL     1       9.820  55.050   2.614  1.00  0.00     0.047 A 
ATOM      6  C   UNL     1      10.972  55.444   1.924  1.00  0.00     0.115 A 
ENDROOT
BRANCH   1   7
ATOM      7  C   UNL     1      11.000  55.394   6.224  1.00  0.00     0.010 C 
ATOM      8  C   UNL     1      11.993  55.937   6.941  1.00  0.00     0.025 C 
BRANCH   8   9
ATOM      9  C   UNL     1      11.983  55.928   8.413  1.00  0.00     0.064 C 
ATOM     10  O   UNL     1      13.060  55.747   9.040  1.00  0.00    -0.545 OA
ATOM     11  O   UNL     1      10.803  56.113   9.125  1.00  0.00    -0.545 OA
ENDBRANCH   8   9
ENDBRANCH   1   7
BRANCH   6  12
ATOM     12  O   UNL     1      10.993  55.470   0.531  1.00  0.00    -0.508 OA
ATOM     13  H   UNL     1      11.156  54.629  -0.011  1.00  0.00     0.293 HD
ENDBRANCH   6  12
TORSDOF 3
ENDMDL
