MODEL 1
REMARK VINA RESULT:    -3.660      0.000      0.000
REMARK INTER + INTRA:          -4.766
REMARK INTER:                  -4.409
REMARK INTRA:                  -0.358
REMARK UNBOUND:                -0.358
REMARK SMILES Oc1cc(O)c2c(c1)O[C@@H](c1ccc(O)c(O)c1)[C@H](O)C2
REMARK SMILES IDX 21 1 19 2 10 3 9 4 7 5 8 6 2 7 3 8 4 9 6 10 20 11 11 13
REMARK SMILES IDX 18 14 12 15 16 16 13 17 14 18 17 19 15 21 5 23 1 25
REMARK H PARENT 20 12 17 20 15 22 5 24 1 26
REMARK Flexibility Score: inf
ROOT
ATOM      1  C   UNL     1       9.639   9.322  28.257  1.00  0.00     0.079 C 
ATOM      2  C   UNL     1      10.505   8.063  28.060  1.00  0.00     0.164 C 
ATOM      3  C   UNL     1      11.980   8.457  27.851  1.00  0.00     0.232 C 
ATOM      4  O   UNL     1      12.429   9.244  28.954  1.00  0.00    -0.482 OA
ATOM      5  C   UNL     1      11.612  10.198  29.574  1.00  0.00     0.131 A 
ATOM      6  C   UNL     1      12.176  11.060  30.518  1.00  0.00     0.093 A 
ATOM      7  C   UNL     1      11.393  12.032  31.143  1.00  0.00     0.122 A 
ATOM      8  C   UNL     1      10.038  12.150  30.813  1.00  0.00     0.092 A 
ATOM      9  C   UNL     1       9.456  11.296  29.869  1.00  0.00     0.126 A 
ATOM     10  C   UNL     1      10.236  10.281  29.265  1.00  0.00     0.039 A 
ENDROOT
BRANCH   2  11
ATOM     11  O   UNL     1      10.022   7.292  26.988  1.00  0.00    -0.389 OA
ATOM     12  H   UNL     1       9.277   7.796  26.566  1.00  0.00     0.211 HD
ENDBRANCH   2  11
BRANCH   3  13
ATOM     13  C   UNL     1      12.857   7.236  27.708  1.00  0.00    -0.001 A 
ATOM     14  C   UNL     1      12.867   6.249  28.708  1.00  0.00     0.057 A 
ATOM     15  C   UNL     1      13.710   7.095  26.599  1.00  0.00     0.012 A 
ATOM     16  C   UNL     1      13.698   5.129  28.596  1.00  0.00     0.157 A 
ATOM     17  C   UNL     1      14.541   5.978  26.484  1.00  0.00     0.050 A 
ATOM     18  C   UNL     1      14.538   4.990  27.478  1.00  0.00     0.157 A 
BRANCH  16  19
ATOM     19  O   UNL     1      13.677   4.166  29.605  1.00  0.00    -0.504 OA
ATOM     20  H   UNL     1      13.112   3.328  29.538  1.00  0.00     0.293 HD
ENDBRANCH  16  19
BRANCH  18  21
ATOM     21  O   UNL     1      15.368   3.875  27.361  1.00  0.00    -0.504 OA
ATOM     22  H   UNL     1      15.503   3.407  26.473  1.00  0.00     0.293 HD
ENDBRANCH  18  21
ENDBRANCH   3  13
BRANCH   9  23
ATOM     23  O   UNL     1       8.111  11.491  29.548  1.00  0.00    -0.507 OA
ATOM     24  H   UNL     1       7.696  11.183  28.679  1.00  0.00     0.293 HD
ENDBRANCH   9  23
BRANCH   7  25
ATOM     25  O   UNL     1      11.972  12.881  32.083  1.00  0.00    -0.508 OA
ATOM     26  H   UNL     1      12.070  13.875  31.910  1.00  0.00     0.293 HD
ENDBRANCH   7  25
TORSDOF 6
ENDMDL
MODEL 2
REMARK VINA RESULT:    -3.141      1.421      3.110
REMARK INTER + INTRA:          -4.141
REMARK INTER:                  -3.792
REMARK INTRA:                  -0.349
REMARK UNBOUND:                -0.358
REMARK SMILES Oc1cc(O)c2c(c1)O[C@@H](c1ccc(O)c(O)c1)[C@H](O)C2
REMARK SMILES IDX 21 1 19 2 10 3 9 4 7 5 8 6 2 7 3 8 4 9 6 10 20 11 11 13
REMARK SMILES IDX 18 14 12 15 16 16 13 17 14 18 17 19 15 21 5 23 1 25
REMARK H PARENT 20 12 17 20 15 22 5 24 1 26
REMARK Flexibility Score: inf
ROOT
ATOM      1  C   UNL     1      12.877  10.130  30.715  1.00  0.00     0.079 C 
ATOM      2  C   UNL     1      13.564   9.063  29.842  1.00  0.00     0.164 C 
ATOM      3  C   UNL     1      12.655   7.827  29.696  1.00  0.00     0.232 C 
ATOM      4  O   UNL     1      11.392   8.219  29.161  1.00  0.00    -0.482 OA
ATOM      5  C   UNL     1      10.762   9.413  29.529  1.00  0.00     0.131 A 
ATOM      6  C   UNL     1       9.447   9.640  29.114  1.00  0.00     0.093 A 
ATOM      7  C   UNL     1       8.784  10.814  29.477  1.00  0.00     0.122 A 
ATOM      8  C   UNL     1       9.438  11.764  30.270  1.00  0.00     0.092 A 
ATOM      9  C   UNL     1      10.754  11.553  30.697  1.00  0.00     0.126 A 
ATOM     10  C   UNL     1      11.444  10.385  30.295  1.00  0.00     0.039 A 
ENDROOT
BRANCH   2  11
ATOM     11  O   UNL     1      14.818   8.719  30.376  1.00  0.00    -0.389 OA
ATOM     12  H   UNL     1      14.672   8.015  31.060  1.00  0.00     0.211 HD
ENDBRANCH   2  11
BRANCH   3  13
ATOM     13  C   UNL     1      13.287   6.787  28.801  1.00  0.00    -0.001 A 
ATOM     14  C   UNL     1      13.718   7.133  27.509  1.00  0.00     0.057 A 
ATOM     15  C   UNL     1      13.405   5.453  29.228  1.00  0.00     0.012 A 
ATOM     16  C   UNL     1      14.278   6.169  26.663  1.00  0.00     0.157 A 
ATOM     17  C   UNL     1      13.963   4.488  28.386  1.00  0.00     0.050 A 
ATOM     18  C   UNL     1      14.404   4.840  27.103  1.00  0.00     0.157 A 
BRANCH  16  19
ATOM     19  O   UNL     1      14.701   6.549  25.390  1.00  0.00    -0.504 OA
ATOM     20  H   UNL     1      14.220   7.259  24.852  1.00  0.00     0.293 HD
ENDBRANCH  16  19
BRANCH  18  21
ATOM     21  O   UNL     1      14.962   3.875  26.265  1.00  0.00    -0.504 OA
ATOM     22  H   UNL     1      14.524   2.972  26.133  1.00  0.00     0.293 HD
ENDBRANCH  18  21
ENDBRANCH   3  13
BRANCH   9  23
ATOM     23  O   UNL     1      11.338  12.516  31.524  1.00  0.00    -0.507 OA
ATOM     24  H   UNL     1      11.440  13.487  31.261  1.00  0.00     0.293 HD
ENDBRANCH   9  23
BRANCH   7  25
ATOM     25  O   UNL     1       7.474  11.024  29.051  1.00  0.00    -0.508 OA
ATOM     26  H   UNL     1       6.908  10.266  28.688  1.00  0.00     0.293 HD
ENDBRANCH   7  25
TORSDOF 6
ENDMDL
