MODEL 1
REMARK VINA RESULT:    -5.257      0.000      0.000
REMARK INTER + INTRA:          -6.074
REMARK INTER:                  -6.026
REMARK INTRA:                  -0.048
REMARK UNBOUND:                -0.048
REMARK SMILES O=C([O-])c1cc(O)c(O)c(O)c1
REMARK SMILES IDX 4 1 5 2 12 3 6 4 10 5 8 6 2 7 1 8 3 9 7 10 11 12 9 14
REMARK H PARENT 7 11 11 13 9 15
REMARK Flexibility Score: inf
ROOT
ATOM      1  C   UNL     1     117.599 117.012 109.849  1.00  0.00     0.005 A 
ATOM      2  C   UNL     1     116.591 117.775 109.237  1.00  0.00     0.060 A 
ATOM      3  C   UNL     1     117.916 117.253 111.197  1.00  0.00     0.060 A 
ATOM      4  C   UNL     1     115.907 118.764 109.959  1.00  0.00     0.162 A 
ATOM      5  C   UNL     1     117.235 118.240 111.923  1.00  0.00     0.162 A 
ATOM      6  C   UNL     1     116.231 118.997 111.306  1.00  0.00     0.200 A 
ENDROOT
BRANCH   1   7
ATOM      7  C   UNL     1     118.316 115.970 109.080  1.00  0.00     0.072 C 
ATOM      8  O   UNL     1     118.770 116.217 107.931  1.00  0.00    -0.545 OA
ATOM      9  O   UNL     1     118.498 114.699 109.617  1.00  0.00    -0.545 OA
ENDBRANCH   1   7
BRANCH   4  10
ATOM     10  O   UNL     1     114.908 119.516 109.342  1.00  0.00    -0.504 OA
ATOM     11  H   UNL     1     114.989 120.519 109.235  1.00  0.00     0.293 HD
ENDBRANCH   4  10
BRANCH   5  12
ATOM     12  O   UNL     1     117.553 118.476 113.259  1.00  0.00    -0.504 OA
ATOM     13  H   UNL     1     117.664 119.417 113.620  1.00  0.00     0.293 HD
ENDBRANCH   5  12
BRANCH   6  14
ATOM     14  O   UNL     1     115.566 119.976 112.045  1.00  0.00    -0.502 OA
ATOM     15  H   UNL     1     115.462 120.927 111.710  1.00  0.00     0.293 HD
ENDBRANCH   6  14
TORSDOF 4
ENDMDL
MODEL 2
REMARK VINA RESULT:    -5.246      0.088      2.596
REMARK INTER + INTRA:          -6.060
REMARK INTER:                  -6.012
REMARK INTRA:                  -0.048
REMARK UNBOUND:                -0.048
REMARK SMILES O=C([O-])c1cc(O)c(O)c(O)c1
REMARK SMILES IDX 4 1 5 2 12 3 6 4 10 5 8 6 2 7 1 8 3 9 7 10 11 12 9 14
REMARK H PARENT 7 11 11 13 9 15
REMARK Flexibility Score: inf
ROOT
ATOM      1  C   UNL     1     117.551 117.014 109.923  1.00  0.00     0.005 A 
ATOM      2  C   UNL     1     117.857 117.272 111.269  1.00  0.00     0.060 A 
ATOM      3  C   UNL     1     116.555 117.777 109.290  1.00  0.00     0.060 A 
ATOM      4  C   UNL     1     117.180 118.278 111.975  1.00  0.00     0.162 A 
ATOM      5  C   UNL     1     115.876 118.784 109.990  1.00  0.00     0.162 A 
ATOM      6  C   UNL     1     116.187 119.035 111.332  1.00  0.00     0.200 A 
ENDROOT
BRANCH   1   7
ATOM      7  C   UNL     1     118.270 115.951 109.185  1.00  0.00     0.072 C 
ATOM      8  O   UNL     1     118.440 114.814 109.701  1.00  0.00    -0.545 OA
ATOM      9  O   UNL     1     118.769 116.193 107.910  1.00  0.00    -0.545 OA
ENDBRANCH   1   7
BRANCH   4  10
ATOM     10  O   UNL     1     117.492 118.525 113.311  1.00  0.00    -0.504 OA
ATOM     11  H   UNL     1     118.411 118.844 113.591  1.00  0.00     0.293 HD
ENDBRANCH   4  10
BRANCH   5  12
ATOM     12  O   UNL     1     114.889 119.538 109.358  1.00  0.00    -0.504 OA
ATOM     13  H   UNL     1     114.139 119.975 109.882  1.00  0.00     0.293 HD
ENDBRANCH   5  12
BRANCH   6  14
ATOM     14  O   UNL     1     115.499 120.041 112.013  1.00  0.00    -0.502 OA
ATOM     15  H   UNL     1     115.224 119.944 112.983  1.00  0.00     0.293 HD
ENDBRANCH   6  14
TORSDOF 4
ENDMDL
MODEL 3
REMARK VINA RESULT:    -5.244      1.934      2.792
REMARK INTER + INTRA:          -6.059
REMARK INTER:                  -6.008
REMARK INTRA:                  -0.051
REMARK UNBOUND:                -0.048
REMARK SMILES O=C([O-])c1cc(O)c(O)c(O)c1
REMARK SMILES IDX 4 1 5 2 12 3 6 4 10 5 8 6 2 7 1 8 3 9 7 10 11 12 9 14
REMARK H PARENT 7 11 11 13 9 15
REMARK Flexibility Score: inf
ROOT
ATOM      1  C   UNL     1     117.902 115.651 109.667  1.00  0.00     0.005 A 
ATOM      2  C   UNL     1     117.079 114.754 110.368  1.00  0.00     0.060 A 
ATOM      3  C   UNL     1     118.118 116.935 110.196  1.00  0.00     0.060 A 
ATOM      4  C   UNL     1     116.481 115.130 111.579  1.00  0.00     0.162 A 
ATOM      5  C   UNL     1     117.523 117.316 111.407  1.00  0.00     0.162 A 
ATOM      6  C   UNL     1     116.704 116.415 112.099  1.00  0.00     0.200 A 
ENDROOT
BRANCH   1   7
ATOM      7  C   UNL     1     118.530 115.247 108.389  1.00  0.00     0.072 C 
ATOM      8  O   UNL     1     118.839 116.110 107.525  1.00  0.00    -0.545 OA
ATOM      9  O   UNL     1     118.787 113.906 108.124  1.00  0.00    -0.545 OA
ENDBRANCH   1   7
BRANCH   4  10
ATOM     10  O   UNL     1     115.666 114.231 112.265  1.00  0.00    -0.504 OA
ATOM     11  H   UNL     1     116.015 113.687 113.044  1.00  0.00     0.293 HD
ENDBRANCH   4  10
BRANCH   5  12
ATOM     12  O   UNL     1     117.741 118.590 111.928  1.00  0.00    -0.504 OA
ATOM     13  H   UNL     1     117.140 119.371 111.689  1.00  0.00     0.293 HD
ENDBRANCH   5  12
BRANCH   6  14
ATOM     14  O   UNL     1     116.120 116.814 113.303  1.00  0.00    -0.502 OA
ATOM     15  H   UNL     1     116.435 117.633 113.809  1.00  0.00     0.293 HD
ENDBRANCH   6  14
TORSDOF 4
ENDMDL
MODEL 4
REMARK VINA RESULT:    -5.235     15.821     16.466
REMARK INTER + INTRA:          -6.048
REMARK INTER:                  -5.998
REMARK INTRA:                  -0.051
REMARK UNBOUND:                -0.048
REMARK SMILES O=C([O-])c1cc(O)c(O)c(O)c1
REMARK SMILES IDX 4 1 5 2 12 3 6 4 10 5 8 6 2 7 1 8 3 9 7 10 11 12 9 14
REMARK H PARENT 7 11 11 13 9 15
REMARK Flexibility Score: inf
ROOT
ATOM      1  C   UNL     1     104.820 107.079 109.655  1.00  0.00     0.005 A 
ATOM      2  C   UNL     1     104.565 105.803 110.184  1.00  0.00     0.060 A 
ATOM      3  C   UNL     1     105.685 107.945 110.347  1.00  0.00     0.060 A 
ATOM      4  C   UNL     1     105.164 105.395 111.385  1.00  0.00     0.162 A 
ATOM      5  C   UNL     1     106.287 107.541 111.546  1.00  0.00     0.162 A 
ATOM      6  C   UNL     1     106.028 106.268 112.067  1.00  0.00     0.200 A 
ENDROOT
BRANCH   1   7
ATOM      7  C   UNL     1     104.184 107.502 108.388  1.00  0.00     0.072 C 
ATOM      8  O   UNL     1     103.875 106.653 107.510  1.00  0.00    -0.545 OA
ATOM      9  O   UNL     1     103.918 108.846 108.147  1.00  0.00    -0.545 OA
ENDBRANCH   1   7
BRANCH   4  10
ATOM     10  O   UNL     1     104.904 104.126 111.900  1.00  0.00    -0.504 OA
ATOM     11  H   UNL     1     105.644 103.451 112.047  1.00  0.00     0.293 HD
ENDBRANCH   4  10
BRANCH   5  12
ATOM     12  O   UNL     1     107.144 108.403 112.229  1.00  0.00    -0.504 OA
ATOM     13  H   UNL     1     107.508 109.244 111.794  1.00  0.00     0.293 HD
ENDBRANCH   5  12
BRANCH   6  14
ATOM     14  O   UNL     1     106.636 105.885 113.264  1.00  0.00    -0.502 OA
ATOM     15  H   UNL     1     107.521 106.274 113.567  1.00  0.00     0.293 HD
ENDBRANCH   6  14
TORSDOF 4
ENDMDL
MODEL 5
REMARK VINA RESULT:    -5.229     16.569     17.520
REMARK INTER + INTRA:          -6.041
REMARK INTER:                  -5.993
REMARK INTRA:                  -0.048
REMARK UNBOUND:                -0.048
REMARK SMILES O=C([O-])c1cc(O)c(O)c(O)c1
REMARK SMILES IDX 4 1 5 2 12 3 6 4 10 5 8 6 2 7 1 8 3 9 7 10 11 12 9 14
REMARK H PARENT 7 11 11 13 9 15
REMARK Flexibility Score: inf
ROOT
ATOM      1  C   UNL     1     105.224 105.928 109.977  1.00  0.00     0.005 A 
ATOM      2  C   UNL     1     104.907 105.612 111.309  1.00  0.00     0.060 A 
ATOM      3  C   UNL     1     106.162 105.136 109.292  1.00  0.00     0.060 A 
ATOM      4  C   UNL     1     105.516 104.523 111.949  1.00  0.00     0.162 A 
ATOM      5  C   UNL     1     106.773 104.046 109.927  1.00  0.00     0.162 A 
ATOM      6  C   UNL     1     106.452 103.738 111.255  1.00  0.00     0.200 A 
ENDROOT
BRANCH   1   7
ATOM      7  C   UNL     1     104.577 107.078 109.308  1.00  0.00     0.072 C 
ATOM      8  O   UNL     1     104.546 108.209 109.864  1.00  0.00    -0.545 OA
ATOM      9  O   UNL     1     103.991 106.928 108.056  1.00  0.00    -0.545 OA
ENDBRANCH   1   7
BRANCH   4  10
ATOM     10  O   UNL     1     105.194 104.219 113.271  1.00  0.00    -0.504 OA
ATOM     11  H   UNL     1     104.577 104.809 113.816  1.00  0.00     0.293 HD
ENDBRANCH   4  10
BRANCH   5  12
ATOM     12  O   UNL     1     107.702 103.264 109.244  1.00  0.00    -0.504 OA
ATOM     13  H   UNL     1     108.268 103.645 108.494  1.00  0.00     0.293 HD
ENDBRANCH   5  12
BRANCH   6  14
ATOM     14  O   UNL     1     107.072 102.649 111.870  1.00  0.00    -0.502 OA
ATOM     15  H   UNL     1     106.592 102.069 112.548  1.00  0.00     0.293 HD
ENDBRANCH   6  14
TORSDOF 4
ENDMDL
MODEL 6
REMARK VINA RESULT:    -5.221      1.934      2.830
REMARK INTER + INTRA:          -6.033
REMARK INTER:                  -5.982
REMARK INTRA:                  -0.051
REMARK UNBOUND:                -0.048
REMARK SMILES O=C([O-])c1cc(O)c(O)c(O)c1
REMARK SMILES IDX 4 1 5 2 12 3 6 4 10 5 8 6 2 7 1 8 3 9 7 10 11 12 9 14
REMARK H PARENT 7 11 11 13 9 15
REMARK Flexibility Score: inf
ROOT
ATOM      1  C   UNL     1     117.856 115.670 109.626  1.00  0.00     0.005 A 
ATOM      2  C   UNL     1     118.064 116.931 110.210  1.00  0.00     0.060 A 
ATOM      3  C   UNL     1     117.032 114.741 110.284  1.00  0.00     0.060 A 
ATOM      4  C   UNL     1     117.460 117.261 111.432  1.00  0.00     0.162 A 
ATOM      5  C   UNL     1     116.425 115.066 111.505  1.00  0.00     0.162 A 
ATOM      6  C   UNL     1     116.638 116.325 112.081  1.00  0.00     0.200 A 
ENDROOT
BRANCH   1   7
ATOM      7  C   UNL     1     118.496 115.329 108.337  1.00  0.00     0.072 C 
ATOM      8  O   UNL     1     118.817 116.234 107.520  1.00  0.00    -0.545 OA
ATOM      9  O   UNL     1     118.755 114.003 108.007  1.00  0.00    -0.545 OA
ENDBRANCH   1   7
BRANCH   4  10
ATOM     10  O   UNL     1     117.674 118.515 112.002  1.00  0.00    -0.504 OA
ATOM     11  H   UNL     1     118.365 118.657 112.728  1.00  0.00     0.293 HD
ENDBRANCH   4  10
BRANCH   5  12
ATOM     12  O   UNL     1     115.609 114.141 112.154  1.00  0.00    -0.504 OA
ATOM     13  H   UNL     1     115.533 113.183 111.833  1.00  0.00     0.293 HD
ENDBRANCH   5  12
BRANCH   6  14
ATOM     14  O   UNL     1     116.026 116.629 113.297  1.00  0.00    -0.502 OA
ATOM     15  H   UNL     1     116.206 116.095 114.140  1.00  0.00     0.293 HD
ENDBRANCH   6  14
TORSDOF 4
ENDMDL
MODEL 7
REMARK VINA RESULT:    -5.214     15.776     16.430
REMARK INTER + INTRA:          -6.024
REMARK INTER:                  -5.973
REMARK INTRA:                  -0.051
REMARK UNBOUND:                -0.048
REMARK SMILES O=C([O-])c1cc(O)c(O)c(O)c1
REMARK SMILES IDX 4 1 5 2 12 3 6 4 10 5 8 6 2 7 1 8 3 9 7 10 11 12 9 14
REMARK H PARENT 7 11 11 13 9 15
REMARK Flexibility Score: inf
ROOT
ATOM      1  C   UNL     1     104.830 107.069 109.632  1.00  0.00     0.005 A 
ATOM      2  C   UNL     1     105.699 107.976 110.261  1.00  0.00     0.060 A 
ATOM      3  C   UNL     1     104.592 105.822 110.234  1.00  0.00     0.060 A 
ATOM      4  C   UNL     1     106.322 107.645 111.473  1.00  0.00     0.162 A 
ATOM      5  C   UNL     1     105.212 105.486 111.445  1.00  0.00     0.162 A 
ATOM      6  C   UNL     1     106.077 106.395 112.066  1.00  0.00     0.200 A 
ENDROOT
BRANCH   1   7
ATOM      7  C   UNL     1     104.176 107.427 108.353  1.00  0.00     0.072 C 
ATOM      8  O   UNL     1     103.874 106.535 107.516  1.00  0.00    -0.545 OA
ATOM      9  O   UNL     1     103.886 108.754 108.057  1.00  0.00    -0.545 OA
ENDBRANCH   1   7
BRANCH   4  10
ATOM     10  O   UNL     1     107.183 108.552 112.088  1.00  0.00    -0.504 OA
ATOM     11  H   UNL     1     107.095 108.786 113.069  1.00  0.00     0.293 HD
ENDBRANCH   4  10
BRANCH   5  12
ATOM     12  O   UNL     1     104.973 104.247 112.039  1.00  0.00    -0.504 OA
ATOM     13  H   UNL     1     104.816 104.158 113.037  1.00  0.00     0.293 HD
ENDBRANCH   5  12
BRANCH   6  14
ATOM     14  O   UNL     1     106.685 106.042 113.272  1.00  0.00    -0.502 OA
ATOM     15  H   UNL     1     106.836 105.075 113.536  1.00  0.00     0.293 HD
ENDBRANCH   6  14
TORSDOF 4
ENDMDL
MODEL 8
REMARK VINA RESULT:    -5.122     17.142     17.445
REMARK INTER + INTRA:          -5.919
REMARK INTER:                  -5.867
REMARK INTRA:                  -0.051
REMARK UNBOUND:                -0.048
REMARK SMILES O=C([O-])c1cc(O)c(O)c(O)c1
REMARK SMILES IDX 4 1 5 2 12 3 6 4 10 5 8 6 2 7 1 8 3 9 7 10 11 12 9 14
REMARK H PARENT 7 11 11 13 9 15
REMARK Flexibility Score: inf
ROOT
ATOM      1  C   UNL     1     107.796 103.113 110.768  1.00  0.00     0.005 A 
ATOM      2  C   UNL     1     107.240 103.869 109.722  1.00  0.00     0.060 A 
ATOM      3  C   UNL     1     107.146 103.092 112.015  1.00  0.00     0.060 A 
ATOM      4  C   UNL     1     106.055 104.593 109.916  1.00  0.00     0.162 A 
ATOM      5  C   UNL     1     105.961 103.813 112.213  1.00  0.00     0.162 A 
ATOM      6  C   UNL     1     105.414 104.564 111.165  1.00  0.00     0.200 A 
ENDROOT
BRANCH   1   7
ATOM      7  C   UNL     1     109.047 102.352 110.557  1.00  0.00     0.072 C 
ATOM      8  O   UNL     1     109.400 102.008 109.397  1.00  0.00    -0.545 OA
ATOM      9  O   UNL     1     109.851 102.004 111.636  1.00  0.00    -0.545 OA
ENDBRANCH   1   7
BRANCH   4  10
ATOM     10  O   UNL     1     105.514 105.340 108.871  1.00  0.00    -0.504 OA
ATOM     11  H   UNL     1     106.013 106.120 108.461  1.00  0.00     0.293 HD
ENDBRANCH   4  10
BRANCH   5  12
ATOM     12  O   UNL     1     105.321 103.789 113.451  1.00  0.00    -0.504 OA
ATOM     13  H   UNL     1     104.371 104.125 113.563  1.00  0.00     0.293 HD
ENDBRANCH   5  12
BRANCH   6  14
ATOM     14  O   UNL     1     104.234 105.276 111.383  1.00  0.00    -0.502 OA
ATOM     15  H   UNL     1     104.178 106.280 111.252  1.00  0.00     0.293 HD
ENDBRANCH   6  14
TORSDOF 4
ENDMDL
MODEL 9
REMARK VINA RESULT:    -5.100      2.158      4.842
REMARK INTER + INTRA:          -5.893
REMARK INTER:                  -5.842
REMARK INTRA:                  -0.051
REMARK UNBOUND:                -0.048
REMARK SMILES O=C([O-])c1cc(O)c(O)c(O)c1
REMARK SMILES IDX 4 1 5 2 12 3 6 4 10 5 8 6 2 7 1 8 3 9 7 10 11 12 9 14
REMARK H PARENT 7 11 11 13 9 15
REMARK Flexibility Score: inf
ROOT
ATOM      1  C   UNL     1     117.506 116.599 110.497  1.00  0.00     0.005 A 
ATOM      2  C   UNL     1     116.727 115.784 111.335  1.00  0.00     0.060 A 
ATOM      3  C   UNL     1     118.233 116.006 109.451  1.00  0.00     0.060 A 
ATOM      4  C   UNL     1     116.673 114.398 111.134  1.00  0.00     0.162 A 
ATOM      5  C   UNL     1     118.182 114.621 109.244  1.00  0.00     0.162 A 
ATOM      6  C   UNL     1     117.404 113.815 110.084  1.00  0.00     0.200 A 
ENDROOT
BRANCH   1   7
ATOM      7  C   UNL     1     117.558 118.062 110.717  1.00  0.00     0.072 C 
ATOM      8  O   UNL     1     117.742 118.850 109.751  1.00  0.00    -0.545 OA
ATOM      9  O   UNL     1     117.403 118.589 111.994  1.00  0.00    -0.545 OA
ENDBRANCH   1   7
BRANCH   4  10
ATOM     10  O   UNL     1     115.897 113.598 111.972  1.00  0.00    -0.504 OA
ATOM     11  H   UNL     1     114.922 113.805 112.148  1.00  0.00     0.293 HD
ENDBRANCH   4  10
BRANCH   5  12
ATOM     12  O   UNL     1     118.905 114.036 108.206  1.00  0.00    -0.504 OA
ATOM     13  H   UNL     1     118.811 113.052 107.982  1.00  0.00     0.293 HD
ENDBRANCH   5  12
BRANCH   6  14
ATOM     14  O   UNL     1     117.366 112.437 109.863  1.00  0.00    -0.502 OA
ATOM     15  H   UNL     1     117.176 112.043 108.949  1.00  0.00     0.293 HD
ENDBRANCH   6  14
TORSDOF 4
ENDMDL
