MODEL 1
REMARK VINA RESULT:    -5.530      0.000      0.000
REMARK INTER + INTRA:          -5.530
REMARK INTER:                  -5.530
REMARK INTRA:                   0.000
REMARK UNBOUND:                 0.000
REMARK SMILES O=c1ccc2ccc3occc3c2o1
REMARK SMILES IDX 6 1 7 2 8 3 12 4 11 5 10 6 9 7 13 8 5 9 4 10 3 11 2 12 1 13
REMARK SMILES IDX 14 14
REMARK H PARENT
REMARK Flexibility Score: inf
ROOT
ATOM      1  C   UNL     1      19.194  24.848  37.515  1.00  0.00     0.016 A 
ATOM      2  C   UNL     1      19.128  26.168  37.999  1.00  0.00     0.048 A 
ATOM      3  C   UNL     1      19.628  26.425  39.275  1.00  0.00     0.137 A 
ATOM      4  C   UNL     1      20.171  25.436  40.051  1.00  0.00     0.064 A 
ATOM      5  C   UNL     1      20.560  26.025  41.233  1.00  0.00     0.054 A 
ATOM      6  C   UNL     1      20.217  27.365  41.086  1.00  0.00     0.196 A 
ATOM      7  O   UNL     1      19.662  27.573  39.906  1.00  0.00    -0.464 OA
ATOM      8  C   UNL     1      20.254  24.119  39.609  1.00  0.00     0.149 A 
ATOM      9  C   UNL     1      19.755  23.823  38.314  1.00  0.00     0.018 A 
ATOM     10  C   UNL     1      19.836  22.502  37.864  1.00  0.00     0.019 A 
ATOM     11  C   UNL     1      20.398  21.529  38.693  1.00  0.00     0.094 A 
ATOM     12  C   UNL     1      20.869  21.899  39.959  1.00  0.00     0.336 A 
ATOM     13  O   UNL     1      21.379  21.033  40.717  1.00  0.00    -0.246 OA
ATOM     14  O   UNL     1      20.783  23.163  40.368  1.00  0.00    -0.422 OA
ENDROOT
TORSDOF 0
ENDMDL
MODEL 2
REMARK VINA RESULT:    -5.492      1.626      2.934
REMARK INTER + INTRA:          -5.492
REMARK INTER:                  -5.492
REMARK INTRA:                   0.000
REMARK UNBOUND:                 0.000
REMARK SMILES O=c1ccc2ccc3occc3c2o1
REMARK SMILES IDX 6 1 7 2 8 3 12 4 11 5 10 6 9 7 13 8 5 9 4 10 3 11 2 12 1 13
REMARK SMILES IDX 14 14
REMARK H PARENT
REMARK Flexibility Score: inf
ROOT
ATOM      1  C   UNL     1      20.062  25.116  40.170  1.00  0.00     0.016 A 
ATOM      2  C   UNL     1      19.542  26.207  39.448  1.00  0.00     0.048 A 
ATOM      3  C   UNL     1      19.153  25.994  38.127  1.00  0.00     0.137 A 
ATOM      4  C   UNL     1      19.265  24.767  37.529  1.00  0.00     0.064 A 
ATOM      5  C   UNL     1      18.798  24.907  36.241  1.00  0.00     0.054 A 
ATOM      6  C   UNL     1      18.426  26.243  36.147  1.00  0.00     0.196 A 
ATOM      7  O   UNL     1      18.650  26.867  37.289  1.00  0.00    -0.464 OA
ATOM      8  C   UNL     1      19.774  23.663  38.209  1.00  0.00     0.149 A 
ATOM      9  C   UNL     1      20.179  23.845  39.556  1.00  0.00     0.018 A 
ATOM     10  C   UNL     1      20.690  22.741  40.244  1.00  0.00     0.019 A 
ATOM     11  C   UNL     1      20.785  21.510  39.591  1.00  0.00     0.094 A 
ATOM     12  C   UNL     1      20.364  21.410  38.259  1.00  0.00     0.336 A 
ATOM     13  O   UNL     1      20.442  20.307  37.657  1.00  0.00    -0.246 OA
ATOM     14  O   UNL     1      19.879  22.474  37.622  1.00  0.00    -0.422 OA
ENDROOT
TORSDOF 0
ENDMDL
MODEL 3
REMARK VINA RESULT:    -5.434      1.647      5.128
REMARK INTER + INTRA:          -5.434
REMARK INTER:                  -5.434
REMARK INTRA:                   0.000
REMARK UNBOUND:                 0.000
REMARK SMILES O=c1ccc2ccc3occc3c2o1
REMARK SMILES IDX 6 1 7 2 8 3 12 4 11 5 10 6 9 7 13 8 5 9 4 10 3 11 2 12 1 13
REMARK SMILES IDX 14 14
REMARK H PARENT
REMARK Flexibility Score: inf
ROOT
ATOM      1  C   UNL     1      20.760  23.311  40.508  1.00  0.00     0.016 A 
ATOM      2  C   UNL     1      20.896  21.971  40.100  1.00  0.00     0.048 A 
ATOM      3  C   UNL     1      20.408  21.614  38.843  1.00  0.00     0.137 A 
ATOM      4  C   UNL     1      19.810  22.525  38.015  1.00  0.00     0.064 A 
ATOM      5  C   UNL     1      19.449  21.849  36.872  1.00  0.00     0.054 A 
ATOM      6  C   UNL     1      19.866  20.541  37.093  1.00  0.00     0.196 A 
ATOM      7  O   UNL     1      20.435  20.432  38.279  1.00  0.00    -0.464 OA
ATOM      8  C   UNL     1      19.655  23.860  38.382  1.00  0.00     0.149 A 
ATOM      9  C   UNL     1      20.142  24.257  39.655  1.00  0.00     0.018 A 
ATOM     10  C   UNL     1      19.990  25.595  40.029  1.00  0.00     0.019 A 
ATOM     11  C   UNL     1      19.373  26.487  39.149  1.00  0.00     0.094 A 
ATOM     12  C   UNL     1      18.919  26.019  37.910  1.00  0.00     0.336 A 
ATOM     13  O   UNL     1      18.361  26.811  37.106  1.00  0.00    -0.246 OA
ATOM     14  O   UNL     1      19.073  24.740  37.572  1.00  0.00    -0.422 OA
ENDROOT
TORSDOF 0
ENDMDL
MODEL 4
REMARK VINA RESULT:    -5.372      3.458      5.187
REMARK INTER + INTRA:          -5.372
REMARK INTER:                  -5.372
REMARK INTRA:                   0.000
REMARK UNBOUND:                 0.000
REMARK SMILES O=c1ccc2ccc3occc3c2o1
REMARK SMILES IDX 6 1 7 2 8 3 12 4 11 5 10 6 9 7 13 8 5 9 4 10 3 11 2 12 1 13
REMARK SMILES IDX 14 14
REMARK H PARENT
REMARK Flexibility Score: inf
ROOT
ATOM      1  C   UNL     1      17.972  24.683  42.056  1.00  0.00     0.016 A 
ATOM      2  C   UNL     1      17.145  24.819  43.187  1.00  0.00     0.048 A 
ATOM      3  C   UNL     1      17.428  25.844  44.088  1.00  0.00     0.137 A 
ATOM      4  C   UNL     1      18.477  26.704  43.898  1.00  0.00     0.064 A 
ATOM      5  C   UNL     1      18.471  27.581  44.959  1.00  0.00     0.054 A 
ATOM      6  C   UNL     1      17.391  27.180  45.739  1.00  0.00     0.196 A 
ATOM      7  O   UNL     1      16.788  26.140  45.192  1.00  0.00    -0.464 OA
ATOM      8  C   UNL     1      19.318  26.602  42.793  1.00  0.00     0.149 A 
ATOM      9  C   UNL     1      19.057  25.570  41.855  1.00  0.00     0.018 A 
ATOM     10  C   UNL     1      19.898  25.463  40.744  1.00  0.00     0.019 A 
ATOM     11  C   UNL     1      20.954  26.364  40.594  1.00  0.00     0.094 A 
ATOM     12  C   UNL     1      21.147  27.357  41.563  1.00  0.00     0.336 A 
ATOM     13  O   UNL     1      22.094  28.177  41.441  1.00  0.00    -0.246 OA
ATOM     14  O   UNL     1      20.334  27.442  42.614  1.00  0.00    -0.422 OA
ENDROOT
TORSDOF 0
ENDMDL
MODEL 5
REMARK VINA RESULT:    -5.278      3.635      5.737
REMARK INTER + INTRA:          -5.278
REMARK INTER:                  -5.278
REMARK INTRA:                   0.000
REMARK UNBOUND:                 0.000
REMARK SMILES O=c1ccc2ccc3occc3c2o1
REMARK SMILES IDX 6 1 7 2 8 3 12 4 11 5 10 6 9 7 13 8 5 9 4 10 3 11 2 12 1 13
REMARK SMILES IDX 14 14
REMARK H PARENT
REMARK Flexibility Score: inf
ROOT
ATOM      1  C   UNL     1      17.878  23.958  42.811  1.00  0.00     0.016 A 
ATOM      2  C   UNL     1      18.640  23.914  41.629  1.00  0.00     0.048 A 
ATOM      3  C   UNL     1      19.379  25.044  41.281  1.00  0.00     0.137 A 
ATOM      4  C   UNL     1      19.376  26.175  42.055  1.00  0.00     0.064 A 
ATOM      5  C   UNL     1      20.198  27.086  41.431  1.00  0.00     0.054 A 
ATOM      6  C   UNL     1      20.653  26.427  40.294  1.00  0.00     0.196 A 
ATOM      7  O   UNL     1      20.146  25.209  40.232  1.00  0.00    -0.464 OA
ATOM      8  C   UNL     1      18.635  26.257  43.231  1.00  0.00     0.149 A 
ATOM      9  C   UNL     1      17.873  25.124  43.614  1.00  0.00     0.018 A 
ATOM     10  C   UNL     1      17.128  25.201  44.794  1.00  0.00     0.019 A 
ATOM     11  C   UNL     1      17.157  26.375  45.548  1.00  0.00     0.094 A 
ATOM     12  C   UNL     1      17.935  27.452  45.105  1.00  0.00     0.336 A 
ATOM     13  O   UNL     1      17.973  28.517  45.774  1.00  0.00    -0.246 OA
ATOM     14  O   UNL     1      18.638  27.358  43.978  1.00  0.00    -0.422 OA
ENDROOT
TORSDOF 0
ENDMDL
MODEL 6
REMARK VINA RESULT:    -5.182      3.117      4.116
REMARK INTER + INTRA:          -5.182
REMARK INTER:                  -5.182
REMARK INTRA:                   0.000
REMARK UNBOUND:                 0.000
REMARK SMILES O=c1ccc2ccc3occc3c2o1
REMARK SMILES IDX 6 1 7 2 8 3 12 4 11 5 10 6 9 7 13 8 5 9 4 10 3 11 2 12 1 13
REMARK SMILES IDX 14 14
REMARK H PARENT
REMARK Flexibility Score: inf
ROOT
ATOM      1  C   UNL     1      20.843  27.197  40.473  1.00  0.00     0.016 A 
ATOM      2  C   UNL     1      21.097  27.425  41.838  1.00  0.00     0.048 A 
ATOM      3  C   UNL     1      20.154  26.982  42.765  1.00  0.00     0.137 A 
ATOM      4  C   UNL     1      19.007  26.342  42.378  1.00  0.00     0.064 A 
ATOM      5  C   UNL     1      18.308  26.046  43.527  1.00  0.00     0.054 A 
ATOM      6  C   UNL     1      19.102  26.541  44.556  1.00  0.00     0.196 A 
ATOM      7  O   UNL     1      20.198  27.095  44.069  1.00  0.00    -0.464 OA
ATOM      8  C   UNL     1      18.719  26.098  41.037  1.00  0.00     0.149 A 
ATOM      9  C   UNL     1      19.659  26.535  40.069  1.00  0.00     0.018 A 
ATOM     10  C   UNL     1      19.375  26.292  38.722  1.00  0.00     0.019 A 
ATOM     11  C   UNL     1      18.192  25.635  38.377  1.00  0.00     0.094 A 
ATOM     12  C   UNL     1      17.314  25.234  39.392  1.00  0.00     0.336 A 
ATOM     13  O   UNL     1      16.244  24.640  39.097  1.00  0.00    -0.246 OA
ATOM     14  O   UNL     1      17.603  25.474  40.669  1.00  0.00    -0.422 OA
ENDROOT
TORSDOF 0
ENDMDL
MODEL 7
REMARK VINA RESULT:    -5.132      3.044      5.285
REMARK INTER + INTRA:          -5.132
REMARK INTER:                  -5.132
REMARK INTRA:                   0.000
REMARK UNBOUND:                 0.000
REMARK SMILES O=c1ccc2ccc3occc3c2o1
REMARK SMILES IDX 6 1 7 2 8 3 12 4 11 5 10 6 9 7 13 8 5 9 4 10 3 11 2 12 1 13
REMARK SMILES IDX 14 14
REMARK H PARENT
REMARK Flexibility Score: inf
ROOT
ATOM      1  C   UNL     1      20.757  27.078  42.110  1.00  0.00     0.016 A 
ATOM      2  C   UNL     1      21.024  26.415  40.898  1.00  0.00     0.048 A 
ATOM      3  C   UNL     1      20.139  25.419  40.485  1.00  0.00     0.137 A 
ATOM      4  C   UNL     1      19.037  25.080  41.224  1.00  0.00     0.064 A 
ATOM      5  C   UNL     1      18.392  24.075  40.540  1.00  0.00     0.054 A 
ATOM      6  C   UNL     1      19.168  23.871  39.404  1.00  0.00     0.196 A 
ATOM      7  O   UNL     1      20.205  24.688  39.400  1.00  0.00    -0.464 OA
ATOM      8  C   UNL     1      18.739  25.712  42.429  1.00  0.00     0.149 A 
ATOM      9  C   UNL     1      19.618  26.731  42.877  1.00  0.00     0.018 A 
ATOM     10  C   UNL     1      19.324  27.369  44.086  1.00  0.00     0.019 A 
ATOM     11  C   UNL     1      18.189  26.988  44.803  1.00  0.00     0.094 A 
ATOM     12  C   UNL     1      17.368  25.973  44.295  1.00  0.00     0.336 A 
ATOM     13  O   UNL     1      16.341  25.618  44.930  1.00  0.00    -0.246 OA
ATOM     14  O   UNL     1      17.666  25.378  43.141  1.00  0.00    -0.422 OA
ENDROOT
TORSDOF 0
ENDMDL
MODEL 8
REMARK VINA RESULT:    -5.121      3.225      4.963
REMARK INTER + INTRA:          -5.121
REMARK INTER:                  -5.121
REMARK INTRA:                   0.000
REMARK UNBOUND:                 0.000
REMARK SMILES O=c1ccc2ccc3occc3c2o1
REMARK SMILES IDX 6 1 7 2 8 3 12 4 11 5 10 6 9 7 13 8 5 9 4 10 3 11 2 12 1 13
REMARK SMILES IDX 14 14
REMARK H PARENT
REMARK Flexibility Score: inf
ROOT
ATOM      1  C   UNL     1      20.506  27.146  42.762  1.00  0.00     0.016 A 
ATOM      2  C   UNL     1      19.930  27.138  44.046  1.00  0.00     0.048 A 
ATOM      3  C   UNL     1      18.640  26.630  44.184  1.00  0.00     0.137 A 
ATOM      4  C   UNL     1      17.935  26.149  43.113  1.00  0.00     0.064 A 
ATOM      5  C   UNL     1      16.714  25.732  43.593  1.00  0.00     0.054 A 
ATOM      6  C   UNL     1      16.766  25.997  44.958  1.00  0.00     0.196 A 
ATOM      7  O   UNL     1      17.929  26.533  45.280  1.00  0.00    -0.464 OA
ATOM      8  C   UNL     1      18.469  26.140  41.827  1.00  0.00     0.149 A 
ATOM      9  C   UNL     1      19.782  26.649  41.652  1.00  0.00     0.018 A 
ATOM     10  C   UNL     1      20.323  26.643  40.364  1.00  0.00     0.019 A 
ATOM     11  C   UNL     1      19.565  26.141  39.304  1.00  0.00     0.094 A 
ATOM     12  C   UNL     1      18.276  25.655  39.556  1.00  0.00     0.336 A 
ATOM     13  O   UNL     1      17.581  25.200  38.611  1.00  0.00    -0.246 OA
ATOM     14  O   UNL     1      17.779  25.670  40.791  1.00  0.00    -0.422 OA
ENDROOT
TORSDOF 0
ENDMDL
MODEL 9
REMARK VINA RESULT:    -5.115      2.960      4.879
REMARK INTER + INTRA:          -5.115
REMARK INTER:                  -5.115
REMARK INTRA:                   0.000
REMARK UNBOUND:                 0.000
REMARK SMILES O=c1ccc2ccc3occc3c2o1
REMARK SMILES IDX 6 1 7 2 8 3 12 4 11 5 10 6 9 7 13 8 5 9 4 10 3 11 2 12 1 13
REMARK SMILES IDX 14 14
REMARK H PARENT
REMARK Flexibility Score: inf
ROOT
ATOM      1  C   UNL     1      16.194  25.331  40.760  1.00  0.00     0.016 A 
ATOM      2  C   UNL     1      16.590  24.504  39.691  1.00  0.00     0.048 A 
ATOM      3  C   UNL     1      17.940  24.178  39.580  1.00  0.00     0.137 A 
ATOM      4  C   UNL     1      18.871  24.638  40.473  1.00  0.00     0.064 A 
ATOM      5  C   UNL     1      20.089  24.134  40.075  1.00  0.00     0.054 A 
ATOM      6  C   UNL     1      19.803  23.385  38.938  1.00  0.00     0.196 A 
ATOM      7  O   UNL     1      18.511  23.430  38.668  1.00  0.00    -0.464 OA
ATOM      8  C   UNL     1      18.519  25.457  41.542  1.00  0.00     0.149 A 
ATOM      9  C   UNL     1      17.152  25.808  41.686  1.00  0.00     0.018 A 
ATOM     10  C   UNL     1      16.793  26.630  42.757  1.00  0.00     0.019 A 
ATOM     11  C   UNL     1      17.779  27.074  43.641  1.00  0.00     0.094 A 
ATOM     12  C   UNL     1      19.108  26.684  43.434  1.00  0.00     0.336 A 
ATOM     13  O   UNL     1      20.008  27.075  44.222  1.00  0.00    -0.246 OA
ATOM     14  O   UNL     1      19.429  25.900  42.406  1.00  0.00    -0.422 OA
ENDROOT
TORSDOF 0
ENDMDL
