MODEL 1
REMARK VINA RESULT:    -2.468      0.000      0.000
REMARK INTER + INTRA:          -2.468
REMARK INTER:                  -2.468
REMARK INTRA:                   0.000
REMARK UNBOUND:                 0.000
REMARK SMILES CC(=O)[O-]
REMARK SMILES IDX 1 1 2 2 3 3 4 4
REMARK H PARENT
REMARK Flexibility Score: inf
ROOT
ATOM      1  C   UNL     1       4.610  54.560   4.461  1.00  0.00     0.063 C 
ATOM      2  C   UNL     1       5.664  54.548   3.407  1.00  0.00     0.038 C 
ATOM      3  O   UNL     1       5.365  54.802   2.211  1.00  0.00    -0.550 OA
ATOM      4  O   UNL     1       6.970  54.201   3.732  1.00  0.00    -0.550 OA
ENDROOT
TORSDOF 0
ENDMDL
MODEL 2
REMARK VINA RESULT:    -2.463      0.114      1.622
REMARK INTER + INTRA:          -2.463
REMARK INTER:                  -2.463
REMARK INTRA:                   0.000
REMARK UNBOUND:                 0.000
REMARK SMILES CC(=O)[O-]
REMARK SMILES IDX 1 1 2 2 3 3 4 4
REMARK H PARENT
REMARK Flexibility Score: inf
ROOT
ATOM      1  C   UNL     1       4.633  54.622   4.563  1.00  0.00     0.063 C 
ATOM      2  C   UNL     1       5.693  54.521   3.519  1.00  0.00     0.038 C 
ATOM      3  O   UNL     1       6.871  54.218   3.842  1.00  0.00    -0.550 OA
ATOM      4  O   UNL     1       5.396  54.817   2.195  1.00  0.00    -0.550 OA
ENDROOT
TORSDOF 0
ENDMDL
MODEL 3
REMARK VINA RESULT:    -2.410      1.450      1.598
REMARK INTER + INTRA:          -2.410
REMARK INTER:                  -2.410
REMARK INTRA:                   0.000
REMARK UNBOUND:                 0.000
REMARK SMILES CC(=O)[O-]
REMARK SMILES IDX 1 1 2 2 3 3 4 4
REMARK H PARENT
REMARK Flexibility Score: inf
ROOT
ATOM      1  C   UNL     1       3.461  54.938   4.834  1.00  0.00     0.063 C 
ATOM      2  C   UNL     1       4.770  54.352   4.425  1.00  0.00     0.038 C 
ATOM      3  O   UNL     1       5.313  54.710   3.348  1.00  0.00    -0.550 OA
ATOM      4  O   UNL     1       5.365  53.368   5.204  1.00  0.00    -0.550 OA
ENDROOT
TORSDOF 0
ENDMDL
MODEL 4
REMARK VINA RESULT:    -2.332      7.399      7.615
REMARK INTER + INTRA:          -2.332
REMARK INTER:                  -2.332
REMARK INTRA:                   0.000
REMARK UNBOUND:                 0.000
REMARK SMILES CC(=O)[O-]
REMARK SMILES IDX 1 1 2 2 3 3 4 4
REMARK H PARENT
REMARK Flexibility Score: inf
ROOT
ATOM      1  C   UNL     1      -1.315  56.660   2.637  1.00  0.00     0.063 C 
ATOM      2  C   UNL     1      -1.301  57.079   4.068  1.00  0.00     0.038 C 
ATOM      3  O   UNL     1      -1.378  58.298   4.371  1.00  0.00    -0.550 OA
ATOM      4  O   UNL     1      -1.148  56.128   5.070  1.00  0.00    -0.550 OA
ENDROOT
TORSDOF 0
ENDMDL
MODEL 5
REMARK VINA RESULT:    -2.322     17.946     18.282
REMARK INTER + INTRA:          -2.322
REMARK INTER:                  -2.322
REMARK INTRA:                   0.000
REMARK UNBOUND:                 0.000
REMARK SMILES CC(=O)[O-]
REMARK SMILES IDX 1 1 2 2 3 3 4 4
REMARK H PARENT
REMARK Flexibility Score: inf
ROOT
ATOM      1  C   UNL     1      -8.234  66.218   2.999  1.00  0.00     0.063 C 
ATOM      2  C   UNL     1      -8.917  65.315   2.028  1.00  0.00     0.038 C 
ATOM      3  O   UNL     1      -9.124  64.110   2.326  1.00  0.00    -0.550 OA
ATOM      4  O   UNL     1      -9.275  65.787   0.772  1.00  0.00    -0.550 OA
ENDROOT
TORSDOF 0
ENDMDL
MODEL 6
REMARK VINA RESULT:    -2.241     13.548     13.978
REMARK INTER + INTRA:          -2.241
REMARK INTER:                  -2.241
REMARK INTRA:                   0.000
REMARK UNBOUND:                 0.000
REMARK SMILES CC(=O)[O-]
REMARK SMILES IDX 1 1 2 2 3 3 4 4
REMARK H PARENT
REMARK Flexibility Score: inf
ROOT
ATOM      1  C   UNL     1      -5.727  59.587   2.983  1.00  0.00     0.063 C 
ATOM      2  C   UNL     1      -6.959  60.236   2.451  1.00  0.00     0.038 C 
ATOM      3  O   UNL     1      -7.344  61.339   2.920  1.00  0.00    -0.550 OA
ATOM      4  O   UNL     1      -7.715  59.600   1.475  1.00  0.00    -0.550 OA
ENDROOT
TORSDOF 0
ENDMDL
MODEL 7
REMARK VINA RESULT:    -2.227      2.048      2.735
REMARK INTER + INTRA:          -2.227
REMARK INTER:                  -2.227
REMARK INTRA:                   0.000
REMARK UNBOUND:                 0.000
REMARK SMILES CC(=O)[O-]
REMARK SMILES IDX 1 1 2 2 3 3 4 4
REMARK H PARENT
REMARK Flexibility Score: inf
ROOT
ATOM      1  C   UNL     1       5.457  54.657   3.247  1.00  0.00     0.063 C 
ATOM      2  C   UNL     1       4.596  54.407   4.438  1.00  0.00     0.038 C 
ATOM      3  O   UNL     1       4.918  53.523   5.276  1.00  0.00    -0.550 OA
ATOM      4  O   UNL     1       3.407  55.107   4.598  1.00  0.00    -0.550 OA
ENDROOT
TORSDOF 0
ENDMDL
MODEL 8
REMARK VINA RESULT:    -2.215     17.856     18.139
REMARK INTER + INTRA:          -2.215
REMARK INTER:                  -2.215
REMARK INTRA:                   0.000
REMARK UNBOUND:                 0.000
REMARK SMILES CC(=O)[O-]
REMARK SMILES IDX 1 1 2 2 3 3 4 4
REMARK H PARENT
REMARK Flexibility Score: inf
ROOT
ATOM      1  C   UNL     1      -9.194  64.017   2.762  1.00  0.00     0.063 C 
ATOM      2  C   UNL     1      -8.852  65.358   2.208  1.00  0.00     0.038 C 
ATOM      3  O   UNL     1      -9.251  65.688   1.061  1.00  0.00    -0.550 OA
ATOM      4  O   UNL     1      -8.046  66.226   2.934  1.00  0.00    -0.550 OA
ENDROOT
TORSDOF 0
ENDMDL
MODEL 9
REMARK VINA RESULT:    -2.171     10.300     10.770
REMARK INTER + INTRA:          -2.171
REMARK INTER:                  -2.171
REMARK INTRA:                   0.000
REMARK UNBOUND:                 0.000
REMARK SMILES CC(=O)[O-]
REMARK SMILES IDX 1 1 2 2 3 3 4 4
REMARK H PARENT
REMARK Flexibility Score: inf
ROOT
ATOM      1  C   UNL     1      -0.210  55.638  -4.569  1.00  0.00     0.063 C 
ATOM      2  C   UNL     1      -0.740  57.031  -4.623  1.00  0.00     0.038 C 
ATOM      3  O   UNL     1       0.053  58.006  -4.683  1.00  0.00    -0.550 OA
ATOM      4  O   UNL     1      -2.108  57.258  -4.552  1.00  0.00    -0.550 OA
ENDROOT
TORSDOF 0
ENDMDL
