MODEL 1
REMARK VINA RESULT:    -2.483      0.000      0.000
REMARK INTER + INTRA:          -2.934
REMARK INTER:                  -2.918
REMARK INTRA:                  -0.016
REMARK UNBOUND:                -0.016
REMARK SMILES CCCCC(=O)[O-]
REMARK SMILES IDX 4 1 5 2 6 3 7 4 3 5 2 6 1 7
REMARK H PARENT
REMARK Flexibility Score: inf
ROOT
ATOM      1  C   UNL     1       6.364   5.083   0.173  1.00  0.00     0.053 C 
ENDROOT
BRANCH   1   2
ATOM      2  C   UNL     1       7.853   5.055   0.013  1.00  0.00     0.041 C 
ATOM      3  O   UNL     1       8.428   4.013  -0.402  1.00  0.00    -0.550 OA
ATOM      4  O   UNL     1       8.611   6.169   0.351  1.00  0.00    -0.550 OA
ENDBRANCH   1   2
BRANCH   1   5
ATOM      5  C   UNL     1       5.928   5.305   1.632  1.00  0.00     0.006 C 
BRANCH   5   6
ATOM      6  C   UNL     1       4.403   5.287   1.836  1.00  0.00    -0.003 C 
ATOM      7  C   UNL     1       3.949   4.285   2.897  1.00  0.00     0.004 C 
ENDBRANCH   5   6
ENDBRANCH   1   5
TORSDOF 3
ENDMDL
MODEL 2
REMARK VINA RESULT:    -2.334      7.633      8.502
REMARK INTER + INTRA:          -2.759
REMARK INTER:                  -2.709
REMARK INTRA:                  -0.050
REMARK UNBOUND:                -0.016
REMARK SMILES CCCCC(=O)[O-]
REMARK SMILES IDX 4 1 5 2 6 3 7 4 3 5 2 6 1 7
REMARK H PARENT
REMARK Flexibility Score: inf
ROOT
ATOM      1  C   UNL     1       3.684   2.156  -5.855  1.00  0.00     0.053 C 
ENDROOT
BRANCH   1   2
ATOM      2  C   UNL     1       2.914   2.572  -4.640  1.00  0.00     0.041 C 
ATOM      3  O   UNL     1       2.925   1.855  -3.604  1.00  0.00    -0.550 OA
ATOM      4  O   UNL     1       2.158   3.737  -4.660  1.00  0.00    -0.550 OA
ENDBRANCH   1   2
BRANCH   1   5
ATOM      5  C   UNL     1       3.618   0.640  -6.110  1.00  0.00     0.006 C 
BRANCH   5   6
ATOM      6  C   UNL     1       4.992  -0.053  -6.104  1.00  0.00    -0.003 C 
ATOM      7  C   UNL     1       4.951  -1.464  -5.519  1.00  0.00     0.004 C 
ENDBRANCH   5   6
ENDBRANCH   1   5
TORSDOF 3
ENDMDL
MODEL 3
REMARK VINA RESULT:    -2.318      9.946     10.461
REMARK INTER + INTRA:          -2.740
REMARK INTER:                  -2.650
REMARK INTRA:                  -0.090
REMARK UNBOUND:                -0.016
REMARK SMILES CCCCC(=O)[O-]
REMARK SMILES IDX 4 1 5 2 6 3 7 4 3 5 2 6 1 7
REMARK H PARENT
REMARK Flexibility Score: inf
ROOT
ATOM      1  C   UNL     1      -2.635   5.501  -1.640  1.00  0.00     0.053 C 
ENDROOT
BRANCH   1   2
ATOM      2  C   UNL     1      -3.882   5.662  -2.454  1.00  0.00     0.041 C 
ATOM      3  O   UNL     1      -3.959   5.157  -3.606  1.00  0.00    -0.550 OA
ATOM      4  O   UNL     1      -4.950   6.397  -1.953  1.00  0.00    -0.550 OA
ENDBRANCH   1   2
BRANCH   1   5
ATOM      5  C   UNL     1      -2.750   4.379  -0.593  1.00  0.00     0.006 C 
BRANCH   5   6
ATOM      6  C   UNL     1      -2.487   4.844   0.851  1.00  0.00    -0.003 C 
ATOM      7  C   UNL     1      -2.826   6.316   1.080  1.00  0.00     0.004 C 
ENDBRANCH   5   6
ENDBRANCH   1   5
TORSDOF 3
ENDMDL
MODEL 4
REMARK VINA RESULT:    -2.306      7.435      8.508
REMARK INTER + INTRA:          -2.726
REMARK INTER:                  -2.697
REMARK INTRA:                  -0.029
REMARK UNBOUND:                -0.016
REMARK SMILES CCCCC(=O)[O-]
REMARK SMILES IDX 4 1 5 2 6 3 7 4 3 5 2 6 1 7
REMARK H PARENT
REMARK Flexibility Score: inf
ROOT
ATOM      1  C   UNL     1       3.673   2.119  -5.836  1.00  0.00     0.053 C 
ENDROOT
BRANCH   1   2
ATOM      2  C   UNL     1       2.882   2.556  -4.642  1.00  0.00     0.041 C 
ATOM      3  O   UNL     1       2.884   1.863  -3.589  1.00  0.00    -0.550 OA
ATOM      4  O   UNL     1       2.116   3.714  -4.700  1.00  0.00    -0.550 OA
ENDBRANCH   1   2
BRANCH   1   5
ATOM      5  C   UNL     1       4.236   0.695  -5.686  1.00  0.00     0.006 C 
BRANCH   5   6
ATOM      6  C   UNL     1       5.336   0.349  -6.706  1.00  0.00    -0.003 C 
ATOM      7  C   UNL     1       6.522   1.311  -6.660  1.00  0.00     0.004 C 
ENDBRANCH   5   6
ENDBRANCH   1   5
TORSDOF 3
ENDMDL
MODEL 5
REMARK VINA RESULT:    -2.287      3.908      4.978
REMARK INTER + INTRA:          -2.704
REMARK INTER:                  -2.686
REMARK INTRA:                  -0.018
REMARK UNBOUND:                -0.016
REMARK SMILES CCCCC(=O)[O-]
REMARK SMILES IDX 4 1 5 2 6 3 7 4 3 5 2 6 1 7
REMARK H PARENT
REMARK Flexibility Score: inf
ROOT
ATOM      1  C   UNL     1       4.082   4.811   3.533  1.00  0.00     0.053 C 
ENDROOT
BRANCH   1   2
ATOM      2  C   UNL     1       3.551   3.479   3.966  1.00  0.00     0.041 C 
ATOM      3  O   UNL     1       2.635   2.915   3.309  1.00  0.00    -0.550 OA
ATOM      4  O   UNL     1       4.045   2.873   5.115  1.00  0.00    -0.550 OA
ENDBRANCH   1   2
BRANCH   1   5
ATOM      5  C   UNL     1       4.344   4.881   2.018  1.00  0.00     0.006 C 
BRANCH   5   6
ATOM      6  C   UNL     1       5.696   5.515   1.648  1.00  0.00    -0.003 C 
ATOM      7  C   UNL     1       6.165   5.151   0.240  1.00  0.00     0.004 C 
ENDBRANCH   5   6
ENDBRANCH   1   5
TORSDOF 3
ENDMDL
MODEL 6
REMARK VINA RESULT:    -2.240     10.187     10.660
REMARK INTER + INTRA:          -2.648
REMARK INTER:                  -2.625
REMARK INTRA:                  -0.022
REMARK UNBOUND:                -0.016
REMARK SMILES CCCCC(=O)[O-]
REMARK SMILES IDX 4 1 5 2 6 3 7 4 3 5 2 6 1 7
REMARK H PARENT
REMARK Flexibility Score: inf
ROOT
ATOM      1  C   UNL     1       5.005  -4.449  -4.135  1.00  0.00     0.053 C 
ENDROOT
BRANCH   1   2
ATOM      2  C   UNL     1       5.467  -3.051  -4.410  1.00  0.00     0.041 C 
ATOM      3  O   UNL     1       4.732  -2.253  -5.051  1.00  0.00    -0.550 OA
ATOM      4  O   UNL     1       6.723  -2.637  -3.984  1.00  0.00    -0.550 OA
ENDBRANCH   1   2
BRANCH   1   5
ATOM      5  C   UNL     1       3.532  -4.511  -3.692  1.00  0.00     0.006 C 
BRANCH   5   6
ATOM      6  C   UNL     1       3.097  -5.891  -3.166  1.00  0.00    -0.003 C 
ATOM      7  C   UNL     1       3.902  -6.352  -1.952  1.00  0.00     0.004 C 
ENDBRANCH   5   6
ENDBRANCH   1   5
TORSDOF 3
ENDMDL
MODEL 7
REMARK VINA RESULT:    -2.235      9.200      9.615
REMARK INTER + INTRA:          -2.643
REMARK INTER:                  -2.620
REMARK INTRA:                  -0.022
REMARK UNBOUND:                -0.016
REMARK SMILES CCCCC(=O)[O-]
REMARK SMILES IDX 4 1 5 2 6 3 7 4 3 5 2 6 1 7
REMARK H PARENT
REMARK Flexibility Score: inf
ROOT
ATOM      1  C   UNL     1      -2.792   5.995   0.385  1.00  0.00     0.053 C 
ENDROOT
BRANCH   1   2
ATOM      2  C   UNL     1      -2.839   5.034  -0.763  1.00  0.00     0.041 C 
ATOM      3  O   UNL     1      -2.426   3.852  -0.620  1.00  0.00    -0.550 OA
ATOM      4  O   UNL     1      -3.311   5.451  -2.001  1.00  0.00    -0.550 OA
ENDBRANCH   1   2
BRANCH   1   5
ATOM      5  C   UNL     1      -2.409   5.317   1.712  1.00  0.00     0.006 C 
BRANCH   5   6
ATOM      6  C   UNL     1      -3.050   5.966   2.952  1.00  0.00    -0.003 C 
ATOM      7  C   UNL     1      -3.320   4.972   4.080  1.00  0.00     0.004 C 
ENDBRANCH   5   6
ENDBRANCH   1   5
TORSDOF 3
ENDMDL
MODEL 8
REMARK VINA RESULT:    -2.222     10.193     10.974
REMARK INTER + INTRA:          -2.627
REMARK INTER:                  -2.610
REMARK INTRA:                  -0.017
REMARK UNBOUND:                -0.016
REMARK SMILES CCCCC(=O)[O-]
REMARK SMILES IDX 4 1 5 2 6 3 7 4 3 5 2 6 1 7
REMARK H PARENT
REMARK Flexibility Score: inf
ROOT
ATOM      1  C   UNL     1      -4.192   4.953  -2.646  1.00  0.00     0.053 C 
ENDROOT
BRANCH   1   2
ATOM      2  C   UNL     1      -4.072   5.702  -3.937  1.00  0.00     0.041 C 
ATOM      3  O   UNL     1      -4.022   6.962  -3.940  1.00  0.00    -0.550 OA
ATOM      4  O   UNL     1      -4.046   5.013  -5.143  1.00  0.00    -0.550 OA
ENDBRANCH   1   2
BRANCH   1   5
ATOM      5  C   UNL     1      -3.195   5.442  -1.581  1.00  0.00     0.006 C 
BRANCH   5   6
ATOM      6  C   UNL     1      -2.704   4.335  -0.631  1.00  0.00    -0.003 C 
ATOM      7  C   UNL     1      -2.511   4.818   0.806  1.00  0.00     0.004 C 
ENDBRANCH   5   6
ENDBRANCH   1   5
TORSDOF 3
ENDMDL
MODEL 9
REMARK VINA RESULT:    -2.179      4.956      6.220
REMARK INTER + INTRA:          -2.576
REMARK INTER:                  -2.552
REMARK INTRA:                  -0.024
REMARK UNBOUND:                -0.016
REMARK SMILES CCCCC(=O)[O-]
REMARK SMILES IDX 4 1 5 2 6 3 7 4 3 5 2 6 1 7
REMARK H PARENT
REMARK Flexibility Score: inf
ROOT
ATOM      1  C   UNL     1       2.769   3.092   3.442  1.00  0.00     0.053 C 
ENDROOT
BRANCH   1   2
ATOM      2  C   UNL     1       2.135   2.839   4.776  1.00  0.00     0.041 C 
ATOM      3  O   UNL     1       1.977   3.784   5.594  1.00  0.00    -0.550 OA
ATOM      4  O   UNL     1       1.744   1.554   5.129  1.00  0.00    -0.550 OA
ENDBRANCH   1   2
BRANCH   1   5
ATOM      5  C   UNL     1       3.934   4.094   3.519  1.00  0.00     0.006 C 
BRANCH   5   6
ATOM      6  C   UNL     1       4.183   4.862   2.209  1.00  0.00    -0.003 C 
ATOM      7  C   UNL     1       5.513   5.613   2.196  1.00  0.00     0.004 C 
ENDBRANCH   5   6
ENDBRANCH   1   5
TORSDOF 3
ENDMDL
