MODEL 1
REMARK VINA RESULT:    21.210      0.000      0.000
REMARK INTER + INTRA:          34.937
REMARK INTER:                  31.750
REMARK INTRA:                   3.187
REMARK UNBOUND:                 3.187
REMARK SMILES COc1ccc([C@H]2CC(=O)c3c(O)cc(O[C@H]4O[C@@H](CO[C@@H]5O[C@H](C)[C@@H](O)[C@H](O)[C@H]5O)[C@@H](O)[C@@H](O)[C@@H]4O)cc3O2)cc1O
REMARK SMILES IDX 19 1 32 2 34 3 36 4 17 5 18 6 20 7 21 8 22 9 25 10 24 11
REMARK SMILES IDX 26 12 23 13 28 14 30 15 27 16 29 18 31 20 33 22 35 24 16 26
REMARK SMILES IDX 15 27 14 28 38 29 12 30 39 31 11 32 40 33 9 34 7 35 10 36
REMARK SMILES IDX 8 37 13 38 6 40 41 41 5 42 42 43 4 44 3 45 43 46 2 48 1 49
REMARK SMILES IDX 37 50
REMARK H PARENT 27 17 29 19 31 21 33 23 35 25 13 39 43 47 37 51
REMARK Flexibility Score: inf
ROOT
ATOM      1  C   UNL     1      16.059  22.357   7.855  1.00  0.00     0.180 C 
ATOM      2  C   UNL     1      17.343  22.945   7.122  1.00  0.00     0.177 C 
ATOM      3  C   UNL     1      16.935  24.081   6.136  1.00  0.00     0.180 C 
ATOM      4  C   UNL     1      16.108  23.467   4.953  1.00  0.00     0.214 C 
ATOM      5  C   UNL     1      14.788  22.932   5.692  1.00  0.00     0.339 C 
ATOM      6  O   UNL     1      15.130  21.878   6.802  1.00  0.00    -0.332 OA
ENDROOT
BRANCH   1   7
ATOM      7  C   UNL     1      16.765  21.449   9.159  1.00  0.00     0.198 C 
BRANCH   7   8
ATOM      8  O   UNL     1      18.110  20.950   8.883  1.00  0.00    -0.347 OA
BRANCH   8   9
ATOM      9  C   UNL     1      19.334  21.570   9.425  1.00  0.00     0.281 C 
ATOM     10  C   UNL     1      19.636  21.091  13.171  1.00  0.00     0.041 C 
ATOM     11  C   UNL     1      19.932  21.844  11.796  1.00  0.00     0.150 C 
ATOM     12  C   UNL     1      19.798  23.355  11.707  1.00  0.00     0.174 C 
ATOM     13  O   UNL     1      19.261  21.130  10.779  1.00  0.00    -0.344 OA
ATOM     14  C   UNL     1      18.803  23.586  10.688  1.00  0.00     0.179 C 
ATOM     15  C   UNL     1      19.189  23.174   9.253  1.00  0.00     0.202 C 
BRANCH  12  16
ATOM     16  O   UNL     1      20.933  24.179  11.352  1.00  0.00    -0.388 OA
ATOM     17  H   UNL     1      20.910  24.259  10.386  1.00  0.00     0.211 HD
ENDBRANCH  12  16
BRANCH  14  18
ATOM     18  O   UNL     1      17.509  23.163  11.148  1.00  0.00    -0.387 OA
ATOM     19  H   UNL     1      16.927  23.974  11.218  1.00  0.00     0.211 HD
ENDBRANCH  14  18
BRANCH  15  20
ATOM     20  O   UNL     1      20.291  24.037   8.745  1.00  0.00    -0.385 OA
ATOM     21  H   UNL     1      20.037  25.040   8.649  1.00  0.00     0.211 HD
ENDBRANCH  15  20
ENDBRANCH   8   9
ENDBRANCH   7   8
ENDBRANCH   1   7
BRANCH   2  22
ATOM     22  O   UNL     1      18.029  21.967   6.487  1.00  0.00    -0.387 OA
ATOM     23  H   UNL     1      17.444  21.168   6.532  1.00  0.00     0.211 HD
ENDBRANCH   2  22
BRANCH   3  24
ATOM     24  O   UNL     1      18.081  24.705   5.605  1.00  0.00    -0.387 OA
ATOM     25  H   UNL     1      18.022  25.704   5.585  1.00  0.00     0.211 HD
ENDBRANCH   3  24
BRANCH   5  26
ATOM     26  O   UNL     1      13.733  22.443   4.625  1.00  0.00    -0.462 OA
BRANCH  26  27
ATOM     27  C   UNL     1      13.475  22.427   3.044  1.00  0.00     0.130 A 
ATOM     28  C   UNL     1      14.557  22.118   1.957  1.00  0.00     0.093 A 
ATOM     29  C   UNL     1      12.362  23.107   2.239  1.00  0.00     0.094 A 
ATOM     30  C   UNL     1      14.131  21.655   0.566  1.00  0.00     0.133 A 
ATOM     31  C   UNL     1      12.380  22.939   0.778  1.00  0.00     0.138 A 
ATOM     32  C   UNL     1      12.701  21.702   0.201  1.00  0.00     0.102 A 
ATOM     33  O   UNL     1      13.065  23.915  -0.104  1.00  0.00    -0.484 OA
ATOM     34  C   UNL     1      12.078  21.549  -1.196  1.00  0.00     0.174 C 
ATOM     35  C   UNL     1      13.097  23.640  -1.593  1.00  0.00     0.211 C 
ATOM     36  O   UNL     1      10.948  21.522  -1.849  1.00  0.00    -0.294 OA
ATOM     37  C   UNL     1      11.696  23.007  -1.681  1.00  0.00     0.131 C 
BRANCH  30  38
ATOM     38  O   UNL     1      15.128  21.450  -0.443  1.00  0.00    -0.507 OA
ATOM     39  H   UNL     1      16.096  21.788  -0.255  1.00  0.00     0.293 HD
ENDBRANCH  30  38
BRANCH  35  40
ATOM     40  C   UNL     1      13.828  22.947  -2.959  1.00  0.00    -0.003 A 
ATOM     41  C   UNL     1      14.312  21.489  -3.009  1.00  0.00     0.057 A 
ATOM     42  C   UNL     1      13.280  23.280  -4.194  1.00  0.00     0.011 A 
ATOM     43  C   UNL     1      13.917  20.641  -3.983  1.00  0.00     0.158 A 
ATOM     44  C   UNL     1      12.603  22.279  -5.125  1.00  0.00     0.051 A 
ATOM     45  C   UNL     1      12.795  20.928  -4.784  1.00  0.00     0.160 A 
BRANCH  43  46
ATOM     46  O   UNL     1      14.383  19.401  -4.160  1.00  0.00    -0.504 OA
ATOM     47  H   UNL     1      15.294  19.202  -4.498  1.00  0.00     0.293 HD
ENDBRANCH  43  46
BRANCH  45  48
ATOM     48  O   UNL     1      11.946  19.861  -5.121  1.00  0.00    -0.493 OA
ATOM     49  C   UNL     1      11.061  19.408  -4.114  1.00  0.00     0.278 C 
ENDBRANCH  45  48
ENDBRANCH  35  40
ENDBRANCH  26  27
ENDBRANCH   5  26
BRANCH   4  50
ATOM     50  O   UNL     1      15.843  24.507   4.005  1.00  0.00    -0.384 OA
ATOM     51  H   UNL     1      16.404  25.256   4.281  1.00  0.00     0.211 HD
ENDBRANCH   4  50
TORSDOF 15
ENDMDL
MODEL 2
REMARK VINA RESULT:    22.632      1.704      2.790
REMARK INTER + INTRA:          37.065
REMARK INTER:                  34.944
REMARK INTRA:                   2.121
REMARK UNBOUND:                 3.187
REMARK SMILES COc1ccc([C@H]2CC(=O)c3c(O)cc(O[C@H]4O[C@@H](CO[C@@H]5O[C@H](C)[C@@H](O)[C@H](O)[C@H]5O)[C@@H](O)[C@@H](O)[C@@H]4O)cc3O2)cc1O
REMARK SMILES IDX 19 1 32 2 34 3 36 4 17 5 18 6 20 7 21 8 22 9 25 10 24 11
REMARK SMILES IDX 26 12 23 13 28 14 30 15 27 16 29 18 31 20 33 22 35 24 16 26
REMARK SMILES IDX 15 27 14 28 38 29 12 30 39 31 11 32 40 33 9 34 7 35 10 36
REMARK SMILES IDX 8 37 13 38 6 40 41 41 5 42 42 43 4 44 3 45 43 46 2 48 1 49
REMARK SMILES IDX 37 50
REMARK H PARENT 27 17 29 19 31 21 33 23 35 25 13 39 43 47 37 51
REMARK Flexibility Score: inf
ROOT
ATOM      1  C   UNL     1      17.722  21.701   7.685  1.00  0.00     0.180 C 
ATOM      2  C   UNL     1      16.443  21.238   8.512  1.00  0.00     0.177 C 
ATOM      3  C   UNL     1      15.342  20.695   7.552  1.00  0.00     0.180 C 
ATOM      4  C   UNL     1      14.787  21.874   6.679  1.00  0.00     0.214 C 
ATOM      5  C   UNL     1      16.065  22.292   5.806  1.00  0.00     0.339 C 
ATOM      6  O   UNL     1      17.271  22.725   6.710  1.00  0.00    -0.332 OA
ENDROOT
BRANCH   1   7
ATOM      7  C   UNL     1      18.926  21.858   8.930  1.00  0.00     0.198 C 
BRANCH   7   8
ATOM      8  O   UNL     1      19.863  22.958   8.722  1.00  0.00    -0.347 OA
BRANCH   8   9
ATOM      9  C   UNL     1      20.733  23.497   9.785  1.00  0.00     0.281 C 
ATOM     10  C   UNL     1      20.422  21.537  13.012  1.00  0.00     0.041 C 
ATOM     11  C   UNL     1      20.756  22.841  12.156  1.00  0.00     0.150 C 
ATOM     12  C   UNL     1      20.221  24.197  12.587  1.00  0.00     0.174 C 
ATOM     13  O   UNL     1      20.525  22.519  10.801  1.00  0.00    -0.344 OA
ATOM     14  C   UNL     1      19.420  24.656  11.479  1.00  0.00     0.179 C 
ATOM     15  C   UNL     1      20.179  24.968  10.174  1.00  0.00     0.202 C 
BRANCH  12  16
ATOM     16  O   UNL     1      21.125  25.281  12.905  1.00  0.00    -0.388 OA
ATOM     17  H   UNL     1      20.674  25.812  13.580  1.00  0.00     0.211 HD
ENDBRANCH  12  16
BRANCH  14  18
ATOM     18  O   UNL     1      18.234  23.854  11.354  1.00  0.00    -0.387 OA
ATOM     19  H   UNL     1      18.495  22.898  11.487  1.00  0.00     0.211 HD
ENDBRANCH  14  18
BRANCH  15  20
ATOM     20  O   UNL     1      21.070  26.146  10.360  1.00  0.00    -0.385 OA
ATOM     21  H   UNL     1      20.920  26.656  11.252  1.00  0.00     0.211 HD
ENDBRANCH  15  20
ENDBRANCH   8   9
ENDBRANCH   7   8
ENDBRANCH   1   7
BRANCH   2  22
ATOM     22  O   UNL     1      15.971  22.248   9.278  1.00  0.00    -0.387 OA
ATOM     23  H   UNL     1      15.209  22.627   8.769  1.00  0.00     0.211 HD
ENDBRANCH   2  22
BRANCH   3  24
ATOM     24  O   UNL     1      14.276  20.143   8.291  1.00  0.00    -0.387 OA
ATOM     25  H   UNL     1      14.239  19.144   8.258  1.00  0.00     0.211 HD
ENDBRANCH   3  24
BRANCH   5  26
ATOM     26  O   UNL     1      15.649  23.354   4.715  1.00  0.00    -0.462 OA
BRANCH  26  27
ATOM     27  C   UNL     1      15.340  23.476   3.148  1.00  0.00     0.130 A 
ATOM     28  C   UNL     1      14.259  22.651   2.375  1.00  0.00     0.093 A 
ATOM     29  C   UNL     1      16.238  24.007   2.024  1.00  0.00     0.094 A 
ATOM     30  C   UNL     1      13.715  23.163   1.045  1.00  0.00     0.133 A 
ATOM     31  C   UNL     1      15.699  23.983   0.656  1.00  0.00     0.138 A 
ATOM     32  C   UNL     1      14.363  24.325   0.404  1.00  0.00     0.102 A 
ATOM     33  O   UNL     1      15.931  22.829  -0.246  1.00  0.00    -0.484 OA
ATOM     34  C   UNL     1      14.171  24.841  -1.031  1.00  0.00     0.174 C 
ATOM     35  C   UNL     1      15.289  22.848  -1.618  1.00  0.00     0.211 C 
ATOM     36  O   UNL     1      14.532  25.769  -1.876  1.00  0.00    -0.294 OA
ATOM     37  C   UNL     1      15.435  24.363  -1.855  1.00  0.00     0.131 C 
BRANCH  30  38
ATOM     38  O   UNL     1      12.782  22.360   0.311  1.00  0.00    -0.507 OA
ATOM     39  H   UNL     1      11.777  22.399   0.583  1.00  0.00     0.293 HD
ENDBRANCH  30  38
BRANCH  35  40
ATOM     40  C   UNL     1      13.990  22.504  -2.654  1.00  0.00    -0.003 A 
ATOM     41  C   UNL     1      13.898  21.220  -3.494  1.00  0.00     0.057 A 
ATOM     42  C   UNL     1      12.720  22.824  -2.186  1.00  0.00     0.011 A 
ATOM     43  C   UNL     1      12.818  20.411  -3.443  1.00  0.00     0.158 A 
ATOM     44  C   UNL     1      11.631  21.795  -1.897  1.00  0.00     0.051 A 
ATOM     45  C   UNL     1      11.893  20.502  -2.385  1.00  0.00     0.160 A 
BRANCH  43  46
ATOM     46  O   UNL     1      12.614  19.347  -4.226  1.00  0.00    -0.504 OA
ATOM     47  H   UNL     1      12.191  18.508  -3.909  1.00  0.00     0.293 HD
ENDBRANCH  43  46
BRANCH  45  48
ATOM     48  O   UNL     1      11.362  19.303  -1.879  1.00  0.00    -0.493 OA
ATOM     49  C   UNL     1      10.123  18.879  -2.413  1.00  0.00     0.278 C 
ENDBRANCH  45  48
ENDBRANCH  35  40
ENDBRANCH  26  27
ENDBRANCH   5  26
BRANCH   4  50
ATOM     50  O   UNL     1      13.701  21.374   5.891  1.00  0.00    -0.384 OA
ATOM     51  H   UNL     1      14.044  21.329   4.979  1.00  0.00     0.211 HD
ENDBRANCH   4  50
TORSDOF 15
ENDMDL
