MODEL 1
REMARK VINA RESULT:    -5.655      0.000      0.000
REMARK INTER + INTRA:          -5.985
REMARK INTER:                  -5.985
REMARK INTRA:                   0.000
REMARK UNBOUND:                 0.000
REMARK SMILES Cc1cc(O)c(C)c(C)c1O
REMARK SMILES IDX 1 1 2 2 3 3 4 4 6 5 8 6 10 7 9 8 7 9 11 10 5 12
REMARK H PARENT 11 11 5 13
REMARK Flexibility Score: inf
ROOT
ATOM      1  C   UNL     1      38.873   5.480 103.014  1.00  0.00     0.048 C 
ATOM      2  C   UNL     1      38.727   4.054 103.474  1.00  0.00    -0.005 A 
ATOM      3  C   UNL     1      38.049   3.141 102.660  1.00  0.00     0.053 A 
ATOM      4  C   UNL     1      37.880   1.813 103.051  1.00  0.00     0.119 A 
ATOM      5  C   UNL     1      38.376   1.371 104.299  1.00  0.00    -0.003 A 
ATOM      6  C   UNL     1      39.123   2.273 105.107  1.00  0.00    -0.002 A 
ATOM      7  C   UNL     1      39.271   3.620 104.701  1.00  0.00     0.121 A 
ATOM      8  C   UNL     1      39.740   1.818 106.411  1.00  0.00     0.049 C 
ATOM      9  C   UNL     1      38.128  -0.059 104.730  1.00  0.00     0.049 C 
ENDROOT
BRANCH   7  10
ATOM     10  O   UNL     1      39.961   4.511 105.531  1.00  0.00    -0.507 OA
ATOM     11  H   UNL     1      40.365   4.248 106.420  1.00  0.00     0.293 HD
ENDBRANCH   7  10
BRANCH   4  12
ATOM     12  O   UNL     1      37.218   0.957 102.165  1.00  0.00    -0.508 OA
ATOM     13  H   UNL     1      37.316   1.007 101.161  1.00  0.00     0.293 HD
ENDBRANCH   4  12
TORSDOF 2
ENDMDL
MODEL 2
REMARK VINA RESULT:    -5.482      0.877      2.948
REMARK INTER + INTRA:          -5.802
REMARK INTER:                  -5.802
REMARK INTRA:                   0.000
REMARK UNBOUND:                 0.000
REMARK SMILES Cc1cc(O)c(C)c(C)c1O
REMARK SMILES IDX 1 1 2 2 3 3 4 4 6 5 8 6 10 7 9 8 7 9 11 10 5 12
REMARK H PARENT 11 11 5 13
REMARK Flexibility Score: inf
ROOT
ATOM      1  C   UNL     1      40.177   2.000 106.957  1.00  0.00     0.048 C 
ATOM      2  C   UNL     1      39.436   2.121 105.652  1.00  0.00    -0.005 A 
ATOM      3  C   UNL     1      38.792   0.997 105.126  1.00  0.00     0.053 A 
ATOM      4  C   UNL     1      38.103   1.061 103.915  1.00  0.00     0.119 A 
ATOM      5  C   UNL     1      38.066   2.269 103.182  1.00  0.00    -0.003 A 
ATOM      6  C   UNL     1      38.663   3.435 103.737  1.00  0.00    -0.002 A 
ATOM      7  C   UNL     1      39.369   3.348 104.959  1.00  0.00     0.121 A 
ATOM      8  C   UNL     1      38.574   4.766 103.023  1.00  0.00     0.049 C 
ATOM      9  C   UNL     1      37.365   2.298 101.841  1.00  0.00     0.049 C 
ENDROOT
BRANCH   7  10
ATOM     10  O   UNL     1      39.998   4.491 105.467  1.00  0.00    -0.507 OA
ATOM     11  H   UNL     1      40.216   5.304 104.907  1.00  0.00     0.293 HD
ENDBRANCH   7  10
BRANCH   4  12
ATOM     12  O   UNL     1      37.460  -0.100 103.475  1.00  0.00    -0.508 OA
ATOM     13  H   UNL     1      36.468  -0.263 103.578  1.00  0.00     0.293 HD
ENDBRANCH   4  12
TORSDOF 2
ENDMDL
MODEL 3
REMARK VINA RESULT:    -5.476      8.094     10.303
REMARK INTER + INTRA:          -5.796
REMARK INTER:                  -5.796
REMARK INTRA:                   0.000
REMARK UNBOUND:                 0.000
REMARK SMILES Cc1cc(O)c(C)c(C)c1O
REMARK SMILES IDX 1 1 2 2 3 3 4 4 6 5 8 6 10 7 9 8 7 9 11 10 5 12
REMARK H PARENT 11 11 5 13
REMARK Flexibility Score: inf
ROOT
ATOM      1  C   UNL     1      37.926  -8.251 106.886  1.00  0.00     0.048 C 
ATOM      2  C   UNL     1      37.728  -7.759 105.477  1.00  0.00    -0.005 A 
ATOM      3  C   UNL     1      37.991  -8.623 104.409  1.00  0.00     0.053 A 
ATOM      4  C   UNL     1      37.831  -8.207 103.088  1.00  0.00     0.119 A 
ATOM      5  C   UNL     1      37.421  -6.884 102.804  1.00  0.00    -0.003 A 
ATOM      6  C   UNL     1      37.089  -6.015 103.881  1.00  0.00    -0.002 A 
ATOM      7  C   UNL     1      37.271  -6.450 105.215  1.00  0.00     0.121 A 
ATOM      8  C   UNL     1      36.568  -4.620 103.619  1.00  0.00     0.049 C 
ATOM      9  C   UNL     1      37.314  -6.436 101.363  1.00  0.00     0.049 C 
ENDROOT
BRANCH   7  10
ATOM     10  O   UNL     1      36.993  -5.567 106.265  1.00  0.00    -0.507 OA
ATOM     11  H   UNL     1      37.295  -4.603 106.279  1.00  0.00     0.293 HD
ENDBRANCH   7  10
BRANCH   4  12
ATOM     12  O   UNL     1      38.084  -9.142 102.080  1.00  0.00    -0.508 OA
ATOM     13  H   UNL     1      37.712  -9.070 101.143  1.00  0.00     0.293 HD
ENDBRANCH   4  12
TORSDOF 2
ENDMDL
MODEL 4
REMARK VINA RESULT:    -5.399      2.797      4.911
REMARK INTER + INTRA:          -5.714
REMARK INTER:                  -5.714
REMARK INTRA:                   0.000
REMARK UNBOUND:                 0.000
REMARK SMILES Cc1cc(O)c(C)c(C)c1O
REMARK SMILES IDX 1 1 2 2 3 3 4 4 6 5 8 6 10 7 9 8 7 9 11 10 5 12
REMARK H PARENT 11 11 5 13
REMARK Flexibility Score: inf
ROOT
ATOM      1  C   UNL     1      39.661   2.472 104.891  1.00  0.00     0.048 C 
ATOM      2  C   UNL     1      39.222   2.018 106.258  1.00  0.00    -0.005 A 
ATOM      3  C   UNL     1      39.608   2.758 107.380  1.00  0.00     0.053 A 
ATOM      4  C   UNL     1      39.233   2.368 108.665  1.00  0.00     0.119 A 
ATOM      5  C   UNL     1      38.471   1.193 108.857  1.00  0.00    -0.003 A 
ATOM      6  C   UNL     1      38.019   0.466 107.721  1.00  0.00    -0.002 A 
ATOM      7  C   UNL     1      38.421   0.868 106.425  1.00  0.00     0.121 A 
ATOM      8  C   UNL     1      37.134  -0.750 107.880  1.00  0.00     0.049 C 
ATOM      9  C   UNL     1      38.129   0.756 110.265  1.00  0.00     0.049 C 
ENDROOT
BRANCH   7  10
ATOM     10  O   UNL     1      38.014   0.113 105.319  1.00  0.00    -0.507 OA
ATOM     11  H   UNL     1      38.486   0.134 104.425  1.00  0.00     0.293 HD
ENDBRANCH   7  10
BRANCH   4  12
ATOM     12  O   UNL     1      39.633   3.182 109.730  1.00  0.00    -0.508 OA
ATOM     13  H   UNL     1      39.009   3.491 110.462  1.00  0.00     0.293 HD
ENDBRANCH   4  12
TORSDOF 2
ENDMDL
MODEL 5
REMARK VINA RESULT:    -5.373      0.957      4.343
REMARK INTER + INTRA:          -5.687
REMARK INTER:                  -5.687
REMARK INTRA:                   0.000
REMARK UNBOUND:                 0.000
REMARK SMILES Cc1cc(O)c(C)c(C)c1O
REMARK SMILES IDX 1 1 2 2 3 3 4 4 6 5 8 6 10 7 9 8 7 9 11 10 5 12
REMARK H PARENT 11 11 5 13
REMARK Flexibility Score: inf
ROOT
ATOM      1  C   UNL     1      38.923  -0.238 105.982  1.00  0.00     0.048 C 
ATOM      2  C   UNL     1      38.830   1.029 105.174  1.00  0.00    -0.005 A 
ATOM      3  C   UNL     1      39.434   2.193 105.659  1.00  0.00     0.053 A 
ATOM      4  C   UNL     1      39.364   3.392 104.949  1.00  0.00     0.119 A 
ATOM      5  C   UNL     1      38.653   3.454 103.728  1.00  0.00    -0.003 A 
ATOM      6  C   UNL     1      38.088   2.263 103.193  1.00  0.00    -0.002 A 
ATOM      7  C   UNL     1      38.157   1.060 103.934  1.00  0.00     0.121 A 
ATOM      8  C   UNL     1      37.390   2.270 101.852  1.00  0.00     0.049 C 
ATOM      9  C   UNL     1      38.538   4.779 103.006  1.00  0.00     0.049 C 
ENDROOT
BRANCH   7  10
ATOM     10  O   UNL     1      37.550  -0.093 103.423  1.00  0.00    -0.507 OA
ATOM     11  H   UNL     1      37.504  -0.309 102.436  1.00  0.00     0.293 HD
ENDBRANCH   7  10
BRANCH   4  12
ATOM     12  O   UNL     1      40.023   4.502 105.487  1.00  0.00    -0.508 OA
ATOM     13  H   UNL     1      39.543   5.300 105.880  1.00  0.00     0.293 HD
ENDBRANCH   4  12
TORSDOF 2
ENDMDL
MODEL 6
REMARK VINA RESULT:    -5.338      7.788      9.704
REMARK INTER + INTRA:          -5.650
REMARK INTER:                  -5.650
REMARK INTRA:                   0.000
REMARK UNBOUND:                 0.000
REMARK SMILES Cc1cc(O)c(C)c(C)c1O
REMARK SMILES IDX 1 1 2 2 3 3 4 4 6 5 8 6 10 7 9 8 7 9 11 10 5 12
REMARK H PARENT 11 11 5 13
REMARK Flexibility Score: inf
ROOT
ATOM      1  C   UNL     1      38.117  -8.626 104.670  1.00  0.00     0.048 C 
ATOM      2  C   UNL     1      37.774  -7.533 103.694  1.00  0.00    -0.005 A 
ATOM      3  C   UNL     1      37.999  -7.740 102.329  1.00  0.00     0.053 A 
ATOM      4  C   UNL     1      37.706  -6.752 101.391  1.00  0.00     0.119 A 
ATOM      5  C   UNL     1      37.195  -5.502 101.811  1.00  0.00    -0.003 A 
ATOM      6  C   UNL     1      36.902  -5.301 103.189  1.00  0.00    -0.002 A 
ATOM      7  C   UNL     1      37.219  -6.310 104.128  1.00  0.00     0.121 A 
ATOM      8  C   UNL     1      36.278  -4.009 103.669  1.00  0.00     0.049 C 
ATOM      9  C   UNL     1      36.943  -4.422 100.782  1.00  0.00     0.049 C 
ENDROOT
BRANCH   7  10
ATOM     10  O   UNL     1      36.976  -6.079 105.487  1.00  0.00    -0.507 OA
ATOM     11  H   UNL     1      37.255  -5.235 105.969  1.00  0.00     0.293 HD
ENDBRANCH   7  10
BRANCH   4  12
ATOM     12  O   UNL     1      37.931  -7.051 100.044  1.00  0.00    -0.508 OA
ATOM     13  H   UNL     1      37.752  -7.958  99.635  1.00  0.00     0.293 HD
ENDBRANCH   4  12
TORSDOF 2
ENDMDL
MODEL 7
REMARK VINA RESULT:    -5.306      8.355     10.029
REMARK INTER + INTRA:          -5.616
REMARK INTER:                  -5.616
REMARK INTRA:                   0.000
REMARK UNBOUND:                 0.000
REMARK SMILES Cc1cc(O)c(C)c(C)c1O
REMARK SMILES IDX 1 1 2 2 3 3 4 4 6 5 8 6 10 7 9 8 7 9 11 10 5 12
REMARK H PARENT 11 11 5 13
REMARK Flexibility Score: inf
ROOT
ATOM      1  C   UNL     1      37.449  -6.673 100.548  1.00  0.00     0.048 C 
ATOM      2  C   UNL     1      37.391  -6.659 102.053  1.00  0.00    -0.005 A 
ATOM      3  C   UNL     1      36.994  -5.490 102.710  1.00  0.00     0.053 A 
ATOM      4  C   UNL     1      36.936  -5.429 104.102  1.00  0.00     0.119 A 
ATOM      5  C   UNL     1      37.304  -6.552 104.878  1.00  0.00    -0.003 A 
ATOM      6  C   UNL     1      37.648  -7.767 104.221  1.00  0.00    -0.002 A 
ATOM      7  C   UNL     1      37.715  -7.806 102.809  1.00  0.00     0.121 A 
ATOM      8  C   UNL     1      37.968  -9.014 105.015  1.00  0.00     0.049 C 
ATOM      9  C   UNL     1      37.292  -6.444 106.388  1.00  0.00     0.049 C 
ENDROOT
BRANCH   7  10
ATOM     10  O   UNL     1      38.107  -8.991 102.176  1.00  0.00    -0.507 OA
ATOM     11  H   UNL     1      37.512  -9.804 102.095  1.00  0.00     0.293 HD
ENDBRANCH   7  10
BRANCH   4  12
ATOM     12  O   UNL     1      36.499  -4.233 104.679  1.00  0.00    -0.508 OA
ATOM     13  H   UNL     1      37.113  -3.460 104.897  1.00  0.00     0.293 HD
ENDBRANCH   4  12
TORSDOF 2
ENDMDL
MODEL 8
REMARK VINA RESULT:    -5.245      6.823      8.426
REMARK INTER + INTRA:          -5.551
REMARK INTER:                  -5.551
REMARK INTRA:                   0.000
REMARK UNBOUND:                 0.000
REMARK SMILES Cc1cc(O)c(C)c(C)c1O
REMARK SMILES IDX 1 1 2 2 3 3 4 4 6 5 8 6 10 7 9 8 7 9 11 10 5 12
REMARK H PARENT 11 11 5 13
REMARK Flexibility Score: inf
ROOT
ATOM      1  C   UNL     1      36.635  -2.588 100.861  1.00  0.00     0.048 C 
ATOM      2  C   UNL     1      36.944  -3.966 101.383  1.00  0.00    -0.005 A 
ATOM      3  C   UNL     1      37.350  -4.960 100.487  1.00  0.00     0.053 A 
ATOM      4  C   UNL     1      37.636  -6.253 100.925  1.00  0.00     0.119 A 
ATOM      5  C   UNL     1      37.496  -6.588 102.291  1.00  0.00    -0.003 A 
ATOM      6  C   UNL     1      37.145  -5.570 103.222  1.00  0.00    -0.002 A 
ATOM      7  C   UNL     1      36.844  -4.268 102.758  1.00  0.00     0.121 A 
ATOM      8  C   UNL     1      37.064  -5.868 104.703  1.00  0.00     0.049 C 
ATOM      9  C   UNL     1      37.752  -8.012 102.734  1.00  0.00     0.049 C 
ENDROOT
BRANCH   7  10
ATOM     10  O   UNL     1      36.448  -3.290 103.677  1.00  0.00    -0.507 OA
ATOM     11  H   UNL     1      35.841  -2.516 103.443  1.00  0.00     0.293 HD
ENDBRANCH   7  10
BRANCH   4  12
ATOM     12  O   UNL     1      38.067  -7.179  99.970  1.00  0.00    -0.508 OA
ATOM     13  H   UNL     1      38.915  -7.721 100.059  1.00  0.00     0.293 HD
ENDBRANCH   4  12
TORSDOF 2
ENDMDL
MODEL 9
REMARK VINA RESULT:    -5.185      7.707     10.241
REMARK INTER + INTRA:          -5.488
REMARK INTER:                  -5.488
REMARK INTRA:                   0.000
REMARK UNBOUND:                 0.000
REMARK SMILES Cc1cc(O)c(C)c(C)c1O
REMARK SMILES IDX 1 1 2 2 3 3 4 4 6 5 8 6 10 7 9 8 7 9 11 10 5 12
REMARK H PARENT 11 11 5 13
REMARK Flexibility Score: inf
ROOT
ATOM      1  C   UNL     1      38.109  -9.001 105.165  1.00  0.00     0.048 C 
ATOM      2  C   UNL     1      37.742  -7.772 104.377  1.00  0.00    -0.005 A 
ATOM      3  C   UNL     1      37.389  -6.604 105.060  1.00  0.00     0.053 A 
ATOM      4  C   UNL     1      37.031  -5.446 104.371  1.00  0.00     0.119 A 
ATOM      5  C   UNL     1      36.998  -5.442 102.957  1.00  0.00    -0.003 A 
ATOM      6  C   UNL     1      37.416  -6.604 102.250  1.00  0.00    -0.002 A 
ATOM      7  C   UNL     1      37.762  -7.774 102.966  1.00  0.00     0.121 A 
ATOM      8  C   UNL     1      37.473  -6.613 100.739  1.00  0.00     0.049 C 
ATOM      9  C   UNL     1      36.547  -4.192 102.232  1.00  0.00     0.049 C 
ENDROOT
BRANCH   7  10
ATOM     10  O   UNL     1      38.119  -8.927 102.258  1.00  0.00    -0.507 OA
ATOM     11  H   UNL     1      37.447  -9.569 101.860  1.00  0.00     0.293 HD
ENDBRANCH   7  10
BRANCH   4  12
ATOM     12  O   UNL     1      36.722  -4.312 105.128  1.00  0.00    -0.508 OA
ATOM     13  H   UNL     1      36.930  -4.223 106.113  1.00  0.00     0.293 HD
ENDBRANCH   4  12
TORSDOF 2
ENDMDL
