MODEL 1
REMARK VINA RESULT:    -5.852      0.000      0.000
REMARK INTER + INTRA:          -6.271
REMARK INTER:                  -6.194
REMARK INTRA:                  -0.078
REMARK UNBOUND:                -0.078
REMARK SMILES CC(=O)c1cccc(C)c1
REMARK SMILES IDX 9 1 8 2 10 3 4 4 5 5 6 6 7 7 2 8 3 9 1 10
REMARK H PARENT
REMARK Flexibility Score: inf
ROOT
ATOM      1  C   UNL     1     136.095 118.160 136.344  1.00  0.00     0.044 C 
ATOM      2  C   UNL     1     136.606 118.664 137.663  1.00  0.00    -0.050 A 
ATOM      3  C   UNL     1     135.784 119.450 138.485  1.00  0.00     0.015 A 
ATOM      4  C   UNL     1     136.264 119.961 139.708  1.00  0.00     0.017 A 
ATOM      5  C   UNL     1     137.591 119.677 140.086  1.00  0.00     0.012 A 
ATOM      6  C   UNL     1     138.415 118.909 139.258  1.00  0.00     0.001 A 
ATOM      7  C   UNL     1     137.929 118.409 138.049  1.00  0.00     0.003 A 
ENDROOT
BRANCH   4   8
ATOM      8  C   UNL     1     135.374 120.784 140.571  1.00  0.00     0.159 C 
ATOM      9  O   UNL     1     135.877 121.553 141.436  1.00  0.00    -0.295 OA
ATOM     10  C   UNL     1     133.880 120.732 140.449  1.00  0.00     0.093 C 
ENDBRANCH   4   8
TORSDOF 1
ENDMDL
MODEL 2
REMARK VINA RESULT:    -5.689      2.226      3.900
REMARK INTER + INTRA:          -6.099
REMARK INTER:                  -6.023
REMARK INTRA:                  -0.076
REMARK UNBOUND:                -0.078
REMARK SMILES CC(=O)c1cccc(C)c1
REMARK SMILES IDX 9 1 8 2 10 3 4 4 5 5 6 6 7 7 2 8 3 9 1 10
REMARK H PARENT
REMARK Flexibility Score: inf
ROOT
ATOM      1  C   UNL     1     134.456 120.765 140.209  1.00  0.00     0.044 C 
ATOM      2  C   UNL     1     135.731 120.138 139.727  1.00  0.00    -0.050 A 
ATOM      3  C   UNL     1     135.764 119.461 138.497  1.00  0.00     0.015 A 
ATOM      4  C   UNL     1     136.945 118.835 138.050  1.00  0.00     0.017 A 
ATOM      5  C   UNL     1     138.092 118.891 138.867  1.00  0.00     0.012 A 
ATOM      6  C   UNL     1     138.053 119.549 140.100  1.00  0.00     0.001 A 
ATOM      7  C   UNL     1     136.878 120.165 140.532  1.00  0.00     0.003 A 
ENDROOT
BRANCH   4   8
ATOM      8  C   UNL     1     136.964 118.131 136.739  1.00  0.00     0.159 C 
ATOM      9  O   UNL     1     138.042 118.047 136.089  1.00  0.00    -0.295 OA
ATOM     10  C   UNL     1     135.730 117.509 136.155  1.00  0.00     0.093 C 
ENDBRANCH   4   8
TORSDOF 1
ENDMDL
MODEL 3
REMARK VINA RESULT:    -5.679      1.209      1.412
REMARK INTER + INTRA:          -6.089
REMARK INTER:                  -6.014
REMARK INTRA:                  -0.074
REMARK UNBOUND:                -0.078
REMARK SMILES CC(=O)c1cccc(C)c1
REMARK SMILES IDX 9 1 8 2 10 3 4 4 5 5 6 6 7 7 2 8 3 9 1 10
REMARK H PARENT
REMARK Flexibility Score: inf
ROOT
ATOM      1  C   UNL     1     136.373 118.653 136.511  1.00  0.00     0.044 C 
ATOM      2  C   UNL     1     136.788 119.211 137.841  1.00  0.00    -0.050 A 
ATOM      3  C   UNL     1     136.049 120.247 138.434  1.00  0.00     0.015 A 
ATOM      4  C   UNL     1     136.449 120.805 139.664  1.00  0.00     0.017 A 
ATOM      5  C   UNL     1     137.614 120.312 140.285  1.00  0.00     0.012 A 
ATOM      6  C   UNL     1     138.360 119.293 139.685  1.00  0.00     0.001 A 
ATOM      7  C   UNL     1     137.954 118.748 138.466  1.00  0.00     0.003 A 
ENDROOT
BRANCH   4   8
ATOM      8  C   UNL     1     135.647 121.896 140.283  1.00  0.00     0.159 C 
ATOM      9  O   UNL     1     134.397 121.927 140.114  1.00  0.00    -0.295 OA
ATOM     10  C   UNL     1     136.280 122.974 141.111  1.00  0.00     0.093 C 
ENDBRANCH   4   8
TORSDOF 1
ENDMDL
MODEL 4
REMARK VINA RESULT:    -5.633      1.686      2.434
REMARK INTER + INTRA:          -6.040
REMARK INTER:                  -5.972
REMARK INTRA:                  -0.068
REMARK UNBOUND:                -0.078
REMARK SMILES CC(=O)c1cccc(C)c1
REMARK SMILES IDX 9 1 8 2 10 3 4 4 5 5 6 6 7 7 2 8 3 9 1 10
REMARK H PARENT
REMARK Flexibility Score: inf
ROOT
ATOM      1  C   UNL     1     137.932 118.039 135.875  1.00  0.00     0.044 C 
ATOM      2  C   UNL     1     137.117 118.342 137.099  1.00  0.00    -0.050 A 
ATOM      3  C   UNL     1     137.683 119.063 138.163  1.00  0.00     0.015 A 
ATOM      4  C   UNL     1     136.941 119.322 139.333  1.00  0.00     0.017 A 
ATOM      5  C   UNL     1     135.623 118.833 139.421  1.00  0.00     0.012 A 
ATOM      6  C   UNL     1     135.067 118.100 138.369  1.00  0.00     0.001 A 
ATOM      7  C   UNL     1     135.811 117.849 137.215  1.00  0.00     0.003 A 
ENDROOT
BRANCH   4   8
ATOM      8  C   UNL     1     137.554 120.096 140.446  1.00  0.00     0.159 C 
ATOM      9  O   UNL     1     138.520 119.607 141.093  1.00  0.00    -0.295 OA
ATOM     10  C   UNL     1     137.057 121.458 140.832  1.00  0.00     0.093 C 
ENDBRANCH   4   8
TORSDOF 1
ENDMDL
MODEL 5
REMARK VINA RESULT:    -5.592      2.154      3.978
REMARK INTER + INTRA:          -5.997
REMARK INTER:                  -5.921
REMARK INTRA:                  -0.076
REMARK UNBOUND:                -0.078
REMARK SMILES CC(=O)c1cccc(C)c1
REMARK SMILES IDX 9 1 8 2 10 3 4 4 5 5 6 6 7 7 2 8 3 9 1 10
REMARK H PARENT
REMARK Flexibility Score: inf
ROOT
ATOM      1  C   UNL     1     133.908 120.739 140.380  1.00  0.00     0.044 C 
ATOM      2  C   UNL     1     135.273 120.240 140.006  1.00  0.00    -0.050 A 
ATOM      3  C   UNL     1     135.415 119.230 139.040  1.00  0.00     0.015 A 
ATOM      4  C   UNL     1     136.688 118.726 138.706  1.00  0.00     0.017 A 
ATOM      5  C   UNL     1     137.817 119.246 139.369  1.00  0.00     0.012 A 
ATOM      6  C   UNL     1     137.673 120.238 140.344  1.00  0.00     0.001 A 
ATOM      7  C   UNL     1     136.408 120.729 140.666  1.00  0.00     0.003 A 
ENDROOT
BRANCH   4   8
ATOM      8  C   UNL     1     136.820 117.663 137.673  1.00  0.00     0.159 C 
ATOM      9  O   UNL     1     135.923 117.527 136.797  1.00  0.00    -0.295 OA
ATOM     10  C   UNL     1     137.999 116.736 137.635  1.00  0.00     0.093 C 
ENDBRANCH   4   8
TORSDOF 1
ENDMDL
MODEL 6
REMARK VINA RESULT:    -5.531      2.501      4.522
REMARK INTER + INTRA:          -5.931
REMARK INTER:                  -5.865
REMARK INTRA:                  -0.066
REMARK UNBOUND:                -0.078
REMARK SMILES CC(=O)c1cccc(C)c1
REMARK SMILES IDX 9 1 8 2 10 3 4 4 5 5 6 6 7 7 2 8 3 9 1 10
REMARK H PARENT
REMARK Flexibility Score: inf
ROOT
ATOM      1  C   UNL     1     137.688 121.164 140.577  1.00  0.00     0.044 C 
ATOM      2  C   UNL     1     137.002 120.080 139.797  1.00  0.00    -0.050 A 
ATOM      3  C   UNL     1     137.719 119.330 138.851  1.00  0.00     0.015 A 
ATOM      4  C   UNL     1     137.078 118.335 138.085  1.00  0.00     0.017 A 
ATOM      5  C   UNL     1     135.700 118.116 138.277  1.00  0.00     0.012 A 
ATOM      6  C   UNL     1     134.983 118.876 139.206  1.00  0.00     0.001 A 
ATOM      7  C   UNL     1     135.628 119.858 139.958  1.00  0.00     0.003 A 
ENDROOT
BRANCH   4   8
ATOM      8  C   UNL     1     137.856 117.543 137.094  1.00  0.00     0.159 C 
ATOM      9  O   UNL     1     138.099 118.028 135.955  1.00  0.00    -0.295 OA
ATOM     10  C   UNL     1     138.370 116.168 137.407  1.00  0.00     0.093 C 
ENDBRANCH   4   8
TORSDOF 1
ENDMDL
MODEL 7
REMARK VINA RESULT:    -5.519      2.031      4.388
REMARK INTER + INTRA:          -5.920
REMARK INTER:                  -5.850
REMARK INTRA:                  -0.069
REMARK UNBOUND:                -0.078
REMARK SMILES CC(=O)c1cccc(C)c1
REMARK SMILES IDX 9 1 8 2 10 3 4 4 5 5 6 6 7 7 2 8 3 9 1 10
REMARK H PARENT
REMARK Flexibility Score: inf
ROOT
ATOM      1  C   UNL     1     135.697 124.256 138.978  1.00  0.00     0.044 C 
ATOM      2  C   UNL     1     135.070 122.983 139.468  1.00  0.00    -0.050 A 
ATOM      3  C   UNL     1     135.797 121.782 139.443  1.00  0.00     0.015 A 
ATOM      4  C   UNL     1     135.207 120.573 139.864  1.00  0.00     0.017 A 
ATOM      5  C   UNL     1     133.867 120.590 140.300  1.00  0.00     0.012 A 
ATOM      6  C   UNL     1     133.138 121.782 140.307  1.00  0.00     0.001 A 
ATOM      7  C   UNL     1     133.733 122.973 139.887  1.00  0.00     0.003 A 
ENDROOT
BRANCH   4   8
ATOM      8  C   UNL     1     135.997 119.312 139.841  1.00  0.00     0.159 C 
ATOM      9  O   UNL     1     137.067 119.231 140.504  1.00  0.00    -0.295 OA
ATOM     10  C   UNL     1     135.559 118.117 139.046  1.00  0.00     0.093 C 
ENDBRANCH   4   8
TORSDOF 1
ENDMDL
MODEL 8
REMARK VINA RESULT:    -5.443      1.725      2.177
REMARK INTER + INTRA:          -5.839
REMARK INTER:                  -5.760
REMARK INTRA:                  -0.079
REMARK UNBOUND:                -0.078
REMARK SMILES CC(=O)c1cccc(C)c1
REMARK SMILES IDX 9 1 8 2 10 3 4 4 5 5 6 6 7 7 2 8 3 9 1 10
REMARK H PARENT
REMARK Flexibility Score: inf
ROOT
ATOM      1  C   UNL     1     135.446 117.972 138.889  1.00  0.00     0.044 C 
ATOM      2  C   UNL     1     135.938 119.232 139.540  1.00  0.00    -0.050 A 
ATOM      3  C   UNL     1     135.115 120.368 139.591  1.00  0.00     0.015 A 
ATOM      4  C   UNL     1     135.577 121.569 140.166  1.00  0.00     0.017 A 
ATOM      5  C   UNL     1     136.889 121.613 140.679  1.00  0.00     0.012 A 
ATOM      6  C   UNL     1     137.715 120.487 140.611  1.00  0.00     0.001 A 
ATOM      7  C   UNL     1     137.245 119.304 140.039  1.00  0.00     0.003 A 
ENDROOT
BRANCH   4   8
ATOM      8  C   UNL     1     134.687 122.760 140.221  1.00  0.00     0.159 C 
ATOM      9  O   UNL     1     135.168 123.890 140.510  1.00  0.00    -0.295 OA
ATOM     10  C   UNL     1     133.216 122.664 139.940  1.00  0.00     0.093 C 
ENDBRANCH   4   8
TORSDOF 1
ENDMDL
MODEL 9
REMARK VINA RESULT:    -5.243      1.989      3.923
REMARK INTER + INTRA:          -5.627
REMARK INTER:                  -5.549
REMARK INTRA:                  -0.079
REMARK UNBOUND:                -0.078
REMARK SMILES CC(=O)c1cccc(C)c1
REMARK SMILES IDX 9 1 8 2 10 3 4 4 5 5 6 6 7 7 2 8 3 9 1 10
REMARK H PARENT
REMARK Flexibility Score: inf
ROOT
ATOM      1  C   UNL     1     133.185 122.021 140.068  1.00  0.00     0.044 C 
ATOM      2  C   UNL     1     134.660 121.755 140.156  1.00  0.00    -0.050 A 
ATOM      3  C   UNL     1     135.183 120.528 139.718  1.00  0.00     0.015 A 
ATOM      4  C   UNL     1     136.560 120.250 139.830  1.00  0.00     0.017 A 
ATOM      5  C   UNL     1     137.402 121.224 140.403  1.00  0.00     0.012 A 
ATOM      6  C   UNL     1     136.878 122.438 140.855  1.00  0.00     0.001 A 
ATOM      7  C   UNL     1     135.512 122.701 140.740  1.00  0.00     0.003 A 
ENDROOT
BRANCH   4   8
ATOM      8  C   UNL     1     137.098 118.948 139.351  1.00  0.00     0.159 C 
ATOM      9  O   UNL     1     138.345 118.788 139.242  1.00  0.00    -0.295 OA
ATOM     10  C   UNL     1     136.199 117.804 138.989  1.00  0.00     0.093 C 
ENDBRANCH   4   8
TORSDOF 1
ENDMDL
