MODEL 1
REMARK VINA RESULT:    -4.363      0.000      0.000
REMARK INTER + INTRA:          -5.155
REMARK INTER:                  -5.129
REMARK INTRA:                  -0.026
REMARK UNBOUND:                -0.026
REMARK SMILES CCCCC(=O)[O-]
REMARK SMILES IDX 4 1 5 2 6 3 7 4 3 5 2 6 1 7
REMARK H PARENT
REMARK Flexibility Score: inf
ROOT
ATOM      1  C   UNL     1     -10.282  -2.274  -9.365  1.00  0.00     0.053 C 
ENDROOT
BRANCH   1   2
ATOM      2  C   UNL     1     -11.724  -2.256  -8.963  1.00  0.00     0.041 C 
ATOM      3  O   UNL     1     -12.153  -3.074  -8.106  1.00  0.00    -0.550 OA
ATOM      4  O   UNL     1     -12.603  -1.360  -9.559  1.00  0.00    -0.550 OA
ENDBRANCH   1   2
BRANCH   1   5
ATOM      5  C   UNL     1      -9.533  -3.463  -8.749  1.00  0.00     0.006 C 
BRANCH   5   6
ATOM      6  C   UNL     1      -8.011  -3.341  -8.917  1.00  0.00    -0.003 C 
ATOM      7  C   UNL     1      -7.427  -2.337  -7.927  1.00  0.00     0.004 C 
ENDBRANCH   5   6
ENDBRANCH   1   5
TORSDOF 3
ENDMDL
MODEL 2
REMARK VINA RESULT:    -4.333     12.591     13.372
REMARK INTER + INTRA:          -5.120
REMARK INTER:                  -5.099
REMARK INTRA:                  -0.021
REMARK UNBOUND:                -0.026
REMARK SMILES CCCCC(=O)[O-]
REMARK SMILES IDX 4 1 5 2 6 3 7 4 3 5 2 6 1 7
REMARK H PARENT
REMARK Flexibility Score: inf
ROOT
ATOM      1  C   UNL     1      -7.265 -14.655  -4.407  1.00  0.00     0.053 C 
ENDROOT
BRANCH   1   2
ATOM      2  C   UNL     1      -7.339 -13.242  -4.897  1.00  0.00     0.041 C 
ATOM      3  O   UNL     1      -6.396 -12.440  -4.663  1.00  0.00    -0.550 OA
ATOM      4  O   UNL     1      -8.464 -12.800  -5.581  1.00  0.00    -0.550 OA
ENDBRANCH   1   2
BRANCH   1   5
ATOM      5  C   UNL     1      -6.533 -14.755  -3.062  1.00  0.00     0.006 C 
BRANCH   5   6
ATOM      6  C   UNL     1      -6.127 -16.198  -2.728  1.00  0.00    -0.003 C 
ATOM      7  C   UNL     1      -4.812 -16.234  -1.955  1.00  0.00     0.004 C 
ENDBRANCH   5   6
ENDBRANCH   1   5
TORSDOF 3
ENDMDL
MODEL 3
REMARK VINA RESULT:    -4.285      0.927      1.803
REMARK INTER + INTRA:          -5.063
REMARK INTER:                  -4.984
REMARK INTRA:                  -0.079
REMARK UNBOUND:                -0.026
REMARK SMILES CCCCC(=O)[O-]
REMARK SMILES IDX 4 1 5 2 6 3 7 4 3 5 2 6 1 7
REMARK H PARENT
REMARK Flexibility Score: inf
ROOT
ATOM      1  C   UNL     1     -10.034  -2.003  -9.482  1.00  0.00     0.053 C 
ENDROOT
BRANCH   1   2
ATOM      2  C   UNL     1     -11.459  -2.277  -9.113  1.00  0.00     0.041 C 
ATOM      3  O   UNL     1     -12.380  -1.539  -9.554  1.00  0.00    -0.550 OA
ATOM      4  O   UNL     1     -11.768  -3.325  -8.255  1.00  0.00    -0.550 OA
ENDBRANCH   1   2
BRANCH   1   5
ATOM      5  C   UNL     1      -9.058  -2.854  -8.659  1.00  0.00     0.006 C 
BRANCH   5   6
ATOM      6  C   UNL     1      -8.415  -3.971  -9.494  1.00  0.00    -0.003 C 
ATOM      7  C   UNL     1      -8.385  -5.287  -8.722  1.00  0.00     0.004 C 
ENDBRANCH   5   6
ENDBRANCH   1   5
TORSDOF 3
ENDMDL
MODEL 4
REMARK VINA RESULT:    -4.246      2.715      4.002
REMARK INTER + INTRA:          -5.017
REMARK INTER:                  -4.952
REMARK INTRA:                  -0.065
REMARK UNBOUND:                -0.026
REMARK SMILES CCCCC(=O)[O-]
REMARK SMILES IDX 4 1 5 2 6 3 7 4 3 5 2 6 1 7
REMARK H PARENT
REMARK Flexibility Score: inf
ROOT
ATOM      1  C   UNL     1      -8.328  -3.803  -9.705  1.00  0.00     0.053 C 
ENDROOT
BRANCH   1   2
ATOM      2  C   UNL     1      -8.410  -5.119  -8.994  1.00  0.00     0.041 C 
ATOM      3  O   UNL     1      -8.938  -5.190  -7.852  1.00  0.00    -0.550 OA
ATOM      4  O   UNL     1      -7.872  -6.260  -9.576  1.00  0.00    -0.550 OA
ENDBRANCH   1   2
BRANCH   1   5
ATOM      5  C   UNL     1      -9.018  -2.684  -8.914  1.00  0.00     0.006 C 
BRANCH   5   6
ATOM      6  C   UNL     1     -10.180  -2.053  -9.695  1.00  0.00    -0.003 C 
ATOM      7  C   UNL     1     -11.490  -2.170  -8.921  1.00  0.00     0.004 C 
ENDBRANCH   5   6
ENDBRANCH   1   5
TORSDOF 3
ENDMDL
MODEL 5
REMARK VINA RESULT:    -4.190     13.346     14.196
REMARK INTER + INTRA:          -4.951
REMARK INTER:                  -4.916
REMARK INTRA:                  -0.035
REMARK UNBOUND:                -0.026
REMARK SMILES CCCCC(=O)[O-]
REMARK SMILES IDX 4 1 5 2 6 3 7 4 3 5 2 6 1 7
REMARK H PARENT
REMARK Flexibility Score: inf
ROOT
ATOM      1  C   UNL     1      -6.695 -15.805  -4.110  1.00  0.00     0.053 C 
ENDROOT
BRANCH   1   2
ATOM      2  C   UNL     1      -8.033 -16.466  -4.230  1.00  0.00     0.041 C 
ATOM      3  O   UNL     1      -8.224 -17.606  -3.728  1.00  0.00    -0.550 OA
ATOM      4  O   UNL     1      -9.060 -15.840  -4.926  1.00  0.00    -0.550 OA
ENDBRANCH   1   2
BRANCH   1   5
ATOM      5  C   UNL     1      -6.493 -15.174  -2.726  1.00  0.00     0.006 C 
BRANCH   5   6
ATOM      6  C   UNL     1      -6.466 -13.639  -2.786  1.00  0.00    -0.003 C 
ATOM      7  C   UNL     1      -6.801 -13.138  -4.188  1.00  0.00     0.004 C 
ENDBRANCH   5   6
ENDBRANCH   1   5
TORSDOF 3
ENDMDL
MODEL 6
REMARK VINA RESULT:    -4.124     12.084     12.926
REMARK INTER + INTRA:          -4.874
REMARK INTER:                  -4.812
REMARK INTRA:                  -0.062
REMARK UNBOUND:                -0.026
REMARK SMILES CCCCC(=O)[O-]
REMARK SMILES IDX 4 1 5 2 6 3 7 4 3 5 2 6 1 7
REMARK H PARENT
REMARK Flexibility Score: inf
ROOT
ATOM      1  C   UNL     1      -7.281 -14.630  -5.022  1.00  0.00     0.053 C 
ENDROOT
BRANCH   1   2
ATOM      2  C   UNL     1      -8.695 -14.530  -5.502  1.00  0.00     0.041 C 
ATOM      3  O   UNL     1      -9.130 -13.445  -5.973  1.00  0.00    -0.550 OA
ATOM      4  O   UNL     1      -9.545 -15.624  -5.400  1.00  0.00    -0.550 OA
ENDBRANCH   1   2
BRANCH   1   5
ATOM      5  C   UNL     1      -6.844 -13.368  -4.267  1.00  0.00     0.006 C 
BRANCH   5   6
ATOM      6  C   UNL     1      -6.515 -13.657  -2.795  1.00  0.00    -0.003 C 
ATOM      7  C   UNL     1      -6.360 -15.155  -2.550  1.00  0.00     0.004 C 
ENDBRANCH   5   6
ENDBRANCH   1   5
TORSDOF 3
ENDMDL
MODEL 7
REMARK VINA RESULT:    -4.073     13.887     14.787
REMARK INTER + INTRA:          -4.814
REMARK INTER:                  -4.736
REMARK INTRA:                  -0.078
REMARK UNBOUND:                -0.026
REMARK SMILES CCCCC(=O)[O-]
REMARK SMILES IDX 4 1 5 2 6 3 7 4 3 5 2 6 1 7
REMARK H PARENT
REMARK Flexibility Score: inf
ROOT
ATOM      1  C   UNL     1      -6.059 -16.286  -3.820  1.00  0.00     0.053 C 
ENDROOT
BRANCH   1   2
ATOM      2  C   UNL     1      -7.013 -17.122  -4.616  1.00  0.00     0.041 C 
ATOM      3  O   UNL     1      -6.592 -17.827  -5.571  1.00  0.00    -0.550 OA
ATOM      4  O   UNL     1      -8.372 -17.098  -4.326  1.00  0.00    -0.550 OA
ENDBRANCH   1   2
BRANCH   1   5
ATOM      5  C   UNL     1      -6.783 -15.453  -2.754  1.00  0.00     0.006 C 
BRANCH   5   6
ATOM      6  C   UNL     1      -6.409 -13.966  -2.826  1.00  0.00    -0.003 C 
ATOM      7  C   UNL     1      -6.881 -13.343  -4.137  1.00  0.00     0.004 C 
ENDBRANCH   5   6
ENDBRANCH   1   5
TORSDOF 3
ENDMDL
MODEL 8
REMARK VINA RESULT:    -3.979     14.736     15.589
REMARK INTER + INTRA:          -4.703
REMARK INTER:                  -4.617
REMARK INTRA:                  -0.086
REMARK UNBOUND:                -0.026
REMARK SMILES CCCCC(=O)[O-]
REMARK SMILES IDX 4 1 5 2 6 3 7 4 3 5 2 6 1 7
REMARK H PARENT
REMARK Flexibility Score: inf
ROOT
ATOM      1  C   UNL     1      -6.126 -16.732  -4.678  1.00  0.00     0.053 C 
ENDROOT
BRANCH   1   2
ATOM      2  C   UNL     1      -7.184 -17.716  -5.071  1.00  0.00     0.041 C 
ATOM      3  O   UNL     1      -8.340 -17.633  -4.578  1.00  0.00    -0.550 OA
ATOM      4  O   UNL     1      -6.885 -18.745  -5.956  1.00  0.00    -0.550 OA
ENDBRANCH   1   2
BRANCH   1   5
ATOM      5  C   UNL     1      -6.727 -15.469  -4.048  1.00  0.00     0.006 C 
BRANCH   5   6
ATOM      6  C   UNL     1      -6.374 -15.339  -2.558  1.00  0.00    -0.003 C 
ATOM      7  C   UNL     1      -5.164 -16.199  -2.203  1.00  0.00     0.004 C 
ENDBRANCH   5   6
ENDBRANCH   1   5
TORSDOF 3
ENDMDL
MODEL 9
REMARK VINA RESULT:    -3.916     13.204     14.111
REMARK INTER + INTRA:          -4.629
REMARK INTER:                  -4.557
REMARK INTRA:                  -0.072
REMARK UNBOUND:                -0.026
REMARK SMILES CCCCC(=O)[O-]
REMARK SMILES IDX 4 1 5 2 6 3 7 4 3 5 2 6 1 7
REMARK H PARENT
REMARK Flexibility Score: inf
ROOT
ATOM      1  C   UNL     1      -7.392 -15.843  -5.057  1.00  0.00     0.053 C 
ENDROOT
BRANCH   1   2
ATOM      2  C   UNL     1      -7.591 -16.647  -3.809  1.00  0.00     0.041 C 
ATOM      3  O   UNL     1      -8.385 -17.625  -3.805  1.00  0.00    -0.550 OA
ATOM      4  O   UNL     1      -6.926 -16.298  -2.641  1.00  0.00    -0.550 OA
ENDBRANCH   1   2
BRANCH   1   5
ATOM      5  C   UNL     1      -8.589 -14.927  -5.341  1.00  0.00     0.006 C 
BRANCH   5   6
ATOM      6  C   UNL     1      -8.162 -13.468  -5.566  1.00  0.00    -0.003 C 
ATOM      7  C   UNL     1      -6.952 -13.111  -4.709  1.00  0.00     0.004 C 
ENDBRANCH   5   6
ENDBRANCH   1   5
TORSDOF 3
ENDMDL
