MODEL 1
REMARK VINA RESULT:    -3.787      0.000      0.000
REMARK INTER + INTRA:          -4.860
REMARK INTER:                  -4.784
REMARK INTRA:                  -0.076
REMARK UNBOUND:                -0.076
REMARK SMILES CSCC[C@H]([NH3+])C(=O)[O-]
REMARK SMILES IDX 4 1 5 2 6 3 7 7 8 8 9 9 3 10 2 11 1 12
REMARK H PARENT 6 4 6 5 6 6
REMARK Flexibility Score: inf
ROOT
ATOM      1  C   UNL     1     -15.496  32.812  16.388  1.00  0.00     0.082 C 
ENDROOT
BRANCH   1   2
ATOM      2  C   UNL     1     -16.125  33.336  15.078  1.00  0.00     0.228 C 
BRANCH   2   3
ATOM      3  N   UNL     1     -16.104  32.317  14.018  1.00  0.00    -0.350 N 
ATOM      4  H   UNL     1     -17.075  32.091  13.701  1.00  0.00     0.345 HD
ATOM      5  H   UNL     1     -15.543  32.656  13.205  1.00  0.00     0.345 HD
ATOM      6  H   UNL     1     -15.649  31.444  14.373  1.00  0.00     0.345 HD
ENDBRANCH   2   3
BRANCH   2   7
ATOM      7  C   UNL     1     -15.393  34.572  14.624  1.00  0.00     0.099 C 
ATOM      8  O   UNL     1     -15.453  35.634  15.299  1.00  0.00    -0.544 OA
ATOM      9  O   UNL     1     -14.661  34.551  13.444  1.00  0.00    -0.544 OA
ENDBRANCH   2   7
ENDBRANCH   1   2
BRANCH   1  10
ATOM     10  C   UNL     1     -16.377  31.778  17.093  1.00  0.00     0.076 C 
BRANCH  10  11
ATOM     11  S   UNL     1     -16.014  31.773  18.881  1.00  0.00    -0.165 SA
ATOM     12  C   UNL     1     -14.913  33.222  18.813  1.00  0.00     0.085 C 
ENDBRANCH  10  11
ENDBRANCH   1  10
TORSDOF 5
ENDMDL
MODEL 2
REMARK VINA RESULT:    -3.724      1.034      1.843
REMARK INTER + INTRA:          -4.780
REMARK INTER:                  -4.737
REMARK INTRA:                  -0.042
REMARK UNBOUND:                -0.076
REMARK SMILES CSCC[C@H]([NH3+])C(=O)[O-]
REMARK SMILES IDX 4 1 5 2 6 3 7 7 8 8 9 9 3 10 2 11 1 12
REMARK H PARENT 6 4 6 5 6 6
REMARK Flexibility Score: inf
ROOT
ATOM      1  C   UNL     1     -15.826  32.536  16.393  1.00  0.00     0.082 C 
ENDROOT
BRANCH   1   2
ATOM      2  C   UNL     1     -16.298  33.208  15.084  1.00  0.00     0.228 C 
BRANCH   2   3
ATOM      3  N   UNL     1     -16.230  32.284  13.942  1.00  0.00    -0.350 N 
ATOM      4  H   UNL     1     -15.326  32.395  13.428  1.00  0.00     0.345 HD
ATOM      5  H   UNL     1     -16.324  31.297  14.273  1.00  0.00     0.345 HD
ATOM      6  H   UNL     1     -17.022  32.472  13.285  1.00  0.00     0.345 HD
ENDBRANCH   2   3
BRANCH   2   7
ATOM      7  C   UNL     1     -15.461  34.430  14.814  1.00  0.00     0.099 C 
ATOM      8  O   UNL     1     -14.792  34.525  13.750  1.00  0.00    -0.544 OA
ATOM      9  O   UNL     1     -15.407  35.455  15.749  1.00  0.00    -0.544 OA
ENDBRANCH   2   7
ENDBRANCH   1   2
BRANCH   1  10
ATOM     10  C   UNL     1     -16.884  31.606  16.994  1.00  0.00     0.076 C 
BRANCH  10  11
ATOM     11  S   UNL     1     -16.444  31.202  18.718  1.00  0.00    -0.165 SA
ATOM     12  C   UNL     1     -17.133  29.518  18.658  1.00  0.00     0.085 C 
ENDBRANCH  10  11
ENDBRANCH   1  10
TORSDOF 5
ENDMDL
MODEL 3
REMARK VINA RESULT:    -3.584      2.035      2.334
REMARK INTER + INTRA:          -4.603
REMARK INTER:                  -4.477
REMARK INTRA:                  -0.126
REMARK UNBOUND:                -0.076
REMARK SMILES CSCC[C@H]([NH3+])C(=O)[O-]
REMARK SMILES IDX 4 1 5 2 6 3 7 7 8 8 9 9 3 10 2 11 1 12
REMARK H PARENT 6 4 6 5 6 6
REMARK Flexibility Score: inf
ROOT
ATOM      1  C   UNL     1     -17.545  31.992  16.399  1.00  0.00     0.082 C 
ENDROOT
BRANCH   1   2
ATOM      2  C   UNL     1     -16.112  32.361  15.954  1.00  0.00     0.228 C 
BRANCH   2   3
ATOM      3  N   UNL     1     -15.420  33.175  16.965  1.00  0.00    -0.350 N 
ATOM      4  H   UNL     1     -15.084  34.074  16.552  1.00  0.00     0.345 HD
ATOM      5  H   UNL     1     -16.063  33.378  17.763  1.00  0.00     0.345 HD
ATOM      6  H   UNL     1     -14.602  32.647  17.347  1.00  0.00     0.345 HD
ENDBRANCH   2   3
BRANCH   2   7
ATOM      7  C   UNL     1     -16.164  33.098  14.642  1.00  0.00     0.099 C 
ATOM      8  O   UNL     1     -16.953  32.727  13.732  1.00  0.00    -0.544 OA
ATOM      9  O   UNL     1     -15.324  34.181  14.420  1.00  0.00    -0.544 OA
ENDBRANCH   2   7
ENDBRANCH   1   2
BRANCH   1  10
ATOM     10  C   UNL     1     -17.625  31.617  17.882  1.00  0.00     0.076 C 
BRANCH  10  11
ATOM     11  S   UNL     1     -16.877  29.974  18.144  1.00  0.00    -0.165 SA
ATOM     12  C   UNL     1     -15.752  30.531  19.463  1.00  0.00     0.085 C 
ENDBRANCH  10  11
ENDBRANCH   1  10
TORSDOF 5
ENDMDL
MODEL 4
REMARK VINA RESULT:    -3.566      2.185      2.675
REMARK INTER + INTRA:          -4.580
REMARK INTER:                  -4.505
REMARK INTRA:                  -0.075
REMARK UNBOUND:                -0.076
REMARK SMILES CSCC[C@H]([NH3+])C(=O)[O-]
REMARK SMILES IDX 4 1 5 2 6 3 7 7 8 8 9 9 3 10 2 11 1 12
REMARK H PARENT 6 4 6 5 6 6
REMARK Flexibility Score: inf
ROOT
ATOM      1  C   UNL     1     -16.237  32.119  16.942  1.00  0.00     0.082 C 
ENDROOT
BRANCH   1   2
ATOM      2  C   UNL     1     -15.840  32.903  15.670  1.00  0.00     0.228 C 
BRANCH   2   3
ATOM      3  N   UNL     1     -15.721  34.344  15.934  1.00  0.00    -0.350 N 
ATOM      4  H   UNL     1     -15.222  34.825  15.151  1.00  0.00     0.345 HD
ATOM      5  H   UNL     1     -16.669  34.767  16.054  1.00  0.00     0.345 HD
ATOM      6  H   UNL     1     -15.193  34.501  16.823  1.00  0.00     0.345 HD
ENDBRANCH   2   3
BRANCH   2   7
ATOM      7  C   UNL     1     -16.856  32.655  14.586  1.00  0.00     0.099 C 
ATOM      8  O   UNL     1     -16.617  32.994  13.397  1.00  0.00    -0.544 OA
ATOM      9  O   UNL     1     -18.075  32.068  14.899  1.00  0.00    -0.544 OA
ENDBRANCH   2   7
ENDBRANCH   1   2
BRANCH   1  10
ATOM     10  C   UNL     1     -15.283  32.372  18.113  1.00  0.00     0.076 C 
BRANCH  10  11
ATOM     11  S   UNL     1     -15.439  31.028  19.337  1.00  0.00    -0.165 SA
ATOM     12  C   UNL     1     -16.617  30.058  18.344  1.00  0.00     0.085 C 
ENDBRANCH  10  11
ENDBRANCH   1  10
TORSDOF 5
ENDMDL
MODEL 5
REMARK VINA RESULT:    -3.405      4.011      4.852
REMARK INTER + INTRA:          -4.377
REMARK INTER:                  -4.255
REMARK INTRA:                  -0.122
REMARK UNBOUND:                -0.076
REMARK SMILES CSCC[C@H]([NH3+])C(=O)[O-]
REMARK SMILES IDX 4 1 5 2 6 3 7 7 8 8 9 9 3 10 2 11 1 12
REMARK H PARENT 6 4 6 5 6 6
REMARK Flexibility Score: inf
ROOT
ATOM      1  C   UNL     1     -17.600  31.371  17.671  1.00  0.00     0.082 C 
ENDROOT
BRANCH   1   2
ATOM      2  C   UNL     1     -16.198  31.097  18.261  1.00  0.00     0.228 C 
BRANCH   2   3
ATOM      3  N   UNL     1     -15.871  29.663  18.243  1.00  0.00    -0.350 N 
ATOM      4  H   UNL     1     -16.648  29.100  18.658  1.00  0.00     0.345 HD
ATOM      5  H   UNL     1     -15.697  29.347  17.263  1.00  0.00     0.345 HD
ATOM      6  H   UNL     1     -14.995  29.492  18.789  1.00  0.00     0.345 HD
ENDBRANCH   2   3
BRANCH   2   7
ATOM      7  C   UNL     1     -16.130  31.627  19.669  1.00  0.00     0.099 C 
ATOM      8  O   UNL     1     -17.154  32.112  20.220  1.00  0.00    -0.544 OA
ATOM      9  O   UNL     1     -14.926  31.603  20.362  1.00  0.00    -0.544 OA
ENDBRANCH   2   7
ENDBRANCH   1   2
BRANCH   1  10
ATOM     10  C   UNL     1     -17.540  32.075  16.312  1.00  0.00     0.076 C 
BRANCH  10  11
ATOM     11  S   UNL     1     -15.898  32.836  16.083  1.00  0.00    -0.165 SA
ATOM     12  C   UNL     1     -16.118  33.130  14.299  1.00  0.00     0.085 C 
ENDBRANCH  10  11
ENDBRANCH   1  10
TORSDOF 5
ENDMDL
MODEL 6
REMARK VINA RESULT:    -3.367      2.498      2.924
REMARK INTER + INTRA:          -4.328
REMARK INTER:                  -4.251
REMARK INTRA:                  -0.077
REMARK UNBOUND:                -0.076
REMARK SMILES CSCC[C@H]([NH3+])C(=O)[O-]
REMARK SMILES IDX 4 1 5 2 6 3 7 7 8 8 9 9 3 10 2 11 1 12
REMARK H PARENT 6 4 6 5 6 6
REMARK Flexibility Score: inf
ROOT
ATOM      1  C   UNL     1     -15.180  32.995  17.228  1.00  0.00     0.082 C 
ENDROOT
BRANCH   1   2
ATOM      2  C   UNL     1     -16.474  32.212  16.912  1.00  0.00     0.228 C 
BRANCH   2   3
ATOM      3  N   UNL     1     -16.362  30.797  17.296  1.00  0.00    -0.350 N 
ATOM      4  H   UNL     1     -15.963  30.230  16.514  1.00  0.00     0.345 HD
ATOM      5  H   UNL     1     -15.755  30.701  18.141  1.00  0.00     0.345 HD
ATOM      6  H   UNL     1     -17.307  30.420  17.543  1.00  0.00     0.345 HD
ENDBRANCH   2   3
BRANCH   2   7
ATOM      7  C   UNL     1     -16.789  32.328  15.444  1.00  0.00     0.099 C 
ATOM      8  O   UNL     1     -15.892  32.651  14.621  1.00  0.00    -0.544 OA
ATOM      9  O   UNL     1     -18.082  32.099  14.992  1.00  0.00    -0.544 OA
ENDBRANCH   2   7
ENDBRANCH   1   2
BRANCH   1  10
ATOM     10  C   UNL     1     -14.893  33.079  18.730  1.00  0.00     0.076 C 
BRANCH  10  11
ATOM     11  S   UNL     1     -13.336  32.206  19.111  1.00  0.00    -0.165 SA
ATOM     12  C   UNL     1     -12.598  33.606  20.012  1.00  0.00     0.085 C 
ENDBRANCH  10  11
ENDBRANCH   1  10
TORSDOF 5
ENDMDL
MODEL 7
REMARK VINA RESULT:    -3.344      2.351      2.779
REMARK INTER + INTRA:          -4.300
REMARK INTER:                  -4.187
REMARK INTRA:                  -0.113
REMARK UNBOUND:                -0.076
REMARK SMILES CSCC[C@H]([NH3+])C(=O)[O-]
REMARK SMILES IDX 4 1 5 2 6 3 7 7 8 8 9 9 3 10 2 11 1 12
REMARK H PARENT 6 4 6 5 6 6
REMARK Flexibility Score: inf
ROOT
ATOM      1  C   UNL     1     -15.523  33.379  17.502  1.00  0.00     0.082 C 
ENDROOT
BRANCH   1   2
ATOM      2  C   UNL     1     -15.644  33.157  15.977  1.00  0.00     0.228 C 
BRANCH   2   3
ATOM      3  N   UNL     1     -15.676  34.430  15.242  1.00  0.00    -0.350 N 
ATOM      4  H   UNL     1     -14.858  35.029  15.501  1.00  0.00     0.345 HD
ATOM      5  H   UNL     1     -15.664  34.251  14.213  1.00  0.00     0.345 HD
ATOM      6  H   UNL     1     -16.559  34.946  15.462  1.00  0.00     0.345 HD
ENDBRANCH   2   3
BRANCH   2   7
ATOM      7  C   UNL     1     -16.883  32.355  15.680  1.00  0.00     0.099 C 
ATOM      8  O   UNL     1     -17.164  32.028  14.496  1.00  0.00    -0.544 OA
ATOM      9  O   UNL     1     -17.736  31.987  16.712  1.00  0.00    -0.544 OA
ENDBRANCH   2   7
ENDBRANCH   1   2
BRANCH   1  10
ATOM     10  C   UNL     1     -14.556  32.395  18.166  1.00  0.00     0.076 C 
BRANCH  10  11
ATOM     11  S   UNL     1     -15.351  31.636  19.623  1.00  0.00    -0.165 SA
ATOM     12  C   UNL     1     -15.540  33.207  20.524  1.00  0.00     0.085 C 
ENDBRANCH  10  11
ENDBRANCH   1  10
TORSDOF 5
ENDMDL
MODEL 8
REMARK VINA RESULT:    -3.281      2.866      3.423
REMARK INTER + INTRA:          -4.220
REMARK INTER:                  -3.990
REMARK INTRA:                  -0.230
REMARK UNBOUND:                -0.076
REMARK SMILES CSCC[C@H]([NH3+])C(=O)[O-]
REMARK SMILES IDX 4 1 5 2 6 3 7 7 8 8 9 9 3 10 2 11 1 12
REMARK H PARENT 6 4 6 5 6 6
REMARK Flexibility Score: inf
ROOT
ATOM      1  C   UNL     1     -16.134  32.028  19.175  1.00  0.00     0.082 C 
ENDROOT
BRANCH   1   2
ATOM      2  C   UNL     1     -16.808  31.213  18.048  1.00  0.00     0.228 C 
BRANCH   2   3
ATOM      3  N   UNL     1     -16.171  29.900  17.869  1.00  0.00    -0.350 N 
ATOM      4  H   UNL     1     -16.665  29.167  18.428  1.00  0.00     0.345 HD
ATOM      5  H   UNL     1     -16.178  29.632  16.859  1.00  0.00     0.345 HD
ATOM      6  H   UNL     1     -15.171  29.946  18.175  1.00  0.00     0.345 HD
ENDBRANCH   2   3
BRANCH   2   7
ATOM      7  C   UNL     1     -16.759  31.994  16.761  1.00  0.00     0.099 C 
ATOM      8  O   UNL     1     -17.796  32.137  16.061  1.00  0.00    -0.544 OA
ATOM      9  O   UNL     1     -15.560  32.544  16.329  1.00  0.00    -0.544 OA
ENDBRANCH   2   7
ENDBRANCH   1   2
BRANCH   1  10
ATOM     10  C   UNL     1     -14.807  31.416  19.632  1.00  0.00     0.076 C 
BRANCH  10  11
ATOM     11  S   UNL     1     -13.447  32.594  19.327  1.00  0.00    -0.165 SA
ATOM     12  C   UNL     1     -14.517  34.068  19.359  1.00  0.00     0.085 C 
ENDBRANCH  10  11
ENDBRANCH   1  10
TORSDOF 5
ENDMDL
MODEL 9
REMARK VINA RESULT:    -3.226      2.675      3.041
REMARK INTER + INTRA:          -4.150
REMARK INTER:                  -4.010
REMARK INTRA:                  -0.140
REMARK UNBOUND:                -0.076
REMARK SMILES CSCC[C@H]([NH3+])C(=O)[O-]
REMARK SMILES IDX 4 1 5 2 6 3 7 7 8 8 9 9 3 10 2 11 1 12
REMARK H PARENT 6 4 6 5 6 6
REMARK Flexibility Score: inf
ROOT
ATOM      1  C   UNL     1     -17.580  31.557  17.945  1.00  0.00     0.082 C 
ENDROOT
BRANCH   1   2
ATOM      2  C   UNL     1     -16.364  31.561  16.991  1.00  0.00     0.228 C 
BRANCH   2   3
ATOM      3  N   UNL     1     -15.137  31.996  17.675  1.00  0.00    -0.350 N 
ATOM      4  H   UNL     1     -15.313  32.856  18.243  1.00  0.00     0.345 HD
ATOM      5  H   UNL     1     -14.783  31.234  18.297  1.00  0.00     0.345 HD
ATOM      6  H   UNL     1     -14.390  32.199  16.971  1.00  0.00     0.345 HD
ENDBRANCH   2   3
BRANCH   2   7
ATOM      7  C   UNL     1     -16.648  32.457  15.814  1.00  0.00     0.099 C 
ATOM      8  O   UNL     1     -15.973  33.505  15.631  1.00  0.00    -0.544 OA
ATOM      9  O   UNL     1     -17.673  32.140  14.933  1.00  0.00    -0.544 OA
ENDBRANCH   2   7
ENDBRANCH   1   2
BRANCH   1  10
ATOM     10  C   UNL     1     -17.801  30.198  18.614  1.00  0.00     0.076 C 
BRANCH  10  11
ATOM     11  S   UNL     1     -17.142  30.233  20.316  1.00  0.00    -0.165 SA
ATOM     12  C   UNL     1     -17.536  31.990  20.591  1.00  0.00     0.085 C 
ENDBRANCH  10  11
ENDBRANCH   1  10
TORSDOF 5
ENDMDL
