MODEL 1
REMARK VINA RESULT:    -4.026      0.000      0.000
REMARK INTER + INTRA:          -6.418
REMARK INTER:                  -6.145
REMARK INTRA:                  -0.273
REMARK UNBOUND:                -0.273
REMARK SMILES CC1=CCC[C@H](C)C(=O)C[C@@H](C(C)C)C(=O)C1
REMARK SMILES IDX 8 1 9 2 6 3 7 4 5 5 4 6 3 7 2 8 1 9 10 11 11 12 15 13 16 14
REMARK SMILES IDX 17 15 12 17 13 18 14 19
REMARK H PARENT
REMARK Flexibility Score: 70.00
ROOT
ATOM      1  C   UNL     1      17.253 -11.708  65.073  1.00  0.00     0.136 C 
ATOM      2  O   UNL     1      16.186 -11.476  65.625  1.00  0.00    -0.299 OA
ENDROOT
BRANCH   1   3
ATOM      3  C   UNL     1      17.566 -11.075  63.732  1.00  0.00     0.053 C 
ATOM      4  C   UNL     1      16.410 -11.349  62.765  1.00  0.00     0.016 C 
BRANCH   3   5
ATOM      5  C   UNL     1      17.831  -9.554  63.831  1.00  0.00     0.015 C 
BRANCH   5   6
ATOM      6  C   UNL     1      19.119  -9.194  64.592  1.00  0.00     0.028 C 
BRANCH   6   7
ATOM      7  C   UNL     1      20.340  -9.767  63.913  1.00  0.00    -0.028 C 
ATOM      8  C   UNL     1      21.322 -10.468  64.522  1.00  0.00    -0.070 CG0
ATOM      9  C   UNL     1      22.482 -10.941  63.683  1.00  0.00     0.039 C 
ATOM     10  G   UNL     1      21.301 -10.804  66.001  1.00  0.00     0.000 G0
ENDBRANCH   6   7
ENDBRANCH   5   6
ENDBRANCH   3   5
ENDBRANCH   1   3
BRANCH   1  11
ATOM     11  C   UNL     1      18.207 -12.693  65.703  1.00  0.00     0.087 C 
BRANCH  11  12
ATOM     12  C   UNL     1      19.111 -12.039  66.777  1.00  0.00     0.066 C 
BRANCH  12  13
ATOM     13  C   UNL     1      20.558 -12.072  66.311  1.00  0.00     0.140 C 
ATOM     14  O   UNL     1      21.141 -13.144  66.232  1.00  0.00    -0.299 OA
BRANCH  13  15
ATOM     15  C   UNL     1      21.319 -10.804  66.012  1.00  0.00     0.106 CG0
ATOM     16  G   UNL     1      21.331 -10.474  64.532  1.00  0.00     0.000 G0
ENDBRANCH  13  15
ENDBRANCH  12  13
BRANCH  12  17
ATOM     17  C   UNL     1      18.972 -12.737  68.168  1.00  0.00    -0.006 C 
ATOM     18  C   UNL     1      17.501 -12.977  68.556  1.00  0.00     0.008 C 
ATOM     19  C   UNL     1      19.649 -11.913  69.278  1.00  0.00     0.008 C 
ENDBRANCH  12  17
ENDBRANCH  11  12
ENDBRANCH   1  11
TORSDOF 1
ENDMDL
MODEL 2
REMARK VINA RESULT:    -3.947      2.011      4.261
REMARK INTER + INTRA:          -6.297
REMARK INTER:                  -6.092
REMARK INTRA:                  -0.204
REMARK UNBOUND:                -0.273
REMARK SMILES CC1=CCC[C@H](C)C(=O)C[C@@H](C(C)C)C(=O)C1
REMARK SMILES IDX 8 1 9 2 6 3 7 4 5 5 4 6 3 7 2 8 1 9 10 11 11 12 15 13 16 14
REMARK SMILES IDX 17 15 12 17 13 18 14 19
REMARK H PARENT
REMARK Flexibility Score: 70.00
ROOT
ATOM      1  C   UNL     1      20.162 -11.859  68.242  1.00  0.00     0.136 C 
ATOM      2  O   UNL     1      21.016 -12.265  69.019  1.00  0.00    -0.299 OA
ENDROOT
BRANCH   1   3
ATOM      3  C   UNL     1      18.916 -11.180  68.774  1.00  0.00     0.053 C 
ATOM      4  C   UNL     1      19.226  -9.705  69.049  1.00  0.00     0.016 C 
BRANCH   3   5
ATOM      5  C   UNL     1      17.708 -11.303  67.816  1.00  0.00     0.015 C 
BRANCH   5   6
ATOM      6  C   UNL     1      17.254  -9.962  67.211  1.00  0.00     0.028 C 
BRANCH   6   7
ATOM      7  C   UNL     1      17.097 -10.058  65.712  1.00  0.00    -0.028 C 
ATOM      8  C   UNL     1      18.057  -9.778  64.802  1.00  0.00    -0.070 CG0
ATOM      9  C   UNL     1      17.709  -9.906  63.341  1.00  0.00     0.039 C 
ATOM     10  G   UNL     1      19.461  -9.354  65.188  1.00  0.00     0.000 G0
ENDBRANCH   6   7
ENDBRANCH   5   6
ENDBRANCH   3   5
ENDBRANCH   1   3
BRANCH   1  11
ATOM     11  C   UNL     1      20.327 -12.120  66.765  1.00  0.00     0.087 C 
BRANCH  11  12
ATOM     12  C   UNL     1      21.247 -11.080  66.079  1.00  0.00     0.066 C 
BRANCH  12  13
ATOM     13  C   UNL     1      20.498 -10.419  64.932  1.00  0.00     0.140 C 
ATOM     14  O   UNL     1      20.771 -10.723  63.780  1.00  0.00    -0.299 OA
BRANCH  13  15
ATOM     15  C   UNL     1      19.473  -9.339  65.179  1.00  0.00     0.106 CG0
ATOM     16  G   UNL     1      18.069  -9.786  64.822  1.00  0.00     0.000 G0
ENDBRANCH  13  15
ENDBRANCH  12  13
BRANCH  12  17
ATOM     17  C   UNL     1      22.576 -11.720  65.562  1.00  0.00    -0.006 C 
ATOM     18  C   UNL     1      22.663 -13.222  65.885  1.00  0.00     0.008 C 
ATOM     19  C   UNL     1      23.806 -11.012  66.159  1.00  0.00     0.008 C 
ENDBRANCH  12  17
ENDBRANCH  11  12
ENDBRANCH   1  11
TORSDOF 1
ENDMDL
MODEL 3
REMARK VINA RESULT:    -3.780      3.207      5.742
REMARK INTER + INTRA:          -6.042
REMARK INTER:                  -5.717
REMARK INTRA:                  -0.325
REMARK UNBOUND:                -0.273
REMARK SMILES CC1=CCC[C@H](C)C(=O)C[C@@H](C(C)C)C(=O)C1
REMARK SMILES IDX 8 1 9 2 6 3 7 4 5 5 4 6 3 7 2 8 1 9 10 11 11 12 15 13 16 14
REMARK SMILES IDX 17 15 12 17 13 18 14 19
REMARK H PARENT
REMARK Flexibility Score: 70.00
ROOT
ATOM      1  C   UNL     1      13.484 -11.219  62.891  1.00  0.00     0.136 C 
ATOM      2  O   UNL     1      12.617 -10.951  62.071  1.00  0.00    -0.299 OA
ENDROOT
BRANCH   1   3
ATOM      3  C   UNL     1      13.864 -12.663  63.148  1.00  0.00     0.053 C 
ATOM      4  C   UNL     1      12.593 -13.481  63.398  1.00  0.00     0.016 C 
BRANCH   3   5
ATOM      5  C   UNL     1      14.681 -13.286  61.991  1.00  0.00     0.015 C 
BRANCH   5   6
ATOM      6  C   UNL     1      16.198 -13.057  62.106  1.00  0.00     0.028 C 
BRANCH   6   7
ATOM      7  C   UNL     1      16.674 -13.212  63.531  1.00  0.00    -0.028 C 
ATOM      8  C   UNL     1      17.326 -12.270  64.249  1.00  0.00    -0.070 CG0
ATOM      9  C   UNL     1      17.748 -12.615  65.654  1.00  0.00     0.039 C 
ATOM     10  G   UNL     1      17.639 -10.889  63.706  1.00  0.00     0.000 G0
ENDBRANCH   6   7
ENDBRANCH   5   6
ENDBRANCH   3   5
ENDBRANCH   1   3
BRANCH   1  11
ATOM     11  C   UNL     1      14.102 -10.104  63.699  1.00  0.00     0.087 C 
BRANCH  11  12
ATOM     12  C   UNL     1      15.424  -9.586  63.079  1.00  0.00     0.066 C 
BRANCH  12  13
ATOM     13  C   UNL     1      16.575  -9.863  64.033  1.00  0.00     0.140 C 
ATOM     14  O   UNL     1      16.676  -9.210  65.061  1.00  0.00    -0.299 OA
BRANCH  13  15
ATOM     15  C   UNL     1      17.642 -10.879  63.706  1.00  0.00     0.106 CG0
ATOM     16  G   UNL     1      17.318 -12.253  64.259  1.00  0.00     0.000 G0
ENDBRANCH  13  15
ENDBRANCH  12  13
BRANCH  12  17
ATOM     17  C   UNL     1      15.356  -8.062  62.738  1.00  0.00    -0.006 C 
ATOM     18  C   UNL     1      13.928  -7.500  62.862  1.00  0.00     0.008 C 
ATOM     19  C   UNL     1      15.877  -7.784  61.315  1.00  0.00     0.008 C 
ENDBRANCH  12  17
ENDBRANCH  11  12
ENDBRANCH   1  11
TORSDOF 1
ENDMDL
MODEL 4
REMARK VINA RESULT:    -3.694      1.585      3.850
REMARK INTER + INTRA:          -5.911
REMARK INTER:                  -6.170
REMARK INTRA:                   0.259
REMARK UNBOUND:                -0.273
REMARK SMILES CC1=CCC[C@H](C)C(=O)C[C@@H](C(C)C)C(=O)C1
REMARK SMILES IDX 8 1 9 2 6 3 7 4 5 5 4 6 3 7 2 8 1 9 10 11 11 12 15 13 16 14
REMARK SMILES IDX 17 15 12 17 13 18 14 19
REMARK H PARENT
REMARK Flexibility Score: 70.00
ROOT
ATOM      1  C   UNL     1      18.283 -11.914  67.465  1.00  0.00     0.136 C 
ATOM      2  O   UNL     1      17.764 -13.007  67.645  1.00  0.00    -0.299 OA
ENDROOT
BRANCH   1   3
ATOM      3  C   UNL     1      19.450 -11.478  68.328  1.00  0.00     0.053 C 
ATOM      4  C   UNL     1      19.686 -12.526  69.421  1.00  0.00     0.016 C 
BRANCH   3   5
ATOM      5  C   UNL     1      20.748 -11.251  67.517  1.00  0.00     0.015 C 
BRANCH   5   6
ATOM      6  C   UNL     1      20.888 -12.175  66.295  1.00  0.00     0.028 C 
BRANCH   6   7
ATOM      7  C   UNL     1      21.608 -11.485  65.160  1.00  0.00    -0.028 C 
ATOM      8  C   UNL     1      21.139 -10.429  64.459  1.00  0.00    -0.070 CG0
ATOM      9  C   UNL     1      21.991  -9.887  63.339  1.00  0.00     0.039 C 
ATOM     10  G   UNL     1      19.808  -9.767  64.756  1.00  0.00     0.000 G0
ENDBRANCH   6   7
ENDBRANCH   5   6
ENDBRANCH   3   5
ENDBRANCH   1   3
BRANCH   1  11
ATOM     11  C   UNL     1      17.693 -10.979  66.437  1.00  0.00     0.087 C 
BRANCH  11  12
ATOM     12  C   UNL     1      17.850 -11.514  64.992  1.00  0.00     0.066 C 
BRANCH  12  13
ATOM     13  C   UNL     1      18.638 -10.511  64.163  1.00  0.00     0.140 C 
ATOM     14  O   UNL     1      18.361 -10.358  62.981  1.00  0.00    -0.299 OA
BRANCH  13  15
ATOM     15  C   UNL     1      19.803  -9.750  64.745  1.00  0.00     0.106 CG0
ATOM     16  G   UNL     1      21.132 -10.417  64.449  1.00  0.00     0.000 G0
ENDBRANCH  13  15
ENDBRANCH  12  13
BRANCH  12  17
ATOM     17  C   UNL     1      16.470 -11.809  64.320  1.00  0.00    -0.006 C 
ATOM     18  C   UNL     1      15.297 -11.193  65.104  1.00  0.00     0.008 C 
ATOM     19  C   UNL     1      16.230 -13.323  64.177  1.00  0.00     0.008 C 
ENDBRANCH  12  17
ENDBRANCH  11  12
ENDBRANCH   1  11
TORSDOF 1
ENDMDL
MODEL 5
REMARK VINA RESULT:    -3.621      2.059      4.584
REMARK INTER + INTRA:          -5.799
REMARK INTER:                  -5.952
REMARK INTRA:                   0.153
REMARK UNBOUND:                -0.273
REMARK SMILES CC1=CCC[C@H](C)C(=O)C[C@@H](C(C)C)C(=O)C1
REMARK SMILES IDX 8 1 9 2 6 3 7 4 5 5 4 6 3 7 2 8 1 9 10 11 11 12 15 13 16 14
REMARK SMILES IDX 17 15 12 17 13 18 14 19
REMARK H PARENT
REMARK Flexibility Score: 70.00
ROOT
ATOM      1  C   UNL     1      19.529 -10.543  64.485  1.00  0.00     0.136 C 
ATOM      2  O   UNL     1      19.320  -9.349  64.325  1.00  0.00    -0.299 OA
ENDROOT
BRANCH   1   3
ATOM      3  C   UNL     1      20.940 -11.087  64.382  1.00  0.00     0.053 C 
ATOM      4  C   UNL     1      21.796 -10.113  63.566  1.00  0.00     0.016 C 
BRANCH   3   5
ATOM      5  C   UNL     1      21.589 -11.340  65.763  1.00  0.00     0.015 C 
BRANCH   5   6
ATOM      6  C   UNL     1      20.930 -10.561  66.914  1.00  0.00     0.028 C 
BRANCH   6   7
ATOM      7  C   UNL     1      20.223 -11.487  67.876  1.00  0.00    -0.028 C 
ATOM      8  C   UNL     1      18.922 -11.406  68.232  1.00  0.00    -0.070 CG0
ATOM      9  C   UNL     1      18.395 -12.407  69.228  1.00  0.00     0.039 C 
ATOM     10  G   UNL     1      17.975 -10.365  67.667  1.00  0.00     0.000 G0
ENDBRANCH   6   7
ENDBRANCH   5   6
ENDBRANCH   3   5
ENDBRANCH   1   3
BRANCH   1  11
ATOM     11  C   UNL     1      18.358 -11.473  64.697  1.00  0.00     0.087 C 
BRANCH  11  12
ATOM     12  C   UNL     1      17.099 -10.731  65.208  1.00  0.00     0.066 C 
BRANCH  12  13
ATOM     13  C   UNL     1      16.964 -10.934  66.710  1.00  0.00     0.140 C 
ATOM     14  O   UNL     1      15.989 -11.524  67.152  1.00  0.00    -0.299 OA
BRANCH  13  15
ATOM     15  C   UNL     1      17.971 -10.361  67.676  1.00  0.00     0.106 CG0
ATOM     16  G   UNL     1      18.917 -11.416  68.215  1.00  0.00     0.000 G0
ENDBRANCH  13  15
ENDBRANCH  12  13
BRANCH  12  17
ATOM     17  C   UNL     1      15.800 -11.203  64.478  1.00  0.00    -0.006 C 
ATOM     18  C   UNL     1      16.089 -12.278  63.414  1.00  0.00     0.008 C 
ATOM     19  C   UNL     1      15.075 -10.022  63.806  1.00  0.00     0.008 C 
ENDBRANCH  12  17
ENDBRANCH  11  12
ENDBRANCH   1  11
TORSDOF 1
ENDMDL
MODEL 6
REMARK VINA RESULT:    -3.601     16.285     18.496
REMARK INTER + INTRA:          -5.769
REMARK INTER:                  -5.650
REMARK INTRA:                  -0.118
REMARK UNBOUND:                -0.273
REMARK SMILES CC1=CCC[C@H](C)C(=O)C[C@@H](C(C)C)C(=O)C1
REMARK SMILES IDX 8 1 9 2 6 3 7 4 5 5 4 6 3 7 2 8 1 9 10 11 11 12 15 13 16 14
REMARK SMILES IDX 17 15 12 17 13 18 14 19
REMARK H PARENT
REMARK Flexibility Score: 70.00
ROOT
ATOM      1  C   UNL     1       9.038   0.780  62.988  1.00  0.00     0.136 C 
ATOM      2  O   UNL     1       9.258  -0.361  63.370  1.00  0.00    -0.299 OA
ENDROOT
BRANCH   1   3
ATOM      3  C   UNL     1       9.701   1.297  61.728  1.00  0.00     0.053 C 
ATOM      4  C   UNL     1      11.139   0.774  61.664  1.00  0.00     0.016 C 
BRANCH   3   5
ATOM      5  C   UNL     1       8.934   0.910  60.441  1.00  0.00     0.015 C 
BRANCH   5   6
ATOM      6  C   UNL     1       8.563   2.110  59.552  1.00  0.00     0.028 C 
BRANCH   6   7
ATOM      7  C   UNL     1       8.885   3.421  60.231  1.00  0.00    -0.028 C 
ATOM      8  C   UNL     1       8.045   4.121  61.025  1.00  0.00    -0.070 CG0
ATOM      9  C   UNL     1       8.535   5.427  61.597  1.00  0.00     0.039 C 
ATOM     10  G   UNL     1       6.647   3.646  61.371  1.00  0.00     0.000 G0
ENDBRANCH   6   7
ENDBRANCH   5   6
ENDBRANCH   3   5
ENDBRANCH   1   3
BRANCH   1  11
ATOM     11  C   UNL     1       8.172   1.684  63.831  1.00  0.00     0.087 C 
BRANCH  11  12
ATOM     12  C   UNL     1       6.731   1.810  63.277  1.00  0.00     0.066 C 
BRANCH  12  13
ATOM     13  C   UNL     1       6.487   3.239  62.818  1.00  0.00     0.140 C 
ATOM     14  O   UNL     1       6.103   4.073  63.626  1.00  0.00    -0.299 OA
BRANCH  13  15
ATOM     15  C   UNL     1       6.638   3.639  61.372  1.00  0.00     0.106 CG0
ATOM     16  G   UNL     1       8.039   4.121  61.050  1.00  0.00     0.000 G0
ENDBRANCH  13  15
ENDBRANCH  12  13
BRANCH  12  17
ATOM     17  C   UNL     1       5.657   1.386  64.329  1.00  0.00    -0.006 C 
ATOM     18  C   UNL     1       6.216   1.381  65.764  1.00  0.00     0.008 C 
ATOM     19  C   UNL     1       5.086  -0.010  64.015  1.00  0.00     0.008 C 
ENDBRANCH  12  17
ENDBRANCH  11  12
ENDBRANCH   1  11
TORSDOF 1
ENDMDL
MODEL 7
REMARK VINA RESULT:    -3.551      5.081      6.809
REMARK INTER + INTRA:          -5.693
REMARK INTER:                  -5.484
REMARK INTRA:                  -0.208
REMARK UNBOUND:                -0.273
REMARK SMILES CC1=CCC[C@H](C)C(=O)C[C@@H](C(C)C)C(=O)C1
REMARK SMILES IDX 8 1 9 2 6 3 7 4 5 5 4 6 3 7 2 8 1 9 10 11 11 12 15 13 16 14
REMARK SMILES IDX 17 15 12 17 13 18 14 19
REMARK H PARENT
REMARK Flexibility Score: 70.00
ROOT
ATOM      1  C   UNL     1      12.640 -10.845  61.882  1.00  0.00     0.136 C 
ATOM      2  O   UNL     1      11.797 -11.247  62.672  1.00  0.00    -0.299 OA
ENDROOT
BRANCH   1   3
ATOM      3  C   UNL     1      12.211 -10.159  60.600  1.00  0.00     0.053 C 
ATOM      4  C   UNL     1      11.433 -11.155  59.734  1.00  0.00     0.016 C 
BRANCH   3   5
ATOM      5  C   UNL     1      11.361  -8.891  60.851  1.00  0.00     0.015 C 
BRANCH   5   6
ATOM      6  C   UNL     1      12.158  -7.715  61.442  1.00  0.00     0.028 C 
BRANCH   6   7
ATOM      7  C   UNL     1      13.436  -7.472  60.675  1.00  0.00    -0.028 C 
ATOM      8  C   UNL     1      14.681  -7.482  61.201  1.00  0.00    -0.070 CG0
ATOM      9  C   UNL     1      15.841  -7.193  60.282  1.00  0.00     0.039 C 
ATOM     10  G   UNL     1      14.958  -7.780  62.662  1.00  0.00     0.000 G0
ENDBRANCH   6   7
ENDBRANCH   5   6
ENDBRANCH   3   5
ENDBRANCH   1   3
BRANCH   1  11
ATOM     11  C   UNL     1      14.098 -11.117  62.160  1.00  0.00     0.087 C 
BRANCH  11  12
ATOM     12  C   UNL     1      14.629 -10.317  63.376  1.00  0.00     0.066 C 
BRANCH  12  13
ATOM     13  C   UNL     1      15.516  -9.182  62.889  1.00  0.00     0.140 C 
ATOM     14  O   UNL     1      16.709  -9.385  62.710  1.00  0.00    -0.299 OA
BRANCH  13  15
ATOM     15  C   UNL     1      14.975  -7.789  62.688  1.00  0.00     0.106 CG0
ATOM     16  G   UNL     1      14.680  -7.489  61.231  1.00  0.00     0.000 G0
ENDBRANCH  13  15
ENDBRANCH  12  13
BRANCH  12  17
ATOM     17  C   UNL     1      15.409 -11.224  64.382  1.00  0.00    -0.006 C 
ATOM     18  C   UNL     1      15.925 -12.516  63.722  1.00  0.00     0.008 C 
ATOM     19  C   UNL     1      14.533 -11.600  65.591  1.00  0.00     0.008 C 
ENDBRANCH  12  17
ENDBRANCH  11  12
ENDBRANCH   1  11
TORSDOF 1
ENDMDL
MODEL 8
REMARK VINA RESULT:    -3.403      9.266     11.403
REMARK INTER + INTRA:          -5.467
REMARK INTER:                  -5.230
REMARK INTRA:                  -0.237
REMARK UNBOUND:                -0.273
REMARK SMILES CC1=CCC[C@H](C)C(=O)C[C@@H](C(C)C)C(=O)C1
REMARK SMILES IDX 8 1 9 2 6 3 7 4 5 5 4 6 3 7 2 8 1 9 10 11 11 12 15 13 16 14
REMARK SMILES IDX 17 15 12 17 13 18 14 19
REMARK H PARENT
REMARK Flexibility Score: 70.00
ROOT
ATOM      1  C   UNL     1      10.867  -2.675  61.823  1.00  0.00     0.136 C 
ATOM      2  O   UNL     1      10.321  -2.360  62.871  1.00  0.00    -0.299 OA
ENDROOT
BRANCH   1   3
ATOM      3  C   UNL     1      11.425  -1.603  60.908  1.00  0.00     0.053 C 
ATOM      4  C   UNL     1      10.306  -0.624  60.540  1.00  0.00     0.016 C 
BRANCH   3   5
ATOM      5  C   UNL     1      12.618  -0.841  61.531  1.00  0.00     0.015 C 
BRANCH   5   6
ATOM      6  C   UNL     1      13.990  -1.453  61.197  1.00  0.00     0.028 C 
BRANCH   6   7
ATOM      7  C   UNL     1      14.078  -1.853  59.743  1.00  0.00    -0.028 C 
ATOM      8  C   UNL     1      14.267  -3.110  59.284  1.00  0.00    -0.070 CG0
ATOM      9  C   UNL     1      14.354  -3.315  57.793  1.00  0.00     0.039 C 
ATOM     10  G   UNL     1      14.384  -4.314  60.199  1.00  0.00     0.000 G0
ENDBRANCH   6   7
ENDBRANCH   5   6
ENDBRANCH   3   5
ENDBRANCH   1   3
BRANCH   1  11
ATOM     11  C   UNL     1      10.897  -4.128  61.416  1.00  0.00     0.087 C 
BRANCH  11  12
ATOM     12  C   UNL     1      12.261  -4.798  61.716  1.00  0.00     0.066 C 
BRANCH  12  13
ATOM     13  C   UNL     1      13.034  -4.980  60.419  1.00  0.00     0.140 C 
ATOM     14  O   UNL     1      12.592  -5.722  59.554  1.00  0.00    -0.299 OA
BRANCH  13  15
ATOM     15  C   UNL     1      14.373  -4.321  60.201  1.00  0.00     0.106 CG0
ATOM     16  G   UNL     1      14.284  -3.129  59.268  1.00  0.00     0.000 G0
ENDBRANCH  13  15
ENDBRANCH  12  13
BRANCH  12  17
ATOM     17  C   UNL     1      12.095  -6.171  62.446  1.00  0.00    -0.006 C 
ATOM     18  C   UNL     1      11.193  -6.064  63.689  1.00  0.00     0.008 C 
ATOM     19  C   UNL     1      13.458  -6.747  62.871  1.00  0.00     0.008 C 
ENDBRANCH  12  17
ENDBRANCH  11  12
ENDBRANCH   1  11
TORSDOF 1
ENDMDL
MODEL 9
REMARK VINA RESULT:    -3.393      5.139      7.754
REMARK INTER + INTRA:          -5.451
REMARK INTER:                  -5.241
REMARK INTRA:                  -0.210
REMARK UNBOUND:                -0.273
REMARK SMILES CC1=CCC[C@H](C)C(=O)C[C@@H](C(C)C)C(=O)C1
REMARK SMILES IDX 8 1 9 2 6 3 7 4 5 5 4 6 3 7 2 8 1 9 10 11 11 12 15 13 16 14
REMARK SMILES IDX 17 15 12 17 13 18 14 19
REMARK H PARENT
REMARK Flexibility Score: 70.00
ROOT
ATOM      1  C   UNL     1      13.253 -12.077  63.395  1.00  0.00     0.136 C 
ATOM      2  O   UNL     1      13.051 -13.279  63.507  1.00  0.00    -0.299 OA
ENDROOT
BRANCH   1   3
ATOM      3  C   UNL     1      14.279 -11.396  64.277  1.00  0.00     0.053 C 
ATOM      4  C   UNL     1      14.101 -11.877  65.721  1.00  0.00     0.016 C 
BRANCH   3   5
ATOM      5  C   UNL     1      15.733 -11.640  63.808  1.00  0.00     0.015 C 
BRANCH   5   6
ATOM      6  C   UNL     1      16.270 -10.557  62.856  1.00  0.00     0.028 C 
BRANCH   6   7
ATOM      7  C   UNL     1      15.679  -9.203  63.169  1.00  0.00    -0.028 C 
ATOM      8  C   UNL     1      14.965  -8.440  62.311  1.00  0.00    -0.070 CG0
ATOM      9  C   UNL     1      14.474  -7.099  62.795  1.00  0.00     0.039 C 
ATOM     10  G   UNL     1      14.631  -8.878  60.899  1.00  0.00     0.000 G0
ENDBRANCH   6   7
ENDBRANCH   5   6
ENDBRANCH   3   5
ENDBRANCH   1   3
BRANCH   1  11
ATOM     11  C   UNL     1      12.408 -11.276  62.434  1.00  0.00     0.087 C 
BRANCH  11  12
ATOM     12  C   UNL     1      13.114 -11.047  61.075  1.00  0.00     0.066 C 
BRANCH  12  13
ATOM     13  C   UNL     1      13.262  -9.554  60.825  1.00  0.00     0.140 C 
ATOM     14  O   UNL     1      12.283  -8.898  60.500  1.00  0.00    -0.299 OA
BRANCH  13  15
ATOM     15  C   UNL     1      14.606  -8.872  60.898  1.00  0.00     0.106 CG0
ATOM     16  G   UNL     1      14.948  -8.422  62.305  1.00  0.00     0.000 G0
ENDBRANCH  13  15
ENDBRANCH  12  13
BRANCH  12  17
ATOM     17  C   UNL     1      12.348 -11.722  59.892  1.00  0.00    -0.006 C 
ATOM     18  C   UNL     1      12.275 -13.253  60.042  1.00  0.00     0.008 C 
ATOM     19  C   UNL     1      13.001 -11.387  58.538  1.00  0.00     0.008 C 
ENDBRANCH  12  17
ENDBRANCH  11  12
ENDBRANCH   1  11
TORSDOF 1
ENDMDL
