MODEL 1
REMARK VINA RESULT:    -4.102      0.000      0.000
REMARK INTER + INTRA:          -4.957
REMARK INTER:                  -4.942
REMARK INTRA:                  -0.015
REMARK UNBOUND:                -0.015
REMARK SMILES OCC(O)CO
REMARK SMILES IDX 3 1 5 2 6 3 2 5 1 6 4 8
REMARK H PARENT 6 4 1 7 4 9
REMARK Flexibility Score: inf
ROOT
ATOM      1  C   UNL     1      23.513  -7.184   4.467  1.00  0.00     0.165 C 
ENDROOT
BRANCH   1   2
ATOM      2  C   UNL     1      22.630  -7.392   5.709  1.00  0.00     0.190 C 
BRANCH   2   3
ATOM      3  O   UNL     1      22.173  -6.165   6.214  1.00  0.00    -0.394 OA
ATOM      4  H   UNL     1      21.192  -6.141   6.065  1.00  0.00     0.210 HD
ENDBRANCH   2   3
ENDBRANCH   1   2
BRANCH   1   5
ATOM      5  C   UNL     1      22.794  -7.633   3.188  1.00  0.00     0.190 C 
BRANCH   5   6
ATOM      6  O   UNL     1      22.526  -6.529   2.366  1.00  0.00    -0.394 OA
ATOM      7  H   UNL     1      22.008  -5.883   2.914  1.00  0.00     0.210 HD
ENDBRANCH   5   6
ENDBRANCH   1   5
BRANCH   1   8
ATOM      8  O   UNL     1      23.869  -5.830   4.352  1.00  0.00    -0.388 OA
ATOM      9  H   UNL     1      24.692  -5.797   3.796  1.00  0.00     0.211 HD
ENDBRANCH   1   8
TORSDOF 5
ENDMDL
MODEL 2
REMARK VINA RESULT:    -3.897      1.399      1.760
REMARK INTER + INTRA:          -4.709
REMARK INTER:                  -4.508
REMARK INTRA:                  -0.201
REMARK UNBOUND:                -0.015
REMARK SMILES OCC(O)CO
REMARK SMILES IDX 3 1 5 2 6 3 2 5 1 6 4 8
REMARK H PARENT 6 4 1 7 4 9
REMARK Flexibility Score: inf
ROOT
ATOM      1  C   UNL     1      23.142  -7.490   3.926  1.00  0.00     0.165 C 
ENDROOT
BRANCH   1   2
ATOM      2  C   UNL     1      23.183  -7.283   5.450  1.00  0.00     0.190 C 
BRANCH   2   3
ATOM      3  O   UNL     1      22.315  -6.252   5.842  1.00  0.00    -0.394 OA
ATOM      4  H   UNL     1      22.832  -5.653   6.441  1.00  0.00     0.210 HD
ENDBRANCH   2   3
ENDBRANCH   1   2
BRANCH   1   5
ATOM      5  C   UNL     1      23.528  -6.208   3.177  1.00  0.00     0.190 C 
BRANCH   5   6
ATOM      6  O   UNL     1      24.192  -5.321   4.037  1.00  0.00    -0.394 OA
ATOM      7  H   UNL     1      23.871  -5.520   4.955  1.00  0.00     0.210 HD
ENDBRANCH   5   6
ENDBRANCH   1   5
BRANCH   1   8
ATOM      8  O   UNL     1      24.013  -8.527   3.558  1.00  0.00    -0.388 OA
ATOM      9  H   UNL     1      24.000  -8.575   2.566  1.00  0.00     0.211 HD
ENDBRANCH   1   8
TORSDOF 5
ENDMDL
MODEL 3
REMARK VINA RESULT:    -3.807      1.472      2.862
REMARK INTER + INTRA:          -4.601
REMARK INTER:                  -4.397
REMARK INTRA:                  -0.204
REMARK UNBOUND:                -0.015
REMARK SMILES OCC(O)CO
REMARK SMILES IDX 3 1 5 2 6 3 2 5 1 6 4 8
REMARK H PARENT 6 4 1 7 4 9
REMARK Flexibility Score: inf
ROOT
ATOM      1  C   UNL     1      22.694  -7.439   5.569  1.00  0.00     0.165 C 
ENDROOT
BRANCH   1   2
ATOM      2  C   UNL     1      23.033  -7.165   4.095  1.00  0.00     0.190 C 
BRANCH   2   3
ATOM      3  O   UNL     1      23.910  -6.077   3.973  1.00  0.00    -0.394 OA
ATOM      4  H   UNL     1      23.629  -5.404   4.646  1.00  0.00     0.210 HD
ENDBRANCH   2   3
ENDBRANCH   1   2
BRANCH   1   5
ATOM      5  C   UNL     1      23.901  -8.012   6.324  1.00  0.00     0.190 C 
BRANCH   5   6
ATOM      6  O   UNL     1      24.768  -8.663   5.436  1.00  0.00    -0.394 OA
ATOM      7  H   UNL     1      24.287  -8.739   4.571  1.00  0.00     0.210 HD
ENDBRANCH   5   6
ENDBRANCH   1   5
BRANCH   1   8
ATOM      8  O   UNL     1      22.270  -6.255   6.193  1.00  0.00    -0.388 OA
ATOM      9  H   UNL     1      22.306  -5.540   5.505  1.00  0.00     0.211 HD
ENDBRANCH   1   8
TORSDOF 5
ENDMDL
MODEL 4
REMARK VINA RESULT:    -3.739      1.522      2.779
REMARK INTER + INTRA:          -4.519
REMARK INTER:                  -4.514
REMARK INTRA:                  -0.005
REMARK UNBOUND:                -0.015
REMARK SMILES OCC(O)CO
REMARK SMILES IDX 3 1 5 2 6 3 2 5 1 6 4 8
REMARK H PARENT 6 4 1 7 4 9
REMARK Flexibility Score: inf
ROOT
ATOM      1  C   UNL     1      22.938  -7.311   4.307  1.00  0.00     0.165 C 
ENDROOT
BRANCH   1   2
ATOM      2  C   UNL     1      23.467  -8.651   3.770  1.00  0.00     0.190 C 
BRANCH   2   3
ATOM      3  O   UNL     1      24.523  -9.129   4.562  1.00  0.00    -0.394 OA
ATOM      4  H   UNL     1      25.328  -9.156   3.983  1.00  0.00     0.210 HD
ENDBRANCH   2   3
ENDBRANCH   1   2
BRANCH   1   5
ATOM      5  C   UNL     1      22.711  -7.365   5.823  1.00  0.00     0.190 C 
BRANCH   5   6
ATOM      6  O   UNL     1      22.135  -6.168   6.273  1.00  0.00    -0.394 OA
ATOM      7  H   UNL     1      22.878  -5.605   6.615  1.00  0.00     0.210 HD
ENDBRANCH   5   6
ENDBRANCH   1   5
BRANCH   1   8
ATOM      8  O   UNL     1      23.845  -6.281   4.007  1.00  0.00    -0.388 OA
ATOM      9  H   UNL     1      24.750  -6.620   4.237  1.00  0.00     0.211 HD
ENDBRANCH   1   8
TORSDOF 5
ENDMDL
MODEL 5
REMARK VINA RESULT:    -3.676      1.843      3.376
REMARK INTER + INTRA:          -4.443
REMARK INTER:                  -4.418
REMARK INTRA:                  -0.025
REMARK UNBOUND:                -0.015
REMARK SMILES OCC(O)CO
REMARK SMILES IDX 3 1 5 2 6 3 2 5 1 6 4 8
REMARK H PARENT 6 4 1 7 4 9
REMARK Flexibility Score: inf
ROOT
ATOM      1  C   UNL     1      23.318  -6.550   2.442  1.00  0.00     0.165 C 
ENDROOT
BRANCH   1   2
ATOM      2  C   UNL     1      23.915  -7.330   1.259  1.00  0.00     0.190 C 
BRANCH   2   3
ATOM      3  O   UNL     1      24.922  -8.208   1.691  1.00  0.00    -0.394 OA
ATOM      4  H   UNL     1      25.041  -8.054   2.664  1.00  0.00     0.210 HD
ENDBRANCH   2   3
ENDBRANCH   1   2
BRANCH   1   5
ATOM      5  C   UNL     1      23.114  -7.456   3.664  1.00  0.00     0.190 C 
BRANCH   5   6
ATOM      6  O   UNL     1      23.541  -6.804   4.830  1.00  0.00    -0.394 OA
ATOM      7  H   UNL     1      24.079  -7.461   5.345  1.00  0.00     0.210 HD
ENDBRANCH   5   6
ENDBRANCH   1   5
BRANCH   1   8
ATOM      8  O   UNL     1      24.161  -5.481   2.787  1.00  0.00    -0.388 OA
ATOM      9  H   UNL     1      24.074  -4.803   2.067  1.00  0.00     0.211 HD
ENDBRANCH   1   8
TORSDOF 5
ENDMDL
MODEL 6
REMARK VINA RESULT:    -3.672      1.340      3.224
REMARK INTER + INTRA:          -4.438
REMARK INTER:                  -4.216
REMARK INTRA:                  -0.222
REMARK UNBOUND:                -0.015
REMARK SMILES OCC(O)CO
REMARK SMILES IDX 3 1 5 2 6 3 2 5 1 6 4 8
REMARK H PARENT 6 4 1 7 4 9
REMARK Flexibility Score: inf
ROOT
ATOM      1  C   UNL     1      23.150  -7.929   2.619  1.00  0.00     0.165 C 
ENDROOT
BRANCH   1   2
ATOM      2  C   UNL     1      23.553  -6.677   1.823  1.00  0.00     0.190 C 
BRANCH   2   3
ATOM      3  O   UNL     1      22.508  -5.741   1.792  1.00  0.00    -0.394 OA
ATOM      4  H   UNL     1      22.178  -5.647   2.723  1.00  0.00     0.210 HD
ENDBRANCH   2   3
ENDBRANCH   1   2
BRANCH   1   5
ATOM      5  C   UNL     1      23.029  -7.625   4.118  1.00  0.00     0.190 C 
BRANCH   5   6
ATOM      6  O   UNL     1      23.700  -6.433   4.429  1.00  0.00    -0.394 OA
ATOM      7  H   UNL     1      24.671  -6.638   4.406  1.00  0.00     0.210 HD
ENDBRANCH   5   6
ENDBRANCH   1   5
BRANCH   1   8
ATOM      8  O   UNL     1      21.926  -8.428   2.144  1.00  0.00    -0.388 OA
ATOM      9  H   UNL     1      21.529  -8.964   2.880  1.00  0.00     0.211 HD
ENDBRANCH   1   8
TORSDOF 5
ENDMDL
MODEL 7
REMARK VINA RESULT:    -3.624      1.631      1.804
REMARK INTER + INTRA:          -4.381
REMARK INTER:                  -4.378
REMARK INTRA:                  -0.003
REMARK UNBOUND:                -0.015
REMARK SMILES OCC(O)CO
REMARK SMILES IDX 3 1 5 2 6 3 2 5 1 6 4 8
REMARK H PARENT 6 4 1 7 4 9
REMARK Flexibility Score: inf
ROOT
ATOM      1  C   UNL     1      23.187  -7.542   4.247  1.00  0.00     0.165 C 
ENDROOT
BRANCH   1   2
ATOM      2  C   UNL     1      22.668  -7.425   5.690  1.00  0.00     0.190 C 
BRANCH   2   3
ATOM      3  O   UNL     1      22.224  -6.122   5.962  1.00  0.00    -0.394 OA
ATOM      4  H   UNL     1      22.998  -5.626   6.336  1.00  0.00     0.210 HD
ENDBRANCH   2   3
ENDBRANCH   1   2
BRANCH   1   5
ATOM      5  C   UNL     1      23.413  -9.007   3.850  1.00  0.00     0.190 C 
BRANCH   5   6
ATOM      6  O   UNL     1      24.602  -9.137   3.119  1.00  0.00    -0.394 OA
ATOM      7  H   UNL     1      25.116  -8.298   3.258  1.00  0.00     0.210 HD
ENDBRANCH   5   6
ENDBRANCH   1   5
BRANCH   1   8
ATOM      8  O   UNL     1      22.273  -6.953   3.358  1.00  0.00    -0.388 OA
ATOM      9  H   UNL     1      21.964  -6.109   3.783  1.00  0.00     0.211 HD
ENDBRANCH   1   8
TORSDOF 5
ENDMDL
MODEL 8
REMARK VINA RESULT:    -3.575      1.870      2.801
REMARK INTER + INTRA:          -4.321
REMARK INTER:                  -4.152
REMARK INTRA:                  -0.170
REMARK UNBOUND:                -0.015
REMARK SMILES OCC(O)CO
REMARK SMILES IDX 3 1 5 2 6 3 2 5 1 6 4 8
REMARK H PARENT 6 4 1 7 4 9
REMARK Flexibility Score: inf
ROOT
ATOM      1  C   UNL     1      22.873  -7.584   3.035  1.00  0.00     0.165 C 
ENDROOT
BRANCH   1   2
ATOM      2  C   UNL     1      23.380  -6.430   2.154  1.00  0.00     0.190 C 
BRANCH   2   3
ATOM      3  O   UNL     1      24.147  -5.524   2.902  1.00  0.00    -0.394 OA
ATOM      4  H   UNL     1      25.038  -5.473   2.468  1.00  0.00     0.210 HD
ENDBRANCH   2   3
ENDBRANCH   1   2
BRANCH   1   5
ATOM      5  C   UNL     1      23.744  -8.837   2.872  1.00  0.00     0.190 C 
BRANCH   5   6
ATOM      6  O   UNL     1      24.912  -8.529   2.161  1.00  0.00    -0.394 OA
ATOM      7  H   UNL     1      25.115  -9.316   1.590  1.00  0.00     0.210 HD
ENDBRANCH   5   6
ENDBRANCH   1   5
BRANCH   1   8
ATOM      8  O   UNL     1      22.866  -7.192   4.383  1.00  0.00    -0.388 OA
ATOM      9  H   UNL     1      22.266  -7.822   4.862  1.00  0.00     0.211 HD
ENDBRANCH   1   8
TORSDOF 5
ENDMDL
MODEL 9
REMARK VINA RESULT:    -3.545      1.859      2.573
REMARK INTER + INTRA:          -4.286
REMARK INTER:                  -4.262
REMARK INTRA:                  -0.024
REMARK UNBOUND:                -0.015
REMARK SMILES OCC(O)CO
REMARK SMILES IDX 3 1 5 2 6 3 2 5 1 6 4 8
REMARK H PARENT 6 4 1 7 4 9
REMARK Flexibility Score: inf
ROOT
ATOM      1  C   UNL     1      23.560  -6.525   2.241  1.00  0.00     0.165 C 
ENDROOT
BRANCH   1   2
ATOM      2  C   UNL     1      23.121  -7.288   3.502  1.00  0.00     0.190 C 
BRANCH   2   3
ATOM      3  O   UNL     1      23.636  -6.687   4.660  1.00  0.00    -0.394 OA
ATOM      4  H   UNL     1      24.617  -6.830   4.647  1.00  0.00     0.210 HD
ENDBRANCH   2   3
ENDBRANCH   1   2
BRANCH   1   5
ATOM      5  C   UNL     1      24.015  -7.486   1.135  1.00  0.00     0.190 C 
BRANCH   5   6
ATOM      6  O   UNL     1      25.034  -8.326   1.607  1.00  0.00    -0.394 OA
ATOM      7  H   UNL     1      25.088  -8.185   2.589  1.00  0.00     0.210 HD
ENDBRANCH   5   6
ENDBRANCH   1   5
BRANCH   1   8
ATOM      8  O   UNL     1      22.502  -5.733   1.766  1.00  0.00    -0.388 OA
ATOM      9  H   UNL     1      21.851  -5.647   2.511  1.00  0.00     0.211 HD
ENDBRANCH   1   8
TORSDOF 5
ENDMDL
