MODEL 1
REMARK VINA RESULT:    -6.373      0.000      0.000
REMARK INTER + INTRA:          -6.373
REMARK INTER:                  -6.373
REMARK INTRA:                   0.000
REMARK UNBOUND:                 0.000
REMARK SMILES O=c1ccc2ccccc2o1
REMARK SMILES IDX 7 1 8 2 9 3 10 4 5 5 6 6 4 7 3 8 2 9 1 10 11 11
REMARK H PARENT
REMARK Flexibility Score: inf
ROOT
ATOM      1  C   UNL     1      -1.517  -7.654 -32.346  1.00  0.00     0.001 A 
ATOM      2  C   UNL     1      -2.080  -7.736 -31.069  1.00  0.00     0.004 A 
ATOM      3  C   UNL     1      -1.257  -7.796 -29.939  1.00  0.00     0.048 A 
ATOM      4  C   UNL     1       0.135  -7.774 -30.084  1.00  0.00     0.138 A 
ATOM      5  C   UNL     1       0.704  -7.691 -31.374  1.00  0.00     0.018 A 
ATOM      6  C   UNL     1      -0.126  -7.631 -32.503  1.00  0.00     0.012 A 
ATOM      7  C   UNL     1       2.098  -7.671 -31.488  1.00  0.00     0.019 A 
ATOM      8  C   UNL     1       2.878  -7.732 -30.335  1.00  0.00     0.094 A 
ATOM      9  C   UNL     1       2.246  -7.814 -29.090  1.00  0.00     0.336 A 
ATOM     10  O   UNL     1       2.934  -7.870 -28.038  1.00  0.00    -0.246 OA
ATOM     11  O   UNL     1       0.917  -7.831 -29.009  1.00  0.00    -0.423 OA
ENDROOT
TORSDOF 0
ENDMDL
MODEL 2
REMARK VINA RESULT:    -6.236      1.640      2.358
REMARK INTER + INTRA:          -6.236
REMARK INTER:                  -6.236
REMARK INTRA:                   0.000
REMARK UNBOUND:                 0.000
REMARK SMILES O=c1ccc2ccccc2o1
REMARK SMILES IDX 7 1 8 2 9 3 10 4 5 5 6 6 4 7 3 8 2 9 1 10 11 11
REMARK H PARENT
REMARK Flexibility Score: inf
ROOT
ATOM      1  C   UNL     1      -1.770  -7.652 -30.634  1.00  0.00     0.001 A 
ATOM      2  C   UNL     1      -1.531  -7.724 -32.010  1.00  0.00     0.004 A 
ATOM      3  C   UNL     1      -0.221  -7.757 -32.497  1.00  0.00     0.048 A 
ATOM      4  C   UNL     1       0.858  -7.719 -31.606  1.00  0.00     0.138 A 
ATOM      5  C   UNL     1       0.618  -7.646 -30.216  1.00  0.00     0.018 A 
ATOM      6  C   UNL     1      -0.699  -7.613 -29.734  1.00  0.00     0.012 A 
ATOM      7  C   UNL     1       1.715  -7.609 -29.350  1.00  0.00     0.019 A 
ATOM      8  C   UNL     1       3.005  -7.644 -29.880  1.00  0.00     0.094 A 
ATOM      9  C   UNL     1       3.167  -7.716 -31.267  1.00  0.00     0.336 A 
ATOM     10  O   UNL     1       4.323  -7.749 -31.763  1.00  0.00    -0.246 OA
ATOM     11  O   UNL     1       2.105  -7.751 -32.070  1.00  0.00    -0.423 OA
ENDROOT
TORSDOF 0
ENDMDL
MODEL 3
REMARK VINA RESULT:    -5.680      1.554      3.806
REMARK INTER + INTRA:          -5.680
REMARK INTER:                  -5.680
REMARK INTRA:                   0.000
REMARK UNBOUND:                 0.000
REMARK SMILES O=c1ccc2ccccc2o1
REMARK SMILES IDX 7 1 8 2 9 3 10 4 5 5 6 6 4 7 3 8 2 9 1 10 11 11
REMARK H PARENT
REMARK Flexibility Score: inf
ROOT
ATOM      1  C   UNL     1       3.063  -7.417 -30.493  1.00  0.00     0.001 A 
ATOM      2  C   UNL     1       2.528  -7.633 -29.219  1.00  0.00     0.004 A 
ATOM      3  C   UNL     1       1.157  -7.859 -29.059  1.00  0.00     0.048 A 
ATOM      4  C   UNL     1       0.315  -7.871 -30.177  1.00  0.00     0.138 A 
ATOM      5  C   UNL     1       0.854  -7.652 -31.464  1.00  0.00     0.018 A 
ATOM      6  C   UNL     1       2.230  -7.426 -31.617  1.00  0.00     0.012 A 
ATOM      7  C   UNL     1      -0.012  -7.669 -32.562  1.00  0.00     0.019 A 
ATOM      8  C   UNL     1      -1.372  -7.900 -32.356  1.00  0.00     0.094 A 
ATOM      9  C   UNL     1      -1.836  -8.107 -31.053  1.00  0.00     0.336 A 
ATOM     10  O   UNL     1      -3.060  -8.317 -30.848  1.00  0.00    -0.246 OA
ATOM     11  O   UNL     1      -0.990  -8.087 -30.025  1.00  0.00    -0.423 OA
ENDROOT
TORSDOF 0
ENDMDL
MODEL 4
REMARK VINA RESULT:    -5.673      2.090      4.372
REMARK INTER + INTRA:          -5.673
REMARK INTER:                  -5.673
REMARK INTRA:                   0.000
REMARK UNBOUND:                 0.000
REMARK SMILES O=c1ccc2ccccc2o1
REMARK SMILES IDX 7 1 8 2 9 3 10 4 5 5 6 6 4 7 3 8 2 9 1 10 11 11
REMARK H PARENT
REMARK Flexibility Score: inf
ROOT
ATOM      1  C   UNL     1       2.749  -7.261 -29.756  1.00  0.00     0.001 A 
ATOM      2  C   UNL     1       3.086  -7.458 -31.099  1.00  0.00     0.004 A 
ATOM      3  C   UNL     1       2.090  -7.728 -32.042  1.00  0.00     0.048 A 
ATOM      4  C   UNL     1       0.750  -7.800 -31.645  1.00  0.00     0.138 A 
ATOM      5  C   UNL     1       0.408  -7.601 -30.289  1.00  0.00     0.018 A 
ATOM      6  C   UNL     1       1.412  -7.331 -29.347  1.00  0.00     0.012 A 
ATOM      7  C   UNL     1      -0.938  -7.679 -29.921  1.00  0.00     0.019 A 
ATOM      8  C   UNL     1      -1.898  -7.950 -30.896  1.00  0.00     0.094 A 
ATOM      9  C   UNL     1      -1.487  -8.137 -32.220  1.00  0.00     0.336 A 
ATOM     10  O   UNL     1      -2.339  -8.381 -33.114  1.00  0.00    -0.246 OA
ATOM     11  O   UNL     1      -0.198  -8.056 -32.544  1.00  0.00    -0.423 OA
ENDROOT
TORSDOF 0
ENDMDL
MODEL 5
REMARK VINA RESULT:    -5.571      1.508      3.741
REMARK INTER + INTRA:          -5.571
REMARK INTER:                  -5.571
REMARK INTRA:                   0.000
REMARK UNBOUND:                 0.000
REMARK SMILES O=c1ccc2ccccc2o1
REMARK SMILES IDX 7 1 8 2 9 3 10 4 5 5 6 6 4 7 3 8 2 9 1 10 11 11
REMARK H PARENT
REMARK Flexibility Score: inf
ROOT
ATOM      1  C   UNL     1       4.351  -8.744 -31.357  1.00  0.00     0.001 A 
ATOM      2  C   UNL     1       4.216  -9.122 -30.017  1.00  0.00     0.004 A 
ATOM      3  C   UNL     1       3.074  -8.759 -29.296  1.00  0.00     0.048 A 
ATOM      4  C   UNL     1       2.062  -8.016 -29.913  1.00  0.00     0.138 A 
ATOM      5  C   UNL     1       2.198  -7.634 -31.266  1.00  0.00     0.018 A 
ATOM      6  C   UNL     1       3.345  -8.001 -31.985  1.00  0.00     0.012 A 
ATOM      7  C   UNL     1       1.170  -6.892 -31.856  1.00  0.00     0.019 A 
ATOM      8  C   UNL     1       0.050  -6.553 -31.098  1.00  0.00     0.094 A 
ATOM      9  C   UNL     1      -0.017  -6.965 -29.763  1.00  0.00     0.336 A 
ATOM     10  O   UNL     1      -1.020  -6.669 -29.064  1.00  0.00    -0.246 OA
ATOM     11  O   UNL     1       0.975  -7.672 -29.226  1.00  0.00    -0.423 OA
ENDROOT
TORSDOF 0
ENDMDL
MODEL 6
REMARK VINA RESULT:    -4.202     18.659     20.378
REMARK INTER + INTRA:          -4.202
REMARK INTER:                  -4.202
REMARK INTRA:                   0.000
REMARK UNBOUND:                 0.000
REMARK SMILES O=c1ccc2ccccc2o1
REMARK SMILES IDX 7 1 8 2 9 3 10 4 5 5 6 6 4 7 3 8 2 9 1 10 11 11
REMARK H PARENT
REMARK Flexibility Score: inf
ROOT
ATOM      1  C   UNL     1      12.895  -2.760 -13.248  1.00  0.00     0.001 A 
ATOM      2  C   UNL     1      13.261  -4.057 -12.875  1.00  0.00     0.004 A 
ATOM      3  C   UNL     1      12.312  -5.084 -12.875  1.00  0.00     0.048 A 
ATOM      4  C   UNL     1      10.990  -4.816 -13.248  1.00  0.00     0.138 A 
ATOM      5  C   UNL     1      10.619  -3.506 -13.625  1.00  0.00     0.018 A 
ATOM      6  C   UNL     1      11.575  -2.480 -13.623  1.00  0.00     0.012 A 
ATOM      7  C   UNL     1       9.291  -3.268 -13.993  1.00  0.00     0.019 A 
ATOM      8  C   UNL     1       8.379  -4.323 -13.978  1.00  0.00     0.094 A 
ATOM      9  C   UNL     1       8.816  -5.594 -13.593  1.00  0.00     0.336 A 
ATOM     10  O   UNL     1       8.007  -6.558 -13.574  1.00  0.00    -0.246 OA
ATOM     11  O   UNL     1      10.087  -5.794 -13.248  1.00  0.00    -0.423 OA
ENDROOT
TORSDOF 0
ENDMDL
MODEL 7
REMARK VINA RESULT:    -4.123     18.668     19.924
REMARK INTER + INTRA:          -4.123
REMARK INTER:                  -4.123
REMARK INTRA:                   0.000
REMARK UNBOUND:                 0.000
REMARK SMILES O=c1ccc2ccccc2o1
REMARK SMILES IDX 7 1 8 2 9 3 10 4 5 5 6 6 4 7 3 8 2 9 1 10 11 11
REMARK H PARENT
REMARK Flexibility Score: inf
ROOT
ATOM      1  C   UNL     1       8.040  -6.159 -13.261  1.00  0.00     0.001 A 
ATOM      2  C   UNL     1       7.621  -4.953 -13.831  1.00  0.00     0.004 A 
ATOM      3  C   UNL     1       8.545  -3.934 -14.081  1.00  0.00     0.048 A 
ATOM      4  C   UNL     1       9.895  -4.118 -13.761  1.00  0.00     0.138 A 
ATOM      5  C   UNL     1      10.319  -5.336 -13.184  1.00  0.00     0.018 A 
ATOM      6  C   UNL     1       9.387  -6.355 -12.936  1.00  0.00     0.012 A 
ATOM      7  C   UNL     1      11.674  -5.492 -12.875  1.00  0.00     0.019 A 
ATOM      8  C   UNL     1      12.560  -4.449 -13.142  1.00  0.00     0.094 A 
ATOM      9  C   UNL     1      12.069  -3.271 -13.713  1.00  0.00     0.336 A 
ATOM     10  O   UNL     1      12.854  -2.319 -13.962  1.00  0.00    -0.246 OA
ATOM     11  O   UNL     1      10.774  -3.148 -13.999  1.00  0.00    -0.423 OA
ENDROOT
TORSDOF 0
ENDMDL
MODEL 8
REMARK VINA RESULT:    -3.644     19.777     20.905
REMARK INTER + INTRA:          -3.644
REMARK INTER:                  -3.644
REMARK INTRA:                   0.000
REMARK UNBOUND:                 0.000
REMARK SMILES O=c1ccc2ccccc2o1
REMARK SMILES IDX 7 1 8 2 9 3 10 4 5 5 6 6 4 7 3 8 2 9 1 10 11 11
REMARK H PARENT
REMARK Flexibility Score: inf
ROOT
ATOM      1  C   UNL     1      10.389  -2.034 -13.420  1.00  0.00     0.001 A 
ATOM      2  C   UNL     1       9.467  -3.061 -13.649  1.00  0.00     0.004 A 
ATOM      3  C   UNL     1       9.881  -4.397 -13.625  1.00  0.00     0.048 A 
ATOM      4  C   UNL     1      11.221  -4.710 -13.372  1.00  0.00     0.138 A 
ATOM      5  C   UNL     1      12.153  -3.674 -13.141  1.00  0.00     0.018 A 
ATOM      6  C   UNL     1      11.732  -2.336 -13.166  1.00  0.00     0.012 A 
ATOM      7  C   UNL     1      13.485  -4.018 -12.890  1.00  0.00     0.019 A 
ATOM      8  C   UNL     1      13.852  -5.363 -12.876  1.00  0.00     0.094 A 
ATOM      9  C   UNL     1      12.876  -6.336 -13.114  1.00  0.00     0.336 A 
ATOM     10  O   UNL     1      13.189  -7.555 -13.104  1.00  0.00    -0.246 OA
ATOM     11  O   UNL     1      11.614  -5.982 -13.349  1.00  0.00    -0.423 OA
ENDROOT
TORSDOF 0
ENDMDL
