MODEL 1
REMARK VINA RESULT:     4.519      0.000      0.000
REMARK INTER + INTRA:           6.420
REMARK INTER:                   6.632
REMARK INTRA:                  -0.212
REMARK UNBOUND:                -0.212
REMARK SMILES O=C([O-])CCCCCCCC(=O)[O-]
REMARK SMILES IDX 7 1 6 2 5 3 4 4 2 5 1 6 3 7 8 8 9 9 10 10 11 11 12 12 13 13
REMARK H PARENT
REMARK Flexibility Score: inf
ROOT
ATOM      1  C   UNL     1      14.552 -14.036   7.115  1.00  0.00     0.000 C 
ENDROOT
BRANCH   1   2
ATOM      2  C   UNL     1      13.063 -13.659   7.183  1.00  0.00     0.000 C 
BRANCH   2   3
ATOM      3  C   UNL     1      12.479 -13.303   5.808  1.00  0.00     0.006 C 
BRANCH   3   4
ATOM      4  C   UNL     1      11.294 -12.344   5.948  1.00  0.00     0.053 C 
BRANCH   4   5
ATOM      5  C   UNL     1      10.039 -12.982   5.439  1.00  0.00     0.041 C 
ATOM      6  O   UNL     1       9.997 -14.224   5.236  1.00  0.00    -0.550 OA
ATOM      7  O   UNL     1       8.901 -12.213   5.239  1.00  0.00    -0.550 OA
ENDBRANCH   4   5
ENDBRANCH   3   4
ENDBRANCH   2   3
ENDBRANCH   1   2
BRANCH   1   8
ATOM      8  C   UNL     1      14.778 -15.465   6.600  1.00  0.00     0.000 C 
BRANCH   8   9
ATOM      9  C   UNL     1      16.098 -16.037   7.133  1.00  0.00     0.006 C 
BRANCH   9  10
ATOM     10  C   UNL     1      17.300 -15.345   6.483  1.00  0.00     0.053 C 
BRANCH  10  11
ATOM     11  C   UNL     1      18.478 -16.265   6.446  1.00  0.00     0.041 C 
ATOM     12  O   UNL     1      18.970 -16.707   7.517  1.00  0.00    -0.550 OA
ATOM     13  O   UNL     1      19.064 -16.596   5.231  1.00  0.00    -0.550 OA
ENDBRANCH  10  11
ENDBRANCH   9  10
ENDBRANCH   8   9
ENDBRANCH   1   8
TORSDOF 8
ENDMDL
MODEL 2
REMARK VINA RESULT:     4.627      0.061      7.556
REMARK INTER + INTRA:           6.580
REMARK INTER:                   6.790
REMARK INTRA:                  -0.210
REMARK UNBOUND:                -0.212
REMARK SMILES O=C([O-])CCCCCCCC(=O)[O-]
REMARK SMILES IDX 7 1 6 2 5 3 4 4 2 5 1 6 3 7 8 8 9 9 10 10 11 11 12 12 13 13
REMARK H PARENT
REMARK Flexibility Score: inf
ROOT
ATOM      1  C   UNL     1      14.535 -14.009   7.108  1.00  0.00     0.000 C 
ENDROOT
BRANCH   1   2
ATOM      2  C   UNL     1      14.765 -15.473   6.699  1.00  0.00     0.000 C 
BRANCH   2   3
ATOM      3  C   UNL     1      16.115 -16.020   7.186  1.00  0.00     0.006 C 
BRANCH   3   4
ATOM      4  C   UNL     1      17.274 -15.382   6.415  1.00  0.00     0.053 C 
BRANCH   4   5
ATOM      5  C   UNL     1      18.481 -16.265   6.457  1.00  0.00     0.041 C 
ATOM      6  O   UNL     1      18.889 -16.730   7.554  1.00  0.00    -0.550 OA
ATOM      7  O   UNL     1      19.125 -16.617   5.278  1.00  0.00    -0.550 OA
ENDBRANCH   4   5
ENDBRANCH   3   4
ENDBRANCH   2   3
ENDBRANCH   1   2
BRANCH   1   8
ATOM      8  C   UNL     1      13.045 -13.644   7.189  1.00  0.00     0.000 C 
BRANCH   8   9
ATOM      9  C   UNL     1      12.496 -13.272   5.806  1.00  0.00     0.006 C 
BRANCH   9  10
ATOM     10  C   UNL     1      11.295 -12.328   5.927  1.00  0.00     0.053 C 
BRANCH  10  11
ATOM     11  C   UNL     1      10.052 -12.996   5.432  1.00  0.00     0.041 C 
ATOM     12  O   UNL     1      10.042 -14.236   5.214  1.00  0.00    -0.550 OA
ATOM     13  O   UNL     1       8.917 -12.241   5.163  1.00  0.00    -0.550 OA
ENDBRANCH  10  11
ENDBRANCH   9  10
ENDBRANCH   8   9
ENDBRANCH   1   8
TORSDOF 8
ENDMDL
MODEL 3
REMARK VINA RESULT:     4.815      1.373      1.876
REMARK INTER + INTRA:           6.855
REMARK INTER:                   7.113
REMARK INTRA:                  -0.258
REMARK UNBOUND:                -0.212
REMARK SMILES O=C([O-])CCCCCCCC(=O)[O-]
REMARK SMILES IDX 7 1 6 2 5 3 4 4 2 5 1 6 3 7 8 8 9 9 10 10 11 11 12 12 13 13
REMARK H PARENT
REMARK Flexibility Score: inf
ROOT
ATOM      1  C   UNL     1      14.648 -14.039   7.186  1.00  0.00     0.000 C 
ENDROOT
BRANCH   1   2
ATOM      2  C   UNL     1      13.183 -13.576   7.169  1.00  0.00     0.000 C 
BRANCH   2   3
ATOM      3  C   UNL     1      12.570 -13.598   5.761  1.00  0.00     0.006 C 
BRANCH   3   4
ATOM      4  C   UNL     1      11.248 -12.826   5.728  1.00  0.00     0.053 C 
BRANCH   4   5
ATOM      5  C   UNL     1      11.494 -11.375   5.458  1.00  0.00     0.041 C 
ATOM      6  O   UNL     1      10.811 -10.496   6.048  1.00  0.00    -0.550 OA
ATOM      7  O   UNL     1      12.511 -10.991   4.595  1.00  0.00    -0.550 OA
ENDBRANCH   4   5
ENDBRANCH   3   4
ENDBRANCH   2   3
ENDBRANCH   1   2
BRANCH   1   8
ATOM      8  C   UNL     1      14.824 -15.468   6.648  1.00  0.00     0.000 C 
BRANCH   8   9
ATOM      9  C   UNL     1      16.148 -16.075   7.127  1.00  0.00     0.006 C 
BRANCH   9  10
ATOM     10  C   UNL     1      17.343 -15.364   6.485  1.00  0.00     0.053 C 
BRANCH  10  11
ATOM     11  C   UNL     1      18.510 -16.293   6.378  1.00  0.00     0.041 C 
ATOM     12  O   UNL     1      18.977 -16.597   5.249  1.00  0.00    -0.550 OA
ATOM     13  O   UNL     1      19.051 -16.864   7.523  1.00  0.00    -0.550 OA
ENDBRANCH  10  11
ENDBRANCH   9  10
ENDBRANCH   8   9
ENDBRANCH   1   8
TORSDOF 8
ENDMDL
MODEL 4
REMARK VINA RESULT:     5.434      1.558      7.448
REMARK INTER + INTRA:           7.764
REMARK INTER:                   7.607
REMARK INTRA:                   0.157
REMARK UNBOUND:                -0.212
REMARK SMILES O=C([O-])CCCCCCCC(=O)[O-]
REMARK SMILES IDX 7 1 6 2 5 3 4 4 2 5 1 6 3 7 8 8 9 9 10 10 11 11 12 12 13 13
REMARK H PARENT
REMARK Flexibility Score: inf
ROOT
ATOM      1  C   UNL     1      13.575 -14.603   6.245  1.00  0.00     0.000 C 
ENDROOT
BRANCH   1   2
ATOM      2  C   UNL     1      14.825 -14.598   7.140  1.00  0.00     0.000 C 
BRANCH   2   3
ATOM      3  C   UNL     1      15.855 -15.660   6.726  1.00  0.00     0.006 C 
BRANCH   3   4
ATOM      4  C   UNL     1      17.270 -15.075   6.718  1.00  0.00     0.053 C 
BRANCH   4   5
ATOM      5  C   UNL     1      18.266 -16.116   6.314  1.00  0.00     0.041 C 
ATOM      6  O   UNL     1      18.619 -16.222   5.110  1.00  0.00    -0.550 OA
ATOM      7  O   UNL     1      18.843 -16.935   7.276  1.00  0.00    -0.550 OA
ENDBRANCH   4   5
ENDBRANCH   3   4
ENDBRANCH   2   3
ENDBRANCH   1   2
BRANCH   1   8
ATOM      8  C   UNL     1      12.731 -13.329   6.399  1.00  0.00     0.000 C 
BRANCH   8   9
ATOM      9  C   UNL     1      11.455 -13.412   5.553  1.00  0.00     0.006 C 
BRANCH   9  10
ATOM     10  C   UNL     1      10.537 -12.216   5.824  1.00  0.00     0.053 C 
BRANCH  10  11
ATOM     11  C   UNL     1      11.232 -10.935   5.489  1.00  0.00     0.041 C 
ATOM     12  O   UNL     1      10.780  -9.839   5.913  1.00  0.00    -0.550 OA
ATOM     13  O   UNL     1      12.352 -10.946   4.667  1.00  0.00    -0.550 OA
ENDBRANCH  10  11
ENDBRANCH   9  10
ENDBRANCH   8   9
ENDBRANCH   1   8
TORSDOF 8
ENDMDL
