MODEL 1
REMARK VINA RESULT:    -4.079      0.000      0.000
REMARK INTER + INTRA:          -6.050
REMARK INTER:                  -5.748
REMARK INTRA:                  -0.302
REMARK UNBOUND:                -0.302
REMARK SMILES CCCCCCCCC(=O)[O-]
REMARK SMILES IDX 6 1 7 2 8 3 9 4 10 5 11 6 5 7 4 8 3 9 2 10 1 11
REMARK H PARENT
REMARK Flexibility Score: inf
ROOT
ATOM      1  C   UNL     1      57.289  -3.442  82.080  1.00  0.00     0.000 C 
ENDROOT
BRANCH   1   2
ATOM      2  C   UNL     1      58.642  -2.795  81.745  1.00  0.00     0.006 C 
BRANCH   2   3
ATOM      3  C   UNL     1      59.831  -3.585  82.305  1.00  0.00     0.053 C 
BRANCH   3   4
ATOM      4  C   UNL     1      60.890  -3.745  81.260  1.00  0.00     0.041 C 
ATOM      5  O   UNL     1      61.302  -2.744  80.616  1.00  0.00    -0.550 OA
ATOM      6  O   UNL     1      61.459  -4.992  81.032  1.00  0.00    -0.550 OA
ENDBRANCH   3   4
ENDBRANCH   2   3
ENDBRANCH   1   2
BRANCH   1   7
ATOM      7  C   UNL     1      56.355  -2.498  82.851  1.00  0.00     0.000 C 
BRANCH   7   8
ATOM      8  C   UNL     1      57.102  -1.231  83.296  1.00  0.00    -0.000 C 
BRANCH   8   9
ATOM      9  C   UNL     1      56.197  -0.244  84.050  1.00  0.00    -0.000 C 
BRANCH   9  10
ATOM     10  C   UNL     1      54.749  -0.260  83.541  1.00  0.00    -0.003 C 
ATOM     11  C   UNL     1      54.053   1.069  83.822  1.00  0.00     0.004 C 
ENDBRANCH   9  10
ENDBRANCH   8   9
ENDBRANCH   7   8
ENDBRANCH   1   7
TORSDOF 7
ENDMDL
MODEL 2
REMARK VINA RESULT:    -4.056     12.984     13.755
REMARK INTER + INTRA:          -6.017
REMARK INTER:                  -5.625
REMARK INTRA:                  -0.392
REMARK UNBOUND:                -0.302
REMARK SMILES CCCCCCCCC(=O)[O-]
REMARK SMILES IDX 6 1 7 2 8 3 9 4 10 5 11 6 5 7 4 8 3 9 2 10 1 11
REMARK H PARENT
REMARK Flexibility Score: inf
ROOT
ATOM      1  C   UNL     1      49.140  -1.054  71.610  1.00  0.00     0.000 C 
ENDROOT
BRANCH   1   2
ATOM      2  C   UNL     1      48.682  -2.226  72.493  1.00  0.00     0.006 C 
BRANCH   2   3
ATOM      3  C   UNL     1      49.456  -3.520  72.207  1.00  0.00     0.053 C 
BRANCH   3   4
ATOM      4  C   UNL     1      48.626  -4.713  72.562  1.00  0.00     0.041 C 
ATOM      5  O   UNL     1      47.419  -4.774  72.208  1.00  0.00    -0.550 OA
ATOM      6  O   UNL     1      49.200  -5.781  73.240  1.00  0.00    -0.550 OA
ENDBRANCH   3   4
ENDBRANCH   2   3
ENDBRANCH   1   2
BRANCH   1   7
ATOM      7  C   UNL     1      49.862   0.041  72.407  1.00  0.00     0.000 C 
BRANCH   7   8
ATOM      8  C   UNL     1      51.299   0.235  71.897  1.00  0.00    -0.000 C 
BRANCH   8   9
ATOM      9  C   UNL     1      52.181  -1.002  72.123  1.00  0.00    -0.000 C 
BRANCH   9  10
ATOM     10  C   UNL     1      53.582  -0.849  71.515  1.00  0.00    -0.003 C 
ATOM     11  C   UNL     1      53.731   0.497  70.809  1.00  0.00     0.004 C 
ENDBRANCH   9  10
ENDBRANCH   8   9
ENDBRANCH   7   8
ENDBRANCH   1   7
TORSDOF 7
ENDMDL
MODEL 3
REMARK VINA RESULT:    -4.013      2.572      3.760
REMARK INTER + INTRA:          -5.957
REMARK INTER:                  -5.547
REMARK INTRA:                  -0.411
REMARK UNBOUND:                -0.302
REMARK SMILES CCCCCCCCC(=O)[O-]
REMARK SMILES IDX 6 1 7 2 8 3 9 4 10 5 11 6 5 7 4 8 3 9 2 10 1 11
REMARK H PARENT
REMARK Flexibility Score: inf
ROOT
ATOM      1  C   UNL     1      58.563  -5.472  82.656  1.00  0.00     0.000 C 
ENDROOT
BRANCH   1   2
ATOM      2  C   UNL     1      59.318  -6.497  83.517  1.00  0.00     0.006 C 
BRANCH   2   3
ATOM      3  C   UNL     1      60.649  -6.930  82.890  1.00  0.00     0.053 C 
BRANCH   3   4
ATOM      4  C   UNL     1      60.408  -7.875  81.754  1.00  0.00     0.041 C 
ATOM      5  O   UNL     1      59.525  -8.768  81.850  1.00  0.00    -0.550 OA
ATOM      6  O   UNL     1      61.124  -7.739  80.572  1.00  0.00    -0.550 OA
ENDBRANCH   3   4
ENDBRANCH   2   3
ENDBRANCH   1   2
BRANCH   1   7
ATOM      7  C   UNL     1      59.408  -4.231  82.334  1.00  0.00     0.000 C 
BRANCH   7   8
ATOM      8  C   UNL     1      58.517  -2.994  82.146  1.00  0.00    -0.000 C 
BRANCH   8   9
ATOM      9  C   UNL     1      57.021  -3.341  82.105  1.00  0.00    -0.000 C 
BRANCH   9  10
ATOM     10  C   UNL     1      56.158  -2.336  82.880  1.00  0.00    -0.003 C 
ATOM     11  C   UNL     1      56.988  -1.138  83.338  1.00  0.00     0.004 C 
ENDBRANCH   9  10
ENDBRANCH   8   9
ENDBRANCH   7   8
ENDBRANCH   1   7
TORSDOF 7
ENDMDL
MODEL 4
REMARK VINA RESULT:    -3.989      3.716      6.087
REMARK INTER + INTRA:          -5.924
REMARK INTER:                  -5.318
REMARK INTRA:                  -0.606
REMARK UNBOUND:                -0.302
REMARK SMILES CCCCCCCCC(=O)[O-]
REMARK SMILES IDX 6 1 7 2 8 3 9 4 10 5 11 6 5 7 4 8 3 9 2 10 1 11
REMARK H PARENT
REMARK Flexibility Score: inf
ROOT
ATOM      1  C   UNL     1      58.375  -5.070  82.541  1.00  0.00     0.000 C 
ENDROOT
BRANCH   1   2
ATOM      2  C   UNL     1      59.485  -4.015  82.674  1.00  0.00     0.006 C 
BRANCH   2   3
ATOM      3  C   UNL     1      59.701  -3.217  81.382  1.00  0.00     0.053 C 
BRANCH   3   4
ATOM      4  C   UNL     1      61.042  -3.529  80.794  1.00  0.00     0.041 C 
ATOM      5  O   UNL     1      61.442  -4.721  80.726  1.00  0.00    -0.550 OA
ATOM      6  O   UNL     1      61.828  -2.508  80.276  1.00  0.00    -0.550 OA
ENDBRANCH   3   4
ENDBRANCH   2   3
ENDBRANCH   1   2
BRANCH   1   7
ATOM      7  C   UNL     1      58.776  -6.430  83.132  1.00  0.00     0.000 C 
BRANCH   7   8
ATOM      8  C   UNL     1      60.273  -6.458  83.477  1.00  0.00    -0.000 C 
BRANCH   8   9
ATOM      9  C   UNL     1      61.026  -7.589  82.760  1.00  0.00    -0.000 C 
BRANCH   9  10
ATOM     10  C   UNL     1      60.300  -8.077  81.499  1.00  0.00    -0.003 C 
ATOM     11  C   UNL     1      60.045  -9.581  81.559  1.00  0.00     0.004 C 
ENDBRANCH   9  10
ENDBRANCH   8   9
ENDBRANCH   7   8
ENDBRANCH   1   7
TORSDOF 7
ENDMDL
MODEL 5
REMARK VINA RESULT:    -3.977     12.075     12.677
REMARK INTER + INTRA:          -5.906
REMARK INTER:                  -5.210
REMARK INTRA:                  -0.696
REMARK UNBOUND:                -0.302
REMARK SMILES CCCCCCCCC(=O)[O-]
REMARK SMILES IDX 6 1 7 2 8 3 9 4 10 5 11 6 5 7 4 8 3 9 2 10 1 11
REMARK H PARENT
REMARK Flexibility Score: inf
ROOT
ATOM      1  C   UNL     1      51.372  -3.487  72.526  1.00  0.00     0.000 C 
ENDROOT
BRANCH   1   2
ATOM      2  C   UNL     1      52.073  -2.238  73.084  1.00  0.00     0.006 C 
BRANCH   2   3
ATOM      3  C   UNL     1      52.076  -1.068  72.091  1.00  0.00     0.053 C 
BRANCH   3   4
ATOM      4  C   UNL     1      53.430  -0.912  71.473  1.00  0.00     0.041 C 
ATOM      5  O   UNL     1      54.200  -1.904  71.375  1.00  0.00    -0.550 OA
ATOM      6  O   UNL     1      53.823   0.317  70.961  1.00  0.00    -0.550 OA
ENDBRANCH   3   4
ENDBRANCH   2   3
ENDBRANCH   1   2
BRANCH   1   7
ATOM      7  C   UNL     1      50.112  -3.147  71.717  1.00  0.00     0.000 C 
BRANCH   7   8
ATOM      8  C   UNL     1      48.848  -3.302  72.578  1.00  0.00    -0.000 C 
BRANCH   8   9
ATOM      9  C   UNL     1      48.302  -1.955  73.076  1.00  0.00    -0.000 C 
BRANCH   9  10
ATOM     10  C   UNL     1      48.288  -0.879  71.981  1.00  0.00    -0.003 C 
ATOM     11  C   UNL     1      48.712   0.477  72.539  1.00  0.00     0.004 C 
ENDBRANCH   9  10
ENDBRANCH   8   9
ENDBRANCH   7   8
ENDBRANCH   1   7
TORSDOF 7
ENDMDL
MODEL 6
REMARK VINA RESULT:    -3.974      1.669      2.351
REMARK INTER + INTRA:          -5.902
REMARK INTER:                  -5.539
REMARK INTRA:                  -0.363
REMARK UNBOUND:                -0.302
REMARK SMILES CCCCCCCCC(=O)[O-]
REMARK SMILES IDX 6 1 7 2 8 3 9 4 10 5 11 6 5 7 4 8 3 9 2 10 1 11
REMARK H PARENT
REMARK Flexibility Score: inf
ROOT
ATOM      1  C   UNL     1      57.979  -4.939  82.495  1.00  0.00     0.000 C 
ENDROOT
BRANCH   1   2
ATOM      2  C   UNL     1      59.475  -4.842  82.837  1.00  0.00     0.006 C 
BRANCH   2   3
ATOM      3  C   UNL     1      60.144  -6.216  82.958  1.00  0.00     0.053 C 
BRANCH   3   4
ATOM      4  C   UNL     1      60.966  -6.505  81.741  1.00  0.00     0.041 C 
ATOM      5  O   UNL     1      61.725  -5.620  81.264  1.00  0.00    -0.550 OA
ATOM      6  O   UNL     1      60.933  -7.767  81.163  1.00  0.00    -0.550 OA
ENDBRANCH   3   4
ENDBRANCH   2   3
ENDBRANCH   1   2
BRANCH   1   7
ATOM      7  C   UNL     1      57.439  -3.662  81.834  1.00  0.00     0.000 C 
BRANCH   7   8
ATOM      8  C   UNL     1      58.290  -2.442  82.220  1.00  0.00    -0.000 C 
BRANCH   8   9
ATOM      9  C   UNL     1      57.534  -1.454  83.123  1.00  0.00    -0.000 C 
BRANCH   9  10
ATOM     10  C   UNL     1      56.034  -1.763  83.214  1.00  0.00    -0.003 C 
ATOM     11  C   UNL     1      55.234  -0.510  83.561  1.00  0.00     0.004 C 
ENDBRANCH   9  10
ENDBRANCH   8   9
ENDBRANCH   7   8
ENDBRANCH   1   7
TORSDOF 7
ENDMDL
MODEL 7
REMARK VINA RESULT:    -3.923      3.690      6.617
REMARK INTER + INTRA:          -5.831
REMARK INTER:                  -5.343
REMARK INTRA:                  -0.488
REMARK UNBOUND:                -0.302
REMARK SMILES CCCCCCCCC(=O)[O-]
REMARK SMILES IDX 6 1 7 2 8 3 9 4 10 5 11 6 5 7 4 8 3 9 2 10 1 11
REMARK H PARENT
REMARK Flexibility Score: inf
ROOT
ATOM      1  C   UNL     1      58.791  -6.562  82.912  1.00  0.00     0.000 C 
ENDROOT
BRANCH   1   2
ATOM      2  C   UNL     1      58.369  -5.136  82.523  1.00  0.00     0.006 C 
BRANCH   2   3
ATOM      3  C   UNL     1      59.480  -4.105  82.762  1.00  0.00     0.053 C 
BRANCH   3   4
ATOM      4  C   UNL     1      59.547  -3.137  81.623  1.00  0.00     0.041 C 
ATOM      5  O   UNL     1      58.563  -2.394  81.364  1.00  0.00    -0.550 OA
ATOM      6  O   UNL     1      60.713  -3.019  80.878  1.00  0.00    -0.550 OA
ENDBRANCH   3   4
ENDBRANCH   2   3
ENDBRANCH   1   2
BRANCH   1   7
ATOM      7  C   UNL     1      60.277  -6.659  83.285  1.00  0.00     0.000 C 
BRANCH   7   8
ATOM      8  C   UNL     1      61.060  -7.448  82.224  1.00  0.00    -0.000 C 
BRANCH   8   9
ATOM      9  C   UNL     1      62.078  -6.578  81.470  1.00  0.00    -0.000 C 
BRANCH   9  10
ATOM     10  C   UNL     1      62.125  -6.891  79.967  1.00  0.00    -0.003 C 
ATOM     11  C   UNL     1      61.826  -8.364  79.703  1.00  0.00     0.004 C 
ENDBRANCH   9  10
ENDBRANCH   8   9
ENDBRANCH   7   8
ENDBRANCH   1   7
TORSDOF 7
ENDMDL
MODEL 8
REMARK VINA RESULT:    -3.911     11.156     11.536
REMARK INTER + INTRA:          -5.814
REMARK INTER:                  -5.523
REMARK INTRA:                  -0.291
REMARK UNBOUND:                -0.302
REMARK SMILES CCCCCCCCC(=O)[O-]
REMARK SMILES IDX 6 1 7 2 8 3 9 4 10 5 11 6 5 7 4 8 3 9 2 10 1 11
REMARK H PARENT
REMARK Flexibility Score: inf
ROOT
ATOM      1  C   UNL     1      52.607  -2.019  72.991  1.00  0.00     0.000 C 
ENDROOT
BRANCH   1   2
ATOM      2  C   UNL     1      53.524  -3.088  72.376  1.00  0.00     0.006 C 
BRANCH   2   3
ATOM      3  C   UNL     1      54.119  -4.032  73.429  1.00  0.00     0.053 C 
BRANCH   3   4
ATOM      4  C   UNL     1      55.298  -4.764  72.867  1.00  0.00     0.041 C 
ATOM      5  O   UNL     1      55.614  -4.621  71.656  1.00  0.00    -0.550 OA
ATOM      6  O   UNL     1      56.077  -5.564  73.692  1.00  0.00    -0.550 OA
ENDBRANCH   3   4
ENDBRANCH   2   3
ENDBRANCH   1   2
BRANCH   1   7
ATOM      7  C   UNL     1      52.337  -0.849  72.033  1.00  0.00     0.000 C 
BRANCH   7   8
ATOM      8  C   UNL     1      50.844  -0.483  72.022  1.00  0.00    -0.000 C 
BRANCH   8   9
ATOM      9  C   UNL     1      49.931  -1.716  71.947  1.00  0.00    -0.000 C 
BRANCH   9  10
ATOM     10  C   UNL     1      48.450  -1.369  72.151  1.00  0.00    -0.003 C 
ATOM     11  C   UNL     1      48.249   0.140  72.256  1.00  0.00     0.004 C 
ENDBRANCH   9  10
ENDBRANCH   8   9
ENDBRANCH   7   8
ENDBRANCH   1   7
TORSDOF 7
ENDMDL
MODEL 9
REMARK VINA RESULT:    -3.809     11.759     12.506
REMARK INTER + INTRA:          -5.670
REMARK INTER:                  -5.008
REMARK INTRA:                  -0.662
REMARK UNBOUND:                -0.302
REMARK SMILES CCCCCCCCC(=O)[O-]
REMARK SMILES IDX 6 1 7 2 8 3 9 4 10 5 11 6 5 7 4 8 3 9 2 10 1 11
REMARK H PARENT
REMARK Flexibility Score: inf
ROOT
ATOM      1  C   UNL     1      49.460  -1.440  71.625  1.00  0.00     0.000 C 
ENDROOT
BRANCH   1   2
ATOM      2  C   UNL     1      50.675  -0.849  72.358  1.00  0.00     0.006 C 
BRANCH   2   3
ATOM      3  C   UNL     1      51.623  -1.927  72.899  1.00  0.00     0.053 C 
BRANCH   3   4
ATOM      4  C   UNL     1      52.968  -1.812  72.253  1.00  0.00     0.041 C 
ATOM      5  O   UNL     1      53.759  -2.791  72.258  1.00  0.00    -0.550 OA
ATOM      6  O   UNL     1      53.327  -0.639  71.601  1.00  0.00    -0.550 OA
ENDBRANCH   3   4
ENDBRANCH   2   3
ENDBRANCH   1   2
BRANCH   1   7
ATOM      7  C   UNL     1      48.219  -0.540  71.716  1.00  0.00     0.000 C 
BRANCH   7   8
ATOM      8  C   UNL     1      48.465   0.640  72.669  1.00  0.00    -0.000 C 
BRANCH   8   9
ATOM      9  C   UNL     1      47.544   0.610  73.900  1.00  0.00    -0.000 C 
BRANCH   9  10
ATOM     10  C   UNL     1      48.298   0.276  75.195  1.00  0.00    -0.003 C 
ATOM     11  C   UNL     1      48.457  -1.233  75.363  1.00  0.00     0.004 C 
ENDBRANCH   9  10
ENDBRANCH   8   9
ENDBRANCH   7   8
ENDBRANCH   1   7
TORSDOF 7
ENDMDL
