MODEL 1
REMARK VINA RESULT:    -4.296      0.000      0.000
REMARK INTER + INTRA:          -7.446
REMARK INTER:                  -6.557
REMARK INTRA:                  -0.889
REMARK UNBOUND:                -0.889
REMARK SMILES CCCCCCCCCC=CC(=O)[O-]
REMARK SMILES IDX 7 1 8 2 9 3 10 4 11 5 12 6 13 7 14 8 6 9 5 10 4 11 3 12 2 13
REMARK SMILES IDX 1 14
REMARK H PARENT
REMARK Flexibility Score: inf
ROOT
ATOM      1  C   UNL     1      46.811  42.986  37.488  1.00  0.00     0.000 C 
ENDROOT
BRANCH   1   2
ATOM      2  C   UNL     1      47.685  42.874  36.225  1.00  0.00     0.004 C 
BRANCH   2   3
ATOM      3  C   UNL     1      46.897  42.618  34.928  1.00  0.00     0.027 C 
BRANCH   3   4
ATOM      4  C   UNL     1      47.071  43.718  33.918  1.00  0.00    -0.025 C 
ATOM      5  C   UNL     1      47.008  43.477  32.605  1.00  0.00     0.020 C 
BRANCH   5   6
ATOM      6  C   UNL     1      47.173  44.545  31.606  1.00  0.00     0.064 C 
ATOM      7  O   UNL     1      48.230  45.225  31.594  1.00  0.00    -0.545 OA
ATOM      8  O   UNL     1      46.176  44.814  30.676  1.00  0.00    -0.545 OA
ENDBRANCH   5   6
ENDBRANCH   3   4
ENDBRANCH   2   3
ENDBRANCH   1   2
BRANCH   1   9
ATOM      9  C   UNL     1      47.642  43.084  38.778  1.00  0.00     0.000 C 
BRANCH   9  10
ATOM     10  C   UNL     1      47.515  41.830  39.659  1.00  0.00     0.000 C 
BRANCH  10  11
ATOM     11  C   UNL     1      48.649  40.818  39.417  1.00  0.00    -0.000 C 
BRANCH  11  12
ATOM     12  C   UNL     1      48.149  39.516  38.772  1.00  0.00    -0.000 C 
BRANCH  12  13
ATOM     13  C   UNL     1      48.570  39.386  37.301  1.00  0.00    -0.003 C 
ATOM     14  C   UNL     1      47.357  39.181  36.398  1.00  0.00     0.004 C 
ENDBRANCH  12  13
ENDBRANCH  11  12
ENDBRANCH  10  11
ENDBRANCH   9  10
ENDBRANCH   1   9
TORSDOF 9
ENDMDL
MODEL 2
REMARK VINA RESULT:    -4.210      3.656      6.959
REMARK INTER + INTRA:          -7.315
REMARK INTER:                  -6.336
REMARK INTRA:                  -0.979
REMARK UNBOUND:                -0.889
REMARK SMILES CCCCCCCCCC=CC(=O)[O-]
REMARK SMILES IDX 7 1 8 2 9 3 10 4 11 5 12 6 13 7 14 8 6 9 5 10 4 11 3 12 2 13
REMARK SMILES IDX 1 14
REMARK H PARENT
REMARK Flexibility Score: inf
ROOT
ATOM      1  C   UNL     1      44.804  43.548  34.617  1.00  0.00     0.000 C 
ENDROOT
BRANCH   1   2
ATOM      2  C   UNL     1      46.011  42.607  34.451  1.00  0.00     0.004 C 
BRANCH   2   3
ATOM      3  C   UNL     1      47.328  43.155  35.028  1.00  0.00     0.027 C 
BRANCH   3   4
ATOM      4  C   UNL     1      47.776  42.413  36.257  1.00  0.00    -0.025 C 
ATOM      5  C   UNL     1      47.564  42.900  37.483  1.00  0.00     0.020 C 
BRANCH   5   6
ATOM      6  C   UNL     1      47.993  42.182  38.693  1.00  0.00     0.064 C 
ATOM      7  O   UNL     1      48.692  41.142  38.583  1.00  0.00    -0.545 OA
ATOM      8  O   UNL     1      47.637  42.635  39.958  1.00  0.00    -0.545 OA
ENDBRANCH   5   6
ENDBRANCH   3   4
ENDBRANCH   2   3
ENDBRANCH   1   2
BRANCH   1   9
ATOM      9  C   UNL     1      44.544  44.407  33.369  1.00  0.00     0.000 C 
BRANCH   9  10
ATOM     10  C   UNL     1      44.747  43.625  32.060  1.00  0.00     0.000 C 
BRANCH  10  11
ATOM     11  C   UNL     1      45.284  44.507  30.919  1.00  0.00    -0.000 C 
BRANCH  11  12
ATOM     12  C   UNL     1      46.557  43.932  30.279  1.00  0.00    -0.000 C 
BRANCH  12  13
ATOM     13  C   UNL     1      47.685  43.719  31.298  1.00  0.00    -0.003 C 
ATOM     14  C   UNL     1      48.148  45.047  31.891  1.00  0.00     0.004 C 
ENDBRANCH  12  13
ENDBRANCH  11  12
ENDBRANCH  10  11
ENDBRANCH   9  10
ENDBRANCH   1   9
TORSDOF 9
ENDMDL
MODEL 3
REMARK VINA RESULT:    -4.191      4.615      6.742
REMARK INTER + INTRA:          -7.285
REMARK INTER:                  -5.786
REMARK INTRA:                  -1.499
REMARK UNBOUND:                -0.889
REMARK SMILES CCCCCCCCCC=CC(=O)[O-]
REMARK SMILES IDX 7 1 8 2 9 3 10 4 11 5 12 6 13 7 14 8 6 9 5 10 4 11 3 12 2 13
REMARK SMILES IDX 1 14
REMARK H PARENT
REMARK Flexibility Score: inf
ROOT
ATOM      1  C   UNL     1      48.003  44.749  31.850  1.00  0.00     0.000 C 
ENDROOT
BRANCH   1   2
ATOM      2  C   UNL     1      47.351  44.879  33.238  1.00  0.00     0.004 C 
BRANCH   2   3
ATOM      3  C   UNL     1      46.845  43.552  33.830  1.00  0.00     0.027 C 
BRANCH   3   4
ATOM      4  C   UNL     1      45.395  43.609  34.223  1.00  0.00    -0.025 C 
ATOM      5  C   UNL     1      44.628  44.659  33.917  1.00  0.00     0.020 C 
BRANCH   5   6
ATOM      6  C   UNL     1      43.207  44.724  34.293  1.00  0.00     0.064 C 
ATOM      7  O   UNL     1      42.726  45.806  34.718  1.00  0.00    -0.545 OA
ATOM      8  O   UNL     1      42.387  43.607  34.185  1.00  0.00    -0.545 OA
ENDBRANCH   5   6
ENDBRANCH   3   4
ENDBRANCH   2   3
ENDBRANCH   1   2
BRANCH   1   9
ATOM      9  C   UNL     1      47.636  43.434  31.142  1.00  0.00     0.000 C 
BRANCH   9  10
ATOM     10  C   UNL     1      46.767  43.659  29.893  1.00  0.00     0.000 C 
BRANCH  10  11
ATOM     11  C   UNL     1      45.363  44.189  30.234  1.00  0.00    -0.000 C 
BRANCH  11  12
ATOM     12  C   UNL     1      44.253  43.190  29.875  1.00  0.00    -0.000 C 
BRANCH  12  13
ATOM     13  C   UNL     1      43.657  42.501  31.112  1.00  0.00    -0.003 C 
ATOM     14  C   UNL     1      44.401  41.208  31.433  1.00  0.00     0.004 C 
ENDBRANCH  12  13
ENDBRANCH  11  12
ENDBRANCH  10  11
ENDBRANCH   9  10
ENDBRANCH   1   9
TORSDOF 9
ENDMDL
MODEL 4
REMARK VINA RESULT:    -4.172      4.207      7.489
REMARK INTER + INTRA:          -7.257
REMARK INTER:                  -6.760
REMARK INTRA:                  -0.497
REMARK UNBOUND:                -0.889
REMARK SMILES CCCCCCCCCC=CC(=O)[O-]
REMARK SMILES IDX 7 1 8 2 9 3 10 4 11 5 12 6 13 7 14 8 6 9 5 10 4 11 3 12 2 13
REMARK SMILES IDX 1 14
REMARK H PARENT
REMARK Flexibility Score: inf
ROOT
ATOM      1  C   UNL     1      46.508  42.577  35.229  1.00  0.00     0.000 C 
ENDROOT
BRANCH   1   2
ATOM      2  C   UNL     1      47.770  42.877  36.058  1.00  0.00     0.004 C 
BRANCH   2   3
ATOM      3  C   UNL     1      48.247  41.706  36.936  1.00  0.00     0.027 C 
BRANCH   3   4
ATOM      4  C   UNL     1      48.022  41.951  38.402  1.00  0.00    -0.025 C 
ATOM      5  C   UNL     1      48.420  41.073  39.326  1.00  0.00     0.020 C 
BRANCH   5   6
ATOM      6  C   UNL     1      48.209  41.303  40.764  1.00  0.00     0.064 C 
ATOM      7  O   UNL     1      48.046  40.321  41.533  1.00  0.00    -0.545 OA
ATOM      8  O   UNL     1      48.187  42.591  41.287  1.00  0.00    -0.545 OA
ENDBRANCH   5   6
ENDBRANCH   3   4
ENDBRANCH   2   3
ENDBRANCH   1   2
BRANCH   1   9
ATOM      9  C   UNL     1      46.673  42.940  33.744  1.00  0.00     0.000 C 
BRANCH   9  10
ATOM     10  C   UNL     1      47.076  44.410  33.536  1.00  0.00     0.000 C 
BRANCH  10  11
ATOM     11  C   UNL     1      47.739  44.656  32.169  1.00  0.00    -0.000 C 
BRANCH  11  12
ATOM     12  C   UNL     1      47.540  43.482  31.198  1.00  0.00    -0.000 C 
BRANCH  12  13
ATOM     13  C   UNL     1      46.772  43.889  29.932  1.00  0.00    -0.003 C 
ATOM     14  C   UNL     1      45.283  44.053  30.221  1.00  0.00     0.004 C 
ENDBRANCH  12  13
ENDBRANCH  11  12
ENDBRANCH  10  11
ENDBRANCH   9  10
ENDBRANCH   1   9
TORSDOF 9
ENDMDL
MODEL 5
REMARK VINA RESULT:    -4.164      3.469      6.969
REMARK INTER + INTRA:          -7.244
REMARK INTER:                  -6.226
REMARK INTRA:                  -1.017
REMARK UNBOUND:                -0.889
REMARK SMILES CCCCCCCCCC=CC(=O)[O-]
REMARK SMILES IDX 7 1 8 2 9 3 10 4 11 5 12 6 13 7 14 8 6 9 5 10 4 11 3 12 2 13
REMARK SMILES IDX 1 14
REMARK H PARENT
REMARK Flexibility Score: inf
ROOT
ATOM      1  C   UNL     1      47.620  44.814  33.244  1.00  0.00     0.000 C 
ENDROOT
BRANCH   1   2
ATOM      2  C   UNL     1      46.260  44.134  33.484  1.00  0.00     0.004 C 
BRANCH   2   3
ATOM      3  C   UNL     1      46.355  42.674  33.960  1.00  0.00     0.027 C 
BRANCH   3   4
ATOM      4  C   UNL     1      47.251  42.511  35.156  1.00  0.00    -0.025 C 
ATOM      5  C   UNL     1      46.803  42.712  36.399  1.00  0.00     0.020 C 
BRANCH   5   6
ATOM      6  C   UNL     1      47.669  42.552  37.577  1.00  0.00     0.064 C 
ATOM      7  O   UNL     1      48.216  41.441  37.799  1.00  0.00    -0.545 OA
ATOM      8  O   UNL     1      47.892  43.610  38.450  1.00  0.00    -0.545 OA
ENDBRANCH   5   6
ENDBRANCH   3   4
ENDBRANCH   2   3
ENDBRANCH   1   2
BRANCH   1   9
ATOM      9  C   UNL     1      48.018  44.838  31.759  1.00  0.00     0.000 C 
BRANCH   9  10
ATOM     10  C   UNL     1      46.820  44.610  30.823  1.00  0.00     0.000 C 
BRANCH  10  11
ATOM     11  C   UNL     1      46.917  43.284  30.048  1.00  0.00    -0.000 C 
BRANCH  11  12
ATOM     12  C   UNL     1      45.551  42.601  29.875  1.00  0.00    -0.000 C 
BRANCH  12  13
ATOM     13  C   UNL     1      44.382  43.511  30.277  1.00  0.00    -0.003 C 
ATOM     14  C   UNL     1      43.438  42.800  31.243  1.00  0.00     0.004 C 
ENDBRANCH  12  13
ENDBRANCH  11  12
ENDBRANCH  10  11
ENDBRANCH   9  10
ENDBRANCH   1   9
TORSDOF 9
ENDMDL
MODEL 6
REMARK VINA RESULT:    -4.159      4.468      7.505
REMARK INTER + INTRA:          -7.237
REMARK INTER:                  -6.769
REMARK INTRA:                  -0.468
REMARK UNBOUND:                -0.889
REMARK SMILES CCCCCCCCCC=CC(=O)[O-]
REMARK SMILES IDX 7 1 8 2 9 3 10 4 11 5 12 6 13 7 14 8 6 9 5 10 4 11 3 12 2 13
REMARK SMILES IDX 1 14
REMARK H PARENT
REMARK Flexibility Score: inf
ROOT
ATOM      1  C   UNL     1      47.629  42.941  35.856  1.00  0.00     0.000 C 
ENDROOT
BRANCH   1   2
ATOM      2  C   UNL     1      47.772  42.229  37.213  1.00  0.00     0.004 C 
BRANCH   2   3
ATOM      3  C   UNL     1      48.779  41.065  37.217  1.00  0.00     0.027 C 
BRANCH   3   4
ATOM      4  C   UNL     1      48.482  40.045  38.281  1.00  0.00    -0.025 C 
ATOM      5  C   UNL     1      47.915  40.390  39.441  1.00  0.00     0.020 C 
BRANCH   5   6
ATOM      6  C   UNL     1      47.616  39.401  40.488  1.00  0.00     0.064 C 
ATOM      7  O   UNL     1      47.711  39.730  41.698  1.00  0.00    -0.545 OA
ATOM      8  O   UNL     1      47.230  38.106  40.160  1.00  0.00    -0.545 OA
ENDBRANCH   5   6
ENDBRANCH   3   4
ENDBRANCH   2   3
ENDBRANCH   1   2
BRANCH   1   9
ATOM      9  C   UNL     1      46.778  42.146  34.853  1.00  0.00     0.000 C 
BRANCH   9  10
ATOM     10  C   UNL     1      46.467  42.947  33.577  1.00  0.00     0.000 C 
BRANCH  10  11
ATOM     11  C   UNL     1      47.188  44.306  33.539  1.00  0.00    -0.000 C 
BRANCH  11  12
ATOM     12  C   UNL     1      47.768  44.627  32.153  1.00  0.00    -0.000 C 
BRANCH  12  13
ATOM     13  C   UNL     1      46.697  44.629  31.053  1.00  0.00    -0.003 C 
ATOM     14  C   UNL     1      47.039  43.631  29.950  1.00  0.00     0.004 C 
ENDBRANCH  12  13
ENDBRANCH  11  12
ENDBRANCH  10  11
ENDBRANCH   9  10
ENDBRANCH   1   9
TORSDOF 9
ENDMDL
MODEL 7
REMARK VINA RESULT:    -4.090      3.761      7.164
REMARK INTER + INTRA:          -7.131
REMARK INTER:                  -6.498
REMARK INTRA:                  -0.634
REMARK UNBOUND:                -0.889
REMARK SMILES CCCCCCCCCC=CC(=O)[O-]
REMARK SMILES IDX 7 1 8 2 9 3 10 4 11 5 12 6 13 7 14 8 6 9 5 10 4 11 3 12 2 13
REMARK SMILES IDX 1 14
REMARK H PARENT
REMARK Flexibility Score: inf
ROOT
ATOM      1  C   UNL     1      46.535  43.094  33.518  1.00  0.00     0.000 C 
ENDROOT
BRANCH   1   2
ATOM      2  C   UNL     1      46.894  42.266  34.765  1.00  0.00     0.004 C 
BRANCH   2   3
ATOM      3  C   UNL     1      47.459  43.090  35.935  1.00  0.00     0.027 C 
BRANCH   3   4
ATOM      4  C   UNL     1      47.985  42.230  37.050  1.00  0.00    -0.025 C 
ATOM      5  C   UNL     1      47.929  40.896  36.990  1.00  0.00     0.020 C 
BRANCH   5   6
ATOM      6  C   UNL     1      48.444  40.044  38.072  1.00  0.00     0.064 C 
ATOM      7  O   UNL     1      48.477  38.796  37.918  1.00  0.00    -0.545 OA
ATOM      8  O   UNL     1      48.895  40.597  39.266  1.00  0.00    -0.545 OA
ENDBRANCH   5   6
ENDBRANCH   3   4
ENDBRANCH   2   3
ENDBRANCH   1   2
BRANCH   1   9
ATOM      9  C   UNL     1      47.222  44.470  33.501  1.00  0.00     0.000 C 
BRANCH   9  10
ATOM     10  C   UNL     1      47.851  44.798  32.136  1.00  0.00     0.000 C 
BRANCH  10  11
ATOM     11  C   UNL     1      46.847  44.681  30.976  1.00  0.00    -0.000 C 
BRANCH  11  12
ATOM     12  C   UNL     1      47.128  43.470  30.073  1.00  0.00    -0.000 C 
BRANCH  12  13
ATOM     13  C   UNL     1      45.891  42.581  29.877  1.00  0.00    -0.003 C 
ATOM     14  C   UNL     1      44.605  43.370  30.110  1.00  0.00     0.004 C 
ENDBRANCH  12  13
ENDBRANCH  11  12
ENDBRANCH  10  11
ENDBRANCH   9  10
ENDBRANCH   1   9
TORSDOF 9
ENDMDL
MODEL 8
REMARK VINA RESULT:    -4.089      0.973      2.537
REMARK INTER + INTRA:          -7.129
REMARK INTER:                  -6.426
REMARK INTRA:                  -0.703
REMARK UNBOUND:                -0.889
REMARK SMILES CCCCCCCCCC=CC(=O)[O-]
REMARK SMILES IDX 7 1 8 2 9 3 10 4 11 5 12 6 13 7 14 8 6 9 5 10 4 11 3 12 2 13
REMARK SMILES IDX 1 14
REMARK H PARENT
REMARK Flexibility Score: inf
ROOT
ATOM      1  C   UNL     1      47.621  41.116  36.465  1.00  0.00     0.000 C 
ENDROOT
BRANCH   1   2
ATOM      2  C   UNL     1      47.712  42.620  36.151  1.00  0.00     0.004 C 
BRANCH   2   3
ATOM      3  C   UNL     1      46.545  43.166  35.310  1.00  0.00     0.027 C 
BRANCH   3   4
ATOM      4  C   UNL     1      47.008  43.995  34.144  1.00  0.00    -0.025 C 
ATOM      5  C   UNL     1      46.685  43.676  32.887  1.00  0.00     0.020 C 
BRANCH   5   6
ATOM      6  C   UNL     1      47.128  44.482  31.739  1.00  0.00     0.064 C 
ATOM      7  O   UNL     1      46.302  44.795  30.844  1.00  0.00    -0.545 OA
ATOM      8  O   UNL     1      48.449  44.902  31.627  1.00  0.00    -0.545 OA
ENDBRANCH   5   6
ENDBRANCH   3   4
ENDBRANCH   2   3
ENDBRANCH   1   2
BRANCH   1   9
ATOM      9  C   UNL     1      48.748  40.634  37.394  1.00  0.00     0.000 C 
BRANCH   9  10
ATOM     10  C   UNL     1      48.281  39.537  38.366  1.00  0.00     0.000 C 
BRANCH  10  11
ATOM     11  C   UNL     1      47.635  40.109  39.640  1.00  0.00    -0.000 C 
BRANCH  11  12
ATOM     12  C   UNL     1      48.571  41.064  40.398  1.00  0.00    -0.000 C 
BRANCH  12  13
ATOM     13  C   UNL     1      47.841  42.306  40.929  1.00  0.00    -0.003 C 
ATOM     14  C   UNL     1      47.386  43.208  39.786  1.00  0.00     0.004 C 
ENDBRANCH  12  13
ENDBRANCH  11  12
ENDBRANCH  10  11
ENDBRANCH   9  10
ENDBRANCH   1   9
TORSDOF 9
ENDMDL
MODEL 9
REMARK VINA RESULT:    -4.069      1.064      1.636
REMARK INTER + INTRA:          -7.100
REMARK INTER:                  -6.582
REMARK INTRA:                  -0.518
REMARK UNBOUND:                -0.889
REMARK SMILES CCCCCCCCCC=CC(=O)[O-]
REMARK SMILES IDX 7 1 8 2 9 3 10 4 11 5 12 6 13 7 14 8 6 9 5 10 4 11 3 12 2 13
REMARK SMILES IDX 1 14
REMARK H PARENT
REMARK Flexibility Score: inf
ROOT
ATOM      1  C   UNL     1      47.947  42.524  36.499  1.00  0.00     0.000 C 
ENDROOT
BRANCH   1   2
ATOM      2  C   UNL     1      46.908  42.190  35.413  1.00  0.00     0.004 C 
BRANCH   2   3
ATOM      3  C   UNL     1      46.136  43.408  34.876  1.00  0.00     0.027 C 
BRANCH   3   4
ATOM      4  C   UNL     1      46.836  44.076  33.725  1.00  0.00    -0.025 C 
ATOM      5  C   UNL     1      46.877  43.516  32.512  1.00  0.00     0.020 C 
BRANCH   5   6
ATOM      6  C   UNL     1      47.555  44.162  31.377  1.00  0.00     0.064 C 
ATOM      7  O   UNL     1      48.372  45.094  31.591  1.00  0.00    -0.545 OA
ATOM      8  O   UNL     1      47.307  43.757  30.071  1.00  0.00    -0.545 OA
ENDBRANCH   5   6
ENDBRANCH   3   4
ENDBRANCH   2   3
ENDBRANCH   1   2
BRANCH   1   9
ATOM      9  C   UNL     1      47.307  42.797  37.870  1.00  0.00     0.000 C 
BRANCH   9  10
ATOM     10  C   UNL     1      47.984  42.007  39.004  1.00  0.00     0.000 C 
BRANCH  10  11
ATOM     11  C   UNL     1      48.773  40.790  38.490  1.00  0.00    -0.000 C 
BRANCH  11  12
ATOM     12  C   UNL     1      47.995  39.474  38.646  1.00  0.00    -0.000 C 
BRANCH  12  13
ATOM     13  C   UNL     1      47.671  39.151  40.112  1.00  0.00    -0.003 C 
ATOM     14  C   UNL     1      47.277  37.686  40.278  1.00  0.00     0.004 C 
ENDBRANCH  12  13
ENDBRANCH  11  12
ENDBRANCH  10  11
ENDBRANCH   9  10
ENDBRANCH   1   9
TORSDOF 9
ENDMDL
