MODEL 1
REMARK VINA RESULT:    -2.902      0.000      0.000
REMARK INTER + INTRA:          -3.589
REMARK INTER:                  -3.580
REMARK INTRA:                  -0.009
REMARK UNBOUND:                -0.009
REMARK SMILES Oc1cc(O)c2cc(O)c(-c3cc(O)c(O)c(O)c3)[o+]c2c1
REMARK SMILES IDX 10 1 20 2 21 3 22 4 2 5 3 6 4 7 6 8 7 9 8 10 11 11 12 12
REMARK SMILES IDX 13 13 19 14 15 15 17 16 14 17 16 19 18 21 9 23 1 25 5 27
REMARK H PARENT 14 18 16 20 18 22 9 24 1 26 5 28
REMARK Flexibility Score: inf
ROOT
ATOM      1  C   UNL     1     -12.206 -15.986  31.356  1.00  0.00     0.402 A 
ATOM      2  O   UNL     1     -12.947 -15.156  32.089  1.00  0.00    -0.202 OA
ATOM      3  C   UNL     1     -12.605 -14.763  33.312  1.00  0.00     0.368 A 
ATOM      4  C   UNL     1     -13.439 -13.886  34.013  1.00  0.00     0.162 A 
ATOM      5  C   UNL     1     -13.090 -13.460  35.300  1.00  0.00     0.128 A 
ATOM      6  C   UNL     1     -11.901 -13.915  35.887  1.00  0.00     0.093 A 
ATOM      7  C   UNL     1     -11.057 -14.795  35.195  1.00  0.00     0.136 A 
ATOM      8  C   UNL     1     -11.409 -15.223  33.902  1.00  0.00     0.125 A 
ATOM      9  C   UNL     1     -10.610 -16.107  33.167  1.00  0.00     0.078 A 
ATOM     10  C   UNL     1     -11.008 -16.506  31.889  1.00  0.00     0.223 A 
ENDROOT
BRANCH   1  11
ATOM     11  C   UNL     1     -12.687 -16.346  30.003  1.00  0.00     0.091 A 
ATOM     12  C   UNL     1     -13.086 -15.331  29.120  1.00  0.00     0.068 A 
ATOM     13  C   UNL     1     -13.526 -15.639  27.829  1.00  0.00     0.162 A 
ATOM     14  C   UNL     1     -12.700 -17.680  29.561  1.00  0.00     0.068 A 
ATOM     15  C   UNL     1     -13.557 -16.977  27.399  1.00  0.00     0.200 A 
ATOM     16  C   UNL     1     -13.138 -17.998  28.268  1.00  0.00     0.162 A 
BRANCH  13  17
ATOM     17  O   UNL     1     -13.929 -14.603  26.988  1.00  0.00    -0.504 OA
ATOM     18  H   UNL     1     -14.580 -13.887  27.287  1.00  0.00     0.293 HD
ENDBRANCH  13  17
BRANCH  15  19
ATOM     19  O   UNL     1     -14.000 -17.276  26.110  1.00  0.00    -0.502 OA
ATOM     20  H   UNL     1     -13.711 -18.115  25.621  1.00  0.00     0.293 HD
ENDBRANCH  15  19
BRANCH  16  21
ATOM     21  O   UNL     1     -13.152 -19.326  27.842  1.00  0.00    -0.504 OA
ATOM     22  H   UNL     1     -12.323 -19.772  27.469  1.00  0.00     0.293 HD
ENDBRANCH  16  21
ENDBRANCH   1  11
BRANCH  10  23
ATOM     23  O   UNL     1     -10.242 -17.426  31.172  1.00  0.00    -0.500 OA
ATOM     24  H   UNL     1      -9.230 -17.423  31.217  1.00  0.00     0.294 HD
ENDBRANCH  10  23
BRANCH   5  25
ATOM     25  O   UNL     1     -13.930 -12.586  35.983  1.00  0.00    -0.507 OA
ATOM     26  H   UNL     1     -14.744 -12.919  36.489  1.00  0.00     0.293 HD
ENDBRANCH   5  25
BRANCH   7  27
ATOM     27  O   UNL     1      -9.877 -15.242  35.792  1.00  0.00    -0.507 OA
ATOM     28  H   UNL     1      -9.360 -16.030  35.422  1.00  0.00     0.293 HD
ENDBRANCH   7  27
TORSDOF 7
ENDMDL
MODEL 2
REMARK VINA RESULT:    -2.768      1.710      7.117
REMARK INTER + INTRA:          -3.424
REMARK INTER:                  -3.074
REMARK INTRA:                  -0.350
REMARK UNBOUND:                -0.009
REMARK SMILES Oc1cc(O)c2cc(O)c(-c3cc(O)c(O)c(O)c3)[o+]c2c1
REMARK SMILES IDX 10 1 20 2 21 3 22 4 2 5 3 6 4 7 6 8 7 9 8 10 11 11 12 12
REMARK SMILES IDX 13 13 19 14 15 15 17 16 14 17 16 19 18 21 9 23 1 25 5 27
REMARK H PARENT 14 18 16 20 18 22 9 24 1 26 5 28
REMARK Flexibility Score: inf
ROOT
ATOM      1  C   UNL     1     -12.367 -16.612  31.435  1.00  0.00     0.402 A 
ATOM      2  O   UNL     1     -11.774 -16.166  30.328  1.00  0.00    -0.202 OA
ATOM      3  C   UNL     1     -11.818 -16.814  29.168  1.00  0.00     0.368 A 
ATOM      4  C   UNL     1     -11.171 -16.276  28.051  1.00  0.00     0.162 A 
ATOM      5  C   UNL     1     -11.212 -16.945  26.823  1.00  0.00     0.128 A 
ATOM      6  C   UNL     1     -11.903 -18.159  26.712  1.00  0.00     0.093 A 
ATOM      7  C   UNL     1     -12.556 -18.710  27.824  1.00  0.00     0.136 A 
ATOM      8  C   UNL     1     -12.514 -18.037  29.059  1.00  0.00     0.125 A 
ATOM      9  C   UNL     1     -13.139 -18.544  30.204  1.00  0.00     0.078 A 
ATOM     10  C   UNL     1     -13.062 -17.839  31.408  1.00  0.00     0.223 A 
ENDROOT
BRANCH   1  11
ATOM     11  C   UNL     1     -12.256 -15.797  32.666  1.00  0.00     0.091 A 
ATOM     12  C   UNL     1     -13.343 -15.009  33.073  1.00  0.00     0.068 A 
ATOM     13  C   UNL     1     -13.274 -14.244  34.241  1.00  0.00     0.162 A 
ATOM     14  C   UNL     1     -11.103 -15.839  33.469  1.00  0.00     0.068 A 
ATOM     15  C   UNL     1     -12.111 -14.273  35.030  1.00  0.00     0.200 A 
ATOM     16  C   UNL     1     -11.025 -15.077  34.644  1.00  0.00     0.162 A 
BRANCH  13  17
ATOM     17  O   UNL     1     -14.370 -13.462  34.603  1.00  0.00    -0.504 OA
ATOM     18  H   UNL     1     -14.288 -12.470  34.789  1.00  0.00     0.293 HD
ENDBRANCH  13  17
BRANCH  15  19
ATOM     19  O   UNL     1     -12.049 -13.505  36.194  1.00  0.00    -0.502 OA
ATOM     20  H   UNL     1     -12.506 -13.788  37.053  1.00  0.00     0.293 HD
ENDBRANCH  15  19
BRANCH  16  21
ATOM     21  O   UNL     1      -9.875 -15.121  35.430  1.00  0.00    -0.504 OA
ATOM     22  H   UNL     1      -9.924 -15.210  36.438  1.00  0.00     0.293 HD
ENDBRANCH  16  21
ENDBRANCH   1  11
BRANCH  10  23
ATOM     23  O   UNL     1     -13.640 -18.363  32.564  1.00  0.00    -0.500 OA
ATOM     24  H   UNL     1     -14.456 -18.962  32.525  1.00  0.00     0.294 HD
ENDBRANCH  10  23
BRANCH   5  25
ATOM     25  O   UNL     1     -10.563 -16.394  25.721  1.00  0.00    -0.507 OA
ATOM     26  H   UNL     1     -10.742 -15.442  25.422  1.00  0.00     0.293 HD
ENDBRANCH   5  25
BRANCH   7  27
ATOM     27  O   UNL     1     -13.239 -19.921  27.701  1.00  0.00    -0.507 OA
ATOM     28  H   UNL     1     -13.169 -20.488  26.865  1.00  0.00     0.293 HD
ENDBRANCH   7  27
TORSDOF 7
ENDMDL
MODEL 3
REMARK VINA RESULT:    -2.762      1.435      3.307
REMARK INTER + INTRA:          -3.417
REMARK INTER:                  -3.273
REMARK INTRA:                  -0.144
REMARK UNBOUND:                -0.009
REMARK SMILES Oc1cc(O)c2cc(O)c(-c3cc(O)c(O)c(O)c3)[o+]c2c1
REMARK SMILES IDX 10 1 20 2 21 3 22 4 2 5 3 6 4 7 6 8 7 9 8 10 11 11 12 12
REMARK SMILES IDX 13 13 19 14 15 15 17 16 14 17 16 19 18 21 9 23 1 25 5 27
REMARK H PARENT 14 18 16 20 18 22 9 24 1 26 5 28
REMARK Flexibility Score: inf
ROOT
ATOM      1  C   UNL     1     -13.014 -15.825  32.203  1.00  0.00     0.402 A 
ATOM      2  O   UNL     1     -12.049 -15.874  33.120  1.00  0.00    -0.202 OA
ATOM      3  C   UNL     1     -12.017 -15.081  34.186  1.00  0.00     0.368 A 
ATOM      4  C   UNL     1     -10.969 -15.199  35.104  1.00  0.00     0.162 A 
ATOM      5  C   UNL     1     -10.925 -14.374  36.233  1.00  0.00     0.128 A 
ATOM      6  C   UNL     1     -11.935 -13.425  36.444  1.00  0.00     0.093 A 
ATOM      7  C   UNL     1     -12.992 -13.295  35.531  1.00  0.00     0.136 A 
ATOM      8  C   UNL     1     -13.035 -14.126  34.395  1.00  0.00     0.125 A 
ATOM      9  C   UNL     1     -14.060 -14.036  33.447  1.00  0.00     0.078 A 
ATOM     10  C   UNL     1     -14.053 -14.880  32.333  1.00  0.00     0.223 A 
ENDROOT
BRANCH   1  11
ATOM     11  C   UNL     1     -12.946 -16.766  31.062  1.00  0.00     0.091 A 
ATOM     12  C   UNL     1     -12.965 -18.148  31.305  1.00  0.00     0.068 A 
ATOM     13  C   UNL     1     -12.921 -19.061  30.247  1.00  0.00     0.162 A 
ATOM     14  C   UNL     1     -12.918 -16.306  29.734  1.00  0.00     0.068 A 
ATOM     15  C   UNL     1     -12.873 -18.595  28.921  1.00  0.00     0.200 A 
ATOM     16  C   UNL     1     -12.876 -17.214  28.666  1.00  0.00     0.162 A 
BRANCH  13  17
ATOM     17  O   UNL     1     -12.927 -20.425  30.531  1.00  0.00    -0.504 OA
ATOM     18  H   UNL     1     -13.604 -20.844  31.157  1.00  0.00     0.293 HD
ENDBRANCH  13  17
BRANCH  15  19
ATOM     19  O   UNL     1     -12.826 -19.513  27.871  1.00  0.00    -0.502 OA
ATOM     20  H   UNL     1     -11.981 -19.683  27.339  1.00  0.00     0.293 HD
ENDBRANCH  15  19
BRANCH  16  21
ATOM     21  O   UNL     1     -12.843 -16.746  27.353  1.00  0.00    -0.504 OA
ATOM     22  H   UNL     1     -12.969 -15.765  27.135  1.00  0.00     0.293 HD
ENDBRANCH  16  21
ENDBRANCH   1  11
BRANCH  10  23
ATOM     23  O   UNL     1     -15.043 -14.761  31.358  1.00  0.00    -0.500 OA
ATOM     24  H   UNL     1     -16.021 -14.659  31.604  1.00  0.00     0.294 HD
ENDBRANCH  10  23
BRANCH   5  25
ATOM     25  O   UNL     1      -9.875 -14.506  37.137  1.00  0.00    -0.507 OA
ATOM     26  H   UNL     1      -9.695 -13.804  37.846  1.00  0.00     0.293 HD
ENDBRANCH   5  25
BRANCH   7  27
ATOM     27  O   UNL     1     -13.990 -12.346  35.751  1.00  0.00    -0.507 OA
ATOM     28  H   UNL     1     -13.775 -11.361  35.848  1.00  0.00     0.293 HD
ENDBRANCH   7  27
TORSDOF 7
ENDMDL
MODEL 4
REMARK VINA RESULT:    -2.762      1.645      7.284
REMARK INTER + INTRA:          -3.416
REMARK INTER:                  -3.079
REMARK INTRA:                  -0.337
REMARK UNBOUND:                -0.009
REMARK SMILES Oc1cc(O)c2cc(O)c(-c3cc(O)c(O)c(O)c3)[o+]c2c1
REMARK SMILES IDX 10 1 20 2 21 3 22 4 2 5 3 6 4 7 6 8 7 9 8 10 11 11 12 12
REMARK SMILES IDX 13 13 19 14 15 15 17 16 14 17 16 19 18 21 9 23 1 25 5 27
REMARK H PARENT 14 18 16 20 18 22 9 24 1 26 5 28
REMARK Flexibility Score: inf
ROOT
ATOM      1  C   UNL     1     -12.577 -16.119  32.254  1.00  0.00     0.402 A 
ATOM      2  O   UNL     1     -11.798 -15.884  31.199  1.00  0.00    -0.202 OA
ATOM      3  C   UNL     1     -11.891 -16.566  30.061  1.00  0.00     0.368 A 
ATOM      4  C   UNL     1     -11.037 -16.254  28.998  1.00  0.00     0.162 A 
ATOM      5  C   UNL     1     -11.126 -16.960  27.793  1.00  0.00     0.128 A 
ATOM      6  C   UNL     1     -12.074 -17.983  27.652  1.00  0.00     0.093 A 
ATOM      7  C   UNL     1     -12.936 -18.306  28.710  1.00  0.00     0.136 A 
ATOM      8  C   UNL     1     -12.846 -17.596  29.922  1.00  0.00     0.125 A 
ATOM      9  C   UNL     1     -13.673 -17.880  31.014  1.00  0.00     0.078 A 
ATOM     10  C   UNL     1     -13.538 -17.149  32.197  1.00  0.00     0.223 A 
ENDROOT
BRANCH   1  11
ATOM     11  C   UNL     1     -12.385 -15.288  33.465  1.00  0.00     0.091 A 
ATOM     12  C   UNL     1     -11.238 -15.469  34.252  1.00  0.00     0.068 A 
ATOM     13  C   UNL     1     -11.020 -14.686  35.389  1.00  0.00     0.162 A 
ATOM     14  C   UNL     1     -13.300 -14.279  33.813  1.00  0.00     0.068 A 
ATOM     15  C   UNL     1     -11.949 -13.693  35.745  1.00  0.00     0.200 A 
ATOM     16  C   UNL     1     -13.090 -13.488  34.951  1.00  0.00     0.162 A 
BRANCH  13  17
ATOM     17  O   UNL     1      -9.875 -14.908  36.153  1.00  0.00    -0.504 OA
ATOM     18  H   UNL     1      -9.433 -14.172  36.690  1.00  0.00     0.293 HD
ENDBRANCH  13  17
BRANCH  15  19
ATOM     19  O   UNL     1     -11.725 -12.917  36.883  1.00  0.00    -0.502 OA
ATOM     20  H   UNL     1     -11.673 -11.906  36.846  1.00  0.00     0.293 HD
ENDBRANCH  15  19
BRANCH  16  21
ATOM     21  O   UNL     1     -14.007 -12.495  35.290  1.00  0.00    -0.504 OA
ATOM     22  H   UNL     1     -13.972 -11.573  34.871  1.00  0.00     0.293 HD
ENDBRANCH  16  21
ENDBRANCH   1  11
BRANCH  10  23
ATOM     23  O   UNL     1     -14.325 -17.461  33.306  1.00  0.00    -0.500 OA
ATOM     24  H   UNL     1     -14.422 -16.820  34.085  1.00  0.00     0.294 HD
ENDBRANCH  10  23
BRANCH   5  25
ATOM     25  O   UNL     1     -10.270 -16.636  26.745  1.00  0.00    -0.507 OA
ATOM     26  H   UNL     1     -10.621 -16.444  25.813  1.00  0.00     0.293 HD
ENDBRANCH   5  25
BRANCH   7  27
ATOM     27  O   UNL     1     -13.874 -19.328  28.557  1.00  0.00    -0.507 OA
ATOM     28  H   UNL     1     -14.841 -19.133  28.326  1.00  0.00     0.293 HD
ENDBRANCH   7  27
TORSDOF 7
ENDMDL
MODEL 5
REMARK VINA RESULT:    -2.580      0.102      1.796
REMARK INTER + INTRA:          -3.192
REMARK INTER:                  -3.215
REMARK INTRA:                   0.023
REMARK UNBOUND:                -0.009
REMARK SMILES Oc1cc(O)c2cc(O)c(-c3cc(O)c(O)c(O)c3)[o+]c2c1
REMARK SMILES IDX 10 1 20 2 21 3 22 4 2 5 3 6 4 7 6 8 7 9 8 10 11 11 12 12
REMARK SMILES IDX 13 13 19 14 15 15 17 16 14 17 16 19 18 21 9 23 1 25 5 27
REMARK H PARENT 14 18 16 20 18 22 9 24 1 26 5 28
REMARK Flexibility Score: inf
ROOT
ATOM      1  C   UNL     1     -12.109 -15.927  31.318  1.00  0.00     0.402 A 
ATOM      2  O   UNL     1     -12.871 -15.115  32.049  1.00  0.00    -0.202 OA
ATOM      3  C   UNL     1     -12.559 -14.743  33.287  1.00  0.00     0.368 A 
ATOM      4  C   UNL     1     -13.412 -13.884  33.986  1.00  0.00     0.162 A 
ATOM      5  C   UNL     1     -13.094 -13.481  35.287  1.00  0.00     0.128 A 
ATOM      6  C   UNL     1     -11.917 -13.941  35.893  1.00  0.00     0.093 A 
ATOM      7  C   UNL     1     -11.052 -14.804  35.203  1.00  0.00     0.136 A 
ATOM      8  C   UNL     1     -11.373 -15.209  33.894  1.00  0.00     0.125 A 
ATOM      9  C   UNL     1     -10.553 -16.074  33.162  1.00  0.00     0.078 A 
ATOM     10  C   UNL     1     -10.920 -16.451  31.867  1.00  0.00     0.223 A 
ENDROOT
BRANCH   1  11
ATOM     11  C   UNL     1     -12.558 -16.264  29.948  1.00  0.00     0.091 A 
ATOM     12  C   UNL     1     -12.557 -17.603  29.530  1.00  0.00     0.068 A 
ATOM     13  C   UNL     1     -12.993 -17.953  28.249  1.00  0.00     0.162 A 
ATOM     14  C   UNL     1     -13.039 -15.275  29.072  1.00  0.00     0.068 A 
ATOM     15  C   UNL     1     -13.454 -16.958  27.369  1.00  0.00     0.200 A 
ATOM     16  C   UNL     1     -13.480 -15.617  27.786  1.00  0.00     0.162 A 
BRANCH  13  17
ATOM     17  O   UNL     1     -12.962 -19.294  27.867  1.00  0.00    -0.504 OA
ATOM     18  H   UNL     1     -13.531 -19.998  28.321  1.00  0.00     0.293 HD
ENDBRANCH  13  17
BRANCH  15  19
ATOM     19  O   UNL     1     -13.886 -17.316  26.091  1.00  0.00    -0.502 OA
ATOM     20  H   UNL     1     -14.189 -18.256  25.867  1.00  0.00     0.293 HD
ENDBRANCH  15  19
BRANCH  16  21
ATOM     21  O   UNL     1     -13.951 -14.628  26.923  1.00  0.00    -0.504 OA
ATOM     22  H   UNL     1     -14.886 -14.248  27.010  1.00  0.00     0.293 HD
ENDBRANCH  16  21
ENDBRANCH   1  11
BRANCH  10  23
ATOM     23  O   UNL     1     -10.134 -17.353  31.151  1.00  0.00    -0.500 OA
ATOM     24  H   UNL     1     -10.469 -18.281  30.917  1.00  0.00     0.294 HD
ENDBRANCH  10  23
BRANCH   5  25
ATOM     25  O   UNL     1     -13.954 -12.624  35.968  1.00  0.00    -0.507 OA
ATOM     26  H   UNL     1     -13.793 -11.623  35.996  1.00  0.00     0.293 HD
ENDBRANCH   5  25
BRANCH   7  27
ATOM     27  O   UNL     1      -9.884 -15.256  35.818  1.00  0.00    -0.507 OA
ATOM     28  H   UNL     1      -9.676 -15.044  36.786  1.00  0.00     0.293 HD
ENDBRANCH   7  27
TORSDOF 7
ENDMDL
MODEL 6
REMARK VINA RESULT:    -2.051      1.042      6.925
REMARK INTER + INTRA:          -2.539
REMARK INTER:                  -2.559
REMARK INTRA:                   0.020
REMARK UNBOUND:                -0.009
REMARK SMILES Oc1cc(O)c2cc(O)c(-c3cc(O)c(O)c(O)c3)[o+]c2c1
REMARK SMILES IDX 10 1 20 2 21 3 22 4 2 5 3 6 4 7 6 8 7 9 8 10 11 11 12 12
REMARK SMILES IDX 13 13 19 14 15 15 17 16 14 17 16 19 18 21 9 23 1 25 5 27
REMARK H PARENT 14 18 16 20 18 22 9 24 1 26 5 28
REMARK Flexibility Score: inf
ROOT
ATOM      1  C   UNL     1     -12.376 -16.135  31.553  1.00  0.00     0.402 A 
ATOM      2  O   UNL     1     -12.823 -15.428  30.515  1.00  0.00    -0.202 OA
ATOM      3  C   UNL     1     -12.983 -15.943  29.300  1.00  0.00     0.368 A 
ATOM      4  C   UNL     1     -13.461 -15.133  28.264  1.00  0.00     0.162 A 
ATOM      5  C   UNL     1     -13.638 -15.662  26.982  1.00  0.00     0.128 A 
ATOM      6  C   UNL     1     -13.335 -17.008  26.733  1.00  0.00     0.093 A 
ATOM      7  C   UNL     1     -12.855 -17.831  27.762  1.00  0.00     0.136 A 
ATOM      8  C   UNL     1     -12.676 -17.298  29.052  1.00  0.00     0.125 A 
ATOM      9  C   UNL     1     -12.193 -18.069  30.115  1.00  0.00     0.078 A 
ATOM     10  C   UNL     1     -12.027 -17.490  31.376  1.00  0.00     0.223 A 
ENDROOT
BRANCH   1  11
ATOM     11  C   UNL     1     -12.248 -15.453  32.861  1.00  0.00     0.091 A 
ATOM     12  C   UNL     1     -13.308 -14.667  33.337  1.00  0.00     0.068 A 
ATOM     13  C   UNL     1     -13.223 -14.027  34.577  1.00  0.00     0.162 A 
ATOM     14  C   UNL     1     -11.107 -15.621  33.665  1.00  0.00     0.068 A 
ATOM     15  C   UNL     1     -12.071 -14.181  35.368  1.00  0.00     0.200 A 
ATOM     16  C   UNL     1     -11.014 -14.985  34.911  1.00  0.00     0.162 A 
BRANCH  13  17
ATOM     17  O   UNL     1     -14.292 -13.242  35.007  1.00  0.00    -0.504 OA
ATOM     18  H   UNL     1     -14.448 -12.305  34.658  1.00  0.00     0.293 HD
ENDBRANCH  13  17
BRANCH  15  19
ATOM     19  O   UNL     1     -11.994 -13.537  36.604  1.00  0.00    -0.502 OA
ATOM     20  H   UNL     1     -11.108 -13.279  37.023  1.00  0.00     0.293 HD
ENDBRANCH  15  19
BRANCH  16  21
ATOM     21  O   UNL     1      -9.875 -15.154  35.698  1.00  0.00    -0.504 OA
ATOM     22  H   UNL     1      -9.769 -15.951  36.313  1.00  0.00     0.293 HD
ENDBRANCH  16  21
ENDBRANCH   1  11
BRANCH  10  23
ATOM     23  O   UNL     1     -11.498 -18.238  32.427  1.00  0.00    -0.500 OA
ATOM     24  H   UNL     1     -11.880 -18.183  33.364  1.00  0.00     0.294 HD
ENDBRANCH  10  23
BRANCH   5  25
ATOM     25  O   UNL     1     -14.116 -14.843  25.963  1.00  0.00    -0.507 OA
ATOM     26  H   UNL     1     -13.633 -14.765  25.074  1.00  0.00     0.293 HD
ENDBRANCH   5  25
BRANCH   7  27
ATOM     27  O   UNL     1     -12.555 -19.169  27.502  1.00  0.00    -0.507 OA
ATOM     28  H   UNL     1     -11.834 -19.434  26.841  1.00  0.00     0.293 HD
ENDBRANCH   7  27
TORSDOF 7
ENDMDL
MODEL 7
REMARK VINA RESULT:    -1.900      1.645      7.038
REMARK INTER + INTRA:          -2.353
REMARK INTER:                  -2.654
REMARK INTRA:                   0.302
REMARK UNBOUND:                -0.009
REMARK SMILES Oc1cc(O)c2cc(O)c(-c3cc(O)c(O)c(O)c3)[o+]c2c1
REMARK SMILES IDX 10 1 20 2 21 3 22 4 2 5 3 6 4 7 6 8 7 9 8 10 11 11 12 12
REMARK SMILES IDX 13 13 19 14 15 15 17 16 14 17 16 19 18 21 9 23 1 25 5 27
REMARK H PARENT 14 18 16 20 18 22 9 24 1 26 5 28
REMARK Flexibility Score: inf
ROOT
ATOM      1  C   UNL     1     -11.872 -16.086  30.622  1.00  0.00     0.402 A 
ATOM      2  O   UNL     1     -12.717 -15.615  29.705  1.00  0.00    -0.202 OA
ATOM      3  C   UNL     1     -12.675 -15.972  28.426  1.00  0.00     0.368 A 
ATOM      4  C   UNL     1     -13.602 -15.433  27.528  1.00  0.00     0.162 A 
ATOM      5  C   UNL     1     -13.572 -15.803  26.179  1.00  0.00     0.128 A 
ATOM      6  C   UNL     1     -12.610 -16.715  25.726  1.00  0.00     0.093 A 
ATOM      7  C   UNL     1     -11.673 -17.262  26.615  1.00  0.00     0.136 A 
ATOM      8  C   UNL     1     -11.704 -16.890  27.972  1.00  0.00     0.125 A 
ATOM      9  C   UNL     1     -10.790 -17.397  28.903  1.00  0.00     0.078 A 
ATOM     10  C   UNL     1     -10.859 -16.989  30.238  1.00  0.00     0.223 A 
ENDROOT
BRANCH   1  11
ATOM     11  C   UNL     1     -12.023 -15.620  32.019  1.00  0.00     0.091 A 
ATOM     12  C   UNL     1     -10.904 -15.600  32.865  1.00  0.00     0.068 A 
ATOM     13  C   UNL     1     -11.011 -15.147  34.183  1.00  0.00     0.162 A 
ATOM     14  C   UNL     1     -13.253 -15.143  32.503  1.00  0.00     0.068 A 
ATOM     15  C   UNL     1     -12.249 -14.691  34.669  1.00  0.00     0.200 A 
ATOM     16  C   UNL     1     -13.371 -14.686  33.823  1.00  0.00     0.162 A 
BRANCH  13  17
ATOM     17  O   UNL     1      -9.879 -15.158  34.996  1.00  0.00    -0.504 OA
ATOM     18  H   UNL     1      -9.741 -14.484  35.740  1.00  0.00     0.293 HD
ENDBRANCH  13  17
BRANCH  15  19
ATOM     19  O   UNL     1     -12.349 -14.243  35.987  1.00  0.00    -0.502 OA
ATOM     20  H   UNL     1     -13.219 -14.280  36.505  1.00  0.00     0.293 HD
ENDBRANCH  15  19
BRANCH  16  21
ATOM     21  O   UNL     1     -14.598 -14.221  34.294  1.00  0.00    -0.504 OA
ATOM     22  H   UNL     1     -15.401 -14.832  34.377  1.00  0.00     0.293 HD
ENDBRANCH  16  21
ENDBRANCH   1  11
BRANCH  10  23
ATOM     23  O   UNL     1      -9.921 -17.451  31.160  1.00  0.00    -0.500 OA
ATOM     24  H   UNL     1     -10.190 -17.736  32.095  1.00  0.00     0.294 HD
ENDBRANCH  10  23
BRANCH   5  25
ATOM     25  O   UNL     1     -14.503 -15.258  25.299  1.00  0.00    -0.507 OA
ATOM     26  H   UNL     1     -14.218 -14.814  24.433  1.00  0.00     0.293 HD
ENDBRANCH   5  25
BRANCH   7  27
ATOM     27  O   UNL     1     -10.719 -18.169  26.152  1.00  0.00    -0.507 OA
ATOM     28  H   UNL     1     -10.029 -17.906  25.458  1.00  0.00     0.293 HD
ENDBRANCH   7  27
TORSDOF 7
ENDMDL
MODEL 8
REMARK VINA RESULT:    -1.776      1.690      7.313
REMARK INTER + INTRA:          -2.200
REMARK INTER:                  -2.239
REMARK INTRA:                   0.038
REMARK UNBOUND:                -0.009
REMARK SMILES Oc1cc(O)c2cc(O)c(-c3cc(O)c(O)c(O)c3)[o+]c2c1
REMARK SMILES IDX 10 1 20 2 21 3 22 4 2 5 3 6 4 7 6 8 7 9 8 10 11 11 12 12
REMARK SMILES IDX 13 13 19 14 15 15 17 16 14 17 16 19 18 21 9 23 1 25 5 27
REMARK H PARENT 14 18 16 20 18 22 9 24 1 26 5 28
REMARK Flexibility Score: inf
ROOT
ATOM      1  C   UNL     1     -12.770 -16.011  32.355  1.00  0.00     0.402 A 
ATOM      2  O   UNL     1     -12.494 -17.311  32.455  1.00  0.00    -0.202 OA
ATOM      3  C   UNL     1     -12.658 -18.169  31.454  1.00  0.00     0.368 A 
ATOM      4  C   UNL     1     -12.341 -19.518  31.641  1.00  0.00     0.162 A 
ATOM      5  C   UNL     1     -12.505 -20.432  30.594  1.00  0.00     0.128 A 
ATOM      6  C   UNL     1     -12.991 -19.994  29.355  1.00  0.00     0.093 A 
ATOM      7  C   UNL     1     -13.314 -18.644  29.154  1.00  0.00     0.136 A 
ATOM      8  C   UNL     1     -13.149 -17.725  30.207  1.00  0.00     0.125 A 
ATOM      9  C   UNL     1     -13.462 -16.369  30.067  1.00  0.00     0.078 A 
ATOM     10  C   UNL     1     -13.286 -15.499  31.146  1.00  0.00     0.223 A 
ENDROOT
BRANCH   1  11
ATOM     11  C   UNL     1     -12.537 -15.152  33.538  1.00  0.00     0.091 A 
ATOM     12  C   UNL     1     -11.333 -15.268  34.249  1.00  0.00     0.068 A 
ATOM     13  C   UNL     1     -11.076 -14.457  35.359  1.00  0.00     0.162 A 
ATOM     14  C   UNL     1     -13.472 -14.179  33.932  1.00  0.00     0.068 A 
ATOM     15  C   UNL     1     -12.025 -13.500  35.761  1.00  0.00     0.200 A 
ATOM     16  C   UNL     1     -13.223 -13.360  35.042  1.00  0.00     0.162 A 
BRANCH  13  17
ATOM     17  O   UNL     1      -9.875 -14.615  36.048  1.00  0.00    -0.504 OA
ATOM     18  H   UNL     1      -9.620 -15.487  36.495  1.00  0.00     0.293 HD
ENDBRANCH  13  17
BRANCH  15  19
ATOM     19  O   UNL     1     -11.762 -12.696  36.871  1.00  0.00    -0.502 OA
ATOM     20  H   UNL     1     -11.068 -11.958  36.851  1.00  0.00     0.293 HD
ENDBRANCH  15  19
BRANCH  16  21
ATOM     21  O   UNL     1     -14.161 -12.403  35.428  1.00  0.00    -0.504 OA
ATOM     22  H   UNL     1     -15.071 -12.344  34.988  1.00  0.00     0.293 HD
ENDBRANCH  16  21
ENDBRANCH   1  11
BRANCH  10  23
ATOM     23  O   UNL     1     -13.644 -14.156  31.029  1.00  0.00    -0.500 OA
ATOM     24  H   UNL     1     -13.669 -13.541  31.834  1.00  0.00     0.294 HD
ENDBRANCH  10  23
BRANCH   5  25
ATOM     25  O   UNL     1     -12.183 -21.771  30.797  1.00  0.00    -0.507 OA
ATOM     26  H   UNL     1     -11.230 -22.107  30.707  1.00  0.00     0.293 HD
ENDBRANCH   5  25
BRANCH   7  27
ATOM     27  O   UNL     1     -13.799 -18.221  27.915  1.00  0.00    -0.507 OA
ATOM     28  H   UNL     1     -14.365 -17.386  27.823  1.00  0.00     0.293 HD
ENDBRANCH   7  27
TORSDOF 7
ENDMDL
MODEL 9
REMARK VINA RESULT:    -1.342      1.983      7.017
REMARK INTER + INTRA:          -1.665
REMARK INTER:                  -1.426
REMARK INTRA:                  -0.239
REMARK UNBOUND:                -0.009
REMARK SMILES Oc1cc(O)c2cc(O)c(-c3cc(O)c(O)c(O)c3)[o+]c2c1
REMARK SMILES IDX 10 1 20 2 21 3 22 4 2 5 3 6 4 7 6 8 7 9 8 10 11 11 12 12
REMARK SMILES IDX 13 13 19 14 15 15 17 16 14 17 16 19 18 21 9 23 1 25 5 27
REMARK H PARENT 14 18 16 20 18 22 9 24 1 26 5 28
REMARK Flexibility Score: inf
ROOT
ATOM      1  C   UNL     1     -11.715 -16.247  31.439  1.00  0.00     0.402 A 
ATOM      2  O   UNL     1     -12.567 -17.237  31.174  1.00  0.00    -0.202 OA
ATOM      3  C   UNL     1     -12.547 -17.929  30.039  1.00  0.00     0.368 A 
ATOM      4  C   UNL     1     -13.474 -18.957  29.840  1.00  0.00     0.162 A 
ATOM      5  C   UNL     1     -13.462 -19.696  28.652  1.00  0.00     0.128 A 
ATOM      6  C   UNL     1     -12.519 -19.405  27.658  1.00  0.00     0.093 A 
ATOM      7  C   UNL     1     -11.583 -18.376  27.844  1.00  0.00     0.136 A 
ATOM      8  C   UNL     1     -11.596 -17.633  29.039  1.00  0.00     0.125 A 
ATOM      9  C   UNL     1     -10.693 -16.591  29.276  1.00  0.00     0.078 A 
ATOM     10  C   UNL     1     -10.752 -15.879  30.478  1.00  0.00     0.223 A 
ENDROOT
BRANCH   1  11
ATOM     11  C   UNL     1     -11.830 -15.555  32.743  1.00  0.00     0.091 A 
ATOM     12  C   UNL     1     -13.027 -14.903  33.075  1.00  0.00     0.068 A 
ATOM     13  C   UNL     1     -13.172 -14.257  34.307  1.00  0.00     0.162 A 
ATOM     14  C   UNL     1     -10.785 -15.584  33.682  1.00  0.00     0.068 A 
ATOM     15  C   UNL     1     -12.116 -14.271  35.234  1.00  0.00     0.200 A 
ATOM     16  C   UNL     1     -10.921 -14.941  34.920  1.00  0.00     0.162 A 
BRANCH  13  17
ATOM     17  O   UNL     1     -14.372 -13.607  34.592  1.00  0.00    -0.504 OA
ATOM     18  H   UNL     1     -15.062 -13.999  35.221  1.00  0.00     0.293 HD
ENDBRANCH  13  17
BRANCH  15  19
ATOM     19  O   UNL     1     -12.267 -13.623  36.460  1.00  0.00    -0.502 OA
ATOM     20  H   UNL     1     -12.972 -12.910  36.610  1.00  0.00     0.293 HD
ENDBRANCH  15  19
BRANCH  16  21
ATOM     21  O   UNL     1      -9.876 -14.971  35.842  1.00  0.00    -0.504 OA
ATOM     22  H   UNL     1      -9.235 -15.755  35.893  1.00  0.00     0.293 HD
ENDBRANCH  16  21
ENDBRANCH   1  11
BRANCH  10  23
ATOM     23  O   UNL     1      -9.888 -14.807  30.699  1.00  0.00    -0.500 OA
ATOM     24  H   UNL     1      -9.221 -14.508  29.997  1.00  0.00     0.294 HD
ENDBRANCH  10  23
BRANCH   5  25
ATOM     25  O   UNL     1     -14.392 -20.716  28.471  1.00  0.00    -0.507 OA
ATOM     26  H   UNL     1     -14.772 -20.931  27.556  1.00  0.00     0.293 HD
ENDBRANCH   5  25
BRANCH   7  27
ATOM     27  O   UNL     1     -10.650 -18.095  26.846  1.00  0.00    -0.507 OA
ATOM     28  H   UNL     1     -10.545 -17.163  26.463  1.00  0.00     0.293 HD
ENDBRANCH   7  27
TORSDOF 7
ENDMDL
