MODEL 1
REMARK VINA RESULT:    -4.213      0.000      0.000
REMARK INTER + INTRA:         -10.679
REMARK INTER:                  -8.154
REMARK INTRA:                  -2.525
REMARK UNBOUND:                -2.525
REMARK SMILES CCCCCC=CCC=CCCCCCCCCOC(C)=O
REMARK SMILES IDX 12 1 11 2 10 3 9 4 8 5 7 6 6 7 5 8 4 9 3 10 2 11 1 12 13 13
REMARK SMILES IDX 14 14 15 15 16 16 17 17 18 18 19 19 20 20 22 21 21 22
REMARK H PARENT
REMARK Flexibility Score: inf
ROOT
ATOM      1  C   UNL     1     -17.296  30.384  -1.996  1.00  0.00     0.004 C 
ENDROOT
BRANCH   1   2
ATOM      2  C   UNL     1     -17.623  31.883  -1.922  1.00  0.00     0.027 C 
BRANCH   2   3
ATOM      3  C   UNL     1     -19.069  32.138  -2.244  1.00  0.00    -0.031 C 
ATOM      4  C   UNL     1     -19.449  32.632  -3.433  1.00  0.00    -0.027 C 
BRANCH   4   5
ATOM      5  C   UNL     1     -20.893  32.902  -3.744  1.00  0.00     0.054 C 
BRANCH   5   6
ATOM      6  C   UNL     1     -21.587  33.468  -2.530  1.00  0.00    -0.027 C 
ATOM      7  C   UNL     1     -22.577  32.858  -1.849  1.00  0.00    -0.031 C 
BRANCH   7   8
ATOM      8  C   UNL     1     -23.131  31.493  -2.172  1.00  0.00     0.027 C 
BRANCH   8   9
ATOM      9  C   UNL     1     -22.565  30.390  -1.256  1.00  0.00     0.004 C 
BRANCH   9  10
ATOM     10  C   UNL     1     -21.503  29.499  -1.930  1.00  0.00     0.000 C 
BRANCH  10  11
ATOM     11  C   UNL     1     -21.734  29.234  -3.427  1.00  0.00    -0.003 C 
ATOM     12  C   UNL     1     -20.436  29.185  -4.233  1.00  0.00     0.004 C 
ENDBRANCH  10  11
ENDBRANCH   9  10
ENDBRANCH   8   9
ENDBRANCH   7   8
ENDBRANCH   5   6
ENDBRANCH   4   5
ENDBRANCH   2   3
ENDBRANCH   1   2
BRANCH   1  13
ATOM     13  C   UNL     1     -16.870  29.931  -3.406  1.00  0.00     0.000 C 
BRANCH  13  14
ATOM     14  C   UNL     1     -16.174  31.009  -4.257  1.00  0.00     0.000 C 
BRANCH  14  15
ATOM     15  C   UNL     1     -16.411  30.825  -5.767  1.00  0.00     0.000 C 
BRANCH  15  16
ATOM     16  C   UNL     1     -16.122  32.104  -6.569  1.00  0.00     0.003 C 
BRANCH  16  17
ATOM     17  C   UNL     1     -14.983  32.939  -5.966  1.00  0.00     0.042 C 
BRANCH  17  18
ATOM     18  C   UNL     1     -13.629  32.527  -6.554  1.00  0.00     0.233 C 
BRANCH  18  19
ATOM     19  O   UNL     1     -13.770  32.153  -7.923  1.00  0.00    -0.466 OA
BRANCH  19  20
ATOM     20  C   UNL     1     -13.012  32.712  -8.957  1.00  0.00     0.302 C 
ATOM     21  O   UNL     1     -11.790  32.426  -9.091  1.00  0.00    -0.253 OA
ATOM     22  C   UNL     1     -13.666  33.624  -9.937  1.00  0.00     0.139 C 
ENDBRANCH  19  20
ENDBRANCH  18  19
ENDBRANCH  17  18
ENDBRANCH  16  17
ENDBRANCH  15  16
ENDBRANCH  14  15
ENDBRANCH  13  14
ENDBRANCH   1  13
TORSDOF 16
ENDMDL
MODEL 2
REMARK VINA RESULT:    -4.189      1.879      2.804
REMARK INTER + INTRA:         -10.633
REMARK INTER:                  -7.688
REMARK INTRA:                  -2.945
REMARK UNBOUND:                -2.525
REMARK SMILES CCCCCC=CCC=CCCCCCCCCOC(C)=O
REMARK SMILES IDX 12 1 11 2 10 3 9 4 8 5 7 6 6 7 5 8 4 9 3 10 2 11 1 12 13 13
REMARK SMILES IDX 14 14 15 15 16 16 17 17 18 18 19 19 20 20 22 21 21 22
REMARK H PARENT
REMARK Flexibility Score: inf
ROOT
ATOM      1  C   UNL     1     -17.140  30.462  -2.191  1.00  0.00     0.004 C 
ENDROOT
BRANCH   1   2
ATOM      2  C   UNL     1     -17.705  31.831  -1.782  1.00  0.00     0.027 C 
BRANCH   2   3
ATOM      3  C   UNL     1     -19.157  31.951  -2.156  1.00  0.00    -0.031 C 
ATOM      4  C   UNL     1     -19.575  32.832  -3.077  1.00  0.00    -0.027 C 
BRANCH   4   5
ATOM      5  C   UNL     1     -21.028  32.961  -3.435  1.00  0.00     0.054 C 
BRANCH   5   6
ATOM      6  C   UNL     1     -21.808  33.485  -2.255  1.00  0.00    -0.027 C 
ATOM      7  C   UNL     1     -22.744  32.794  -1.577  1.00  0.00    -0.031 C 
BRANCH   7   8
ATOM      8  C   UNL     1     -23.145  31.369  -1.870  1.00  0.00     0.027 C 
BRANCH   8   9
ATOM      9  C   UNL     1     -22.239  30.341  -1.163  1.00  0.00     0.004 C 
BRANCH   9  10
ATOM     10  C   UNL     1     -21.772  29.188  -2.073  1.00  0.00     0.000 C 
BRANCH  10  11
ATOM     11  C   UNL     1     -21.938  29.441  -3.580  1.00  0.00    -0.003 C 
ATOM     12  C   UNL     1     -20.623  29.342  -4.352  1.00  0.00     0.004 C 
ENDBRANCH  10  11
ENDBRANCH   9  10
ENDBRANCH   8   9
ENDBRANCH   7   8
ENDBRANCH   5   6
ENDBRANCH   4   5
ENDBRANCH   2   3
ENDBRANCH   1   2
BRANCH   1  13
ATOM     13  C   UNL     1     -17.101  30.260  -3.718  1.00  0.00     0.000 C 
BRANCH  13  14
ATOM     14  C   UNL     1     -15.937  30.962  -4.441  1.00  0.00     0.000 C 
BRANCH  14  15
ATOM     15  C   UNL     1     -15.069  29.992  -5.262  1.00  0.00     0.000 C 
BRANCH  15  16
ATOM     16  C   UNL     1     -14.778  30.512  -6.678  1.00  0.00     0.003 C 
BRANCH  16  17
ATOM     17  C   UNL     1     -15.228  31.967  -6.880  1.00  0.00     0.042 C 
BRANCH  17  18
ATOM     18  C   UNL     1     -16.318  32.061  -7.954  1.00  0.00     0.233 C 
BRANCH  18  19
ATOM     19  O   UNL     1     -17.131  30.889  -7.945  1.00  0.00    -0.466 OA
BRANCH  19  20
ATOM     20  C   UNL     1     -18.430  30.855  -7.426  1.00  0.00     0.302 C 
ATOM     21  O   UNL     1     -19.198  29.883  -7.666  1.00  0.00    -0.253 OA
ATOM     22  C   UNL     1     -18.898  31.964  -6.546  1.00  0.00     0.139 C 
ENDBRANCH  19  20
ENDBRANCH  18  19
ENDBRANCH  17  18
ENDBRANCH  16  17
ENDBRANCH  15  16
ENDBRANCH  14  15
ENDBRANCH  13  14
ENDBRANCH   1  13
TORSDOF 16
ENDMDL
MODEL 3
REMARK VINA RESULT:    -4.152      4.207      7.236
REMARK INTER + INTRA:         -10.561
REMARK INTER:                  -7.415
REMARK INTRA:                  -3.145
REMARK UNBOUND:                -2.525
REMARK SMILES CCCCCC=CCC=CCCCCCCCCOC(C)=O
REMARK SMILES IDX 12 1 11 2 10 3 9 4 8 5 7 6 6 7 5 8 4 9 3 10 2 11 1 12 13 13
REMARK SMILES IDX 14 14 15 15 16 16 17 17 18 18 19 19 20 20 22 21 21 22
REMARK H PARENT
REMARK Flexibility Score: inf
ROOT
ATOM      1  C   UNL     1     -18.901  30.019  -7.525  1.00  0.00     0.004 C 
ENDROOT
BRANCH   1   2
ATOM      2  C   UNL     1     -18.297  31.397  -7.837  1.00  0.00     0.027 C 
BRANCH   2   3
ATOM      3  C   UNL     1     -18.131  32.212  -6.585  1.00  0.00    -0.031 C 
ATOM      4  C   UNL     1     -18.939  32.048  -5.526  1.00  0.00    -0.027 C 
BRANCH   4   5
ATOM      5  C   UNL     1     -18.780  32.876  -4.284  1.00  0.00     0.054 C 
BRANCH   5   6
ATOM      6  C   UNL     1     -19.509  32.229  -3.133  1.00  0.00    -0.027 C 
ATOM      7  C   UNL     1     -18.926  31.747  -2.019  1.00  0.00    -0.031 C 
BRANCH   7   8
ATOM      8  C   UNL     1     -17.447  31.804  -1.727  1.00  0.00     0.027 C 
BRANCH   8   9
ATOM      9  C   UNL     1     -16.718  30.496  -2.094  1.00  0.00     0.004 C 
BRANCH   9  10
ATOM     10  C   UNL     1     -16.216  30.447  -3.550  1.00  0.00     0.000 C 
BRANCH  10  11
ATOM     11  C   UNL     1     -16.277  29.061  -4.212  1.00  0.00    -0.003 C 
ATOM     12  C   UNL     1     -17.701  28.621  -4.549  1.00  0.00     0.004 C 
ENDBRANCH  10  11
ENDBRANCH   9  10
ENDBRANCH   8   9
ENDBRANCH   7   8
ENDBRANCH   5   6
ENDBRANCH   4   5
ENDBRANCH   2   3
ENDBRANCH   1   2
BRANCH   1  13
ATOM     13  C   UNL     1     -20.173  29.722  -8.341  1.00  0.00     0.000 C 
BRANCH  13  14
ATOM     14  C   UNL     1     -21.352  30.678  -8.086  1.00  0.00     0.000 C 
BRANCH  14  15
ATOM     15  C   UNL     1     -22.380  30.109  -7.092  1.00  0.00     0.000 C 
BRANCH  15  16
ATOM     16  C   UNL     1     -22.179  30.641  -5.664  1.00  0.00     0.003 C 
BRANCH  16  17
ATOM     17  C   UNL     1     -21.560  29.597  -4.723  1.00  0.00     0.042 C 
BRANCH  17  18
ATOM     18  C   UNL     1     -22.357  29.495  -3.417  1.00  0.00     0.233 C 
BRANCH  18  19
ATOM     19  O   UNL     1     -22.938  30.754  -3.085  1.00  0.00    -0.466 OA
BRANCH  19  20
ATOM     20  C   UNL     1     -22.718  31.408  -1.868  1.00  0.00     0.302 C 
ATOM     21  O   UNL     1     -22.250  30.786  -0.874  1.00  0.00    -0.253 OA
ATOM     22  C   UNL     1     -23.003  32.867  -1.757  1.00  0.00     0.139 C 
ENDBRANCH  19  20
ENDBRANCH  18  19
ENDBRANCH  17  18
ENDBRANCH  16  17
ENDBRANCH  15  16
ENDBRANCH  14  15
ENDBRANCH  13  14
ENDBRANCH   1  13
TORSDOF 16
ENDMDL
MODEL 4
REMARK VINA RESULT:    -4.129      1.983      3.754
REMARK INTER + INTRA:         -10.516
REMARK INTER:                  -8.096
REMARK INTRA:                  -2.420
REMARK UNBOUND:                -2.525
REMARK SMILES CCCCCC=CCC=CCCCCCCCCOC(C)=O
REMARK SMILES IDX 12 1 11 2 10 3 9 4 8 5 7 6 6 7 5 8 4 9 3 10 2 11 1 12 13 13
REMARK SMILES IDX 14 14 15 15 16 16 17 17 18 18 19 19 20 20 22 21 21 22
REMARK H PARENT
REMARK Flexibility Score: inf
ROOT
ATOM      1  C   UNL     1     -16.592  27.995  -4.917  1.00  0.00     0.004 C 
ENDROOT
BRANCH   1   2
ATOM      2  C   UNL     1     -15.976  29.231  -4.244  1.00  0.00     0.027 C 
BRANCH   2   3
ATOM      3  C   UNL     1     -16.958  29.886  -3.312  1.00  0.00    -0.031 C 
ATOM      4  C   UNL     1     -16.795  31.151  -2.895  1.00  0.00    -0.027 C 
BRANCH   4   5
ATOM      5  C   UNL     1     -17.768  31.795  -1.951  1.00  0.00     0.054 C 
BRANCH   5   6
ATOM      6  C   UNL     1     -18.911  30.854  -1.662  1.00  0.00    -0.027 C 
ATOM      7  C   UNL     1     -20.172  31.004  -2.113  1.00  0.00    -0.031 C 
BRANCH   7   8
ATOM      8  C   UNL     1     -20.639  32.125  -3.008  1.00  0.00     0.027 C 
BRANCH   8   9
ATOM      9  C   UNL     1     -22.171  32.294  -2.996  1.00  0.00     0.004 C 
BRANCH   9  10
ATOM     10  C   UNL     1     -22.773  32.451  -1.586  1.00  0.00     0.000 C 
BRANCH  10  11
ATOM     11  C   UNL     1     -23.272  33.864  -1.245  1.00  0.00    -0.003 C 
ATOM     12  C   UNL     1     -24.152  33.904   0.003  1.00  0.00     0.004 C 
ENDBRANCH  10  11
ENDBRANCH   9  10
ENDBRANCH   8   9
ENDBRANCH   7   8
ENDBRANCH   5   6
ENDBRANCH   4   5
ENDBRANCH   2   3
ENDBRANCH   1   2
BRANCH   1  13
ATOM     13  C   UNL     1     -18.128  28.063  -5.006  1.00  0.00     0.000 C 
BRANCH  13  14
ATOM     14  C   UNL     1     -18.679  28.818  -6.230  1.00  0.00     0.000 C 
BRANCH  14  15
ATOM     15  C   UNL     1     -19.425  30.110  -5.851  1.00  0.00     0.000 C 
BRANCH  15  16
ATOM     16  C   UNL     1     -18.649  31.377  -6.246  1.00  0.00     0.003 C 
BRANCH  16  17
ATOM     17  C   UNL     1     -17.764  31.169  -7.484  1.00  0.00     0.042 C 
BRANCH  17  18
ATOM     18  C   UNL     1     -16.623  32.192  -7.520  1.00  0.00     0.233 C 
BRANCH  18  19
ATOM     19  O   UNL     1     -15.901  32.181  -6.291  1.00  0.00    -0.466 OA
BRANCH  19  20
ATOM     20  C   UNL     1     -14.504  32.207  -6.216  1.00  0.00     0.302 C 
ATOM     21  O   UNL     1     -13.886  33.294  -6.041  1.00  0.00    -0.253 OA
ATOM     22  C   UNL     1     -13.740  30.931  -6.304  1.00  0.00     0.139 C 
ENDBRANCH  19  20
ENDBRANCH  18  19
ENDBRANCH  17  18
ENDBRANCH  16  17
ENDBRANCH  15  16
ENDBRANCH  14  15
ENDBRANCH  13  14
ENDBRANCH   1  13
TORSDOF 16
ENDMDL
MODEL 5
REMARK VINA RESULT:    -4.093      2.845      3.340
REMARK INTER + INTRA:         -10.446
REMARK INTER:                  -7.540
REMARK INTRA:                  -2.906
REMARK UNBOUND:                -2.525
REMARK SMILES CCCCCC=CCC=CCCCCCCCCOC(C)=O
REMARK SMILES IDX 12 1 11 2 10 3 9 4 8 5 7 6 6 7 5 8 4 9 3 10 2 11 1 12 13 13
REMARK SMILES IDX 14 14 15 15 16 16 17 17 18 18 19 19 20 20 22 21 21 22
REMARK H PARENT
REMARK Flexibility Score: inf
ROOT
ATOM      1  C   UNL     1     -16.855  30.605  -2.554  1.00  0.00     0.004 C 
ENDROOT
BRANCH   1   2
ATOM      2  C   UNL     1     -17.986  30.894  -1.554  1.00  0.00     0.027 C 
BRANCH   2   3
ATOM      3  C   UNL     1     -19.256  31.270  -2.266  1.00  0.00    -0.031 C 
ATOM      4  C   UNL     1     -19.615  32.551  -2.435  1.00  0.00    -0.027 C 
BRANCH   4   5
ATOM      5  C   UNL     1     -20.892  32.922  -3.132  1.00  0.00     0.054 C 
BRANCH   5   6
ATOM      6  C   UNL     1     -21.905  33.417  -2.129  1.00  0.00    -0.027 C 
ATOM      7  C   UNL     1     -22.800  32.644  -1.486  1.00  0.00    -0.031 C 
BRANCH   7   8
ATOM      8  C   UNL     1     -22.917  31.148  -1.642  1.00  0.00     0.027 C 
BRANCH   8   9
ATOM      9  C   UNL     1     -23.802  30.743  -2.837  1.00  0.00     0.004 C 
BRANCH   9  10
ATOM     10  C   UNL     1     -23.017  30.166  -4.031  1.00  0.00     0.000 C 
BRANCH  10  11
ATOM     11  C   UNL     1     -21.898  29.180  -3.658  1.00  0.00    -0.003 C 
ATOM     12  C   UNL     1     -20.867  28.994  -4.771  1.00  0.00     0.004 C 
ENDBRANCH  10  11
ENDBRANCH   9  10
ENDBRANCH   8   9
ENDBRANCH   7   8
ENDBRANCH   5   6
ENDBRANCH   4   5
ENDBRANCH   2   3
ENDBRANCH   1   2
BRANCH   1  13
ATOM     13  C   UNL     1     -17.295  29.683  -3.707  1.00  0.00     0.000 C 
BRANCH  13  14
ATOM     14  C   UNL     1     -16.882  30.154  -5.114  1.00  0.00     0.000 C 
BRANCH  14  15
ATOM     15  C   UNL     1     -17.288  31.611  -5.401  1.00  0.00     0.000 C 
BRANCH  15  16
ATOM     16  C   UNL     1     -18.712  31.726  -5.967  1.00  0.00     0.003 C 
BRANCH  16  17
ATOM     17  C   UNL     1     -18.758  32.458  -7.317  1.00  0.00     0.042 C 
BRANCH  17  18
ATOM     18  C   UNL     1     -19.473  31.612  -8.376  1.00  0.00     0.233 C 
BRANCH  18  19
ATOM     19  O   UNL     1     -18.540  31.113  -9.332  1.00  0.00    -0.466 OA
BRANCH  19  20
ATOM     20  C   UNL     1     -18.321  29.750  -9.558  1.00  0.00     0.302 C 
ATOM     21  O   UNL     1     -18.769  29.185 -10.594  1.00  0.00    -0.253 OA
ATOM     22  C   UNL     1     -17.513  28.964  -8.582  1.00  0.00     0.139 C 
ENDBRANCH  19  20
ENDBRANCH  18  19
ENDBRANCH  17  18
ENDBRANCH  16  17
ENDBRANCH  15  16
ENDBRANCH  14  15
ENDBRANCH  13  14
ENDBRANCH   1  13
TORSDOF 16
ENDMDL
MODEL 6
REMARK VINA RESULT:    -4.055      4.070      7.717
REMARK INTER + INTRA:         -10.373
REMARK INTER:                  -7.719
REMARK INTRA:                  -2.654
REMARK UNBOUND:                -2.525
REMARK SMILES CCCCCC=CCC=CCCCCCCCCOC(C)=O
REMARK SMILES IDX 12 1 11 2 10 3 9 4 8 5 7 6 6 7 5 8 4 9 3 10 2 11 1 12 13 13
REMARK SMILES IDX 14 14 15 15 16 16 17 17 18 18 19 19 20 20 22 21 21 22
REMARK H PARENT
REMARK Flexibility Score: inf
ROOT
ATOM      1  C   UNL     1     -17.844  31.841  -1.942  1.00  0.00     0.004 C 
ENDROOT
BRANCH   1   2
ATOM      2  C   UNL     1     -17.254  30.422  -1.955  1.00  0.00     0.027 C 
BRANCH   2   3
ATOM      3  C   UNL     1     -16.372  30.213  -3.155  1.00  0.00    -0.031 C 
ATOM      4  C   UNL     1     -16.370  31.073  -4.184  1.00  0.00    -0.027 C 
BRANCH   4   5
ATOM      5  C   UNL     1     -15.500  30.851  -5.388  1.00  0.00     0.054 C 
BRANCH   5   6
ATOM      6  C   UNL     1     -15.663  31.991  -6.362  1.00  0.00    -0.027 C 
ATOM      7  C   UNL     1     -16.620  32.072  -7.306  1.00  0.00    -0.031 C 
BRANCH   7   8
ATOM      8  C   UNL     1     -17.707  31.048  -7.523  1.00  0.00     0.027 C 
BRANCH   8   9
ATOM      9  C   UNL     1     -19.113  31.605  -7.226  1.00  0.00     0.004 C 
BRANCH   9  10
ATOM     10  C   UNL     1     -20.095  30.557  -6.666  1.00  0.00     0.000 C 
BRANCH  10  11
ATOM     11  C   UNL     1     -19.458  29.216  -6.269  1.00  0.00    -0.003 C 
ATOM     12  C   UNL     1     -19.501  28.954  -4.763  1.00  0.00     0.004 C 
ENDBRANCH  10  11
ENDBRANCH   9  10
ENDBRANCH   8   9
ENDBRANCH   7   8
ENDBRANCH   5   6
ENDBRANCH   4   5
ENDBRANCH   2   3
ENDBRANCH   1   2
BRANCH   1  13
ATOM     13  C   UNL     1     -19.365  31.861  -2.183  1.00  0.00     0.000 C 
BRANCH  13  14
ATOM     14  C   UNL     1     -19.802  32.385  -3.563  1.00  0.00     0.000 C 
BRANCH  14  15
ATOM     15  C   UNL     1     -21.107  33.199  -3.510  1.00  0.00     0.000 C 
BRANCH  15  16
ATOM     16  C   UNL     1     -21.429  33.706  -2.096  1.00  0.00     0.003 C 
BRANCH  16  17
ATOM     17  C   UNL     1     -22.890  33.453  -1.692  1.00  0.00     0.042 C 
BRANCH  17  18
ATOM     18  C   UNL     1     -23.058  32.055  -1.089  1.00  0.00     0.233 C 
BRANCH  18  19
ATOM     19  O   UNL     1     -23.458  31.122  -2.090  1.00  0.00    -0.466 OA
BRANCH  19  20
ATOM     20  C   UNL     1     -23.337  29.736  -1.945  1.00  0.00     0.302 C 
ATOM     21  O   UNL     1     -24.356  28.991  -1.976  1.00  0.00    -0.253 OA
ATOM     22  C   UNL     1     -21.984  29.128  -1.794  1.00  0.00     0.139 C 
ENDBRANCH  19  20
ENDBRANCH  18  19
ENDBRANCH  17  18
ENDBRANCH  16  17
ENDBRANCH  15  16
ENDBRANCH  14  15
ENDBRANCH  13  14
ENDBRANCH   1  13
TORSDOF 16
ENDMDL
MODEL 7
REMARK VINA RESULT:    -4.049      1.596      2.567
REMARK INTER + INTRA:         -10.361
REMARK INTER:                  -7.490
REMARK INTRA:                  -2.871
REMARK UNBOUND:                -2.525
REMARK SMILES CCCCCC=CCC=CCCCCCCCCOC(C)=O
REMARK SMILES IDX 12 1 11 2 10 3 9 4 8 5 7 6 6 7 5 8 4 9 3 10 2 11 1 12 13 13
REMARK SMILES IDX 14 14 15 15 16 16 17 17 18 18 19 19 20 20 22 21 21 22
REMARK H PARENT
REMARK Flexibility Score: inf
ROOT
ATOM      1  C   UNL     1     -17.598  31.272  -3.443  1.00  0.00     0.004 C 
ENDROOT
BRANCH   1   2
ATOM      2  C   UNL     1     -18.212  31.645  -2.085  1.00  0.00     0.027 C 
BRANCH   2   3
ATOM      3  C   UNL     1     -19.663  32.013  -2.228  1.00  0.00    -0.031 C 
ATOM      4  C   UNL     1     -20.086  32.840  -3.196  1.00  0.00    -0.027 C 
BRANCH   4   5
ATOM      5  C   UNL     1     -21.533  33.219  -3.325  1.00  0.00     0.054 C 
BRANCH   5   6
ATOM      6  C   UNL     1     -22.110  33.532  -1.967  1.00  0.00    -0.027 C 
ATOM      7  C   UNL     1     -23.133  32.873  -1.390  1.00  0.00    -0.031 C 
BRANCH   7   8
ATOM      8  C   UNL     1     -23.850  31.693  -1.996  1.00  0.00     0.027 C 
BRANCH   8   9
ATOM      9  C   UNL     1     -23.096  30.366  -1.780  1.00  0.00     0.004 C 
BRANCH   9  10
ATOM     10  C   UNL     1     -22.772  29.610  -3.084  1.00  0.00     0.000 C 
BRANCH  10  11
ATOM     11  C   UNL     1     -23.270  30.291  -4.370  1.00  0.00    -0.003 C 
ATOM     12  C   UNL     1     -23.517  29.305  -5.512  1.00  0.00     0.004 C 
ENDBRANCH  10  11
ENDBRANCH   9  10
ENDBRANCH   8   9
ENDBRANCH   7   8
ENDBRANCH   5   6
ENDBRANCH   4   5
ENDBRANCH   2   3
ENDBRANCH   1   2
BRANCH   1  13
ATOM     13  C   UNL     1     -17.404  29.754  -3.617  1.00  0.00     0.000 C 
BRANCH  13  14
ATOM     14  C   UNL     1     -18.084  29.145  -4.857  1.00  0.00     0.000 C 
BRANCH  14  15
ATOM     15  C   UNL     1     -19.537  29.620  -5.038  1.00  0.00     0.000 C 
BRANCH  15  16
ATOM     16  C   UNL     1     -19.687  30.644  -6.174  1.00  0.00     0.003 C 
BRANCH  16  17
ATOM     17  C   UNL     1     -18.506  30.620  -7.155  1.00  0.00     0.042 C 
BRANCH  17  18
ATOM     18  C   UNL     1     -17.832  31.995  -7.237  1.00  0.00     0.233 C 
BRANCH  18  19
ATOM     19  O   UNL     1     -16.625  31.917  -7.992  1.00  0.00    -0.466 OA
BRANCH  19  20
ATOM     20  C   UNL     1     -15.351  32.001  -7.420  1.00  0.00     0.302 C 
ATOM     21  O   UNL     1     -14.477  32.776  -7.899  1.00  0.00    -0.253 OA
ATOM     22  C   UNL     1     -15.036  31.195  -6.206  1.00  0.00     0.139 C 
ENDBRANCH  19  20
ENDBRANCH  18  19
ENDBRANCH  17  18
ENDBRANCH  16  17
ENDBRANCH  15  16
ENDBRANCH  14  15
ENDBRANCH  13  14
ENDBRANCH   1  13
TORSDOF 16
ENDMDL
MODEL 8
REMARK VINA RESULT:    -4.041      3.432      5.267
REMARK INTER + INTRA:         -10.345
REMARK INTER:                  -7.604
REMARK INTRA:                  -2.740
REMARK UNBOUND:                -2.525
REMARK SMILES CCCCCC=CCC=CCCCCCCCCOC(C)=O
REMARK SMILES IDX 12 1 11 2 10 3 9 4 8 5 7 6 6 7 5 8 4 9 3 10 2 11 1 12 13 13
REMARK SMILES IDX 14 14 15 15 16 16 17 17 18 18 19 19 20 20 22 21 21 22
REMARK H PARENT
REMARK Flexibility Score: inf
ROOT
ATOM      1  C   UNL     1     -19.716  29.013  -4.609  1.00  0.00     0.004 C 
ENDROOT
BRANCH   1   2
ATOM      2  C   UNL     1     -21.225  28.734  -4.522  1.00  0.00     0.027 C 
BRANCH   2   3
ATOM      3  C   UNL     1     -21.873  29.585  -3.466  1.00  0.00    -0.031 C 
ATOM      4  C   UNL     1     -21.277  29.819  -2.287  1.00  0.00    -0.027 C 
BRANCH   4   5
ATOM      5  C   UNL     1     -21.936  30.656  -1.229  1.00  0.00     0.054 C 
BRANCH   5   6
ATOM      6  C   UNL     1     -22.740  31.761  -1.868  1.00  0.00    -0.027 C 
ATOM      7  C   UNL     1     -22.235  32.927  -2.314  1.00  0.00    -0.031 C 
BRANCH   7   8
ATOM      8  C   UNL     1     -20.775  33.305  -2.276  1.00  0.00     0.027 C 
BRANCH   8   9
ATOM      9  C   UNL     1     -20.048  32.999  -3.601  1.00  0.00     0.004 C 
BRANCH   9  10
ATOM     10  C   UNL     1     -18.635  32.413  -3.418  1.00  0.00     0.000 C 
BRANCH  10  11
ATOM     11  C   UNL     1     -18.330  31.878  -2.010  1.00  0.00    -0.003 C 
ATOM     12  C   UNL     1     -17.510  30.588  -2.023  1.00  0.00     0.004 C 
ENDBRANCH  10  11
ENDBRANCH   9  10
ENDBRANCH   8   9
ENDBRANCH   7   8
ENDBRANCH   5   6
ENDBRANCH   4   5
ENDBRANCH   2   3
ENDBRANCH   1   2
BRANCH   1  13
ATOM     13  C   UNL     1     -19.327  29.827  -5.857  1.00  0.00     0.000 C 
BRANCH  13  14
ATOM     14  C   UNL     1     -17.818  30.081  -6.028  1.00  0.00     0.000 C 
BRANCH  14  15
ATOM     15  C   UNL     1     -17.512  31.338  -6.861  1.00  0.00     0.000 C 
BRANCH  15  16
ATOM     16  C   UNL     1     -17.325  31.026  -8.354  1.00  0.00     0.003 C 
BRANCH  16  17
ATOM     17  C   UNL     1     -18.493  31.527  -9.217  1.00  0.00     0.042 C 
BRANCH  17  18
ATOM     18  C   UNL     1     -19.276  30.354  -9.816  1.00  0.00     0.233 C 
BRANCH  18  19
ATOM     19  O   UNL     1     -20.453  30.821 -10.472  1.00  0.00    -0.466 OA
BRANCH  19  20
ATOM     20  C   UNL     1     -21.734  30.724  -9.919  1.00  0.00     0.302 C 
ATOM     21  O   UNL     1     -22.757  30.681 -10.657  1.00  0.00    -0.253 OA
ATOM     22  C   UNL     1     -21.890  30.632  -8.439  1.00  0.00     0.139 C 
ENDBRANCH  19  20
ENDBRANCH  18  19
ENDBRANCH  17  18
ENDBRANCH  16  17
ENDBRANCH  15  16
ENDBRANCH  14  15
ENDBRANCH  13  14
ENDBRANCH   1  13
TORSDOF 16
ENDMDL
MODEL 9
REMARK VINA RESULT:    -3.994      2.180      3.658
REMARK INTER + INTRA:         -10.256
REMARK INTER:                  -6.871
REMARK INTRA:                  -3.384
REMARK UNBOUND:                -2.525
REMARK SMILES CCCCCC=CCC=CCCCCCCCCOC(C)=O
REMARK SMILES IDX 12 1 11 2 10 3 9 4 8 5 7 6 6 7 5 8 4 9 3 10 2 11 1 12 13 13
REMARK SMILES IDX 14 14 15 15 16 16 17 17 18 18 19 19 20 20 22 21 21 22
REMARK H PARENT
REMARK Flexibility Score: inf
ROOT
ATOM      1  C   UNL     1     -17.474  31.937  -6.488  1.00  0.00     0.004 C 
ENDROOT
BRANCH   1   2
ATOM      2  C   UNL     1     -16.580  32.223  -5.271  1.00  0.00     0.027 C 
BRANCH   2   3
ATOM      3  C   UNL     1     -17.394  32.311  -4.009  1.00  0.00    -0.031 C 
ATOM      4  C   UNL     1     -17.076  31.600  -2.917  1.00  0.00    -0.027 C 
BRANCH   4   5
ATOM      5  C   UNL     1     -17.901  31.678  -1.665  1.00  0.00     0.054 C 
BRANCH   5   6
ATOM      6  C   UNL     1     -19.084  30.746  -1.765  1.00  0.00    -0.027 C 
ATOM      7  C   UNL     1     -20.332  31.114  -2.113  1.00  0.00    -0.031 C 
BRANCH   7   8
ATOM      8  C   UNL     1     -20.745  32.516  -2.489  1.00  0.00     0.027 C 
BRANCH   8   9
ATOM      9  C   UNL     1     -21.487  32.573  -3.839  1.00  0.00     0.004 C 
BRANCH   9  10
ATOM     10  C   UNL     1     -22.572  31.490  -4.003  1.00  0.00     0.000 C 
BRANCH  10  11
ATOM     11  C   UNL     1     -22.544  30.741  -5.345  1.00  0.00    -0.003 C 
ATOM     12  C   UNL     1     -22.616  29.222  -5.185  1.00  0.00     0.004 C 
ENDBRANCH  10  11
ENDBRANCH   9  10
ENDBRANCH   8   9
ENDBRANCH   7   8
ENDBRANCH   5   6
ENDBRANCH   4   5
ENDBRANCH   2   3
ENDBRANCH   1   2
BRANCH   1  13
ATOM     13  C   UNL     1     -18.855  31.377  -6.099  1.00  0.00     0.000 C 
BRANCH  13  14
ATOM     14  C   UNL     1     -19.030  29.862  -6.312  1.00  0.00     0.000 C 
BRANCH  14  15
ATOM     15  C   UNL     1     -18.979  29.062  -4.998  1.00  0.00     0.000 C 
BRANCH  15  16
ATOM     16  C   UNL     1     -17.904  27.963  -5.016  1.00  0.00     0.003 C 
BRANCH  16  17
ATOM     17  C   UNL     1     -16.514  28.487  -4.626  1.00  0.00     0.042 C 
BRANCH  17  18
ATOM     18  C   UNL     1     -15.474  28.129  -5.694  1.00  0.00     0.233 C 
BRANCH  18  19
ATOM     19  O   UNL     1     -15.367  29.174  -6.658  1.00  0.00    -0.466 OA
BRANCH  19  20
ATOM     20  C   UNL     1     -14.166  29.825  -6.961  1.00  0.00     0.302 C 
ATOM     21  O   UNL     1     -13.560  30.504  -6.087  1.00  0.00    -0.253 OA
ATOM     22  C   UNL     1     -13.576  29.681  -8.322  1.00  0.00     0.139 C 
ENDBRANCH  19  20
ENDBRANCH  18  19
ENDBRANCH  17  18
ENDBRANCH  16  17
ENDBRANCH  15  16
ENDBRANCH  14  15
ENDBRANCH  13  14
ENDBRANCH   1  13
TORSDOF 16
ENDMDL
