MODEL 1
REMARK VINA RESULT:    -3.958      0.000      0.000
REMARK INTER + INTRA:          -4.034
REMARK INTER:                  -4.884
REMARK INTRA:                   0.850
REMARK UNBOUND:                 0.850
REMARK SMILES CC1=CC=CC(C)(C)CC1=O
REMARK SMILES IDX 1 1 2 2 3 3 10 4 11 5 9 6 4 8 5 9 6 10 7 11 8 12
REMARK H PARENT
REMARK Flexibility Score: 80.00
ROOT
ATOM      1  C   UNL     1      13.542 -30.479  23.284  1.00  0.00     0.048 C 
ATOM      2  C   UNL     1      14.098 -31.721  22.627  1.00  0.00    -0.008 C 
ATOM      3  C   UNL     1      14.738 -32.617  23.410  1.00  0.00     0.007 C 
ENDROOT
BRANCH   2   4
ATOM      4  C   UNL     1      13.844 -31.876  21.170  1.00  0.00     0.159 C 
ATOM      5  O   UNL     1      13.263 -30.939  20.555  1.00  0.00    -0.295 OA
BRANCH   4   6
ATOM      6  C   UNL     1      14.200 -33.100  20.380  1.00  0.00     0.091 CG0
ATOM      7  G   UNL     1      15.669 -33.552  20.551  1.00  0.00     0.000 G0
ENDBRANCH   4   6
ENDBRANCH   2   4
BRANCH   3   8
ATOM      8  C   UNL     1      15.386 -33.898  23.048  1.00  0.00    -0.003 C 
ATOM      9  C   UNL     1      15.816 -34.306  21.849  1.00  0.00    -0.020 C 
BRANCH   9  10
ATOM     10  C   UNL     1      15.671 -33.554  20.547  1.00  0.00    -0.010 CG0
ATOM     11  C   UNL     1      16.674 -32.380  20.491  1.00  0.00     0.016 C 
ATOM     12  C   UNL     1      16.008 -34.522  19.389  1.00  0.00     0.016 C 
ATOM     13  G   UNL     1      14.204 -33.096  20.379  1.00  0.00     0.000 G0
ENDBRANCH   9  10
ENDBRANCH   3   8
TORSDOF 0
ENDMDL
MODEL 2
REMARK VINA RESULT:    -3.790      1.033      1.127
REMARK INTER + INTRA:          -3.826
REMARK INTER:                  -4.673
REMARK INTRA:                   0.847
REMARK UNBOUND:                 0.850
REMARK SMILES CC1=CC=CC(C)(C)CC1=O
REMARK SMILES IDX 1 1 2 2 3 3 10 4 11 5 9 6 4 8 5 9 6 10 7 11 8 12
REMARK H PARENT
REMARK Flexibility Score: 80.00
ROOT
ATOM      1  C   UNL     1      13.651 -31.678  23.599  1.00  0.00     0.048 C 
ATOM      2  C   UNL     1      14.521 -32.718  22.932  1.00  0.00    -0.008 C 
ATOM      3  C   UNL     1      15.361 -33.433  23.712  1.00  0.00     0.007 C 
ENDROOT
BRANCH   2   4
ATOM      4  C   UNL     1      14.337 -32.903  21.468  1.00  0.00     0.159 C 
ATOM      5  O   UNL     1      13.566 -32.117  20.852  1.00  0.00    -0.295 OA
BRANCH   4   6
ATOM      6  C   UNL     1      14.982 -33.999  20.671  1.00  0.00     0.091 CG0
ATOM      7  G   UNL     1      16.516 -34.076  20.840  1.00  0.00     0.000 G0
ENDBRANCH   4   6
ENDBRANCH   2   4
BRANCH   3   8
ATOM      8  C   UNL     1      16.326 -34.494  23.341  1.00  0.00    -0.003 C 
ATOM      9  C   UNL     1      16.848 -34.763  22.140  1.00  0.00    -0.020 C 
BRANCH   9  10
ATOM     10  C   UNL     1      16.509 -34.065  20.844  1.00  0.00    -0.010 CG0
ATOM     11  C   UNL     1      17.183 -32.675  20.791  1.00  0.00     0.016 C 
ATOM     12  C   UNL     1      17.072 -34.910  19.678  1.00  0.00     0.016 C 
ATOM     13  G   UNL     1      14.974 -33.992  20.687  1.00  0.00     0.000 G0
ENDBRANCH   9  10
ENDBRANCH   3   8
TORSDOF 0
ENDMDL
MODEL 3
REMARK VINA RESULT:    -3.748      2.181      4.268
REMARK INTER + INTRA:          -3.774
REMARK INTER:                  -4.609
REMARK INTRA:                   0.835
REMARK UNBOUND:                 0.850
REMARK SMILES CC1=CC=CC(C)(C)CC1=O
REMARK SMILES IDX 1 1 2 2 3 3 10 4 11 5 9 6 4 8 5 9 6 10 7 11 8 12
REMARK H PARENT
REMARK Flexibility Score: 80.00
ROOT
ATOM      1  C   UNL     1      15.775 -33.974  21.160  1.00  0.00     0.048 C 
ATOM      2  C   UNL     1      14.759 -32.913  21.511  1.00  0.00    -0.008 C 
ATOM      3  C   UNL     1      13.970 -32.442  20.521  1.00  0.00     0.007 C 
ENDROOT
BRANCH   2   4
ATOM      4  C   UNL     1      14.679 -32.512  22.941  1.00  0.00     0.159 C 
ATOM      5  O   UNL     1      15.514 -32.999  23.752  1.00  0.00    -0.295 OA
BRANCH   4   6
ATOM      6  C   UNL     1      13.636 -31.590  23.499  1.00  0.00     0.091 CG0
ATOM      7  G   UNL     1      13.509 -30.252  22.735  1.00  0.00     0.000 G0
ENDBRANCH   4   6
ENDBRANCH   2   4
BRANCH   3   8
ATOM      8  C   UNL     1      12.910 -31.409  20.565  1.00  0.00    -0.003 C 
ATOM      9  C   UNL     1      12.714 -30.454  21.481  1.00  0.00    -0.020 C 
BRANCH   9  10
ATOM     10  C   UNL     1      13.514 -30.254  22.745  1.00  0.00    -0.010 CG0
ATOM     11  C   UNL     1      14.880 -29.608  22.420  1.00  0.00     0.016 C 
ATOM     12  C   UNL     1      12.736 -29.282  23.662  1.00  0.00     0.016 C 
ATOM     13  G   UNL     1      13.652 -31.604  23.485  1.00  0.00     0.000 G0
ENDBRANCH   9  10
ENDBRANCH   3   8
TORSDOF 0
ENDMDL
MODEL 4
REMARK VINA RESULT:    -3.690      1.650      2.578
REMARK INTER + INTRA:          -3.703
REMARK INTER:                  -4.546
REMARK INTRA:                   0.843
REMARK UNBOUND:                 0.850
REMARK SMILES CC1=CC=CC(C)(C)CC1=O
REMARK SMILES IDX 1 1 2 2 3 3 10 4 11 5 9 6 4 8 5 9 6 10 7 11 8 12
REMARK H PARENT
REMARK Flexibility Score: 80.00
ROOT
ATOM      1  C   UNL     1      13.586 -29.194  23.018  1.00  0.00     0.048 C 
ATOM      2  C   UNL     1      14.100 -30.373  22.225  1.00  0.00    -0.008 C 
ATOM      3  C   UNL     1      13.278 -30.920  21.303  1.00  0.00     0.007 C 
ENDROOT
BRANCH   2   4
ATOM      4  C   UNL     1      15.499 -30.800  22.494  1.00  0.00     0.159 C 
ATOM      5  O   UNL     1      16.133 -30.235  23.427  1.00  0.00    -0.295 OA
BRANCH   4   6
ATOM      6  C   UNL     1      16.228 -31.840  21.697  1.00  0.00     0.091 CG0
ATOM      7  G   UNL     1      15.465 -33.178  21.566  1.00  0.00     0.000 G0
ENDBRANCH   4   6
ENDBRANCH   2   4
BRANCH   3   8
ATOM      8  C   UNL     1      13.502 -32.072  20.400  1.00  0.00    -0.003 C 
ATOM      9  C   UNL     1      14.404 -33.054  20.508  1.00  0.00    -0.020 C 
BRANCH   9  10
ATOM     10  C   UNL     1      15.469 -33.172  21.572  1.00  0.00    -0.010 CG0
ATOM     11  C   UNL     1      14.846 -33.642  22.906  1.00  0.00     0.016 C 
ATOM     12  C   UNL     1      16.488 -34.244  21.120  1.00  0.00     0.016 C 
ATOM     13  G   UNL     1      16.216 -31.825  21.702  1.00  0.00     0.000 G0
ENDBRANCH   9  10
ENDBRANCH   3   8
TORSDOF 0
ENDMDL
MODEL 5
REMARK VINA RESULT:    -3.634      9.738     10.825
REMARK INTER + INTRA:          -3.634
REMARK INTER:                  -4.477
REMARK INTRA:                   0.843
REMARK UNBOUND:                 0.850
REMARK SMILES CC1=CC=CC(C)(C)CC1=O
REMARK SMILES IDX 1 1 2 2 3 3 10 4 11 5 9 6 4 8 5 9 6 10 7 11 8 12
REMARK H PARENT
REMARK Flexibility Score: 80.00
ROOT
ATOM      1  C   UNL     1      23.921 -22.390  21.602  1.00  0.00     0.048 C 
ATOM      2  C   UNL     1      22.924 -23.524  21.560  1.00  0.00    -0.008 C 
ATOM      3  C   UNL     1      22.168 -23.742  22.658  1.00  0.00     0.007 C 
ENDROOT
BRANCH   2   4
ATOM      4  C   UNL     1      22.824 -24.278  20.282  1.00  0.00     0.159 C 
ATOM      5  O   UNL     1      23.619 -23.987  19.346  1.00  0.00    -0.295 OA
BRANCH   4   6
ATOM      6  C   UNL     1      21.805 -25.345  20.012  1.00  0.00     0.091 CG0
ATOM      7  G   UNL     1      21.748 -26.445  21.096  1.00  0.00     0.000 G0
ENDBRANCH   4   6
ENDBRANCH   2   4
BRANCH   3   8
ATOM      8  C   UNL     1      21.133 -24.772  22.907  1.00  0.00    -0.003 C 
ATOM      9  C   UNL     1      20.952 -25.940  22.281  1.00  0.00    -0.020 C 
BRANCH   9  10
ATOM     10  C   UNL     1      21.746 -26.452  21.103  1.00  0.00    -0.010 CG0
ATOM     11  C   UNL     1      23.136 -26.944  21.565  1.00  0.00     0.016 C 
ATOM     12  C   UNL     1      20.991 -27.659  20.499  1.00  0.00     0.016 C 
ATOM     13  G   UNL     1      21.830 -25.349  20.022  1.00  0.00     0.000 G0
ENDBRANCH   9  10
ENDBRANCH   3   8
TORSDOF 0
ENDMDL
MODEL 6
REMARK VINA RESULT:    -3.631      8.672     10.060
REMARK INTER + INTRA:          -3.630
REMARK INTER:                  -4.480
REMARK INTRA:                   0.850
REMARK UNBOUND:                 0.850
REMARK SMILES CC1=CC=CC(C)(C)CC1=O
REMARK SMILES IDX 1 1 2 2 3 3 10 4 11 5 9 6 4 8 5 9 6 10 7 11 8 12
REMARK H PARENT
REMARK Flexibility Score: 80.00
ROOT
ATOM      1  C   UNL     1      20.642 -29.343  21.777  1.00  0.00     0.048 C 
ATOM      2  C   UNL     1      20.932 -27.902  21.430  1.00  0.00    -0.008 C 
ATOM      3  C   UNL     1      20.062 -27.260  20.619  1.00  0.00     0.007 C 
ENDROOT
BRANCH   2   4
ATOM      4  C   UNL     1      22.133 -27.292  22.060  1.00  0.00     0.159 C 
ATOM      5  O   UNL     1      22.877 -28.021  22.771  1.00  0.00    -0.295 OA
BRANCH   4   6
ATOM      6  C   UNL     1      22.501 -25.843  21.939  1.00  0.00     0.091 CG0
ATOM      7  G   UNL     1      22.539 -25.325  20.483  1.00  0.00     0.000 G0
ENDBRANCH   4   6
ENDBRANCH   2   4
BRANCH   3   8
ATOM      8  C   UNL     1      20.094 -25.871  20.106  1.00  0.00    -0.003 C 
ATOM      9  C   UNL     1      21.137 -25.039  20.016  1.00  0.00    -0.020 C 
BRANCH   9  10
ATOM     10  C   UNL     1      22.542 -25.317  20.493  1.00  0.00    -0.010 CG0
ATOM     11  C   UNL     1      23.257 -26.285  19.522  1.00  0.00     0.016 C 
ATOM     12  C   UNL     1      23.325 -23.983  20.495  1.00  0.00     0.016 C 
ATOM     13  G   UNL     1      22.497 -25.849  21.943  1.00  0.00     0.000 G0
ENDBRANCH   9  10
ENDBRANCH   3   8
TORSDOF 0
ENDMDL
MODEL 7
REMARK VINA RESULT:    -3.597      2.892      4.685
REMARK INTER + INTRA:          -3.588
REMARK INTER:                  -4.435
REMARK INTRA:                   0.847
REMARK UNBOUND:                 0.850
REMARK SMILES CC1=CC=CC(C)(C)CC1=O
REMARK SMILES IDX 1 1 2 2 3 3 10 4 11 5 9 6 4 8 5 9 6 10 7 11 8 12
REMARK H PARENT
REMARK Flexibility Score: 80.00
ROOT
ATOM      1  C   UNL     1      17.497 -36.923  19.153  1.00  0.00     0.048 C 
ATOM      2  C   UNL     1      16.884 -35.908  20.090  1.00  0.00    -0.008 C 
ATOM      3  C   UNL     1      15.790 -35.238  19.667  1.00  0.00     0.007 C 
ENDROOT
BRANCH   2   4
ATOM      4  C   UNL     1      17.514 -35.771  21.430  1.00  0.00     0.159 C 
ATOM      5  O   UNL     1      18.574 -36.413  21.668  1.00  0.00    -0.295 OA
BRANCH   4   6
ATOM      6  C   UNL     1      16.946 -34.943  22.545  1.00  0.00     0.091 CG0
ATOM      7  G   UNL     1      16.644 -33.480  22.148  1.00  0.00     0.000 G0
ENDBRANCH   4   6
ENDBRANCH   2   4
BRANCH   3   8
ATOM      8  C   UNL     1      14.995 -34.193  20.352  1.00  0.00    -0.003 C 
ATOM      9  C   UNL     1      15.349 -33.419  21.384  1.00  0.00    -0.020 C 
BRANCH   9  10
ATOM     10  C   UNL     1      16.652 -33.488  22.144  1.00  0.00    -0.010 CG0
ATOM     11  C   UNL     1      17.790 -32.851  21.315  1.00  0.00     0.016 C 
ATOM     12  C   UNL     1      16.496 -32.668  23.446  1.00  0.00     0.016 C 
ATOM     13  G   UNL     1      16.943 -34.955  22.532  1.00  0.00     0.000 G0
ENDBRANCH   9  10
ENDBRANCH   3   8
TORSDOF 0
ENDMDL
MODEL 8
REMARK VINA RESULT:    -3.560      1.769      2.064
REMARK INTER + INTRA:          -3.543
REMARK INTER:                  -4.411
REMARK INTRA:                   0.869
REMARK UNBOUND:                 0.850
REMARK SMILES CC1=CC=CC(C)(C)CC1=O
REMARK SMILES IDX 1 1 2 2 3 3 10 4 11 5 9 6 4 8 5 9 6 10 7 11 8 12
REMARK H PARENT
REMARK Flexibility Score: 80.00
ROOT
ATOM      1  C   UNL     1      13.053 -29.485  23.254  1.00  0.00     0.048 C 
ATOM      2  C   UNL     1      13.890 -30.716  22.998  1.00  0.00    -0.008 C 
ATOM      3  C   UNL     1      13.694 -31.790  23.794  1.00  0.00     0.007 C 
ENDROOT
BRANCH   2   4
ATOM      4  C   UNL     1      14.830 -30.657  21.847  1.00  0.00     0.159 C 
ATOM      5  O   UNL     1      14.953 -29.567  21.224  1.00  0.00    -0.295 OA
BRANCH   4   6
ATOM      6  C   UNL     1      15.619 -31.830  21.345  1.00  0.00     0.091 CG0
ATOM      7  G   UNL     1      16.456 -32.535  22.437  1.00  0.00     0.000 G0
ENDBRANCH   4   6
ENDBRANCH   2   4
BRANCH   3   8
ATOM      8  C   UNL     1      14.365 -33.110  23.787  1.00  0.00    -0.003 C 
ATOM      9  C   UNL     1      15.543 -33.443  23.247  1.00  0.00    -0.020 C 
BRANCH   9  10
ATOM     10  C   UNL     1      16.444 -32.536  22.445  1.00  0.00    -0.010 CG0
ATOM     11  C   UNL     1      17.167 -31.536  23.376  1.00  0.00     0.016 C 
ATOM     12  C   UNL     1      17.521 -33.408  21.757  1.00  0.00     0.016 C 
ATOM     13  G   UNL     1      15.618 -31.835  21.342  1.00  0.00     0.000 G0
ENDBRANCH   9  10
ENDBRANCH   3   8
TORSDOF 0
ENDMDL
MODEL 9
REMARK VINA RESULT:    -3.473      1.665      3.700
REMARK INTER + INTRA:          -3.435
REMARK INTER:                  -4.287
REMARK INTRA:                   0.852
REMARK UNBOUND:                 0.850
REMARK SMILES CC1=CC=CC(C)(C)CC1=O
REMARK SMILES IDX 1 1 2 2 3 3 10 4 11 5 9 6 4 8 5 9 6 10 7 11 8 12
REMARK H PARENT
REMARK Flexibility Score: 80.00
ROOT
ATOM      1  C   UNL     1      17.438 -34.517  19.403  1.00  0.00     0.048 C 
ATOM      2  C   UNL     1      16.729 -33.419  20.161  1.00  0.00    -0.008 C 
ATOM      3  C   UNL     1      17.448 -32.335  20.522  1.00  0.00     0.007 C 
ENDROOT
BRANCH   2   4
ATOM      4  C   UNL     1      15.272 -33.606  20.400  1.00  0.00     0.159 C 
ATOM      5  O   UNL     1      14.743 -34.704  20.072  1.00  0.00    -0.295 OA
BRANCH   4   6
ATOM      6  C   UNL     1      14.373 -32.552  20.973  1.00  0.00     0.091 CG0
ATOM      7  G   UNL     1      14.871 -31.964  22.313  1.00  0.00     0.000 G0
ENDBRANCH   4   6
ENDBRANCH   2   4
BRANCH   3   8
ATOM      8  C   UNL     1      17.031 -31.127  21.271  1.00  0.00    -0.003 C 
ATOM      9  C   UNL     1      15.962 -30.962  22.058  1.00  0.00    -0.020 C 
BRANCH   9  10
ATOM     10  C   UNL     1      14.876 -31.981  22.311  1.00  0.00    -0.010 CG0
ATOM     11  C   UNL     1      15.382 -33.074  23.280  1.00  0.00     0.016 C 
ATOM     12  C   UNL     1      13.686 -31.261  22.987  1.00  0.00     0.016 C 
ATOM     13  G   UNL     1      14.387 -32.556  20.963  1.00  0.00     0.000 G0
ENDBRANCH   9  10
ENDBRANCH   3   8
TORSDOF 0
ENDMDL
