MODEL 1
REMARK VINA RESULT:    -5.976      0.000      0.000
REMARK INTER + INTRA:         -10.580
REMARK INTER:                  -9.121
REMARK INTRA:                  -1.459
REMARK UNBOUND:                -1.459
REMARK SMILES CC(=O)CCC=C(C)CCC=C(C)CCC=C(C)C
REMARK SMILES IDX 10 1 11 2 12 3 13 4 14 5 15 6 16 7 18 8 17 9 19 10 9 11 7 12
REMARK SMILES IDX 6 13 8 14 5 15 4 16 2 17 3 18 1 19
REMARK H PARENT
REMARK Flexibility Score: inf
ROOT
ATOM      1  C   UNL     1      -9.134  16.613   8.807  1.00  0.00     0.032 C 
ENDROOT
BRANCH   1   2
ATOM      2  C   UNL     1      -9.882  17.425   9.838  1.00  0.00    -0.028 C 
ATOM      3  C   UNL     1      -9.335  17.950  10.958  1.00  0.00    -0.077 C 
ATOM      4  C   UNL     1      -7.893  17.713  11.332  1.00  0.00     0.039 C 
BRANCH   3   5
ATOM      5  C   UNL     1     -10.199  18.802  11.866  1.00  0.00     0.034 C 
BRANCH   5   6
ATOM      6  C   UNL     1     -11.183  17.955  12.684  1.00  0.00     0.032 C 
BRANCH   6   7
ATOM      7  C   UNL     1     -10.468  16.930  13.535  1.00  0.00    -0.028 C 
ATOM      8  C   UNL     1      -9.824  14.666  14.295  1.00  0.00     0.039 C 
ATOM      9  C   UNL     1     -10.559  15.592  13.361  1.00  0.00    -0.080 C 
ATOM     10  C   UNL     1     -11.331  14.982  12.218  1.00  0.00     0.039 C 
ENDBRANCH   6   7
ENDBRANCH   5   6
ENDBRANCH   3   5
ENDBRANCH   1   2
BRANCH   1  11
ATOM     11  C   UNL     1      -9.275  17.223   7.406  1.00  0.00     0.034 C 
BRANCH  11  12
ATOM     12  C   UNL     1     -10.059  16.318   6.471  1.00  0.00    -0.077 C 
ATOM     13  C   UNL     1     -10.516  16.713   5.260  1.00  0.00    -0.028 C 
ATOM     14  C   UNL     1     -10.310  14.894   6.897  1.00  0.00     0.039 C 
BRANCH  13  15
ATOM     15  C   UNL     1     -10.420  18.113   4.704  1.00  0.00     0.035 C 
BRANCH  15  16
ATOM     16  C   UNL     1     -11.795  18.785   4.619  1.00  0.00     0.079 C 
BRANCH  16  17
ATOM     17  C   UNL     1     -11.977  19.814   5.706  1.00  0.00     0.130 C 
ATOM     18  O   UNL     1     -13.103  20.181   6.006  1.00  0.00    -0.300 OA
ATOM     19  C   UNL     1     -10.800  20.398   6.430  1.00  0.00     0.087 C 
ENDBRANCH  16  17
ENDBRANCH  15  16
ENDBRANCH  13  15
ENDBRANCH  11  12
ENDBRANCH   1  11
TORSDOF 9
ENDMDL
MODEL 2
REMARK VINA RESULT:    -5.732      3.193      7.637
REMARK INTER + INTRA:         -10.208
REMARK INTER:                  -8.636
REMARK INTRA:                  -1.571
REMARK UNBOUND:                -1.459
REMARK SMILES CC(=O)CCC=C(C)CCC=C(C)CCC=C(C)C
REMARK SMILES IDX 10 1 11 2 12 3 13 4 14 5 15 6 16 7 18 8 17 9 19 10 9 11 7 12
REMARK SMILES IDX 6 13 8 14 5 15 4 16 2 17 3 18 1 19
REMARK H PARENT
REMARK Flexibility Score: inf
ROOT
ATOM      1  C   UNL     1     -10.455  18.511  12.414  1.00  0.00     0.032 C 
ENDROOT
BRANCH   1   2
ATOM      2  C   UNL     1     -10.157  18.341  10.943  1.00  0.00    -0.028 C 
ATOM      3  C   UNL     1      -9.079  17.698  10.439  1.00  0.00    -0.077 C 
ATOM      4  C   UNL     1      -8.000  17.128  11.326  1.00  0.00     0.039 C 
BRANCH   3   5
ATOM      5  C   UNL     1      -8.950  17.548   8.936  1.00  0.00     0.034 C 
BRANCH   5   6
ATOM      6  C   UNL     1      -9.861  18.526   8.181  1.00  0.00     0.032 C 
BRANCH   6   7
ATOM      7  C   UNL     1     -10.036  18.125   6.735  1.00  0.00    -0.028 C 
ATOM      8  C   UNL     1     -10.987  18.226   4.453  1.00  0.00     0.039 C 
ATOM      9  C   UNL     1     -10.873  18.736   5.867  1.00  0.00    -0.080 C 
ATOM     10  C   UNL     1     -11.666  19.962   6.244  1.00  0.00     0.039 C 
ENDBRANCH   6   7
ENDBRANCH   5   6
ENDBRANCH   3   5
ENDBRANCH   1   2
BRANCH   1  11
ATOM     11  C   UNL     1     -11.601  17.595  12.862  1.00  0.00     0.034 C 
BRANCH  11  12
ATOM     12  C   UNL     1     -11.130  16.168  13.088  1.00  0.00    -0.077 C 
ATOM     13  C   UNL     1     -10.392  15.786  14.156  1.00  0.00    -0.028 C 
ATOM     14  C   UNL     1     -11.536  15.114  12.090  1.00  0.00     0.039 C 
BRANCH  13  15
ATOM     15  C   UNL     1      -9.838  16.714  15.211  1.00  0.00     0.035 C 
BRANCH  15  16
ATOM     16  C   UNL     1      -8.308  16.795  15.147  1.00  0.00     0.079 C 
BRANCH  16  17
ATOM     17  C   UNL     1      -7.812  18.174  15.500  1.00  0.00     0.130 C 
ATOM     18  O   UNL     1      -7.626  18.465  16.671  1.00  0.00    -0.300 OA
ATOM     19  C   UNL     1      -7.541  19.199  14.439  1.00  0.00     0.087 C 
ENDBRANCH  16  17
ENDBRANCH  15  16
ENDBRANCH  13  15
ENDBRANCH  11  12
ENDBRANCH   1  11
TORSDOF 9
ENDMDL
MODEL 3
REMARK VINA RESULT:    -5.710      2.395      3.772
REMARK INTER + INTRA:         -10.173
REMARK INTER:                  -8.017
REMARK INTRA:                  -2.157
REMARK UNBOUND:                -1.459
REMARK SMILES CC(=O)CCC=C(C)CCC=C(C)CCC=C(C)C
REMARK SMILES IDX 10 1 11 2 12 3 13 4 14 5 15 6 16 7 18 8 17 9 19 10 9 11 7 12
REMARK SMILES IDX 6 13 8 14 5 15 4 16 2 17 3 18 1 19
REMARK H PARENT
REMARK Flexibility Score: inf
ROOT
ATOM      1  C   UNL     1     -10.757  16.774   6.189  1.00  0.00     0.032 C 
ENDROOT
BRANCH   1   2
ATOM      2  C   UNL     1      -9.703  16.673   7.265  1.00  0.00    -0.028 C 
ATOM      3  C   UNL     1      -9.436  17.630   8.182  1.00  0.00    -0.077 C 
ATOM      4  C   UNL     1     -10.141  18.964   8.177  1.00  0.00     0.039 C 
BRANCH   3   5
ATOM      5  C   UNL     1      -8.392  17.356   9.246  1.00  0.00     0.034 C 
BRANCH   5   6
ATOM      6  C   UNL     1      -8.930  17.616  10.660  1.00  0.00     0.032 C 
BRANCH   6   7
ATOM      7  C   UNL     1      -9.762  16.460  11.164  1.00  0.00    -0.028 C 
ATOM      8  C   UNL     1     -11.518  15.344  12.503  1.00  0.00     0.039 C 
ATOM      9  C   UNL     1     -10.780  16.577  12.047  1.00  0.00    -0.080 C 
ATOM     10  C   UNL     1     -11.251  17.915  12.556  1.00  0.00     0.039 C 
ENDBRANCH   6   7
ENDBRANCH   5   6
ENDBRANCH   3   5
ENDBRANCH   1   2
BRANCH   1  11
ATOM     11  C   UNL     1     -10.159  17.265   4.863  1.00  0.00     0.034 C 
BRANCH  11  12
ATOM     12  C   UNL     1     -10.592  18.684   4.538  1.00  0.00    -0.077 C 
ATOM     13  C   UNL     1      -9.722  19.691   4.290  1.00  0.00    -0.028 C 
ATOM     14  C   UNL     1     -12.067  18.980   4.450  1.00  0.00     0.039 C 
BRANCH  13  15
ATOM     15  C   UNL     1      -8.220  19.595   4.402  1.00  0.00     0.035 C 
BRANCH  15  16
ATOM     16  C   UNL     1      -7.690  20.387   5.604  1.00  0.00     0.079 C 
BRANCH  16  17
ATOM     17  C   UNL     1      -6.717  19.573   6.419  1.00  0.00     0.130 C 
ATOM     18  O   UNL     1      -6.137  20.092   7.359  1.00  0.00    -0.300 OA
ATOM     19  C   UNL     1      -6.446  18.133   6.096  1.00  0.00     0.087 C 
ENDBRANCH  16  17
ENDBRANCH  15  16
ENDBRANCH  13  15
ENDBRANCH  11  12
ENDBRANCH   1  11
TORSDOF 9
ENDMDL
MODEL 4
REMARK VINA RESULT:    -5.666      1.520      2.056
REMARK INTER + INTRA:         -10.107
REMARK INTER:                  -8.393
REMARK INTRA:                  -1.714
REMARK UNBOUND:                -1.459
REMARK SMILES CC(=O)CCC=C(C)CCC=C(C)CCC=C(C)C
REMARK SMILES IDX 10 1 11 2 12 3 13 4 14 5 15 6 16 7 18 8 17 9 19 10 9 11 7 12
REMARK SMILES IDX 6 13 8 14 5 15 4 16 2 17 3 18 1 19
REMARK H PARENT
REMARK Flexibility Score: inf
ROOT
ATOM      1  C   UNL     1      -8.068  16.873   7.569  1.00  0.00     0.032 C 
ENDROOT
BRANCH   1   2
ATOM      2  C   UNL     1      -8.743  17.869   8.481  1.00  0.00    -0.028 C 
ATOM      3  C   UNL     1      -9.457  17.550   9.585  1.00  0.00    -0.077 C 
ATOM      4  C   UNL     1      -9.712  16.119   9.988  1.00  0.00     0.039 C 
BRANCH   3   5
ATOM      5  C   UNL     1     -10.020  18.666  10.442  1.00  0.00     0.034 C 
BRANCH   5   6
ATOM      6  C   UNL     1     -10.340  18.191  11.866  1.00  0.00     0.032 C 
BRANCH   6   7
ATOM      7  C   UNL     1      -9.453  18.856  12.892  1.00  0.00    -0.028 C 
ATOM      8  C   UNL     1      -7.591  19.022  14.513  1.00  0.00     0.039 C 
ATOM      9  C   UNL     1      -8.384  18.268  13.476  1.00  0.00    -0.080 C 
ATOM     10  C   UNL     1      -7.911  16.891  13.084  1.00  0.00     0.039 C 
ENDBRANCH   6   7
ENDBRANCH   5   6
ENDBRANCH   3   5
ENDBRANCH   1   2
BRANCH   1  11
ATOM     11  C   UNL     1      -8.489  17.078   6.107  1.00  0.00     0.034 C 
BRANCH  11  12
ATOM     12  C   UNL     1      -9.841  16.450   5.813  1.00  0.00    -0.077 C 
ATOM     13  C   UNL     1     -10.755  17.002   4.983  1.00  0.00    -0.028 C 
ATOM     14  C   UNL     1     -10.168  15.124   6.451  1.00  0.00     0.039 C 
BRANCH  13  15
ATOM     15  C   UNL     1     -10.628  18.351   4.317  1.00  0.00     0.035 C 
BRANCH  15  16
ATOM     16  C   UNL     1     -11.931  19.155   4.413  1.00  0.00     0.079 C 
BRANCH  16  17
ATOM     17  C   UNL     1     -12.025  19.903   5.719  1.00  0.00     0.130 C 
ATOM     18  O   UNL     1     -13.120  20.234   6.145  1.00  0.00    -0.300 OA
ATOM     19  C   UNL     1     -10.797  20.251   6.507  1.00  0.00     0.087 C 
ENDBRANCH  16  17
ENDBRANCH  15  16
ENDBRANCH  13  15
ENDBRANCH  11  12
ENDBRANCH   1  11
TORSDOF 9
ENDMDL
MODEL 5
REMARK VINA RESULT:    -5.648      1.110      2.113
REMARK INTER + INTRA:         -10.079
REMARK INTER:                  -8.649
REMARK INTRA:                  -1.430
REMARK UNBOUND:                -1.459
REMARK SMILES CC(=O)CCC=C(C)CCC=C(C)CCC=C(C)C
REMARK SMILES IDX 10 1 11 2 12 3 13 4 14 5 15 6 16 7 18 8 17 9 19 10 9 11 7 12
REMARK SMILES IDX 6 13 8 14 5 15 4 16 2 17 3 18 1 19
REMARK H PARENT
REMARK Flexibility Score: inf
ROOT
ATOM      1  C   UNL     1      -9.176  16.209   9.168  1.00  0.00     0.032 C 
ENDROOT
BRANCH   1   2
ATOM      2  C   UNL     1     -10.249  16.039  10.217  1.00  0.00    -0.028 C 
ATOM      3  C   UNL     1     -10.279  15.055  11.143  1.00  0.00    -0.077 C 
ATOM      4  C   UNL     1      -9.247  13.955  11.178  1.00  0.00     0.039 C 
BRANCH   3   5
ATOM      5  C   UNL     1     -11.387  15.054  12.178  1.00  0.00     0.034 C 
BRANCH   5   6
ATOM      6  C   UNL     1     -11.537  16.421  12.859  1.00  0.00     0.032 C 
BRANCH   6   7
ATOM      7  C   UNL     1     -10.324  16.770  13.690  1.00  0.00    -0.028 C 
ATOM      8  C   UNL     1      -8.330  18.074  14.354  1.00  0.00     0.039 C 
ATOM      9  C   UNL     1      -9.534  17.847  13.477  1.00  0.00    -0.080 C 
ATOM     10  C   UNL     1      -9.847  18.876  12.421  1.00  0.00     0.039 C 
ENDBRANCH   6   7
ENDBRANCH   5   6
ENDBRANCH   3   5
ENDBRANCH   1   2
BRANCH   1  11
ATOM     11  C   UNL     1      -9.685  17.029   7.974  1.00  0.00     0.034 C 
BRANCH  11  12
ATOM     12  C   UNL     1      -9.997  16.149   6.775  1.00  0.00    -0.077 C 
ATOM     13  C   UNL     1     -10.166  16.630   5.521  1.00  0.00    -0.028 C 
ATOM     14  C   UNL     1     -10.088  14.660   6.985  1.00  0.00     0.039 C 
BRANCH  13  15
ATOM     15  C   UNL     1     -10.181  18.090   5.141  1.00  0.00     0.035 C 
BRANCH  15  16
ATOM     16  C   UNL     1     -11.611  18.625   5.000  1.00  0.00     0.079 C 
BRANCH  16  17
ATOM     17  C   UNL     1     -11.842  19.828   5.879  1.00  0.00     0.130 C 
ATOM     18  O   UNL     1     -12.978  20.240   6.049  1.00  0.00    -0.300 OA
ATOM     19  C   UNL     1     -10.700  20.531   6.551  1.00  0.00     0.087 C 
ENDBRANCH  16  17
ENDBRANCH  15  16
ENDBRANCH  13  15
ENDBRANCH  11  12
ENDBRANCH   1  11
TORSDOF 9
ENDMDL
MODEL 6
REMARK VINA RESULT:    -5.643      1.235      1.578
REMARK INTER + INTRA:         -10.072
REMARK INTER:                  -8.143
REMARK INTRA:                  -1.929
REMARK UNBOUND:                -1.459
REMARK SMILES CC(=O)CCC=C(C)CCC=C(C)CCC=C(C)C
REMARK SMILES IDX 10 1 11 2 12 3 13 4 14 5 15 6 16 7 18 8 17 9 19 10 9 11 7 12
REMARK SMILES IDX 6 13 8 14 5 15 4 16 2 17 3 18 1 19
REMARK H PARENT
REMARK Flexibility Score: inf
ROOT
ATOM      1  C   UNL     1      -9.016  16.081   7.839  1.00  0.00     0.032 C 
ENDROOT
BRANCH   1   2
ATOM      2  C   UNL     1      -9.708  17.066   8.751  1.00  0.00    -0.028 C 
ATOM      3  C   UNL     1      -9.142  17.655   9.829  1.00  0.00    -0.077 C 
ATOM      4  C   UNL     1      -7.741  17.323  10.280  1.00  0.00     0.039 C 
BRANCH   3   5
ATOM      5  C   UNL     1      -9.942  18.678  10.611  1.00  0.00     0.034 C 
BRANCH   5   6
ATOM      6  C   UNL     1     -10.049  18.310  12.097  1.00  0.00     0.032 C 
BRANCH   6   7
ATOM      7  C   UNL     1     -11.226  17.403  12.367  1.00  0.00    -0.028 C 
ATOM      8  C   UNL     1     -12.389  15.258  12.777  1.00  0.00     0.039 C 
ATOM      9  C   UNL     1     -11.138  16.065  12.546  1.00  0.00    -0.080 C 
ATOM     10  C   UNL     1      -9.813  15.346  12.582  1.00  0.00     0.039 C 
ENDBRANCH   6   7
ENDBRANCH   5   6
ENDBRANCH   3   5
ENDBRANCH   1   2
BRANCH   1  11
ATOM     11  C   UNL     1      -8.788  16.676   6.442  1.00  0.00     0.034 C 
BRANCH  11  12
ATOM     12  C   UNL     1      -9.910  16.315   5.484  1.00  0.00    -0.077 C 
ATOM     13  C   UNL     1     -10.542  17.220   4.700  1.00  0.00    -0.028 C 
ATOM     14  C   UNL     1     -10.319  14.869   5.371  1.00  0.00     0.039 C 
BRANCH  13  15
ATOM     15  C   UNL     1     -10.314  18.712   4.732  1.00  0.00     0.035 C 
BRANCH  15  16
ATOM     16  C   UNL     1     -11.101  19.381   5.865  1.00  0.00     0.079 C 
BRANCH  16  17
ATOM     17  C   UNL     1     -10.316  20.503   6.497  1.00  0.00     0.130 C 
ATOM     18  O   UNL     1     -10.831  21.603   6.619  1.00  0.00    -0.300 OA
ATOM     19  C   UNL     1      -8.911  20.294   6.980  1.00  0.00     0.087 C 
ENDBRANCH  16  17
ENDBRANCH  15  16
ENDBRANCH  13  15
ENDBRANCH  11  12
ENDBRANCH   1  11
TORSDOF 9
ENDMDL
MODEL 7
REMARK VINA RESULT:    -5.619      1.274      2.526
REMARK INTER + INTRA:         -10.035
REMARK INTER:                  -8.744
REMARK INTRA:                  -1.291
REMARK UNBOUND:                -1.459
REMARK SMILES CC(=O)CCC=C(C)CCC=C(C)CCC=C(C)C
REMARK SMILES IDX 10 1 11 2 12 3 13 4 14 5 15 6 16 7 18 8 17 9 19 10 9 11 7 12
REMARK SMILES IDX 6 13 8 14 5 15 4 16 2 17 3 18 1 19
REMARK H PARENT
REMARK Flexibility Score: inf
ROOT
ATOM      1  C   UNL     1      -7.833  17.478  10.731  1.00  0.00     0.032 C 
ENDROOT
BRANCH   1   2
ATOM      2  C   UNL     1      -7.924  16.994  12.159  1.00  0.00    -0.028 C 
ATOM      3  C   UNL     1      -8.101  17.790  13.238  1.00  0.00    -0.077 C 
ATOM      4  C   UNL     1      -8.159  19.293  13.123  1.00  0.00     0.039 C 
BRANCH   3   5
ATOM      5  C   UNL     1      -8.243  17.151  14.605  1.00  0.00     0.034 C 
BRANCH   5   6
ATOM      6  C   UNL     1      -9.712  16.907  14.975  1.00  0.00     0.032 C 
BRANCH   6   7
ATOM      7  C   UNL     1     -10.352  15.873  14.077  1.00  0.00    -0.028 C 
ATOM      8  C   UNL     1     -11.875  15.027  12.321  1.00  0.00     0.039 C 
ATOM      9  C   UNL     1     -11.283  16.148  13.136  1.00  0.00    -0.080 C 
ATOM     10  C   UNL     1     -11.717  17.558  12.823  1.00  0.00     0.039 C 
ENDBRANCH   6   7
ENDBRANCH   5   6
ENDBRANCH   3   5
ENDBRANCH   1   2
BRANCH   1  11
ATOM     11  C   UNL     1      -9.226  17.685  10.120  1.00  0.00     0.034 C 
BRANCH  11  12
ATOM     12  C   UNL     1      -9.276  17.250   8.665  1.00  0.00    -0.077 C 
ATOM     13  C   UNL     1      -9.731  18.040   7.665  1.00  0.00    -0.028 C 
ATOM     14  C   UNL     1      -8.757  15.880   8.309  1.00  0.00     0.039 C 
BRANCH  13  15
ATOM     15  C   UNL     1     -10.350  19.405   7.844  1.00  0.00     0.035 C 
BRANCH  15  16
ATOM     16  C   UNL     1     -10.507  20.136   6.505  1.00  0.00     0.079 C 
BRANCH  16  17
ATOM     17  C   UNL     1     -11.780  19.736   5.802  1.00  0.00     0.130 C 
ATOM     18  O   UNL     1     -12.836  20.253   6.130  1.00  0.00    -0.300 OA
ATOM     19  C   UNL     1     -11.774  18.712   4.705  1.00  0.00     0.087 C 
ENDBRANCH  16  17
ENDBRANCH  15  16
ENDBRANCH  13  15
ENDBRANCH  11  12
ENDBRANCH   1  11
TORSDOF 9
ENDMDL
MODEL 8
REMARK VINA RESULT:    -5.573      1.319      2.551
REMARK INTER + INTRA:          -9.965
REMARK INTER:                  -8.198
REMARK INTRA:                  -1.766
REMARK UNBOUND:                -1.459
REMARK SMILES CC(=O)CCC=C(C)CCC=C(C)CCC=C(C)C
REMARK SMILES IDX 10 1 11 2 12 3 13 4 14 5 15 6 16 7 18 8 17 9 19 10 9 11 7 12
REMARK SMILES IDX 6 13 8 14 5 15 4 16 2 17 3 18 1 19
REMARK H PARENT
REMARK Flexibility Score: inf
ROOT
ATOM      1  C   UNL     1     -10.095  16.667   6.953  1.00  0.00     0.032 C 
ENDROOT
BRANCH   1   2
ATOM      2  C   UNL     1      -9.792  15.777   8.135  1.00  0.00    -0.028 C 
ATOM      3  C   UNL     1      -9.624  16.206   9.407  1.00  0.00    -0.077 C 
ATOM      4  C   UNL     1      -9.657  17.670   9.769  1.00  0.00     0.039 C 
BRANCH   3   5
ATOM      5  C   UNL     1      -9.392  15.184  10.501  1.00  0.00     0.034 C 
BRANCH   5   6
ATOM      6  C   UNL     1     -10.601  15.062  11.439  1.00  0.00     0.032 C 
BRANCH   6   7
ATOM      7  C   UNL     1     -10.233  15.375  12.871  1.00  0.00    -0.028 C 
ATOM      8  C   UNL     1     -10.147  16.714  14.949  1.00  0.00     0.039 C 
ATOM      9  C   UNL     1     -10.603  16.496  13.530  1.00  0.00    -0.080 C 
ATOM     10  C   UNL     1     -11.516  17.525  12.911  1.00  0.00     0.039 C 
ENDBRANCH   6   7
ENDBRANCH   5   6
ENDBRANCH   3   5
ENDBRANCH   1   2
BRANCH   1  11
ATOM     11  C   UNL     1      -8.850  16.884   6.082  1.00  0.00     0.034 C 
BRANCH  11  12
ATOM     12  C   UNL     1      -8.003  18.041   6.583  1.00  0.00    -0.077 C 
ATOM     13  C   UNL     1      -8.306  19.340   6.358  1.00  0.00    -0.028 C 
ATOM     14  C   UNL     1      -6.780  17.728   7.407  1.00  0.00     0.039 C 
BRANCH  13  15
ATOM     15  C   UNL     1      -9.446  19.834   5.500  1.00  0.00     0.035 C 
BRANCH  15  16
ATOM     16  C   UNL     1     -10.663  20.228   6.346  1.00  0.00     0.079 C 
BRANCH  16  17
ATOM     17  C   UNL     1     -11.953  19.802   5.692  1.00  0.00     0.130 C 
ATOM     18  O   UNL     1     -13.012  20.253   6.100  1.00  0.00    -0.300 OA
ATOM     19  C   UNL     1     -11.962  18.833   4.547  1.00  0.00     0.087 C 
ENDBRANCH  16  17
ENDBRANCH  15  16
ENDBRANCH  13  15
ENDBRANCH  11  12
ENDBRANCH   1  11
TORSDOF 9
ENDMDL
MODEL 9
REMARK VINA RESULT:    -5.558      2.272      4.199
REMARK INTER + INTRA:          -9.942
REMARK INTER:                  -8.231
REMARK INTRA:                  -1.711
REMARK UNBOUND:                -1.459
REMARK SMILES CC(=O)CCC=C(C)CCC=C(C)CCC=C(C)C
REMARK SMILES IDX 10 1 11 2 12 3 13 4 14 5 15 6 16 7 18 8 17 9 19 10 9 11 7 12
REMARK SMILES IDX 6 13 8 14 5 15 4 16 2 17 3 18 1 19
REMARK H PARENT
REMARK Flexibility Score: inf
ROOT
ATOM      1  C   UNL     1     -10.382  17.162   4.820  1.00  0.00     0.032 C 
ENDROOT
BRANCH   1   2
ATOM      2  C   UNL     1     -10.442  16.854   6.297  1.00  0.00    -0.028 C 
ATOM      3  C   UNL     1      -9.367  16.621   7.084  1.00  0.00    -0.077 C 
ATOM      4  C   UNL     1      -7.964  16.576   6.532  1.00  0.00     0.039 C 
BRANCH   3   5
ATOM      5  C   UNL     1      -9.580  16.393   8.568  1.00  0.00     0.034 C 
BRANCH   5   6
ATOM      6  C   UNL     1      -8.922  17.488   9.417  1.00  0.00     0.032 C 
BRANCH   6   7
ATOM      7  C   UNL     1      -9.889  18.081  10.415  1.00  0.00    -0.028 C 
ATOM      8  C   UNL     1     -11.171  18.215  12.527  1.00  0.00     0.039 C 
ATOM      9  C   UNL     1     -10.160  17.550  11.629  1.00  0.00    -0.080 C 
ATOM     10  C   UNL     1      -9.438  16.333  12.151  1.00  0.00     0.039 C 
ENDBRANCH   6   7
ENDBRANCH   5   6
ENDBRANCH   3   5
ENDBRANCH   1   2
BRANCH   1  11
ATOM     11  C   UNL     1     -10.216  18.667   4.567  1.00  0.00     0.034 C 
BRANCH  11  12
ATOM     12  C   UNL     1     -11.186  19.490   5.397  1.00  0.00    -0.077 C 
ATOM     13  C   UNL     1     -10.809  20.244   6.456  1.00  0.00    -0.028 C 
ATOM     14  C   UNL     1     -12.640  19.499   5.000  1.00  0.00     0.039 C 
BRANCH  13  15
ATOM     15  C   UNL     1      -9.416  20.300   7.036  1.00  0.00     0.035 C 
BRANCH  15  16
ATOM     16  C   UNL     1      -8.480  21.162   6.180  1.00  0.00     0.079 C 
BRANCH  16  17
ATOM     17  C   UNL     1      -7.134  20.507   6.000  1.00  0.00     0.130 C 
ATOM     18  O   UNL     1      -6.282  20.637   6.865  1.00  0.00    -0.300 OA
ATOM     19  C   UNL     1      -6.819  19.698   4.777  1.00  0.00     0.087 C 
ENDBRANCH  16  17
ENDBRANCH  15  16
ENDBRANCH  13  15
ENDBRANCH  11  12
ENDBRANCH   1  11
TORSDOF 9
ENDMDL
