MODEL 1
REMARK VINA RESULT:    -3.821      0.000      0.000
REMARK INTER + INTRA:          -5.693
REMARK INTER:                  -5.384
REMARK INTRA:                  -0.309
REMARK UNBOUND:                -0.309
REMARK SMILES CCCCCCCCC(=O)[O-]
REMARK SMILES IDX 6 1 7 2 8 3 9 4 10 5 11 6 5 7 4 8 3 9 2 10 1 11
REMARK H PARENT
REMARK Flexibility Score: inf
ROOT
ATOM      1  C   UNL     1     -30.524 -21.108 -34.278  1.00  0.00     0.000 C 
ENDROOT
BRANCH   1   2
ATOM      2  C   UNL     1     -29.853 -20.718 -32.948  1.00  0.00     0.006 C 
BRANCH   2   3
ATOM      3  C   UNL     1     -30.746 -21.024 -31.738  1.00  0.00     0.053 C 
BRANCH   3   4
ATOM      4  C   UNL     1     -31.132 -19.777 -31.004  1.00  0.00     0.041 C 
ATOM      5  O   UNL     1     -32.258 -19.250 -31.200  1.00  0.00    -0.550 OA
ATOM      6  O   UNL     1     -30.236 -19.177 -30.128  1.00  0.00    -0.550 OA
ENDBRANCH   3   4
ENDBRANCH   2   3
ENDBRANCH   1   2
BRANCH   1   7
ATOM      7  C   UNL     1     -31.846 -21.865 -34.076  1.00  0.00     0.000 C 
BRANCH   7   8
ATOM      8  C   UNL     1     -32.684 -21.941 -35.364  1.00  0.00    -0.000 C 
BRANCH   8   9
ATOM      9  C   UNL     1     -32.588 -23.313 -36.050  1.00  0.00    -0.000 C 
BRANCH   9  10
ATOM     10  C   UNL     1     -31.703 -23.288 -37.305  1.00  0.00    -0.003 C 
ATOM     11  C   UNL     1     -31.673 -24.654 -37.984  1.00  0.00     0.004 C 
ENDBRANCH   9  10
ENDBRANCH   8   9
ENDBRANCH   7   8
ENDBRANCH   1   7
TORSDOF 7
ENDMDL
MODEL 2
REMARK VINA RESULT:    -3.780      1.186      1.803
REMARK INTER + INTRA:          -5.635
REMARK INTER:                  -5.220
REMARK INTRA:                  -0.415
REMARK UNBOUND:                -0.309
REMARK SMILES CCCCCCCCC(=O)[O-]
REMARK SMILES IDX 6 1 7 2 8 3 9 4 10 5 11 6 5 7 4 8 3 9 2 10 1 11
REMARK H PARENT
REMARK Flexibility Score: inf
ROOT
ATOM      1  C   UNL     1     -29.301 -20.459 -32.810  1.00  0.00     0.000 C 
ENDROOT
BRANCH   1   2
ATOM      2  C   UNL     1     -29.579 -19.056 -32.241  1.00  0.00     0.006 C 
BRANCH   2   3
ATOM      3  C   UNL     1     -29.696 -19.064 -30.711  1.00  0.00     0.053 C 
BRANCH   3   4
ATOM      4  C   UNL     1     -30.911 -19.810 -30.252  1.00  0.00     0.041 C 
ATOM      5  O   UNL     1     -32.056 -19.314 -30.411  1.00  0.00    -0.550 OA
ATOM      6  O   UNL     1     -30.775 -21.039 -29.618  1.00  0.00    -0.550 OA
ENDBRANCH   3   4
ENDBRANCH   2   3
ENDBRANCH   1   2
BRANCH   1   7
ATOM      7  C   UNL     1     -30.172 -20.787 -34.033  1.00  0.00     0.000 C 
BRANCH   7   8
ATOM      8  C   UNL     1     -31.478 -21.506 -33.651  1.00  0.00    -0.000 C 
BRANCH   8   9
ATOM      9  C   UNL     1     -32.273 -21.975 -34.879  1.00  0.00    -0.000 C 
BRANCH   9  10
ATOM     10  C   UNL     1     -31.376 -22.275 -36.089  1.00  0.00    -0.003 C 
ATOM     11  C   UNL     1     -31.859 -23.513 -36.838  1.00  0.00     0.004 C 
ENDBRANCH   9  10
ENDBRANCH   8   9
ENDBRANCH   7   8
ENDBRANCH   1   7
TORSDOF 7
ENDMDL
MODEL 3
REMARK VINA RESULT:    -3.713      3.638      6.312
REMARK INTER + INTRA:          -5.542
REMARK INTER:                  -5.320
REMARK INTRA:                  -0.221
REMARK UNBOUND:                -0.309
REMARK SMILES CCCCCCCCC(=O)[O-]
REMARK SMILES IDX 6 1 7 2 8 3 9 4 10 5 11 6 5 7 4 8 3 9 2 10 1 11
REMARK H PARENT
REMARK Flexibility Score: inf
ROOT
ATOM      1  C   UNL     1     -31.852 -22.044 -34.104  1.00  0.00     0.000 C 
ENDROOT
BRANCH   1   2
ATOM      2  C   UNL     1     -32.625 -21.906 -35.427  1.00  0.00     0.006 C 
BRANCH   2   3
ATOM      3  C   UNL     1     -32.726 -23.240 -36.180  1.00  0.00     0.053 C 
BRANCH   3   4
ATOM      4  C   UNL     1     -31.986 -23.198 -37.483  1.00  0.00     0.041 C 
ATOM      5  O   UNL     1     -31.913 -22.124 -38.135  1.00  0.00    -0.550 OA
ATOM      6  O   UNL     1     -31.407 -24.354 -37.992  1.00  0.00    -0.550 OA
ENDBRANCH   3   4
ENDBRANCH   2   3
ENDBRANCH   1   2
BRANCH   1   7
ATOM      7  C   UNL     1     -31.327 -20.697 -33.580  1.00  0.00     0.000 C 
BRANCH   7   8
ATOM      8  C   UNL     1     -29.803 -20.698 -33.375  1.00  0.00    -0.000 C 
BRANCH   8   9
ATOM      9  C   UNL     1     -29.181 -19.307 -33.570  1.00  0.00    -0.000 C 
BRANCH   9  10
ATOM     10  C   UNL     1     -28.223 -18.919 -32.434  1.00  0.00    -0.003 C 
ATOM     11  C   UNL     1     -28.886 -19.095 -31.071  1.00  0.00     0.004 C 
ENDBRANCH   9  10
ENDBRANCH   8   9
ENDBRANCH   7   8
ENDBRANCH   1   7
TORSDOF 7
ENDMDL
MODEL 4
REMARK VINA RESULT:    -3.707      1.649      2.001
REMARK INTER + INTRA:          -5.532
REMARK INTER:                  -5.313
REMARK INTRA:                  -0.219
REMARK UNBOUND:                -0.309
REMARK SMILES CCCCCCCCC(=O)[O-]
REMARK SMILES IDX 6 1 7 2 8 3 9 4 10 5 11 6 5 7 4 8 3 9 2 10 1 11
REMARK H PARENT
REMARK Flexibility Score: inf
ROOT
ATOM      1  C   UNL     1     -31.476 -21.850 -34.433  1.00  0.00     0.000 C 
ENDROOT
BRANCH   1   2
ATOM      2  C   UNL     1     -31.366 -20.655 -33.468  1.00  0.00     0.006 C 
BRANCH   2   3
ATOM      3  C   UNL     1     -30.158 -20.778 -32.530  1.00  0.00     0.053 C 
BRANCH   3   4
ATOM      4  C   UNL     1     -29.165 -19.679 -32.759  1.00  0.00     0.041 C 
ATOM      5  O   UNL     1     -29.037 -19.170 -33.903  1.00  0.00    -0.550 OA
ATOM      6  O   UNL     1     -28.357 -19.242 -31.716  1.00  0.00    -0.550 OA
ENDBRANCH   3   4
ENDBRANCH   2   3
ENDBRANCH   1   2
BRANCH   1   7
ATOM      7  C   UNL     1     -32.772 -21.829 -35.259  1.00  0.00     0.000 C 
BRANCH   7   8
ATOM      8  C   UNL     1     -32.930 -23.079 -36.141  1.00  0.00    -0.000 C 
BRANCH   8   9
ATOM      9  C   UNL     1     -31.629 -23.459 -36.864  1.00  0.00    -0.000 C 
BRANCH   9  10
ATOM     10  C   UNL     1     -31.870 -23.961 -38.296  1.00  0.00    -0.003 C 
ATOM     11  C   UNL     1     -32.120 -25.465 -38.316  1.00  0.00     0.004 C 
ENDBRANCH   9  10
ENDBRANCH   8   9
ENDBRANCH   7   8
ENDBRANCH   1   7
TORSDOF 7
ENDMDL
MODEL 5
REMARK VINA RESULT:    -3.576      3.308      6.128
REMARK INTER + INTRA:          -5.348
REMARK INTER:                  -4.917
REMARK INTRA:                  -0.432
REMARK UNBOUND:                -0.309
REMARK SMILES CCCCCCCCC(=O)[O-]
REMARK SMILES IDX 6 1 7 2 8 3 9 4 10 5 11 6 5 7 4 8 3 9 2 10 1 11
REMARK H PARENT
REMARK Flexibility Score: inf
ROOT
ATOM      1  C   UNL     1     -31.510 -21.667 -33.741  1.00  0.00     0.000 C 
ENDROOT
BRANCH   1   2
ATOM      2  C   UNL     1     -32.459 -21.638 -34.952  1.00  0.00     0.006 C 
BRANCH   2   3
ATOM      3  C   UNL     1     -32.566 -23.008 -35.637  1.00  0.00     0.053 C 
BRANCH   3   4
ATOM      4  C   UNL     1     -31.837 -23.032 -36.945  1.00  0.00     0.041 C 
ATOM      5  O   UNL     1     -31.528 -21.954 -37.518  1.00  0.00    -0.550 OA
ATOM      6  O   UNL     1     -31.528 -24.244 -37.549  1.00  0.00    -0.550 OA
ENDBRANCH   3   4
ENDBRANCH   2   3
ENDBRANCH   1   2
BRANCH   1   7
ATOM      7  C   UNL     1     -30.223 -20.860 -33.975  1.00  0.00     0.000 C 
BRANCH   7   8
ATOM      8  C   UNL     1     -29.585 -20.372 -32.663  1.00  0.00    -0.000 C 
BRANCH   8   9
ATOM      9  C   UNL     1     -30.068 -18.971 -32.257  1.00  0.00    -0.000 C 
BRANCH   9  10
ATOM     10  C   UNL     1     -30.910 -18.981 -30.973  1.00  0.00    -0.003 C 
ATOM     11  C   UNL     1     -30.817 -20.329 -30.265  1.00  0.00     0.004 C 
ENDBRANCH   9  10
ENDBRANCH   8   9
ENDBRANCH   7   8
ENDBRANCH   1   7
TORSDOF 7
ENDMDL
MODEL 6
REMARK VINA RESULT:    -3.312      3.048      5.549
REMARK INTER + INTRA:          -4.976
REMARK INTER:                  -4.383
REMARK INTRA:                  -0.594
REMARK UNBOUND:                -0.309
REMARK SMILES CCCCCCCCC(=O)[O-]
REMARK SMILES IDX 6 1 7 2 8 3 9 4 10 5 11 6 5 7 4 8 3 9 2 10 1 11
REMARK H PARENT
REMARK Flexibility Score: inf
ROOT
ATOM      1  C   UNL     1     -29.756 -19.368 -33.242  1.00  0.00     0.000 C 
ENDROOT
BRANCH   1   2
ATOM      2  C   UNL     1     -29.960 -20.763 -33.861  1.00  0.00     0.006 C 
BRANCH   2   3
ATOM      3  C   UNL     1     -31.418 -21.232 -33.765  1.00  0.00     0.053 C 
BRANCH   3   4
ATOM      4  C   UNL     1     -31.861 -21.924 -35.017  1.00  0.00     0.041 C 
ATOM      5  O   UNL     1     -32.958 -22.541 -35.045  1.00  0.00    -0.550 OA
ATOM      6  O   UNL     1     -31.048 -21.917 -36.143  1.00  0.00    -0.550 OA
ENDBRANCH   3   4
ENDBRANCH   2   3
ENDBRANCH   1   2
BRANCH   1   7
ATOM      7  C   UNL     1     -28.898 -19.403 -31.968  1.00  0.00     0.000 C 
BRANCH   7   8
ATOM      8  C   UNL     1     -29.652 -18.875 -30.735  1.00  0.00    -0.000 C 
BRANCH   8   9
ATOM      9  C   UNL     1     -30.953 -19.646 -30.464  1.00  0.00    -0.000 C 
BRANCH   9  10
ATOM     10  C   UNL     1     -30.735 -20.891 -29.590  1.00  0.00    -0.003 C 
ATOM     11  C   UNL     1     -30.728 -22.161 -30.435  1.00  0.00     0.004 C 
ENDBRANCH   9  10
ENDBRANCH   8   9
ENDBRANCH   7   8
ENDBRANCH   1   7
TORSDOF 7
ENDMDL
MODEL 7
REMARK VINA RESULT:    -2.987      3.017      5.887
REMARK INTER + INTRA:          -4.518
REMARK INTER:                  -4.094
REMARK INTRA:                  -0.424
REMARK UNBOUND:                -0.309
REMARK SMILES CCCCCCCCC(=O)[O-]
REMARK SMILES IDX 6 1 7 2 8 3 9 4 10 5 11 6 5 7 4 8 3 9 2 10 1 11
REMARK H PARENT
REMARK Flexibility Score: inf
ROOT
ATOM      1  C   UNL     1     -30.030 -21.073 -34.316  1.00  0.00     0.000 C 
ENDROOT
BRANCH   1   2
ATOM      2  C   UNL     1     -31.493 -21.157 -33.845  1.00  0.00     0.006 C 
BRANCH   2   3
ATOM      3  C   UNL     1     -32.256 -22.300 -34.527  1.00  0.00     0.053 C 
BRANCH   3   4
ATOM      4  C   UNL     1     -33.101 -21.804 -35.660  1.00  0.00     0.041 C 
ATOM      5  O   UNL     1     -33.693 -20.696 -35.571  1.00  0.00    -0.550 OA
ATOM      6  O   UNL     1     -33.262 -22.579 -36.802  1.00  0.00    -0.550 OA
ENDBRANCH   3   4
ENDBRANCH   2   3
ENDBRANCH   1   2
BRANCH   1   7
ATOM      7  C   UNL     1     -29.281 -19.874 -33.715  1.00  0.00     0.000 C 
BRANCH   7   8
ATOM      8  C   UNL     1     -30.057 -19.208 -32.566  1.00  0.00    -0.000 C 
BRANCH   8   9
ATOM      9  C   UNL     1     -29.160 -18.875 -31.363  1.00  0.00    -0.000 C 
BRANCH   9  10
ATOM     10  C   UNL     1     -29.897 -18.997 -30.021  1.00  0.00    -0.003 C 
ATOM     11  C   UNL     1     -31.296 -19.574 -30.212  1.00  0.00     0.004 C 
ENDBRANCH   9  10
ENDBRANCH   8   9
ENDBRANCH   7   8
ENDBRANCH   1   7
TORSDOF 7
ENDMDL
MODEL 8
REMARK VINA RESULT:    -2.891      3.074      5.801
REMARK INTER + INTRA:          -4.383
REMARK INTER:                  -3.940
REMARK INTRA:                  -0.443
REMARK UNBOUND:                -0.309
REMARK SMILES CCCCCCCCC(=O)[O-]
REMARK SMILES IDX 6 1 7 2 8 3 9 4 10 5 11 6 5 7 4 8 3 9 2 10 1 11
REMARK H PARENT
REMARK Flexibility Score: inf
ROOT
ATOM      1  C   UNL     1     -28.304 -19.351 -31.530  1.00  0.00     0.000 C 
ENDROOT
BRANCH   1   2
ATOM      2  C   UNL     1     -29.347 -19.162 -32.646  1.00  0.00     0.006 C 
BRANCH   2   3
ATOM      3  C   UNL     1     -29.637 -20.470 -33.395  1.00  0.00     0.053 C 
BRANCH   3   4
ATOM      4  C   UNL     1     -31.107 -20.728 -33.510  1.00  0.00     0.041 C 
ATOM      5  O   UNL     1     -31.525 -21.767 -34.087  1.00  0.00    -0.550 OA
ATOM      6  O   UNL     1     -32.019 -19.806 -33.012  1.00  0.00    -0.550 OA
ENDBRANCH   3   4
ENDBRANCH   2   3
ENDBRANCH   1   2
BRANCH   1   7
ATOM      7  C   UNL     1     -28.919 -19.276 -30.123  1.00  0.00     0.000 C 
BRANCH   7   8
ATOM      8  C   UNL     1     -30.442 -19.061 -30.156  1.00  0.00    -0.000 C 
BRANCH   8   9
ATOM      9  C   UNL     1     -31.217 -20.234 -29.535  1.00  0.00    -0.000 C 
BRANCH   9  10
ATOM     10  C   UNL     1     -32.518 -19.790 -28.850  1.00  0.00    -0.003 C 
ATOM     11  C   UNL     1     -33.334 -18.878 -29.760  1.00  0.00     0.004 C 
ENDBRANCH   9  10
ENDBRANCH   8   9
ENDBRANCH   7   8
ENDBRANCH   1   7
TORSDOF 7
ENDMDL
