MODEL 1
REMARK VINA RESULT:    -4.700      0.000      0.000
REMARK INTER + INTRA:         -10.195
REMARK INTER:                  -8.547
REMARK INTRA:                  -1.648
REMARK UNBOUND:                -1.648
REMARK SMILES CCCCCCCCCCCCCCCC(=O)[O-]
REMARK SMILES IDX 9 1 10 2 11 3 12 4 13 5 14 6 15 7 16 8 17 9 18 10 8 11 7 12
REMARK SMILES IDX 6 13 5 14 4 15 3 16 2 17 1 18
REMARK H PARENT
REMARK Flexibility Score: inf
ROOT
ATOM      1  C   UNL     1       5.498  10.653   4.827  1.00  0.00     0.000 C 
ENDROOT
BRANCH   1   2
ATOM      2  C   UNL     1       5.647  10.845   6.345  1.00  0.00     0.000 C 
BRANCH   2   3
ATOM      3  C   UNL     1       4.328  10.632   7.107  1.00  0.00     0.000 C 
BRANCH   3   4
ATOM      4  C   UNL     1       4.566  10.173   8.562  1.00  0.00     0.000 C 
BRANCH   4   5
ATOM      5  C   UNL     1       4.143  11.217   9.610  1.00  0.00     0.000 C 
BRANCH   5   6
ATOM      6  C   UNL     1       3.553  12.487   8.983  1.00  0.00     0.006 C 
BRANCH   6   7
ATOM      7  C   UNL     1       2.207  12.839   9.625  1.00  0.00     0.053 C 
BRANCH   7   8
ATOM      8  C   UNL     1       1.289  11.658   9.607  1.00  0.00     0.041 C 
ATOM      9  O   UNL     1       0.795  11.257   8.519  1.00  0.00    -0.550 OA
ATOM     10  O   UNL     1       1.004  10.978  10.785  1.00  0.00    -0.550 OA
ENDBRANCH   7   8
ENDBRANCH   6   7
ENDBRANCH   5   6
ENDBRANCH   4   5
ENDBRANCH   3   4
ENDBRANCH   2   3
ENDBRANCH   1   2
BRANCH   1  11
ATOM     11  C   UNL     1       5.963  11.881   4.025  1.00  0.00     0.000 C 
BRANCH  11  12
ATOM     12  C   UNL     1       6.725  12.895   4.893  1.00  0.00    -0.000 C 
BRANCH  12  13
ATOM     13  C   UNL     1       8.225  12.946   4.563  1.00  0.00    -0.000 C 
BRANCH  13  14
ATOM     14  C   UNL     1       8.952  11.713   5.122  1.00  0.00    -0.000 C 
BRANCH  14  15
ATOM     15  C   UNL     1      10.125  12.078   6.050  1.00  0.00    -0.000 C 
BRANCH  15  16
ATOM     16  C   UNL     1       9.728  12.436   7.496  1.00  0.00    -0.000 C 
BRANCH  16  17
ATOM     17  C   UNL     1       8.451  11.748   8.008  1.00  0.00    -0.003 C 
ATOM     18  C   UNL     1       7.589  12.663   8.876  1.00  0.00     0.004 C 
ENDBRANCH  16  17
ENDBRANCH  15  16
ENDBRANCH  14  15
ENDBRANCH  13  14
ENDBRANCH  12  13
ENDBRANCH  11  12
ENDBRANCH   1  11
TORSDOF 14
ENDMDL
MODEL 2
REMARK VINA RESULT:    -4.609      3.393      6.937
REMARK INTER + INTRA:         -10.029
REMARK INTER:                  -8.593
REMARK INTRA:                  -1.436
REMARK UNBOUND:                -1.648
REMARK SMILES CCCCCCCCCCCCCCCC(=O)[O-]
REMARK SMILES IDX 9 1 10 2 11 3 12 4 13 5 14 6 15 7 16 8 17 9 18 10 8 11 7 12
REMARK SMILES IDX 6 13 5 14 4 15 3 16 2 17 1 18
REMARK H PARENT
REMARK Flexibility Score: inf
ROOT
ATOM      1  C   UNL     1       5.903  10.848   6.266  1.00  0.00     0.000 C 
ENDROOT
BRANCH   1   2
ATOM      2  C   UNL     1       6.166  12.349   6.069  1.00  0.00     0.000 C 
BRANCH   2   3
ATOM      3  C   UNL     1       6.624  13.051   7.360  1.00  0.00     0.000 C 
BRANCH   3   4
ATOM      4  C   UNL     1       7.572  12.166   8.197  1.00  0.00     0.000 C 
BRANCH   4   5
ATOM      5  C   UNL     1       8.903  12.853   8.546  1.00  0.00     0.000 C 
BRANCH   5   6
ATOM      6  C   UNL     1      10.067  12.384   7.662  1.00  0.00     0.006 C 
BRANCH   6   7
ATOM      7  C   UNL     1      10.040  13.091   6.303  1.00  0.00     0.053 C 
BRANCH   7   8
ATOM      8  C   UNL     1       9.696  12.125   5.214  1.00  0.00     0.041 C 
ATOM      9  O   UNL     1       9.721  12.494   4.009  1.00  0.00    -0.550 OA
ATOM     10  O   UNL     1       9.381  10.808   5.524  1.00  0.00    -0.550 OA
ENDBRANCH   7   8
ENDBRANCH   6   7
ENDBRANCH   5   6
ENDBRANCH   4   5
ENDBRANCH   3   4
ENDBRANCH   2   3
ENDBRANCH   1   2
BRANCH   1  11
ATOM     11  C   UNL     1       4.403  10.511   6.326  1.00  0.00     0.000 C 
BRANCH  11  12
ATOM     12  C   UNL     1       4.061   9.558   7.483  1.00  0.00    -0.000 C 
BRANCH  12  13
ATOM     13  C   UNL     1       4.538  10.086   8.844  1.00  0.00    -0.000 C 
BRANCH  13  14
ATOM     14  C   UNL     1       3.719  11.312   9.276  1.00  0.00    -0.000 C 
BRANCH  14  15
ATOM     15  C   UNL     1       2.219  11.173   8.959  1.00  0.00    -0.000 C 
BRANCH  15  16
ATOM     16  C   UNL     1       1.271  11.809   9.995  1.00  0.00    -0.000 C 
BRANCH  16  17
ATOM     17  C   UNL     1       0.605  13.122   9.546  1.00  0.00    -0.003 C 
ATOM     18  C   UNL     1      -0.721  12.900   8.821  1.00  0.00     0.004 C 
ENDBRANCH  16  17
ENDBRANCH  15  16
ENDBRANCH  14  15
ENDBRANCH  13  14
ENDBRANCH  12  13
ENDBRANCH  11  12
ENDBRANCH   1  11
TORSDOF 14
ENDMDL
MODEL 3
REMARK VINA RESULT:    -4.556      2.327      5.944
REMARK INTER + INTRA:          -9.933
REMARK INTER:                  -8.435
REMARK INTRA:                  -1.498
REMARK UNBOUND:                -1.648
REMARK SMILES CCCCCCCCCCCCCCCC(=O)[O-]
REMARK SMILES IDX 9 1 10 2 11 3 12 4 13 5 14 6 15 7 16 8 17 9 18 10 8 11 7 12
REMARK SMILES IDX 6 13 5 14 4 15 3 16 2 17 1 18
REMARK H PARENT
REMARK Flexibility Score: inf
ROOT
ATOM      1  C   UNL     1       6.281  11.446   4.552  1.00  0.00     0.000 C 
ENDROOT
BRANCH   1   2
ATOM      2  C   UNL     1       7.138  12.710   4.380  1.00  0.00     0.000 C 
BRANCH   2   3
ATOM      3  C   UNL     1       8.529  12.415   3.791  1.00  0.00     0.000 C 
BRANCH   3   4
ATOM      4  C   UNL     1       9.662  12.740   4.788  1.00  0.00     0.000 C 
BRANCH   4   5
ATOM      5  C   UNL     1       9.926  11.614   5.803  1.00  0.00     0.000 C 
BRANCH   5   6
ATOM      6  C   UNL     1       9.972  12.115   7.253  1.00  0.00     0.006 C 
BRANCH   6   7
ATOM      7  C   UNL     1       8.712  12.918   7.593  1.00  0.00     0.053 C 
BRANCH   7   8
ATOM      8  C   UNL     1       7.754  12.087   8.386  1.00  0.00     0.041 C 
ATOM      9  O   UNL     1       7.695  10.842   8.203  1.00  0.00    -0.550 OA
ATOM     10  O   UNL     1       6.950  12.680   9.351  1.00  0.00    -0.550 OA
ENDBRANCH   7   8
ENDBRANCH   6   7
ENDBRANCH   5   6
ENDBRANCH   4   5
ENDBRANCH   3   4
ENDBRANCH   2   3
ENDBRANCH   1   2
BRANCH   1  11
ATOM     11  C   UNL     1       5.296  11.553   5.729  1.00  0.00     0.000 C 
BRANCH  11  12
ATOM     12  C   UNL     1       4.918  10.179   6.305  1.00  0.00    -0.000 C 
BRANCH  12  13
ATOM     13  C   UNL     1       3.713  10.247   7.256  1.00  0.00    -0.000 C 
BRANCH  13  14
ATOM     14  C   UNL     1       4.118   9.851   8.684  1.00  0.00    -0.000 C 
BRANCH  14  15
ATOM     15  C   UNL     1       3.858  10.968   9.712  1.00  0.00    -0.000 C 
BRANCH  15  16
ATOM     16  C   UNL     1       3.420  12.319   9.113  1.00  0.00    -0.000 C 
BRANCH  16  17
ATOM     17  C   UNL     1       2.034  12.812   9.565  1.00  0.00    -0.003 C 
ATOM     18  C   UNL     1       1.079  11.670   9.908  1.00  0.00     0.004 C 
ENDBRANCH  16  17
ENDBRANCH  15  16
ENDBRANCH  14  15
ENDBRANCH  13  14
ENDBRANCH  12  13
ENDBRANCH  11  12
ENDBRANCH   1  11
TORSDOF 14
ENDMDL
MODEL 4
REMARK VINA RESULT:    -4.493      0.806      3.383
REMARK INTER + INTRA:          -9.818
REMARK INTER:                  -8.361
REMARK INTRA:                  -1.457
REMARK UNBOUND:                -1.648
REMARK SMILES CCCCCCCCCCCCCCCC(=O)[O-]
REMARK SMILES IDX 9 1 10 2 11 3 12 4 13 5 14 6 15 7 16 8 17 9 18 10 8 11 7 12
REMARK SMILES IDX 6 13 5 14 4 15 3 16 2 17 1 18
REMARK H PARENT
REMARK Flexibility Score: inf
ROOT
ATOM      1  C   UNL     1       8.726  11.448   7.464  1.00  0.00     0.000 C 
ENDROOT
BRANCH   1   2
ATOM      2  C   UNL     1       8.948  12.551   8.511  1.00  0.00     0.000 C 
BRANCH   2   3
ATOM      3  C   UNL     1       7.632  13.119   9.071  1.00  0.00     0.000 C 
BRANCH   3   4
ATOM      4  C   UNL     1       6.442  12.164   8.837  1.00  0.00     0.000 C 
BRANCH   4   5
ATOM      5  C   UNL     1       5.073  12.865   8.899  1.00  0.00     0.000 C 
BRANCH   5   6
ATOM      6  C   UNL     1       3.943  11.929   9.351  1.00  0.00     0.006 C 
BRANCH   6   7
ATOM      7  C   UNL     1       2.592  12.650   9.319  1.00  0.00     0.053 C 
BRANCH   7   8
ATOM      8  C   UNL     1       1.470  11.676   9.496  1.00  0.00     0.041 C 
ATOM      9  O   UNL     1       1.445  10.915  10.499  1.00  0.00    -0.550 OA
ATOM     10  O   UNL     1       0.434  11.632   8.572  1.00  0.00    -0.550 OA
ENDBRANCH   7   8
ENDBRANCH   6   7
ENDBRANCH   5   6
ENDBRANCH   4   5
ENDBRANCH   3   4
ENDBRANCH   2   3
ENDBRANCH   1   2
BRANCH   1  11
ATOM     11  C   UNL     1       9.543  11.675   6.180  1.00  0.00     0.000 C 
BRANCH  11  12
ATOM     12  C   UNL     1       8.692  11.528   4.909  1.00  0.00    -0.000 C 
BRANCH  12  13
ATOM     13  C   UNL     1       7.968  12.828   4.528  1.00  0.00    -0.000 C 
BRANCH  13  14
ATOM     14  C   UNL     1       6.500  12.791   4.981  1.00  0.00    -0.000 C 
BRANCH  14  15
ATOM     15  C   UNL     1       5.786  11.483   4.596  1.00  0.00    -0.000 C 
BRANCH  15  16
ATOM     16  C   UNL     1       5.558  10.496   5.758  1.00  0.00    -0.000 C 
BRANCH  16  17
ATOM     17  C   UNL     1       4.122  10.464   6.311  1.00  0.00    -0.003 C 
ATOM     18  C   UNL     1       3.913   9.376   7.362  1.00  0.00     0.004 C 
ENDBRANCH  16  17
ENDBRANCH  15  16
ENDBRANCH  14  15
ENDBRANCH  13  14
ENDBRANCH  12  13
ENDBRANCH  11  12
ENDBRANCH   1  11
TORSDOF 14
ENDMDL
MODEL 5
REMARK VINA RESULT:    -4.480      1.253      3.164
REMARK INTER + INTRA:          -9.794
REMARK INTER:                  -8.296
REMARK INTRA:                  -1.498
REMARK UNBOUND:                -1.648
REMARK SMILES CCCCCCCCCCCCCCCC(=O)[O-]
REMARK SMILES IDX 9 1 10 2 11 3 12 4 13 5 14 6 15 7 16 8 17 9 18 10 8 11 7 12
REMARK SMILES IDX 6 13 5 14 4 15 3 16 2 17 1 18
REMARK H PARENT
REMARK Flexibility Score: inf
ROOT
ATOM      1  C   UNL     1       7.532  12.731   9.219  1.00  0.00     0.000 C 
ENDROOT
BRANCH   1   2
ATOM      2  C   UNL     1       6.279  12.838   8.336  1.00  0.00     0.000 C 
BRANCH   2   3
ATOM      3  C   UNL     1       5.093  12.021   8.878  1.00  0.00     0.000 C 
BRANCH   3   4
ATOM      4  C   UNL     1       4.461  11.125   7.792  1.00  0.00     0.000 C 
BRANCH   4   5
ATOM      5  C   UNL     1       3.164  10.433   8.247  1.00  0.00     0.000 C 
BRANCH   5   6
ATOM      6  C   UNL     1       2.998  10.419   9.773  1.00  0.00     0.006 C 
BRANCH   6   7
ATOM      7  C   UNL     1       1.569  10.799  10.171  1.00  0.00     0.053 C 
BRANCH   7   8
ATOM      8  C   UNL     1       1.152  12.067   9.494  1.00  0.00     0.041 C 
ATOM      9  O   UNL     1       1.825  13.120   9.653  1.00  0.00    -0.550 OA
ATOM     10  O   UNL     1       0.040  12.079   8.661  1.00  0.00    -0.550 OA
ENDBRANCH   7   8
ENDBRANCH   6   7
ENDBRANCH   5   6
ENDBRANCH   4   5
ENDBRANCH   3   4
ENDBRANCH   2   3
ENDBRANCH   1   2
BRANCH   1  11
ATOM     11  C   UNL     1       8.805  12.430   8.409  1.00  0.00     0.000 C 
BRANCH  11  12
ATOM     12  C   UNL     1       8.606  11.281   7.408  1.00  0.00    -0.000 C 
BRANCH  12  13
ATOM     13  C   UNL     1       9.685  11.254   6.316  1.00  0.00    -0.000 C 
BRANCH  13  14
ATOM     14  C   UNL     1       9.727  12.587   5.553  1.00  0.00    -0.000 C 
BRANCH  14  15
ATOM     15  C   UNL     1       9.674  12.405   4.025  1.00  0.00    -0.000 C 
BRANCH  15  16
ATOM     16  C   UNL     1       8.257  12.377   3.418  1.00  0.00    -0.000 C 
BRANCH  16  17
ATOM     17  C   UNL     1       7.128  12.773   4.386  1.00  0.00    -0.003 C 
ATOM     18  C   UNL     1       6.077  11.677   4.555  1.00  0.00     0.004 C 
ENDBRANCH  16  17
ENDBRANCH  15  16
ENDBRANCH  14  15
ENDBRANCH  13  14
ENDBRANCH  12  13
ENDBRANCH  11  12
ENDBRANCH   1  11
TORSDOF 14
ENDMDL
MODEL 6
REMARK VINA RESULT:    -4.446      2.640      6.668
REMARK INTER + INTRA:          -9.734
REMARK INTER:                  -8.824
REMARK INTRA:                  -0.910
REMARK UNBOUND:                -1.648
REMARK SMILES CCCCCCCCCCCCCCCC(=O)[O-]
REMARK SMILES IDX 9 1 10 2 11 3 12 4 13 5 14 6 15 7 16 8 17 9 18 10 8 11 7 12
REMARK SMILES IDX 6 13 5 14 4 15 3 16 2 17 1 18
REMARK H PARENT
REMARK Flexibility Score: inf
ROOT
ATOM      1  C   UNL     1       5.015  10.832   5.074  1.00  0.00     0.000 C 
ENDROOT
BRANCH   1   2
ATOM      2  C   UNL     1       6.034  11.946   5.359  1.00  0.00     0.000 C 
BRANCH   2   3
ATOM      3  C   UNL     1       7.097  12.082   4.256  1.00  0.00     0.000 C 
BRANCH   3   4
ATOM      4  C   UNL     1       8.240  13.036   4.665  1.00  0.00     0.000 C 
BRANCH   4   5
ATOM      5  C   UNL     1       9.620  12.355   4.706  1.00  0.00     0.000 C 
BRANCH   5   6
ATOM      6  C   UNL     1      10.125  12.113   6.135  1.00  0.00     0.006 C 
BRANCH   6   7
ATOM      7  C   UNL     1       9.277  12.884   7.151  1.00  0.00     0.053 C 
BRANCH   7   8
ATOM      8  C   UNL     1       8.430  11.946   7.951  1.00  0.00     0.041 C 
ATOM      9  O   UNL     1       7.745  12.377   8.917  1.00  0.00    -0.550 OA
ATOM     10  O   UNL     1       8.368  10.600   7.610  1.00  0.00    -0.550 OA
ENDBRANCH   7   8
ENDBRANCH   6   7
ENDBRANCH   5   6
ENDBRANCH   4   5
ENDBRANCH   3   4
ENDBRANCH   2   3
ENDBRANCH   1   2
BRANCH   1  11
ATOM     11  C   UNL     1       4.104  10.538   6.279  1.00  0.00     0.000 C 
BRANCH  11  12
ATOM     12  C   UNL     1       4.894  10.076   7.514  1.00  0.00    -0.000 C 
BRANCH  12  13
ATOM     13  C   UNL     1       3.986   9.538   8.630  1.00  0.00    -0.000 C 
BRANCH  13  14
ATOM     14  C   UNL     1       3.427  10.686   9.484  1.00  0.00    -0.000 C 
BRANCH  14  15
ATOM     15  C   UNL     1       2.106  10.323  10.186  1.00  0.00    -0.000 C 
BRANCH  15  16
ATOM     16  C   UNL     1       1.160  11.511  10.455  1.00  0.00    -0.000 C 
BRANCH  16  17
ATOM     17  C   UNL     1       1.100  12.561   9.332  1.00  0.00    -0.003 C 
ATOM     18  C   UNL     1      -0.320  13.046   9.047  1.00  0.00     0.004 C 
ENDBRANCH  16  17
ENDBRANCH  15  16
ENDBRANCH  14  15
ENDBRANCH  13  14
ENDBRANCH  12  13
ENDBRANCH  11  12
ENDBRANCH   1  11
TORSDOF 14
ENDMDL
MODEL 7
REMARK VINA RESULT:    -4.105      3.850      8.027
REMARK INTER + INTRA:          -9.113
REMARK INTER:                  -8.171
REMARK INTRA:                  -0.941
REMARK UNBOUND:                -1.648
REMARK SMILES CCCCCCCCCCCCCCCC(=O)[O-]
REMARK SMILES IDX 9 1 10 2 11 3 12 4 13 5 14 6 15 7 16 8 17 9 18 10 8 11 7 12
REMARK SMILES IDX 6 13 5 14 4 15 3 16 2 17 1 18
REMARK H PARENT
REMARK Flexibility Score: inf
ROOT
ATOM      1  C   UNL     1       3.751   9.127   8.187  1.00  0.00     0.000 C 
ENDROOT
BRANCH   1   2
ATOM      2  C   UNL     1       5.087   9.700   7.690  1.00  0.00     0.000 C 
BRANCH   2   3
ATOM      3  C   UNL     1       5.350  11.129   8.195  1.00  0.00     0.000 C 
BRANCH   3   4
ATOM      4  C   UNL     1       6.136  11.973   7.169  1.00  0.00     0.000 C 
BRANCH   4   5
ATOM      5  C   UNL     1       5.669  11.763   5.718  1.00  0.00     0.000 C 
BRANCH   5   6
ATOM      6  C   UNL     1       6.680  12.277   4.684  1.00  0.00     0.006 C 
BRANCH   6   7
ATOM      7  C   UNL     1       7.775  13.109   5.358  1.00  0.00     0.053 C 
BRANCH   7   8
ATOM      8  C   UNL     1       9.130  12.574   5.016  1.00  0.00     0.041 C 
ATOM      9  O   UNL     1      10.012  12.466   5.908  1.00  0.00    -0.550 OA
ATOM     10  O   UNL     1       9.409  12.163   3.718  1.00  0.00    -0.550 OA
ENDBRANCH   7   8
ENDBRANCH   6   7
ENDBRANCH   5   6
ENDBRANCH   4   5
ENDBRANCH   3   4
ENDBRANCH   2   3
ENDBRANCH   1   2
BRANCH   1  11
ATOM     11  C   UNL     1       2.726  10.222   8.531  1.00  0.00     0.000 C 
BRANCH  11  12
ATOM     12  C   UNL     1       2.201  10.103   9.971  1.00  0.00    -0.000 C 
BRANCH  12  13
ATOM     13  C   UNL     1       1.184  11.200  10.322  1.00  0.00    -0.000 C 
BRANCH  13  14
ATOM     14  C   UNL     1       1.284  12.376   9.339  1.00  0.00    -0.000 C 
BRANCH  14  15
ATOM     15  C   UNL     1      -0.049  13.125   9.161  1.00  0.00    -0.000 C 
BRANCH  15  16
ATOM     16  C   UNL     1      -1.239  12.247   8.727  1.00  0.00    -0.000 C 
BRANCH  16  17
ATOM     17  C   UNL     1      -2.489  13.023   8.276  1.00  0.00    -0.003 C 
ATOM     18  C   UNL     1      -3.648  12.109   7.882  1.00  0.00     0.004 C 
ENDBRANCH  16  17
ENDBRANCH  15  16
ENDBRANCH  14  15
ENDBRANCH  13  14
ENDBRANCH  12  13
ENDBRANCH  11  12
ENDBRANCH   1  11
TORSDOF 14
ENDMDL
MODEL 8
REMARK VINA RESULT:    -4.018      2.975      7.311
REMARK INTER + INTRA:          -8.955
REMARK INTER:                  -8.301
REMARK INTRA:                  -0.654
REMARK UNBOUND:                -1.648
REMARK SMILES CCCCCCCCCCCCCCCC(=O)[O-]
REMARK SMILES IDX 9 1 10 2 11 3 12 4 13 5 14 6 15 7 16 8 17 9 18 10 8 11 7 12
REMARK SMILES IDX 6 13 5 14 4 15 3 16 2 17 1 18
REMARK H PARENT
REMARK Flexibility Score: inf
ROOT
ATOM      1  C   UNL     1       5.773  11.910   8.182  1.00  0.00     0.000 C 
ENDROOT
BRANCH   1   2
ATOM      2  C   UNL     1       6.731  12.639   9.137  1.00  0.00     0.000 C 
BRANCH   2   3
ATOM      3  C   UNL     1       8.142  12.815   8.551  1.00  0.00     0.000 C 
BRANCH   3   4
ATOM      4  C   UNL     1       8.624  11.550   7.808  1.00  0.00     0.000 C 
BRANCH   4   5
ATOM      5  C   UNL     1       9.680  11.840   6.727  1.00  0.00     0.000 C 
BRANCH   5   6
ATOM      6  C   UNL     1       9.387  11.129   5.399  1.00  0.00     0.006 C 
BRANCH   6   7
ATOM      7  C   UNL     1       7.886  10.875   5.235  1.00  0.00     0.053 C 
BRANCH   7   8
ATOM      8  C   UNL     1       7.250  11.970   4.437  1.00  0.00     0.041 C 
ATOM      9  O   UNL     1       7.967  12.813   3.835  1.00  0.00    -0.550 OA
ATOM     10  O   UNL     1       5.866  12.040   4.330  1.00  0.00    -0.550 OA
ENDBRANCH   7   8
ENDBRANCH   6   7
ENDBRANCH   5   6
ENDBRANCH   4   5
ENDBRANCH   3   4
ENDBRANCH   2   3
ENDBRANCH   1   2
BRANCH   1  11
ATOM     11  C   UNL     1       4.306  12.332   8.376  1.00  0.00     0.000 C 
BRANCH  11  12
ATOM     12  C   UNL     1       3.335  11.144   8.279  1.00  0.00    -0.000 C 
BRANCH  12  13
ATOM     13  C   UNL     1       3.289  10.312   9.570  1.00  0.00    -0.000 C 
BRANCH  13  14
ATOM     14  C   UNL     1       1.917  10.432  10.251  1.00  0.00    -0.000 C 
BRANCH  14  15
ATOM     15  C   UNL     1       1.271  11.816  10.059  1.00  0.00    -0.000 C 
BRANCH  15  16
ATOM     16  C   UNL     1       0.262  11.911   8.897  1.00  0.00    -0.000 C 
BRANCH  16  17
ATOM     17  C   UNL     1      -0.682  13.125   8.954  1.00  0.00    -0.003 C 
ATOM     18  C   UNL     1      -2.120  12.779   8.570  1.00  0.00     0.004 C 
ENDBRANCH  16  17
ENDBRANCH  15  16
ENDBRANCH  14  15
ENDBRANCH  13  14
ENDBRANCH  12  13
ENDBRANCH  11  12
ENDBRANCH   1  11
TORSDOF 14
ENDMDL
MODEL 9
REMARK VINA RESULT:    -3.896      1.826      3.585
REMARK INTER + INTRA:          -8.732
REMARK INTER:                  -7.277
REMARK INTRA:                  -1.455
REMARK UNBOUND:                -1.648
REMARK SMILES CCCCCCCCCCCCCCCC(=O)[O-]
REMARK SMILES IDX 9 1 10 2 11 3 12 4 13 5 14 6 15 7 16 8 17 9 18 10 8 11 7 12
REMARK SMILES IDX 6 13 5 14 4 15 3 16 2 17 1 18
REMARK H PARENT
REMARK Flexibility Score: inf
ROOT
ATOM      1  C   UNL     1       7.586  11.890   8.140  1.00  0.00     0.000 C 
ENDROOT
BRANCH   1   2
ATOM      2  C   UNL     1       6.676  12.876   8.889  1.00  0.00     0.000 C 
BRANCH   2   3
ATOM      3  C   UNL     1       5.278  13.000   8.257  1.00  0.00     0.000 C 
BRANCH   3   4
ATOM      4  C   UNL     1       4.155  12.913   9.312  1.00  0.00     0.000 C 
BRANCH   4   5
ATOM      5  C   UNL     1       2.872  12.245   8.786  1.00  0.00     0.000 C 
BRANCH   5   6
ATOM      6  C   UNL     1       2.592  10.887   9.444  1.00  0.00     0.006 C 
BRANCH   6   7
ATOM      7  C   UNL     1       3.892  10.108   9.663  1.00  0.00     0.053 C 
BRANCH   7   8
ATOM      8  C   UNL     1       4.180   9.222   8.492  1.00  0.00     0.041 C 
ATOM      9  O   UNL     1       3.422   8.250   8.233  1.00  0.00    -0.550 OA
ATOM     10  O   UNL     1       5.265   9.488   7.667  1.00  0.00    -0.550 OA
ENDBRANCH   7   8
ENDBRANCH   6   7
ENDBRANCH   5   6
ENDBRANCH   4   5
ENDBRANCH   3   4
ENDBRANCH   2   3
ENDBRANCH   1   2
BRANCH   1  11
ATOM     11  C   UNL     1       9.062  12.326   8.141  1.00  0.00     0.000 C 
BRANCH  11  12
ATOM     12  C   UNL     1       9.778  11.977   6.827  1.00  0.00    -0.000 C 
BRANCH  12  13
ATOM     13  C   UNL     1       9.733  13.124   5.806  1.00  0.00    -0.000 C 
BRANCH  13  14
ATOM     14  C   UNL     1       9.907  12.594   4.375  1.00  0.00    -0.000 C 
BRANCH  14  15
ATOM     15  C   UNL     1       8.612  12.669   3.546  1.00  0.00    -0.000 C 
BRANCH  15  16
ATOM     16  C   UNL     1       7.307  12.657   4.368  1.00  0.00    -0.000 C 
BRANCH  16  17
ATOM     17  C   UNL     1       6.770  11.257   4.713  1.00  0.00    -0.003 C 
ATOM     18  C   UNL     1       5.269  11.248   4.993  1.00  0.00     0.004 C 
ENDBRANCH  16  17
ENDBRANCH  15  16
ENDBRANCH  14  15
ENDBRANCH  13  14
ENDBRANCH  12  13
ENDBRANCH  11  12
ENDBRANCH   1  11
TORSDOF 14
ENDMDL
