MODEL 1
REMARK VINA RESULT:    -3.742      0.000      0.000
REMARK INTER + INTRA:          -6.040
REMARK INTER:                  -5.710
REMARK INTRA:                  -0.330
REMARK UNBOUND:                -0.330
REMARK SMILES O=C([O-])CCCCCCCCC(=O)[O-]
REMARK SMILES IDX 7 1 6 2 5 3 4 4 2 5 1 6 3 7 8 8 9 9 10 10 11 11 12 12 13 13
REMARK SMILES IDX 14 14
REMARK H PARENT
REMARK Flexibility Score: inf
ROOT
ATOM      1  C   UNL     1      36.660  71.787  74.382  1.00  0.00     0.000 C 
ENDROOT
BRANCH   1   2
ATOM      2  C   UNL     1      36.670  71.599  75.908  1.00  0.00     0.000 C 
BRANCH   2   3
ATOM      3  C   UNL     1      37.134  70.195  76.329  1.00  0.00     0.006 C 
BRANCH   3   4
ATOM      4  C   UNL     1      36.402  69.088  75.559  1.00  0.00     0.053 C 
BRANCH   4   5
ATOM      5  C   UNL     1      37.186  67.811  75.535  1.00  0.00     0.041 C 
ATOM      6  O   UNL     1      38.245  67.706  76.208  1.00  0.00    -0.550 OA
ATOM      7  O   UNL     1      36.764  66.750  74.744  1.00  0.00    -0.550 OA
ENDBRANCH   4   5
ENDBRANCH   3   4
ENDBRANCH   2   3
ENDBRANCH   1   2
BRANCH   1   8
ATOM      8  C   UNL     1      36.636  73.269  73.970  1.00  0.00     0.000 C 
BRANCH   8   9
ATOM      9  C   UNL     1      37.132  73.489  72.531  1.00  0.00     0.000 C 
BRANCH   9  10
ATOM     10  C   UNL     1      38.448  74.280  72.470  1.00  0.00     0.006 C 
BRANCH  10  11
ATOM     11  C   UNL     1      39.259  74.094  73.755  1.00  0.00     0.053 C 
BRANCH  11  12
ATOM     12  C   UNL     1      40.209  75.233  73.947  1.00  0.00     0.041 C 
ATOM     13  O   UNL     1      40.623  75.887  72.954  1.00  0.00    -0.550 OA
ATOM     14  O   UNL     1      40.597  75.605  75.229  1.00  0.00    -0.550 OA
ENDBRANCH  11  12
ENDBRANCH  10  11
ENDBRANCH   9  10
ENDBRANCH   8   9
ENDBRANCH   1   8
TORSDOF 9
ENDMDL
MODEL 2
REMARK VINA RESULT:    -3.597     16.561     19.258
REMARK INTER + INTRA:          -5.819
REMARK INTER:                  -5.296
REMARK INTRA:                  -0.523
REMARK UNBOUND:                -0.330
REMARK SMILES O=C([O-])CCCCCCCCC(=O)[O-]
REMARK SMILES IDX 7 1 6 2 5 3 4 4 2 5 1 6 3 7 8 8 9 9 10 10 11 11 12 12 13 13
REMARK SMILES IDX 14 14
REMARK H PARENT
REMARK Flexibility Score: inf
ROOT
ATOM      1  C   UNL     1      31.325  57.520  85.998  1.00  0.00     0.000 C 
ENDROOT
BRANCH   1   2
ATOM      2  C   UNL     1      31.997  57.075  84.690  1.00  0.00     0.000 C 
BRANCH   2   3
ATOM      3  C   UNL     1      31.027  57.071  83.496  1.00  0.00     0.006 C 
BRANCH   3   4
ATOM      4  C   UNL     1      30.745  58.486  82.974  1.00  0.00     0.053 C 
BRANCH   4   5
ATOM      5  C   UNL     1      31.167  58.650  81.546  1.00  0.00     0.041 C 
ATOM      6  O   UNL     1      30.430  58.229  80.616  1.00  0.00    -0.550 OA
ATOM      7  O   UNL     1      32.387  59.240  81.244  1.00  0.00    -0.550 OA
ENDBRANCH   4   5
ENDBRANCH   3   4
ENDBRANCH   2   3
ENDBRANCH   1   2
BRANCH   1   8
ATOM      8  C   UNL     1      29.943  56.875  86.201  1.00  0.00     0.000 C 
BRANCH   8   9
ATOM      9  C   UNL     1      29.039  57.698  87.134  1.00  0.00     0.000 C 
BRANCH   9  10
ATOM     10  C   UNL     1      28.583  59.022  86.504  1.00  0.00     0.006 C 
BRANCH  10  11
ATOM     11  C   UNL     1      27.768  59.852  87.501  1.00  0.00     0.053 C 
BRANCH  11  12
ATOM     12  C   UNL     1      27.729  61.287  87.082  1.00  0.00     0.041 C 
ATOM     13  O   UNL     1      27.239  61.609  85.968  1.00  0.00    -0.550 OA
ATOM     14  O   UNL     1      28.188  62.275  87.945  1.00  0.00    -0.550 OA
ENDBRANCH  11  12
ENDBRANCH  10  11
ENDBRANCH   9  10
ENDBRANCH   8   9
ENDBRANCH   1   8
TORSDOF 9
ENDMDL
MODEL 3
REMARK VINA RESULT:    -3.474     17.745     19.530
REMARK INTER + INTRA:          -5.632
REMARK INTER:                  -4.914
REMARK INTRA:                  -0.718
REMARK UNBOUND:                -0.330
REMARK SMILES O=C([O-])CCCCCCCCC(=O)[O-]
REMARK SMILES IDX 7 1 6 2 5 3 4 4 2 5 1 6 3 7 8 8 9 9 10 10 11 11 12 12 13 13
REMARK SMILES IDX 14 14
REMARK H PARENT
REMARK Flexibility Score: inf
ROOT
ATOM      1  C   UNL     1      28.439  60.409  87.152  1.00  0.00     0.000 C 
ENDROOT
BRANCH   1   2
ATOM      2  C   UNL     1      27.393  61.176  86.329  1.00  0.00     0.000 C 
BRANCH   2   3
ATOM      3  C   UNL     1      26.461  60.244  85.537  1.00  0.00     0.006 C 
BRANCH   3   4
ATOM      4  C   UNL     1      26.926  60.056  84.087  1.00  0.00     0.053 C 
BRANCH   4   5
ATOM      5  C   UNL     1      26.750  61.305  83.277  1.00  0.00     0.041 C 
ATOM      6  O   UNL     1      25.594  61.729  83.011  1.00  0.00    -0.550 OA
ATOM      7  O   UNL     1      27.861  61.982  82.792  1.00  0.00    -0.550 OA
ENDBRANCH   4   5
ENDBRANCH   3   4
ENDBRANCH   2   3
ENDBRANCH   1   2
BRANCH   1   8
ATOM      8  C   UNL     1      27.967  58.996  87.538  1.00  0.00     0.000 C 
BRANCH   8   9
ATOM      9  C   UNL     1      28.938  57.900  87.067  1.00  0.00     0.000 C 
BRANCH   9  10
ATOM     10  C   UNL     1      29.951  58.409  86.032  1.00  0.00     0.006 C 
BRANCH  10  11
ATOM     11  C   UNL     1      31.233  57.570  86.062  1.00  0.00     0.053 C 
BRANCH  11  12
ATOM     12  C   UNL     1      31.771  57.383  84.679  1.00  0.00     0.041 C 
ATOM     13  O   UNL     1      31.009  57.492  83.682  1.00  0.00    -0.550 OA
ATOM     14  O   UNL     1      33.125  57.136  84.488  1.00  0.00    -0.550 OA
ENDBRANCH  11  12
ENDBRANCH  10  11
ENDBRANCH   9  10
ENDBRANCH   8   9
ENDBRANCH   1   8
TORSDOF 9
ENDMDL
MODEL 4
REMARK VINA RESULT:    -3.445     16.814     19.407
REMARK INTER + INTRA:          -5.587
REMARK INTER:                  -4.987
REMARK INTRA:                  -0.601
REMARK UNBOUND:                -0.330
REMARK SMILES O=C([O-])CCCCCCCCC(=O)[O-]
REMARK SMILES IDX 7 1 6 2 5 3 4 4 2 5 1 6 3 7 8 8 9 9 10 10 11 11 12 12 13 13
REMARK SMILES IDX 14 14
REMARK H PARENT
REMARK Flexibility Score: inf
ROOT
ATOM      1  C   UNL     1      29.865  57.155  86.628  1.00  0.00     0.000 C 
ENDROOT
BRANCH   1   2
ATOM      2  C   UNL     1      28.770  57.421  87.673  1.00  0.00     0.000 C 
BRANCH   2   3
ATOM      3  C   UNL     1      27.627  58.293  87.125  1.00  0.00     0.006 C 
BRANCH   3   4
ATOM      4  C   UNL     1      27.412  59.559  87.964  1.00  0.00     0.053 C 
BRANCH   4   5
ATOM      5  C   UNL     1      27.649  60.805  87.167  1.00  0.00     0.041 C 
ATOM      6  O   UNL     1      27.471  60.802  85.920  1.00  0.00    -0.550 OA
ATOM      7  O   UNL     1      28.094  61.960  87.796  1.00  0.00    -0.550 OA
ENDBRANCH   4   5
ENDBRANCH   3   4
ENDBRANCH   2   3
ENDBRANCH   1   2
BRANCH   1   8
ATOM      8  C   UNL     1      30.356  58.443  85.945  1.00  0.00     0.000 C 
BRANCH   8   9
ATOM      9  C   UNL     1      30.230  58.386  84.414  1.00  0.00     0.000 C 
BRANCH   9  10
ATOM     10  C   UNL     1      31.257  57.444  83.768  1.00  0.00     0.006 C 
BRANCH  10  11
ATOM     11  C   UNL     1      30.886  57.143  82.313  1.00  0.00     0.053 C 
BRANCH  11  12
ATOM     12  C   UNL     1      31.051  58.364  81.465  1.00  0.00     0.041 C 
ATOM     13  O   UNL     1      30.080  58.811  80.800  1.00  0.00    -0.550 OA
ATOM     14  O   UNL     1      32.266  59.039  81.449  1.00  0.00    -0.550 OA
ENDBRANCH  11  12
ENDBRANCH  10  11
ENDBRANCH   9  10
ENDBRANCH   8   9
ENDBRANCH   1   8
TORSDOF 9
ENDMDL
MODEL 5
REMARK VINA RESULT:    -3.442     17.710     19.221
REMARK INTER + INTRA:          -5.583
REMARK INTER:                  -4.878
REMARK INTRA:                  -0.705
REMARK UNBOUND:                -0.330
REMARK SMILES O=C([O-])CCCCCCCCC(=O)[O-]
REMARK SMILES IDX 7 1 6 2 5 3 4 4 2 5 1 6 3 7 8 8 9 9 10 10 11 11 12 12 13 13
REMARK SMILES IDX 14 14
REMARK H PARENT
REMARK Flexibility Score: inf
ROOT
ATOM      1  C   UNL     1      27.999  58.771  87.405  1.00  0.00     0.000 C 
ENDROOT
BRANCH   1   2
ATOM      2  C   UNL     1      28.950  57.729  86.796  1.00  0.00     0.000 C 
BRANCH   2   3
ATOM      3  C   UNL     1      30.082  58.368  85.973  1.00  0.00     0.006 C 
BRANCH   3   4
ATOM      4  C   UNL     1      31.378  57.549  86.038  1.00  0.00     0.053 C 
BRANCH   4   5
ATOM      5  C   UNL     1      31.944  57.290  84.675  1.00  0.00     0.041 C 
ATOM      6  O   UNL     1      33.161  56.996  84.540  1.00  0.00    -0.550 OA
ATOM      7  O   UNL     1      31.134  57.402  83.552  1.00  0.00    -0.550 OA
ENDBRANCH   4   5
ENDBRANCH   3   4
ENDBRANCH   2   3
ENDBRANCH   1   2
BRANCH   1   8
ATOM      8  C   UNL     1      28.469  60.215  87.159  1.00  0.00     0.000 C 
BRANCH   8   9
ATOM      9  C   UNL     1      27.413  61.064  86.432  1.00  0.00     0.000 C 
BRANCH   9  10
ATOM     10  C   UNL     1      26.489  60.224  85.537  1.00  0.00     0.006 C 
BRANCH  10  11
ATOM     11  C   UNL     1      27.074  60.078  84.129  1.00  0.00     0.053 C 
BRANCH  11  12
ATOM     12  C   UNL     1      26.833  61.318  83.329  1.00  0.00     0.041 C 
ATOM     13  O   UNL     1      25.657  61.713  83.111  1.00  0.00    -0.550 OA
ATOM     14  O   UNL     1      27.908  62.067  82.866  1.00  0.00    -0.550 OA
ENDBRANCH  11  12
ENDBRANCH  10  11
ENDBRANCH   9  10
ENDBRANCH   8   9
ENDBRANCH   1   8
TORSDOF 9
ENDMDL
MODEL 6
REMARK VINA RESULT:    -3.436     17.216     19.016
REMARK INTER + INTRA:          -5.574
REMARK INTER:                  -4.839
REMARK INTRA:                  -0.735
REMARK UNBOUND:                -0.330
REMARK SMILES O=C([O-])CCCCCCCCC(=O)[O-]
REMARK SMILES IDX 7 1 6 2 5 3 4 4 2 5 1 6 3 7 8 8 9 9 10 10 11 11 12 12 13 13
REMARK SMILES IDX 14 14
REMARK H PARENT
REMARK Flexibility Score: inf
ROOT
ATOM      1  C   UNL     1      29.395  57.604  86.853  1.00  0.00     0.000 C 
ENDROOT
BRANCH   1   2
ATOM      2  C   UNL     1      30.245  58.286  85.769  1.00  0.00     0.000 C 
BRANCH   2   3
ATOM      3  C   UNL     1      29.989  57.711  84.365  1.00  0.00     0.006 C 
BRANCH   3   4
ATOM      4  C   UNL     1      30.264  58.739  83.260  1.00  0.00     0.053 C 
BRANCH   4   5
ATOM      5  C   UNL     1      31.011  58.136  82.109  1.00  0.00     0.041 C 
ATOM      6  O   UNL     1      31.003  56.889  81.934  1.00  0.00    -0.550 OA
ATOM      7  O   UNL     1      31.739  58.948  81.250  1.00  0.00    -0.550 OA
ENDBRANCH   4   5
ENDBRANCH   3   4
ENDBRANCH   2   3
ENDBRANCH   1   2
BRANCH   1   8
ATOM      8  C   UNL     1      28.281  58.517  87.392  1.00  0.00     0.000 C 
BRANCH   8   9
ATOM      9  C   UNL     1      28.558  60.007  87.127  1.00  0.00     0.000 C 
BRANCH   9  10
ATOM     10  C   UNL     1      27.375  60.722  86.457  1.00  0.00     0.006 C 
BRANCH  10  11
ATOM     11  C   UNL     1      27.189  60.240  85.016  1.00  0.00     0.053 C 
BRANCH  11  12
ATOM     12  C   UNL     1      26.710  61.358  84.145  1.00  0.00     0.041 C 
ATOM     13  O   UNL     1      25.604  61.913  84.377  1.00  0.00    -0.550 OA
ATOM     14  O   UNL     1      27.510  61.821  83.107  1.00  0.00    -0.550 OA
ENDBRANCH  11  12
ENDBRANCH  10  11
ENDBRANCH   9  10
ENDBRANCH   8   9
ENDBRANCH   1   8
TORSDOF 9
ENDMDL
MODEL 7
REMARK VINA RESULT:    -3.376     13.437     15.717
REMARK INTER + INTRA:          -5.483
REMARK INTER:                  -5.174
REMARK INTRA:                  -0.309
REMARK UNBOUND:                -0.330
REMARK SMILES O=C([O-])CCCCCCCCC(=O)[O-]
REMARK SMILES IDX 7 1 6 2 5 3 4 4 2 5 1 6 3 7 8 8 9 9 10 10 11 11 12 12 13 13
REMARK SMILES IDX 14 14
REMARK H PARENT
REMARK Flexibility Score: inf
ROOT
ATOM      1  C   UNL     1      25.239  64.083  76.075  1.00  0.00     0.000 C 
ENDROOT
BRANCH   1   2
ATOM      2  C   UNL     1      26.431  64.794  75.414  1.00  0.00     0.000 C 
BRANCH   2   3
ATOM      3  C   UNL     1      26.049  66.159  74.816  1.00  0.00     0.006 C 
BRANCH   3   4
ATOM      4  C   UNL     1      26.207  67.300  75.830  1.00  0.00     0.053 C 
BRANCH   4   5
ATOM      5  C   UNL     1      24.891  67.929  76.173  1.00  0.00     0.041 C 
ATOM      6  O   UNL     1      24.395  67.772  77.320  1.00  0.00    -0.550 OA
ATOM      7  O   UNL     1      24.200  68.662  75.218  1.00  0.00    -0.550 OA
ENDBRANCH   4   5
ENDBRANCH   3   4
ENDBRANCH   2   3
ENDBRANCH   1   2
BRANCH   1   8
ATOM      8  C   UNL     1      25.466  62.569  76.227  1.00  0.00     0.000 C 
BRANCH   8   9
ATOM      9  C   UNL     1      26.248  62.214  77.503  1.00  0.00     0.000 C 
BRANCH   9  10
ATOM     10  C   UNL     1      27.303  61.122  77.269  1.00  0.00     0.006 C 
BRANCH  10  11
ATOM     11  C   UNL     1      28.218  60.973  78.488  1.00  0.00     0.053 C 
BRANCH  11  12
ATOM     12  C   UNL     1      29.157  59.824  78.304  1.00  0.00     0.041 C 
ATOM     13  O   UNL     1      29.614  59.212  79.304  1.00  0.00    -0.550 OA
ATOM     14  O   UNL     1      29.487  59.396  77.024  1.00  0.00    -0.550 OA
ENDBRANCH  11  12
ENDBRANCH  10  11
ENDBRANCH   9  10
ENDBRANCH   8   9
ENDBRANCH   1   8
TORSDOF 9
ENDMDL
MODEL 8
REMARK VINA RESULT:    -3.358     16.720     19.137
REMARK INTER + INTRA:          -5.455
REMARK INTER:                  -4.662
REMARK INTRA:                  -0.793
REMARK UNBOUND:                -0.330
REMARK SMILES O=C([O-])CCCCCCCCC(=O)[O-]
REMARK SMILES IDX 7 1 6 2 5 3 4 4 2 5 1 6 3 7 8 8 9 9 10 10 11 11 12 12 13 13
REMARK SMILES IDX 14 14
REMARK H PARENT
REMARK Flexibility Score: inf
ROOT
ATOM      1  C   UNL     1      28.383  57.807  84.346  1.00  0.00     0.000 C 
ENDROOT
BRANCH   1   2
ATOM      2  C   UNL     1      27.983  58.648  83.123  1.00  0.00     0.000 C 
BRANCH   2   3
ATOM      3  C   UNL     1      29.159  59.458  82.549  1.00  0.00     0.006 C 
BRANCH   3   4
ATOM      4  C   UNL     1      29.789  58.777  81.327  1.00  0.00     0.053 C 
BRANCH   4   5
ATOM      5  C   UNL     1      31.214  58.389  81.576  1.00  0.00     0.041 C 
ATOM      6  O   UNL     1      31.482  57.315  82.176  1.00  0.00    -0.550 OA
ATOM      7  O   UNL     1      32.245  59.228  81.173  1.00  0.00    -0.550 OA
ENDBRANCH   4   5
ENDBRANCH   3   4
ENDBRANCH   2   3
ENDBRANCH   1   2
BRANCH   1   8
ATOM      8  C   UNL     1      29.637  58.351  85.052  1.00  0.00     0.000 C 
BRANCH   8   9
ATOM      9  C   UNL     1      29.400  58.628  86.546  1.00  0.00     0.000 C 
BRANCH   9  10
ATOM     10  C   UNL     1      27.948  58.372  86.975  1.00  0.00     0.006 C 
BRANCH  10  11
ATOM     11  C   UNL     1      27.402  59.548  87.790  1.00  0.00     0.053 C 
BRANCH  11  12
ATOM     12  C   UNL     1      27.599  60.835  87.052  1.00  0.00     0.041 C 
ATOM     13  O   UNL     1      27.072  61.004  85.922  1.00  0.00    -0.550 OA
ATOM     14  O   UNL     1      28.325  61.866  87.637  1.00  0.00    -0.550 OA
ENDBRANCH  11  12
ENDBRANCH  10  11
ENDBRANCH   9  10
ENDBRANCH   8   9
ENDBRANCH   1   8
TORSDOF 9
ENDMDL
