MODEL 1
REMARK VINA RESULT:    -3.192      0.000      0.000
REMARK INTER + INTRA:          -4.086
REMARK INTER:                  -4.031
REMARK INTRA:                  -0.055
REMARK UNBOUND:                -0.055
REMARK SMILES CCCCCCO
REMARK SMILES IDX 4 1 3 2 2 3 1 4 5 5 6 6 7 7
REMARK H PARENT 7 8
REMARK Flexibility Score: inf
ROOT
ATOM      1  C   UNL     1     161.692 161.741 167.738  1.00  0.00     0.002 C 
ENDROOT
BRANCH   1   2
ATOM      2  C   UNL     1     160.626 161.398 166.677  1.00  0.00    -0.000 C 
BRANCH   2   3
ATOM      3  C   UNL     1     161.212 161.128 165.280  1.00  0.00    -0.003 C 
ATOM      4  C   UNL     1     160.456 161.848 164.165  1.00  0.00     0.004 C 
ENDBRANCH   2   3
ENDBRANCH   1   2
BRANCH   1   5
ATOM      5  C   UNL     1     161.091 162.465 168.954  1.00  0.00     0.028 C 
BRANCH   5   6
ATOM      6  C   UNL     1     160.348 161.499 169.878  1.00  0.00     0.156 C 
BRANCH   6   7
ATOM      7  O   UNL     1     159.136 162.065 170.295  1.00  0.00    -0.396 OA
ATOM      8  H   UNL     1     158.509 161.308 170.428  1.00  0.00     0.210 HD
ENDBRANCH   6   7
ENDBRANCH   5   6
ENDBRANCH   1   5
TORSDOF 5
ENDMDL
MODEL 2
REMARK VINA RESULT:    -3.189     16.725     17.407
REMARK INTER + INTRA:          -4.082
REMARK INTER:                  -4.012
REMARK INTRA:                  -0.070
REMARK UNBOUND:                -0.055
REMARK SMILES CCCCCCO
REMARK SMILES IDX 4 1 3 2 2 3 1 4 5 5 6 6 7 7
REMARK H PARENT 7 8
REMARK Flexibility Score: inf
ROOT
ATOM      1  C   UNL     1     163.262 178.683 169.459  1.00  0.00     0.002 C 
ENDROOT
BRANCH   1   2
ATOM      2  C   UNL     1     164.463 178.172 168.637  1.00  0.00    -0.000 C 
BRANCH   2   3
ATOM      3  C   UNL     1     165.055 179.230 167.690  1.00  0.00    -0.003 C 
ATOM      4  C   UNL     1     166.281 179.932 168.268  1.00  0.00     0.004 C 
ENDBRANCH   2   3
ENDBRANCH   1   2
BRANCH   1   5
ATOM      5  C   UNL     1     161.959 178.691 168.642  1.00  0.00     0.028 C 
BRANCH   5   6
ATOM      6  C   UNL     1     160.768 178.211 169.472  1.00  0.00     0.156 C 
BRANCH   6   7
ATOM      7  O   UNL     1     161.152 178.021 170.805  1.00  0.00    -0.396 OA
ATOM      8  H   UNL     1     160.924 178.861 171.280  1.00  0.00     0.210 HD
ENDBRANCH   6   7
ENDBRANCH   5   6
ENDBRANCH   1   5
TORSDOF 5
ENDMDL
MODEL 3
REMARK VINA RESULT:    -3.154     16.178     16.894
REMARK INTER + INTRA:          -4.038
REMARK INTER:                  -4.008
REMARK INTRA:                  -0.030
REMARK UNBOUND:                -0.055
REMARK SMILES CCCCCCO
REMARK SMILES IDX 4 1 3 2 2 3 1 4 5 5 6 6 7 7
REMARK H PARENT 7 8
REMARK Flexibility Score: inf
ROOT
ATOM      1  C   UNL     1     162.002 178.637 168.966  1.00  0.00     0.002 C 
ENDROOT
BRANCH   1   2
ATOM      2  C   UNL     1     163.441 178.678 169.520  1.00  0.00    -0.000 C 
BRANCH   2   3
ATOM      3  C   UNL     1     164.517 178.386 168.460  1.00  0.00    -0.003 C 
ATOM      4  C   UNL     1     165.602 179.458 168.398  1.00  0.00     0.004 C 
ENDBRANCH   2   3
ENDBRANCH   1   2
BRANCH   1   5
ATOM      5  C   UNL     1     161.019 177.978 169.950  1.00  0.00     0.028 C 
BRANCH   5   6
ATOM      6  C   UNL     1     159.644 177.761 169.316  1.00  0.00     0.156 C 
BRANCH   6   7
ATOM      7  O   UNL     1     159.670 176.638 168.480  1.00  0.00    -0.396 OA
ATOM      8  H   UNL     1     160.048 175.898 169.023  1.00  0.00     0.210 HD
ENDBRANCH   6   7
ENDBRANCH   5   6
ENDBRANCH   1   5
TORSDOF 5
ENDMDL
MODEL 4
REMARK VINA RESULT:    -3.130     16.587     17.067
REMARK INTER + INTRA:          -4.008
REMARK INTER:                  -3.883
REMARK INTRA:                  -0.125
REMARK UNBOUND:                -0.055
REMARK SMILES CCCCCCO
REMARK SMILES IDX 4 1 3 2 2 3 1 4 5 5 6 6 7 7
REMARK H PARENT 7 8
REMARK Flexibility Score: inf
ROOT
ATOM      1  C   UNL     1     177.272 161.414 168.859  1.00  0.00     0.002 C 
ENDROOT
BRANCH   1   2
ATOM      2  C   UNL     1     177.008 162.933 168.936  1.00  0.00    -0.000 C 
BRANCH   2   3
ATOM      3  C   UNL     1     177.564 163.715 167.734  1.00  0.00    -0.003 C 
ATOM      4  C   UNL     1     177.935 162.818 166.556  1.00  0.00     0.004 C 
ENDBRANCH   2   3
ENDBRANCH   1   2
BRANCH   1   5
ATOM      5  C   UNL     1     178.320 160.955 169.886  1.00  0.00     0.028 C 
BRANCH   5   6
ATOM      6  C   UNL     1     177.960 161.404 171.303  1.00  0.00     0.156 C 
BRANCH   6   7
ATOM      7  O   UNL     1     176.768 160.794 171.715  1.00  0.00    -0.396 OA
ATOM      8  H   UNL     1     176.755 160.855 172.705  1.00  0.00     0.210 HD
ENDBRANCH   6   7
ENDBRANCH   5   6
ENDBRANCH   1   5
TORSDOF 5
ENDMDL
MODEL 5
REMARK VINA RESULT:    -3.046     16.508     17.036
REMARK INTER + INTRA:          -3.902
REMARK INTER:                  -3.793
REMARK INTRA:                  -0.110
REMARK UNBOUND:                -0.055
REMARK SMILES CCCCCCO
REMARK SMILES IDX 4 1 3 2 2 3 1 4 5 5 6 6 7 7
REMARK H PARENT 7 8
REMARK Flexibility Score: inf
ROOT
ATOM      1  C   UNL     1     176.895 162.933 169.177  1.00  0.00     0.002 C 
ENDROOT
BRANCH   1   2
ATOM      2  C   UNL     1     177.485 163.710 167.982  1.00  0.00    -0.000 C 
BRANCH   2   3
ATOM      3  C   UNL     1     178.456 162.879 167.126  1.00  0.00    -0.003 C 
ATOM      4  C   UNL     1     177.879 162.503 165.763  1.00  0.00     0.004 C 
ENDBRANCH   2   3
ENDBRANCH   1   2
BRANCH   1   5
ATOM      5  C   UNL     1     177.588 161.577 169.388  1.00  0.00     0.028 C 
BRANCH   5   6
ATOM      6  C   UNL     1     177.919 161.333 170.861  1.00  0.00     0.156 C 
BRANCH   6   7
ATOM      7  O   UNL     1     176.741 161.162 171.598  1.00  0.00    -0.396 OA
ATOM      8  H   UNL     1     176.614 162.000 172.113  1.00  0.00     0.210 HD
ENDBRANCH   6   7
ENDBRANCH   5   6
ENDBRANCH   1   5
TORSDOF 5
ENDMDL
MODEL 6
REMARK VINA RESULT:    -3.027     16.618     17.589
REMARK INTER + INTRA:          -3.878
REMARK INTER:                  -3.729
REMARK INTRA:                  -0.149
REMARK UNBOUND:                -0.055
REMARK SMILES CCCCCCO
REMARK SMILES IDX 4 1 3 2 2 3 1 4 5 5 6 6 7 7
REMARK H PARENT 7 8
REMARK Flexibility Score: inf
ROOT
ATOM      1  C   UNL     1     176.572 162.548 169.541  1.00  0.00     0.002 C 
ENDROOT
BRANCH   1   2
ATOM      2  C   UNL     1     177.012 161.734 170.776  1.00  0.00    -0.000 C 
BRANCH   2   3
ATOM      3  C   UNL     1     178.538 161.659 170.951  1.00  0.00    -0.003 C 
ATOM      4  C   UNL     1     179.055 160.229 171.085  1.00  0.00     0.004 C 
ENDBRANCH   2   3
ENDBRANCH   1   2
BRANCH   1   5
ATOM      5  C   UNL     1     177.323 162.124 168.268  1.00  0.00     0.028 C 
BRANCH   5   6
ATOM      6  C   UNL     1     177.691 163.328 167.400  1.00  0.00     0.156 C 
BRANCH   6   7
ATOM      7  O   UNL     1     177.597 164.509 168.148  1.00  0.00    -0.396 OA
ATOM      8  H   UNL     1     176.748 164.446 168.657  1.00  0.00     0.210 HD
ENDBRANCH   6   7
ENDBRANCH   5   6
ENDBRANCH   1   5
TORSDOF 5
ENDMDL
MODEL 7
REMARK VINA RESULT:    -3.025     16.448     16.946
REMARK INTER + INTRA:          -3.876
REMARK INTER:                  -3.817
REMARK INTRA:                  -0.059
REMARK UNBOUND:                -0.055
REMARK SMILES CCCCCCO
REMARK SMILES IDX 4 1 3 2 2 3 1 4 5 5 6 6 7 7
REMARK H PARENT 7 8
REMARK Flexibility Score: inf
ROOT
ATOM      1  C   UNL     1     163.351 178.614 169.431  1.00  0.00     0.002 C 
ENDROOT
BRANCH   1   2
ATOM      2  C   UNL     1     161.851 178.598 169.069  1.00  0.00    -0.000 C 
BRANCH   2   3
ATOM      3  C   UNL     1     160.971 177.911 170.127  1.00  0.00    -0.003 C 
ATOM      4  C   UNL     1     159.505 178.331 170.049  1.00  0.00     0.004 C 
ENDBRANCH   2   3
ENDBRANCH   1   2
BRANCH   1   5
ATOM      5  C   UNL     1     164.238 178.195 168.246  1.00  0.00     0.028 C 
BRANCH   5   6
ATOM      6  C   UNL     1     163.455 178.168 166.933  1.00  0.00     0.156 C 
BRANCH   6   7
ATOM      7  O   UNL     1     163.304 176.849 166.488  1.00  0.00    -0.396 OA
ATOM      8  H   UNL     1     162.349 176.618 166.625  1.00  0.00     0.210 HD
ENDBRANCH   6   7
ENDBRANCH   5   6
ENDBRANCH   1   5
TORSDOF 5
ENDMDL
MODEL 8
REMARK VINA RESULT:    -3.003      2.449      4.233
REMARK INTER + INTRA:          -3.848
REMARK INTER:                  -3.735
REMARK INTRA:                  -0.112
REMARK UNBOUND:                -0.055
REMARK SMILES CCCCCCO
REMARK SMILES IDX 4 1 3 2 2 3 1 4 5 5 6 6 7 7
REMARK H PARENT 7 8
REMARK Flexibility Score: inf
ROOT
ATOM      1  C   UNL     1     161.978 161.707 167.737  1.00  0.00     0.002 C 
ENDROOT
BRANCH   1   2
ATOM      2  C   UNL     1     161.072 162.403 168.774  1.00  0.00    -0.000 C 
BRANCH   2   3
ATOM      3  C   UNL     1     160.585 161.467 169.893  1.00  0.00    -0.003 C 
ATOM      4  C   UNL     1     159.068 161.294 169.910  1.00  0.00     0.004 C 
ENDBRANCH   2   3
ENDBRANCH   1   2
BRANCH   1   5
ATOM      5  C   UNL     1     161.198 160.721 166.852  1.00  0.00     0.028 C 
BRANCH   5   6
ATOM      6  C   UNL     1     160.500 161.432 165.692  1.00  0.00     0.156 C 
BRANCH   6   7
ATOM      7  O   UNL     1     161.367 161.536 164.597  1.00  0.00    -0.396 OA
ATOM      8  H   UNL     1     162.151 162.056 164.915  1.00  0.00     0.210 HD
ENDBRANCH   6   7
ENDBRANCH   5   6
ENDBRANCH   1   5
TORSDOF 5
ENDMDL
MODEL 9
REMARK VINA RESULT:    -2.953     16.648     17.085
REMARK INTER + INTRA:          -3.784
REMARK INTER:                  -3.647
REMARK INTRA:                  -0.138
REMARK UNBOUND:                -0.055
REMARK SMILES CCCCCCO
REMARK SMILES IDX 4 1 3 2 2 3 1 4 5 5 6 6 7 7
REMARK H PARENT 7 8
REMARK Flexibility Score: inf
ROOT
ATOM      1  C   UNL     1     164.691 178.602 168.126  1.00  0.00     0.002 C 
ENDROOT
BRANCH   1   2
ATOM      2  C   UNL     1     163.768 178.047 167.022  1.00  0.00    -0.000 C 
BRANCH   2   3
ATOM      3  C   UNL     1     163.729 178.920 165.756  1.00  0.00    -0.003 C 
ATOM      4  C   UNL     1     162.324 179.404 165.406  1.00  0.00     0.004 C 
ENDBRANCH   2   3
ENDBRANCH   1   2
BRANCH   1   5
ATOM      5  C   UNL     1     163.978 178.701 169.485  1.00  0.00     0.028 C 
BRANCH   5   6
ATOM      6  C   UNL     1     162.460 178.587 169.337  1.00  0.00     0.156 C 
BRANCH   6   7
ATOM      7  O   UNL     1     161.923 177.865 170.410  1.00  0.00    -0.396 OA
ATOM      8  H   UNL     1     161.704 176.964 170.054  1.00  0.00     0.210 HD
ENDBRANCH   6   7
ENDBRANCH   5   6
ENDBRANCH   1   5
TORSDOF 5
ENDMDL
