MODEL 1
REMARK VINA RESULT:    -4.447      0.000      0.000
REMARK INTER + INTRA:          -6.801
REMARK INTER:                  -6.137
REMARK INTRA:                  -0.663
REMARK UNBOUND:                -0.663
REMARK SMILES OC[C@@H](O)[C@H](O)[C@@H](O)CO
REMARK SMILES IDX 5 1 7 2 9 3 10 4 8 6 3 8 2 9 1 10 4 12 6 14
REMARK H PARENT 10 5 8 7 1 11 4 13 6 15
REMARK Flexibility Score: inf
ROOT
ATOM      1  C   UNL     1       2.598  28.071  13.590  1.00  0.00     0.176 C 
ENDROOT
BRANCH   1   2
ATOM      2  C   UNL     1       1.574  29.080  14.170  1.00  0.00     0.171 C 
BRANCH   2   3
ATOM      3  C   UNL     1       1.202  28.720  15.620  1.00  0.00     0.190 C 
BRANCH   3   4
ATOM      4  O   UNL     1       2.316  28.855  16.462  1.00  0.00    -0.394 OA
ATOM      5  H   UNL     1       2.929  28.105  16.246  1.00  0.00     0.210 HD
ENDBRANCH   3   4
ENDBRANCH   2   3
BRANCH   2   6
ATOM      6  O   UNL     1       0.416  29.101  13.374  1.00  0.00    -0.388 OA
ATOM      7  H   UNL     1       0.711  28.997  12.432  1.00  0.00     0.211 HD
ENDBRANCH   2   6
ENDBRANCH   1   2
BRANCH   1   8
ATOM      8  C   UNL     1       2.260  27.609  12.145  1.00  0.00     0.171 C 
BRANCH   8   9
ATOM      9  C   UNL     1       3.512  27.204  11.339  1.00  0.00     0.190 C 
BRANCH   9  10
ATOM     10  O   UNL     1       3.926  25.911  11.690  1.00  0.00    -0.394 OA
ATOM     11  H   UNL     1       4.754  26.015  12.228  1.00  0.00     0.210 HD
ENDBRANCH   9  10
ENDBRANCH   8   9
BRANCH   8  12
ATOM     12  O   UNL     1       1.348  26.539  12.182  1.00  0.00    -0.388 OA
ATOM     13  H   UNL     1       1.836  25.740  12.512  1.00  0.00     0.211 HD
ENDBRANCH   8  12
ENDBRANCH   1   8
BRANCH   1  14
ATOM     14  O   UNL     1       2.727  26.954  14.437  1.00  0.00    -0.388 OA
ATOM     15  H   UNL     1       3.440  26.373  14.062  1.00  0.00     0.211 HD
ENDBRANCH   1  14
TORSDOF 9
ENDMDL
MODEL 2
REMARK VINA RESULT:    -4.148      1.856      4.117
REMARK INTER + INTRA:          -6.388
REMARK INTER:                  -5.806
REMARK INTRA:                  -0.582
REMARK UNBOUND:                -0.663
REMARK SMILES OC[C@@H](O)[C@H](O)[C@@H](O)CO
REMARK SMILES IDX 5 1 7 2 9 3 10 4 8 6 3 8 2 9 1 10 4 12 6 14
REMARK H PARENT 10 5 8 7 1 11 4 13 6 15
REMARK Flexibility Score: inf
ROOT
ATOM      1  C   UNL     1       2.253  27.178  12.268  1.00  0.00     0.176 C 
ENDROOT
BRANCH   1   2
ATOM      2  C   UNL     1       2.741  26.110  11.255  1.00  0.00     0.171 C 
BRANCH   2   3
ATOM      3  C   UNL     1       1.751  24.934  11.172  1.00  0.00     0.190 C 
BRANCH   3   4
ATOM      4  O   UNL     1       0.540  25.264  11.798  1.00  0.00    -0.394 OA
ATOM      5  H   UNL     1      -0.113  24.561  11.544  1.00  0.00     0.210 HD
ENDBRANCH   3   4
ENDBRANCH   2   3
BRANCH   2   6
ATOM      6  O   UNL     1       4.010  25.637  11.629  1.00  0.00    -0.388 OA
ATOM      7  H   UNL     1       4.578  26.434  11.800  1.00  0.00     0.211 HD
ENDBRANCH   2   6
ENDBRANCH   1   2
BRANCH   1   8
ATOM      8  C   UNL     1       2.704  28.622  11.910  1.00  0.00     0.171 C 
BRANCH   8   9
ATOM      9  C   UNL     1       1.803  29.704  12.541  1.00  0.00     0.190 C 
BRANCH   9  10
ATOM     10  O   UNL     1       0.728  29.113  13.220  1.00  0.00    -0.394 OA
ATOM     11  H   UNL     1      -0.049  29.722  13.104  1.00  0.00     0.210 HD
ENDBRANCH   9  10
ENDBRANCH   8   9
BRANCH   8  12
ATOM     12  O   UNL     1       4.040  28.822  12.303  1.00  0.00    -0.388 OA
ATOM     13  H   UNL     1       4.278  29.761  12.087  1.00  0.00     0.211 HD
ENDBRANCH   8  12
ENDBRANCH   1   8
BRANCH   1  14
ATOM     14  O   UNL     1       2.671  26.852  13.572  1.00  0.00    -0.388 OA
ATOM     15  H   UNL     1       2.891  27.701  14.039  1.00  0.00     0.211 HD
ENDBRANCH   1  14
TORSDOF 9
ENDMDL
MODEL 3
REMARK VINA RESULT:    -4.086      4.011      5.454
REMARK INTER + INTRA:          -6.302
REMARK INTER:                  -5.595
REMARK INTRA:                  -0.708
REMARK UNBOUND:                -0.663
REMARK SMILES OC[C@@H](O)[C@H](O)[C@@H](O)CO
REMARK SMILES IDX 5 1 7 2 9 3 10 4 8 6 3 8 2 9 1 10 4 12 6 14
REMARK H PARENT 10 5 8 7 1 11 4 13 6 15
REMARK Flexibility Score: inf
ROOT
ATOM      1  C   UNL     1       3.103  24.967   9.684  1.00  0.00     0.176 C 
ENDROOT
BRANCH   1   2
ATOM      2  C   UNL     1       4.492  25.647   9.799  1.00  0.00     0.171 C 
BRANCH   2   3
ATOM      3  C   UNL     1       5.598  24.606  10.051  1.00  0.00     0.190 C 
BRANCH   3   4
ATOM      4  O   UNL     1       5.660  24.274  11.412  1.00  0.00    -0.394 OA
ATOM      5  H   UNL     1       6.034  25.064  11.881  1.00  0.00     0.210 HD
ENDBRANCH   3   4
ENDBRANCH   2   3
BRANCH   2   6
ATOM      6  O   UNL     1       4.480  26.590  10.840  1.00  0.00    -0.388 OA
ATOM      7  H   UNL     1       3.606  26.502  11.302  1.00  0.00     0.211 HD
ENDBRANCH   2   6
ENDBRANCH   1   2
BRANCH   1   8
ATOM      8  C   UNL     1       2.161  25.280  10.880  1.00  0.00     0.171 C 
BRANCH   8   9
ATOM      9  C   UNL     1       0.746  24.692  10.697  1.00  0.00     0.190 C 
BRANCH   9  10
ATOM     10  O   UNL     1      -0.042  24.945  11.829  1.00  0.00    -0.394 OA
ATOM     11  H   UNL     1      -0.879  25.369  11.504  1.00  0.00     0.210 HD
ENDBRANCH   9  10
ENDBRANCH   8   9
BRANCH   8  12
ATOM     12  O   UNL     1       2.725  24.803  12.078  1.00  0.00    -0.388 OA
ATOM     13  H   UNL     1       2.978  23.854  11.932  1.00  0.00     0.211 HD
ENDBRANCH   8  12
ENDBRANCH   1   8
BRANCH   1  14
ATOM     14  O   UNL     1       3.244  23.574   9.533  1.00  0.00    -0.388 OA
ATOM     15  H   UNL     1       2.891  23.331   8.638  1.00  0.00     0.211 HD
ENDBRANCH   1  14
TORSDOF 9
ENDMDL
MODEL 4
REMARK VINA RESULT:    -4.070      1.679      4.417
REMARK INTER + INTRA:          -6.280
REMARK INTER:                  -5.937
REMARK INTRA:                  -0.343
REMARK UNBOUND:                -0.663
REMARK SMILES OC[C@@H](O)[C@H](O)[C@@H](O)CO
REMARK SMILES IDX 5 1 7 2 9 3 10 4 8 6 3 8 2 9 1 10 4 12 6 14
REMARK H PARENT 10 5 8 7 1 11 4 13 6 15
REMARK Flexibility Score: inf
ROOT
ATOM      1  C   UNL     1       2.452  26.614  11.759  1.00  0.00     0.176 C 
ENDROOT
BRANCH   1   2
ATOM      2  C   UNL     1       3.480  26.508  10.604  1.00  0.00     0.171 C 
BRANCH   2   3
ATOM      3  C   UNL     1       3.963  25.057  10.425  1.00  0.00     0.190 C 
BRANCH   3   4
ATOM      4  O   UNL     1       4.958  24.751  11.365  1.00  0.00    -0.394 OA
ATOM      5  H   UNL     1       5.506  25.570  11.477  1.00  0.00     0.210 HD
ENDBRANCH   3   4
ENDBRANCH   2   3
BRANCH   2   6
ATOM      6  O   UNL     1       4.579  27.347  10.859  1.00  0.00    -0.388 OA
ATOM      7  H   UNL     1       4.735  27.329  11.839  1.00  0.00     0.211 HD
ENDBRANCH   2   6
ENDBRANCH   1   2
BRANCH   1   8
ATOM      8  C   UNL     1       2.810  27.705  12.807  1.00  0.00     0.171 C 
BRANCH   8   9
ATOM      9  C   UNL     1       1.978  28.993  12.639  1.00  0.00     0.190 C 
BRANCH   9  10
ATOM     10  O   UNL     1       0.732  28.859  13.269  1.00  0.00    -0.394 OA
ATOM     11  H   UNL     1       0.067  28.693  12.549  1.00  0.00     0.210 HD
ENDBRANCH   9  10
ENDBRANCH   8   9
BRANCH   8  12
ATOM     12  O   UNL     1       2.647  27.196  14.109  1.00  0.00    -0.388 OA
ATOM     13  H   UNL     1       3.444  27.462  14.636  1.00  0.00     0.211 HD
ENDBRANCH   8  12
ENDBRANCH   1   8
BRANCH   1  14
ATOM     14  O   UNL     1       2.290  25.369  12.395  1.00  0.00    -0.388 OA
ATOM     15  H   UNL     1       3.141  24.866  12.292  1.00  0.00     0.211 HD
ENDBRANCH   1  14
TORSDOF 9
ENDMDL
MODEL 5
REMARK VINA RESULT:    -4.011      2.070      4.534
REMARK INTER + INTRA:          -6.198
REMARK INTER:                  -5.954
REMARK INTRA:                  -0.244
REMARK UNBOUND:                -0.663
REMARK SMILES OC[C@@H](O)[C@H](O)[C@@H](O)CO
REMARK SMILES IDX 5 1 7 2 9 3 10 4 8 6 3 8 2 9 1 10 4 12 6 14
REMARK H PARENT 10 5 8 7 1 11 4 13 6 15
REMARK Flexibility Score: inf
ROOT
ATOM      1  C   UNL     1       2.956  25.667  11.484  1.00  0.00     0.176 C 
ENDROOT
BRANCH   1   2
ATOM      2  C   UNL     1       2.128  25.029  10.338  1.00  0.00     0.171 C 
BRANCH   2   3
ATOM      3  C   UNL     1       0.849  24.368  10.882  1.00  0.00     0.190 C 
BRANCH   3   4
ATOM      4  O   UNL     1       0.142  25.263  11.699  1.00  0.00    -0.394 OA
ATOM      5  H   UNL     1      -0.669  24.783  12.011  1.00  0.00     0.210 HD
ENDBRANCH   3   4
ENDBRANCH   2   3
BRANCH   2   6
ATOM      6  O   UNL     1       2.904  24.074   9.659  1.00  0.00    -0.388 OA
ATOM      7  H   UNL     1       2.353  23.252   9.587  1.00  0.00     0.211 HD
ENDBRANCH   2   6
ENDBRANCH   1   2
BRANCH   1   8
ATOM      8  C   UNL     1       2.981  27.221  11.437  1.00  0.00     0.171 C 
BRANCH   8   9
ATOM      9  C   UNL     1       2.694  27.866  12.809  1.00  0.00     0.190 C 
BRANCH   9  10
ATOM     10  O   UNL     1       2.726  26.898  13.823  1.00  0.00    -0.394 OA
ATOM     11  H   UNL     1       2.409  27.345  14.651  1.00  0.00     0.210 HD
ENDBRANCH   9  10
ENDBRANCH   8   9
BRANCH   8  12
ATOM     12  O   UNL     1       4.222  27.669  10.948  1.00  0.00    -0.388 OA
ATOM     13  H   UNL     1       4.045  28.219  10.141  1.00  0.00     0.211 HD
ENDBRANCH   8  12
ENDBRANCH   1   8
BRANCH   1  14
ATOM     14  O   UNL     1       4.270  25.163  11.486  1.00  0.00    -0.388 OA
ATOM     15  H   UNL     1       4.217  24.185  11.653  1.00  0.00     0.211 HD
ENDBRANCH   1  14
TORSDOF 9
ENDMDL
MODEL 6
REMARK VINA RESULT:    -3.973      3.148      4.690
REMARK INTER + INTRA:          -6.146
REMARK INTER:                  -5.815
REMARK INTRA:                  -0.331
REMARK UNBOUND:                -0.663
REMARK SMILES OC[C@@H](O)[C@H](O)[C@@H](O)CO
REMARK SMILES IDX 5 1 7 2 9 3 10 4 8 6 3 8 2 9 1 10 4 12 6 14
REMARK H PARENT 10 5 8 7 1 11 4 13 6 15
REMARK Flexibility Score: inf
ROOT
ATOM      1  C   UNL     1       2.262  25.970  11.423  1.00  0.00     0.176 C 
ENDROOT
BRANCH   1   2
ATOM      2  C   UNL     1       1.288  24.770  11.300  1.00  0.00     0.171 C 
BRANCH   2   3
ATOM      3  C   UNL     1       1.235  24.247   9.853  1.00  0.00     0.190 C 
BRANCH   3   4
ATOM      4  O   UNL     1       0.935  22.877   9.835  1.00  0.00    -0.394 OA
ATOM      5  H   UNL     1       0.460  22.700   8.982  1.00  0.00     0.210 HD
ENDBRANCH   3   4
ENDBRANCH   2   3
BRANCH   2   6
ATOM      6  O   UNL     1       0.000  25.152  11.714  1.00  0.00    -0.388 OA
ATOM      7  H   UNL     1      -0.325  24.448  12.335  1.00  0.00     0.211 HD
ENDBRANCH   2   6
ENDBRANCH   1   2
BRANCH   1   8
ATOM      8  C   UNL     1       3.557  25.804  10.579  1.00  0.00     0.171 C 
BRANCH   8   9
ATOM      9  C   UNL     1       4.128  27.151  10.089  1.00  0.00     0.190 C 
BRANCH   9  10
ATOM     10  O   UNL     1       4.306  28.031  11.166  1.00  0.00    -0.394 OA
ATOM     11  H   UNL     1       3.613  27.798  11.839  1.00  0.00     0.210 HD
ENDBRANCH   9  10
ENDBRANCH   8   9
BRANCH   8  12
ATOM     12  O   UNL     1       4.532  25.113  11.322  1.00  0.00    -0.388 OA
ATOM     13  H   UNL     1       4.100  24.790  12.155  1.00  0.00     0.211 HD
ENDBRANCH   8  12
ENDBRANCH   1   8
BRANCH   1  14
ATOM     14  O   UNL     1       2.591  26.205  12.771  1.00  0.00    -0.388 OA
ATOM     15  H   UNL     1       3.546  25.962  12.894  1.00  0.00     0.211 HD
ENDBRANCH   1  14
TORSDOF 9
ENDMDL
MODEL 7
REMARK VINA RESULT:    -3.912      3.438      4.577
REMARK INTER + INTRA:          -6.062
REMARK INTER:                  -5.772
REMARK INTRA:                  -0.289
REMARK UNBOUND:                -0.663
REMARK SMILES OC[C@@H](O)[C@H](O)[C@@H](O)CO
REMARK SMILES IDX 5 1 7 2 9 3 10 4 8 6 3 8 2 9 1 10 4 12 6 14
REMARK H PARENT 10 5 8 7 1 11 4 13 6 15
REMARK Flexibility Score: inf
ROOT
ATOM      1  C   UNL     1       3.672  25.722  10.580  1.00  0.00     0.176 C 
ENDROOT
BRANCH   1   2
ATOM      2  C   UNL     1       2.626  25.184  11.591  1.00  0.00     0.171 C 
BRANCH   2   3
ATOM      3  C   UNL     1       1.275  24.920  10.902  1.00  0.00     0.190 C 
BRANCH   3   4
ATOM      4  O   UNL     1       0.228  24.977  11.833  1.00  0.00    -0.394 OA
ATOM      5  H   UNL     1       0.532  25.574  12.567  1.00  0.00     0.210 HD
ENDBRANCH   3   4
ENDBRANCH   2   3
BRANCH   2   6
ATOM      6  O   UNL     1       2.453  26.105  12.639  1.00  0.00    -0.388 OA
ATOM      7  H   UNL     1       3.334  26.537  12.794  1.00  0.00     0.211 HD
ENDBRANCH   2   6
ENDBRANCH   1   2
BRANCH   1   8
ATOM      8  C   UNL     1       4.814  24.712  10.275  1.00  0.00     0.171 C 
BRANCH   8   9
ATOM      9  C   UNL     1       5.836  25.255   9.255  1.00  0.00     0.190 C 
BRANCH   9  10
ATOM     10  O   UNL     1       6.819  26.017   9.903  1.00  0.00    -0.394 OA
ATOM     11  H   UNL     1       6.396  26.388  10.722  1.00  0.00     0.210 HD
ENDBRANCH   9  10
ENDBRANCH   8   9
BRANCH   8  12
ATOM     12  O   UNL     1       5.471  24.352  11.466  1.00  0.00    -0.388 OA
ATOM     13  H   UNL     1       6.178  25.028  11.634  1.00  0.00     0.211 HD
ENDBRANCH   8  12
ENDBRANCH   1   8
BRANCH   1  14
ATOM     14  O   UNL     1       4.213  26.942  11.029  1.00  0.00    -0.388 OA
ATOM     15  H   UNL     1       3.628  27.671  10.695  1.00  0.00     0.211 HD
ENDBRANCH   1  14
TORSDOF 9
ENDMDL
MODEL 8
REMARK VINA RESULT:    -3.892      2.081      3.372
REMARK INTER + INTRA:          -6.034
REMARK INTER:                  -5.695
REMARK INTRA:                  -0.339
REMARK UNBOUND:                -0.663
REMARK SMILES OC[C@@H](O)[C@H](O)[C@@H](O)CO
REMARK SMILES IDX 5 1 7 2 9 3 10 4 8 6 3 8 2 9 1 10 4 12 6 14
REMARK H PARENT 10 5 8 7 1 11 4 13 6 15
REMARK Flexibility Score: inf
ROOT
ATOM      1  C   UNL     1       2.754  26.837  11.454  1.00  0.00     0.176 C 
ENDROOT
BRANCH   1   2
ATOM      2  C   UNL     1       2.321  27.620  12.720  1.00  0.00     0.171 C 
BRANCH   2   3
ATOM      3  C   UNL     1       2.919  29.038  12.724  1.00  0.00     0.190 C 
BRANCH   3   4
ATOM      4  O   UNL     1       2.843  29.609  11.445  1.00  0.00    -0.394 OA
ATOM      5  H   UNL     1       2.328  28.975  10.881  1.00  0.00     0.210 HD
ENDBRANCH   3   4
ENDBRANCH   2   3
BRANCH   2   6
ATOM      6  O   UNL     1       2.727  26.929  13.874  1.00  0.00    -0.388 OA
ATOM      7  H   UNL     1       2.870  25.983  13.611  1.00  0.00     0.211 HD
ENDBRANCH   2   6
ENDBRANCH   1   2
BRANCH   1   8
ATOM      8  C   UNL     1       2.424  25.319  11.522  1.00  0.00     0.171 C 
BRANCH   8   9
ATOM      9  C   UNL     1       1.066  24.972  10.877  1.00  0.00     0.190 C 
BRANCH   9  10
ATOM     10  O   UNL     1       0.043  25.011  11.835  1.00  0.00    -0.394 OA
ATOM     11  H   UNL     1       0.034  25.934  12.203  1.00  0.00     0.210 HD
ENDBRANCH   9  10
ENDBRANCH   8   9
BRANCH   8  12
ATOM     12  O   UNL     1       3.449  24.574  10.910  1.00  0.00    -0.388 OA
ATOM     13  H   UNL     1       4.218  24.550  11.538  1.00  0.00     0.211 HD
ENDBRANCH   8  12
ENDBRANCH   1   8
BRANCH   1  14
ATOM     14  O   UNL     1       4.128  27.021  11.203  1.00  0.00    -0.388 OA
ATOM     15  H   UNL     1       4.316  27.994  11.264  1.00  0.00     0.211 HD
ENDBRANCH   1  14
TORSDOF 9
ENDMDL
MODEL 9
REMARK VINA RESULT:    -3.863      3.806      4.912
REMARK INTER + INTRA:          -5.994
REMARK INTER:                  -5.039
REMARK INTRA:                  -0.954
REMARK UNBOUND:                -0.663
REMARK SMILES OC[C@@H](O)[C@H](O)[C@@H](O)CO
REMARK SMILES IDX 5 1 7 2 9 3 10 4 8 6 3 8 2 9 1 10 4 12 6 14
REMARK H PARENT 10 5 8 7 1 11 4 13 6 15
REMARK Flexibility Score: inf
ROOT
ATOM      1  C   UNL     1       4.880  26.015   9.520  1.00  0.00     0.176 C 
ENDROOT
BRANCH   1   2
ATOM      2  C   UNL     1       3.726  26.589  10.381  1.00  0.00     0.171 C 
BRANCH   2   3
ATOM      3  C   UNL     1       3.729  28.128  10.355  1.00  0.00     0.190 C 
BRANCH   3   4
ATOM      4  O   UNL     1       4.704  28.633  11.228  1.00  0.00    -0.394 OA
ATOM      5  H   UNL     1       4.239  29.255  11.846  1.00  0.00     0.210 HD
ENDBRANCH   3   4
ENDBRANCH   2   3
BRANCH   2   6
ATOM      6  O   UNL     1       3.844  26.136  11.706  1.00  0.00    -0.388 OA
ATOM      7  H   UNL     1       2.922  26.014  12.054  1.00  0.00     0.211 HD
ENDBRANCH   2   6
ENDBRANCH   1   2
BRANCH   1   8
ATOM      8  C   UNL     1       4.878  24.463   9.438  1.00  0.00     0.171 C 
BRANCH   8   9
ATOM      9  C   UNL     1       6.044  23.821  10.218  1.00  0.00     0.190 C 
BRANCH   9  10
ATOM     10  O   UNL     1       5.975  24.165  11.575  1.00  0.00    -0.394 OA
ATOM     11  H   UNL     1       6.468  23.459  12.072  1.00  0.00     0.210 HD
ENDBRANCH   9  10
ENDBRANCH   8   9
BRANCH   8  12
ATOM     12  O   UNL     1       3.652  23.956   9.907  1.00  0.00    -0.388 OA
ATOM     13  H   UNL     1       3.406  24.472  10.719  1.00  0.00     0.211 HD
ENDBRANCH   8  12
ENDBRANCH   1   8
BRANCH   1  14
ATOM     14  O   UNL     1       6.125  26.472   9.992  1.00  0.00    -0.388 OA
ATOM     15  H   UNL     1       6.665  25.674  10.236  1.00  0.00     0.211 HD
ENDBRANCH   1  14
TORSDOF 9
ENDMDL
