MODEL 1
REMARK VINA RESULT:    -4.360      0.000      0.000
REMARK INTER + INTRA:         -12.722
REMARK INTER:                  -9.459
REMARK INTRA:                  -3.264
REMARK UNBOUND:                -3.264
REMARK SMILES CCCCCCCCCCCCCCCCCCCCCC(=O)[O-]
REMARK SMILES IDX 12 1 11 2 10 3 9 4 8 5 7 6 6 7 5 8 4 9 3 10 2 11 1 12 13 13
REMARK SMILES IDX 14 14 15 15 16 16 17 17 18 18 19 19 20 20 21 21 22 22 23 23
REMARK SMILES IDX 24 24
REMARK H PARENT
REMARK Flexibility Score: inf
ROOT
ATOM      1  C   UNL     1     -38.639  19.067 -30.768  1.00  0.00     0.000 C 
ENDROOT
BRANCH   1   2
ATOM      2  C   UNL     1     -39.002  18.667 -29.330  1.00  0.00     0.000 C 
BRANCH   2   3
ATOM      3  C   UNL     1     -38.082  19.322 -28.284  1.00  0.00     0.000 C 
BRANCH   3   4
ATOM      4  C   UNL     1     -37.287  18.278 -27.471  1.00  0.00    -0.000 C 
BRANCH   4   5
ATOM      5  C   UNL     1     -35.923  18.782 -26.970  1.00  0.00    -0.000 C 
BRANCH   5   6
ATOM      6  C   UNL     1     -34.995  19.235 -28.109  1.00  0.00    -0.000 C 
BRANCH   6   7
ATOM      7  C   UNL     1     -34.332  18.059 -28.853  1.00  0.00    -0.000 C 
BRANCH   7   8
ATOM      8  C   UNL     1     -34.999  17.655 -30.185  1.00  0.00    -0.000 C 
BRANCH   8   9
ATOM      9  C   UNL     1     -35.358  16.163 -30.313  1.00  0.00    -0.000 C 
BRANCH   9  10
ATOM     10  C   UNL     1     -36.869  15.902 -30.187  1.00  0.00    -0.000 C 
BRANCH  10  11
ATOM     11  C   UNL     1     -37.217  15.099 -28.921  1.00  0.00    -0.003 C 
ATOM     12  C   UNL     1     -37.300  13.595 -29.185  1.00  0.00     0.004 C 
ENDBRANCH  10  11
ENDBRANCH   9  10
ENDBRANCH   8   9
ENDBRANCH   7   8
ENDBRANCH   6   7
ENDBRANCH   5   6
ENDBRANCH   4   5
ENDBRANCH   3   4
ENDBRANCH   2   3
ENDBRANCH   1   2
BRANCH   1  13
ATOM     13  C   UNL     1     -37.273  19.761 -30.864  1.00  0.00     0.000 C 
BRANCH  13  14
ATOM     14  C   UNL     1     -37.346  20.975 -31.801  1.00  0.00     0.000 C 
BRANCH  14  15
ATOM     15  C   UNL     1     -35.970  21.610 -32.072  1.00  0.00     0.000 C 
BRANCH  15  16
ATOM     16  C   UNL     1     -35.061  21.760 -30.835  1.00  0.00     0.000 C 
BRANCH  16  17
ATOM     17  C   UNL     1     -35.427  22.919 -29.889  1.00  0.00     0.000 C 
BRANCH  17  18
ATOM     18  C   UNL     1     -35.980  22.436 -28.537  1.00  0.00     0.000 C 
BRANCH  18  19
ATOM     19  C   UNL     1     -37.304  23.123 -28.163  1.00  0.00     0.000 C 
BRANCH  19  20
ATOM     20  C   UNL     1     -38.531  22.397 -28.744  1.00  0.00     0.006 C 
BRANCH  20  21
ATOM     21  C   UNL     1     -39.832  23.177 -28.513  1.00  0.00     0.053 C 
BRANCH  21  22
ATOM     22  C   UNL     1     -40.856  22.877 -29.564  1.00  0.00     0.041 C 
ATOM     23  O   UNL     1     -40.583  22.086 -30.506  1.00  0.00    -0.550 OA
ATOM     24  O   UNL     1     -42.099  23.498 -29.525  1.00  0.00    -0.550 OA
ENDBRANCH  21  22
ENDBRANCH  20  21
ENDBRANCH  19  20
ENDBRANCH  18  19
ENDBRANCH  17  18
ENDBRANCH  16  17
ENDBRANCH  15  16
ENDBRANCH  14  15
ENDBRANCH  13  14
ENDBRANCH   1  13
TORSDOF 20
ENDMDL
MODEL 2
REMARK VINA RESULT:    -4.250     14.227     16.878
REMARK INTER + INTRA:         -12.483
REMARK INTER:                  -9.406
REMARK INTRA:                  -3.076
REMARK UNBOUND:                -3.264
REMARK SMILES CCCCCCCCCCCCCCCCCCCCCC(=O)[O-]
REMARK SMILES IDX 12 1 11 2 10 3 9 4 8 5 7 6 6 7 5 8 4 9 3 10 2 11 1 12 13 13
REMARK SMILES IDX 14 14 15 15 16 16 17 17 18 18 19 19 20 20 21 21 22 22 23 23
REMARK SMILES IDX 24 24
REMARK H PARENT
REMARK Flexibility Score: inf
ROOT
ATOM      1  C   UNL     1     -50.827   9.852 -32.029  1.00  0.00     0.000 C 
ENDROOT
BRANCH   1   2
ATOM      2  C   UNL     1     -52.135   9.640 -32.806  1.00  0.00     0.000 C 
BRANCH   2   3
ATOM      3  C   UNL     1     -53.154   8.785 -32.029  1.00  0.00     0.000 C 
BRANCH   3   4
ATOM      4  C   UNL     1     -53.169   7.319 -32.508  1.00  0.00    -0.000 C 
BRANCH   4   5
ATOM      5  C   UNL     1     -52.412   7.085 -33.828  1.00  0.00    -0.000 C 
BRANCH   5   6
ATOM      6  C   UNL     1     -51.332   5.997 -33.715  1.00  0.00    -0.000 C 
BRANCH   6   7
ATOM      7  C   UNL     1     -50.036   6.499 -33.048  1.00  0.00    -0.000 C 
BRANCH   7   8
ATOM      8  C   UNL     1     -49.827   6.054 -31.585  1.00  0.00    -0.000 C 
BRANCH   8   9
ATOM      9  C   UNL     1     -48.606   6.672 -30.879  1.00  0.00    -0.000 C 
BRANCH   9  10
ATOM     10  C   UNL     1     -47.698   7.458 -31.842  1.00  0.00    -0.000 C 
BRANCH  10  11
ATOM     11  C   UNL     1     -47.319   8.842 -31.284  1.00  0.00    -0.003 C 
ATOM     12  C   UNL     1     -47.248   8.859 -29.757  1.00  0.00     0.004 C 
ENDBRANCH  10  11
ENDBRANCH   9  10
ENDBRANCH   8   9
ENDBRANCH   7   8
ENDBRANCH   6   7
ENDBRANCH   5   6
ENDBRANCH   4   5
ENDBRANCH   3   4
ENDBRANCH   2   3
ENDBRANCH   1   2
BRANCH   1  13
ATOM     13  C   UNL     1     -50.970   9.541 -30.531  1.00  0.00     0.000 C 
BRANCH  13  14
ATOM     14  C   UNL     1     -50.962  10.835 -29.706  1.00  0.00     0.000 C 
BRANCH  14  15
ATOM     15  C   UNL     1     -52.373  11.399 -29.457  1.00  0.00     0.000 C 
BRANCH  15  16
ATOM     16  C   UNL     1     -52.556  12.889 -29.810  1.00  0.00     0.000 C 
BRANCH  16  17
ATOM     17  C   UNL     1     -51.959  13.320 -31.163  1.00  0.00     0.000 C 
BRANCH  17  18
ATOM     18  C   UNL     1     -50.794  14.315 -31.013  1.00  0.00     0.000 C 
BRANCH  18  19
ATOM     19  C   UNL     1     -50.889  15.487 -32.005  1.00  0.00     0.000 C 
BRANCH  19  20
ATOM     20  C   UNL     1     -51.175  16.829 -31.308  1.00  0.00     0.006 C 
BRANCH  20  21
ATOM     21  C   UNL     1     -52.615  16.920 -30.787  1.00  0.00     0.053 C 
BRANCH  21  22
ATOM     22  C   UNL     1     -52.660  17.128 -29.304  1.00  0.00     0.041 C 
ATOM     23  O   UNL     1     -52.644  18.295 -28.828  1.00  0.00    -0.550 OA
ATOM     24  O   UNL     1     -52.682  16.035 -28.446  1.00  0.00    -0.550 OA
ENDBRANCH  21  22
ENDBRANCH  20  21
ENDBRANCH  19  20
ENDBRANCH  18  19
ENDBRANCH  17  18
ENDBRANCH  16  17
ENDBRANCH  15  16
ENDBRANCH  14  15
ENDBRANCH  13  14
ENDBRANCH   1  13
TORSDOF 20
ENDMDL
MODEL 3
REMARK VINA RESULT:    -4.235     14.046     16.230
REMARK INTER + INTRA:         -12.451
REMARK INTER:                  -9.644
REMARK INTRA:                  -2.806
REMARK UNBOUND:                -3.264
REMARK SMILES CCCCCCCCCCCCCCCCCCCCCC(=O)[O-]
REMARK SMILES IDX 12 1 11 2 10 3 9 4 8 5 7 6 6 7 5 8 4 9 3 10 2 11 1 12 13 13
REMARK SMILES IDX 14 14 15 15 16 16 17 17 18 18 19 19 20 20 21 21 22 22 23 23
REMARK SMILES IDX 24 24
REMARK H PARENT
REMARK Flexibility Score: inf
ROOT
ATOM      1  C   UNL     1     -47.378   9.629 -29.778  1.00  0.00     0.000 C 
ENDROOT
BRANCH   1   2
ATOM      2  C   UNL     1     -47.002   8.193 -29.383  1.00  0.00     0.000 C 
BRANCH   2   3
ATOM      3  C   UNL     1     -48.172   7.206 -29.553  1.00  0.00     0.000 C 
BRANCH   3   4
ATOM      4  C   UNL     1     -47.732   5.892 -30.231  1.00  0.00    -0.000 C 
BRANCH   4   5
ATOM      5  C   UNL     1     -47.517   6.014 -31.750  1.00  0.00    -0.000 C 
BRANCH   5   6
ATOM      6  C   UNL     1     -48.693   6.694 -32.469  1.00  0.00    -0.000 C 
BRANCH   6   7
ATOM      7  C   UNL     1     -48.294   8.009 -33.169  1.00  0.00    -0.000 C 
BRANCH   7   8
ATOM      8  C   UNL     1     -49.276   9.185 -32.980  1.00  0.00    -0.000 C 
BRANCH   8   9
ATOM      9  C   UNL     1     -50.542   8.859 -32.167  1.00  0.00    -0.000 C 
BRANCH   9  10
ATOM     10  C   UNL     1     -51.834   9.019 -32.987  1.00  0.00    -0.000 C 
BRANCH  10  11
ATOM     11  C   UNL     1     -53.097   8.845 -32.125  1.00  0.00    -0.003 C 
ATOM     12  C   UNL     1     -52.792   8.237 -30.756  1.00  0.00     0.004 C 
ENDBRANCH  10  11
ENDBRANCH   9  10
ENDBRANCH   8   9
ENDBRANCH   7   8
ENDBRANCH   6   7
ENDBRANCH   5   6
ENDBRANCH   4   5
ENDBRANCH   3   4
ENDBRANCH   2   3
ENDBRANCH   1   2
BRANCH   1  13
ATOM     13  C   UNL     1     -48.792  10.018 -29.322  1.00  0.00     0.000 C 
BRANCH  13  14
ATOM     14  C   UNL     1     -48.768  11.346 -28.554  1.00  0.00     0.000 C 
BRANCH  14  15
ATOM     15  C   UNL     1     -49.486  12.487 -29.298  1.00  0.00     0.000 C 
BRANCH  15  16
ATOM     16  C   UNL     1     -50.349  12.045 -30.498  1.00  0.00     0.000 C 
BRANCH  16  17
ATOM     17  C   UNL     1     -51.855  11.910 -30.208  1.00  0.00     0.000 C 
BRANCH  17  18
ATOM     18  C   UNL     1     -52.425  13.112 -29.435  1.00  0.00     0.000 C 
BRANCH  18  19
ATOM     19  C   UNL     1     -53.206  14.079 -30.341  1.00  0.00     0.000 C 
BRANCH  19  20
ATOM     20  C   UNL     1     -53.113  15.540 -29.866  1.00  0.00     0.006 C 
BRANCH  20  21
ATOM     21  C   UNL     1     -52.809  16.508 -31.018  1.00  0.00     0.053 C 
BRANCH  21  22
ATOM     22  C   UNL     1     -51.345  16.814 -31.117  1.00  0.00     0.041 C 
ATOM     23  O   UNL     1     -50.887  17.881 -30.629  1.00  0.00    -0.550 OA
ATOM     24  O   UNL     1     -50.493  15.938 -31.779  1.00  0.00    -0.550 OA
ENDBRANCH  21  22
ENDBRANCH  20  21
ENDBRANCH  19  20
ENDBRANCH  18  19
ENDBRANCH  17  18
ENDBRANCH  16  17
ENDBRANCH  15  16
ENDBRANCH  14  15
ENDBRANCH  13  14
ENDBRANCH   1  13
TORSDOF 20
ENDMDL
MODEL 4
REMARK VINA RESULT:    -4.219     13.967     16.069
REMARK INTER + INTRA:         -12.416
REMARK INTER:                  -9.387
REMARK INTRA:                  -3.029
REMARK UNBOUND:                -3.264
REMARK SMILES CCCCCCCCCCCCCCCCCCCCCC(=O)[O-]
REMARK SMILES IDX 12 1 11 2 10 3 9 4 8 5 7 6 6 7 5 8 4 9 3 10 2 11 1 12 13 13
REMARK SMILES IDX 14 14 15 15 16 16 17 17 18 18 19 19 20 20 21 21 22 22 23 23
REMARK SMILES IDX 24 24
REMARK H PARENT
REMARK Flexibility Score: inf
ROOT
ATOM      1  C   UNL     1     -47.693  10.640 -29.405  1.00  0.00     0.000 C 
ENDROOT
BRANCH   1   2
ATOM      2  C   UNL     1     -47.227   9.349 -30.093  1.00  0.00     0.000 C 
BRANCH   2   3
ATOM      3  C   UNL     1     -47.542   8.089 -29.265  1.00  0.00     0.000 C 
BRANCH   3   4
ATOM      4  C   UNL     1     -47.718   6.839 -30.152  1.00  0.00    -0.000 C 
BRANCH   4   5
ATOM      5  C   UNL     1     -49.029   6.073 -29.900  1.00  0.00    -0.000 C 
BRANCH   5   6
ATOM      6  C   UNL     1     -50.216   7.001 -29.595  1.00  0.00    -0.000 C 
BRANCH   6   7
ATOM      7  C   UNL     1     -51.282   7.005 -30.709  1.00  0.00    -0.000 C 
BRANCH   7   8
ATOM      8  C   UNL     1     -50.845   6.372 -32.048  1.00  0.00    -0.000 C 
BRANCH   8   9
ATOM      9  C   UNL     1     -50.590   7.370 -33.193  1.00  0.00    -0.000 C 
BRANCH   9  10
ATOM     10  C   UNL     1     -49.295   8.178 -32.999  1.00  0.00    -0.000 C 
BRANCH  10  11
ATOM     11  C   UNL     1     -49.558   9.694 -32.945  1.00  0.00    -0.003 C 
ATOM     12  C   UNL     1     -51.039  10.025 -32.763  1.00  0.00     0.004 C 
ENDBRANCH  10  11
ENDBRANCH   9  10
ENDBRANCH   8   9
ENDBRANCH   7   8
ENDBRANCH   6   7
ENDBRANCH   5   6
ENDBRANCH   4   5
ENDBRANCH   3   4
ENDBRANCH   2   3
ENDBRANCH   1   2
BRANCH   1  13
ATOM     13  C   UNL     1     -49.088  10.507 -28.775  1.00  0.00     0.000 C 
BRANCH  13  14
ATOM     14  C   UNL     1     -50.092  11.428 -29.480  1.00  0.00     0.000 C 
BRANCH  14  15
ATOM     15  C   UNL     1     -49.520  12.826 -29.778  1.00  0.00     0.000 C 
BRANCH  15  16
ATOM     16  C   UNL     1     -50.386  13.706 -30.703  1.00  0.00     0.000 C 
BRANCH  16  17
ATOM     17  C   UNL     1     -51.818  13.193 -30.943  1.00  0.00     0.000 C 
BRANCH  17  18
ATOM     18  C   UNL     1     -52.896  14.172 -30.445  1.00  0.00     0.000 C 
BRANCH  18  19
ATOM     19  C   UNL     1     -52.508  14.851 -29.120  1.00  0.00     0.000 C 
BRANCH  19  20
ATOM     20  C   UNL     1     -52.841  16.354 -29.107  1.00  0.00     0.006 C 
BRANCH  20  21
ATOM     21  C   UNL     1     -53.122  16.901 -30.513  1.00  0.00     0.053 C 
BRANCH  21  22
ATOM     22  C   UNL     1     -52.178  18.006 -30.880  1.00  0.00     0.041 C 
ATOM     23  O   UNL     1     -50.960  17.926 -30.572  1.00  0.00    -0.550 OA
ATOM     24  O   UNL     1     -52.652  19.139 -31.529  1.00  0.00    -0.550 OA
ENDBRANCH  21  22
ENDBRANCH  20  21
ENDBRANCH  19  20
ENDBRANCH  18  19
ENDBRANCH  17  18
ENDBRANCH  16  17
ENDBRANCH  15  16
ENDBRANCH  14  15
ENDBRANCH  13  14
ENDBRANCH   1  13
TORSDOF 20
ENDMDL
MODEL 5
REMARK VINA RESULT:    -4.197      2.541      6.142
REMARK INTER + INTRA:         -12.367
REMARK INTER:                  -8.814
REMARK INTRA:                  -3.553
REMARK UNBOUND:                -3.264
REMARK SMILES CCCCCCCCCCCCCCCCCCCCCC(=O)[O-]
REMARK SMILES IDX 12 1 11 2 10 3 9 4 8 5 7 6 6 7 5 8 4 9 3 10 2 11 1 12 13 13
REMARK SMILES IDX 14 14 15 15 16 16 17 17 18 18 19 19 20 20 21 21 22 22 23 23
REMARK SMILES IDX 24 24
REMARK H PARENT
REMARK Flexibility Score: inf
ROOT
ATOM      1  C   UNL     1     -33.947  22.161 -27.366  1.00  0.00     0.000 C 
ENDROOT
BRANCH   1   2
ATOM      2  C   UNL     1     -33.913  21.012 -26.347  1.00  0.00     0.000 C 
BRANCH   2   3
ATOM      3  C   UNL     1     -34.126  19.635 -27.000  1.00  0.00     0.000 C 
BRANCH   3   4
ATOM      4  C   UNL     1     -35.513  19.042 -26.668  1.00  0.00    -0.000 C 
BRANCH   4   5
ATOM      5  C   UNL     1     -36.664  19.648 -27.490  1.00  0.00    -0.000 C 
BRANCH   5   6
ATOM      6  C   UNL     1     -37.828  18.667 -27.706  1.00  0.00    -0.000 C 
BRANCH   6   7
ATOM      7  C   UNL     1     -38.770  19.090 -28.850  1.00  0.00    -0.000 C 
BRANCH   7   8
ATOM      8  C   UNL     1     -39.629  20.343 -28.574  1.00  0.00    -0.000 C 
BRANCH   8   9
ATOM      9  C   UNL     1     -39.412  21.515 -29.549  1.00  0.00    -0.000 C 
BRANCH   9  10
ATOM     10  C   UNL     1     -40.306  22.726 -29.231  1.00  0.00    -0.000 C 
BRANCH  10  11
ATOM     11  C   UNL     1     -41.428  22.911 -30.268  1.00  0.00    -0.003 C 
ATOM     12  C   UNL     1     -42.651  23.620 -29.688  1.00  0.00     0.004 C 
ENDBRANCH  10  11
ENDBRANCH   9  10
ENDBRANCH   8   9
ENDBRANCH   7   8
ENDBRANCH   6   7
ENDBRANCH   5   6
ENDBRANCH   4   5
ENDBRANCH   3   4
ENDBRANCH   2   3
ENDBRANCH   1   2
BRANCH   1  13
ATOM     13  C   UNL     1     -35.177  23.065 -27.200  1.00  0.00     0.000 C 
BRANCH  13  14
ATOM     14  C   UNL     1     -35.984  23.129 -28.504  1.00  0.00     0.000 C 
BRANCH  14  15
ATOM     15  C   UNL     1     -35.191  22.635 -29.728  1.00  0.00     0.000 C 
BRANCH  15  16
ATOM     16  C   UNL     1     -36.017  21.866 -30.779  1.00  0.00     0.000 C 
BRANCH  16  17
ATOM     17  C   UNL     1     -35.880  20.333 -30.725  1.00  0.00     0.000 C 
BRANCH  17  18
ATOM     18  C   UNL     1     -34.428  19.869 -30.512  1.00  0.00     0.000 C 
BRANCH  18  19
ATOM     19  C   UNL     1     -34.319  18.348 -30.313  1.00  0.00     0.000 C 
BRANCH  19  20
ATOM     20  C   UNL     1     -35.681  17.638 -30.424  1.00  0.00     0.006 C 
BRANCH  20  21
ATOM     21  C   UNL     1     -35.736  16.350 -29.592  1.00  0.00     0.053 C 
BRANCH  21  22
ATOM     22  C   UNL     1     -37.058  15.658 -29.723  1.00  0.00     0.041 C 
ATOM     23  O   UNL     1     -38.017  16.230 -30.307  1.00  0.00    -0.550 OA
ATOM     24  O   UNL     1     -37.244  14.398 -29.168  1.00  0.00    -0.550 OA
ENDBRANCH  21  22
ENDBRANCH  20  21
ENDBRANCH  19  20
ENDBRANCH  18  19
ENDBRANCH  17  18
ENDBRANCH  16  17
ENDBRANCH  15  16
ENDBRANCH  14  15
ENDBRANCH  13  14
ENDBRANCH   1  13
TORSDOF 20
ENDMDL
MODEL 6
REMARK VINA RESULT:    -4.157     14.505     17.503
REMARK INTER + INTRA:         -12.282
REMARK INTER:                  -8.960
REMARK INTRA:                  -3.321
REMARK UNBOUND:                -3.264
REMARK SMILES CCCCCCCCCCCCCCCCCCCCCC(=O)[O-]
REMARK SMILES IDX 12 1 11 2 10 3 9 4 8 5 7 6 6 7 5 8 4 9 3 10 2 11 1 12 13 13
REMARK SMILES IDX 14 14 15 15 16 16 17 17 18 18 19 19 20 20 21 21 22 22 23 23
REMARK SMILES IDX 24 24
REMARK H PARENT
REMARK Flexibility Score: inf
ROOT
ATOM      1  C   UNL     1     -49.112   7.884 -33.069  1.00  0.00     0.000 C 
ENDROOT
BRANCH   1   2
ATOM      2  C   UNL     1     -50.037   7.013 -32.206  1.00  0.00     0.000 C 
BRANCH   2   3
ATOM      3  C   UNL     1     -51.027   6.186 -33.047  1.00  0.00     0.000 C 
BRANCH   3   4
ATOM      4  C   UNL     1     -51.969   7.079 -33.882  1.00  0.00    -0.000 C 
BRANCH   4   5
ATOM      5  C   UNL     1     -53.442   6.633 -33.851  1.00  0.00    -0.000 C 
BRANCH   5   6
ATOM      6  C   UNL     1     -54.001   6.508 -32.425  1.00  0.00    -0.000 C 
BRANCH   6   7
ATOM      7  C   UNL     1     -54.017   7.847 -31.662  1.00  0.00    -0.000 C 
BRANCH   7   8
ATOM      8  C   UNL     1     -53.112   7.911 -30.413  1.00  0.00    -0.000 C 
BRANCH   8   9
ATOM      9  C   UNL     1     -52.384   9.251 -30.199  1.00  0.00    -0.000 C 
BRANCH   9  10
ATOM     10  C   UNL     1     -53.218  10.460 -30.656  1.00  0.00    -0.000 C 
BRANCH  10  11
ATOM     11  C   UNL     1     -52.678  11.083 -31.956  1.00  0.00    -0.003 C 
ATOM     12  C   UNL     1     -51.283  10.570 -32.315  1.00  0.00     0.004 C 
ENDBRANCH  10  11
ENDBRANCH   9  10
ENDBRANCH   8   9
ENDBRANCH   7   8
ENDBRANCH   6   7
ENDBRANCH   5   6
ENDBRANCH   4   5
ENDBRANCH   3   4
ENDBRANCH   2   3
ENDBRANCH   1   2
BRANCH   1  13
ATOM     13  C   UNL     1     -48.071   8.648 -32.238  1.00  0.00     0.000 C 
BRANCH  13  14
ATOM     14  C   UNL     1     -47.571   7.788 -31.070  1.00  0.00     0.000 C 
BRANCH  14  15
ATOM     15  C   UNL     1     -47.447   8.575 -29.753  1.00  0.00     0.000 C 
BRANCH  15  16
ATOM     16  C   UNL     1     -48.716   9.338 -29.321  1.00  0.00     0.000 C 
BRANCH  16  17
ATOM     17  C   UNL     1     -48.545  10.860 -29.168  1.00  0.00     0.000 C 
BRANCH  17  18
ATOM     18  C   UNL     1     -49.886  11.616 -29.165  1.00  0.00     0.000 C 
BRANCH  18  19
ATOM     19  C   UNL     1     -49.756  13.048 -29.711  1.00  0.00     0.000 C 
BRANCH  19  20
ATOM     20  C   UNL     1     -51.118  13.752 -29.851  1.00  0.00     0.006 C 
BRANCH  20  21
ATOM     21  C   UNL     1     -51.262  14.477 -31.196  1.00  0.00     0.053 C 
BRANCH  21  22
ATOM     22  C   UNL     1     -52.054  15.742 -31.065  1.00  0.00     0.041 C 
ATOM     23  O   UNL     1     -51.586  16.829 -31.497  1.00  0.00    -0.550 OA
ATOM     24  O   UNL     1     -53.292  15.728 -30.434  1.00  0.00    -0.550 OA
ENDBRANCH  21  22
ENDBRANCH  20  21
ENDBRANCH  19  20
ENDBRANCH  18  19
ENDBRANCH  17  18
ENDBRANCH  16  17
ENDBRANCH  15  16
ENDBRANCH  14  15
ENDBRANCH  13  14
ENDBRANCH   1  13
TORSDOF 20
ENDMDL
MODEL 7
REMARK VINA RESULT:    -4.126     14.256     17.356
REMARK INTER + INTRA:         -12.215
REMARK INTER:                  -9.505
REMARK INTRA:                  -2.710
REMARK UNBOUND:                -3.264
REMARK SMILES CCCCCCCCCCCCCCCCCCCCCC(=O)[O-]
REMARK SMILES IDX 12 1 11 2 10 3 9 4 8 5 7 6 6 7 5 8 4 9 3 10 2 11 1 12 13 13
REMARK SMILES IDX 14 14 15 15 16 16 17 17 18 18 19 19 20 20 21 21 22 22 23 23
REMARK SMILES IDX 24 24
REMARK H PARENT
REMARK Flexibility Score: inf
ROOT
ATOM      1  C   UNL     1     -49.850  12.230 -29.500  1.00  0.00     0.000 C 
ENDROOT
BRANCH   1   2
ATOM      2  C   UNL     1     -51.215  11.612 -29.161  1.00  0.00     0.000 C 
BRANCH   2   3
ATOM      3  C   UNL     1     -52.358  12.200 -30.008  1.00  0.00     0.000 C 
BRANCH   3   4
ATOM      4  C   UNL     1     -51.879  13.358 -30.909  1.00  0.00    -0.000 C 
BRANCH   4   5
ATOM      5  C   UNL     1     -52.577  14.700 -30.626  1.00  0.00    -0.000 C 
BRANCH   5   6
ATOM      6  C   UNL     1     -53.504  14.647 -29.401  1.00  0.00    -0.000 C 
BRANCH   6   7
ATOM      7  C   UNL     1     -52.931  15.389 -28.178  1.00  0.00    -0.000 C 
BRANCH   7   8
ATOM      8  C   UNL     1     -53.639  16.711 -27.812  1.00  0.00    -0.000 C 
BRANCH   8   9
ATOM      9  C   UNL     1     -52.946  17.989 -28.321  1.00  0.00    -0.000 C 
BRANCH   9  10
ATOM     10  C   UNL     1     -53.693  18.643 -29.496  1.00  0.00    -0.000 C 
BRANCH  10  11
ATOM     11  C   UNL     1     -53.019  18.350 -30.849  1.00  0.00    -0.003 C 
ATOM     12  C   UNL     1     -51.503  18.198 -30.727  1.00  0.00     0.004 C 
ENDBRANCH  10  11
ENDBRANCH   9  10
ENDBRANCH   8   9
ENDBRANCH   7   8
ENDBRANCH   6   7
ENDBRANCH   5   6
ENDBRANCH   4   5
ENDBRANCH   3   4
ENDBRANCH   2   3
ENDBRANCH   1   2
BRANCH   1  13
ATOM     13  C   UNL     1     -48.687  11.529 -28.783  1.00  0.00     0.000 C 
BRANCH  13  14
ATOM     14  C   UNL     1     -48.645  10.038 -29.145  1.00  0.00     0.000 C 
BRANCH  14  15
ATOM     15  C   UNL     1     -47.374   9.641 -29.917  1.00  0.00     0.000 C 
BRANCH  15  16
ATOM     16  C   UNL     1     -47.460   8.303 -30.679  1.00  0.00     0.000 C 
BRANCH  16  17
ATOM     17  C   UNL     1     -47.543   8.425 -32.212  1.00  0.00     0.000 C 
BRANCH  17  18
ATOM     18  C   UNL     1     -48.478   7.381 -32.846  1.00  0.00     0.000 C 
BRANCH  18  19
ATOM     19  C   UNL     1     -49.380   6.691 -31.808  1.00  0.00     0.000 C 
BRANCH  19  20
ATOM     20  C   UNL     1     -50.869   7.031 -32.001  1.00  0.00     0.006 C 
BRANCH  20  21
ATOM     21  C   UNL     1     -51.270   8.321 -31.273  1.00  0.00     0.053 C 
BRANCH  21  22
ATOM     22  C   UNL     1     -51.442   9.466 -32.223  1.00  0.00     0.041 C 
ATOM     23  O   UNL     1     -52.513   9.594 -32.875  1.00  0.00    -0.550 OA
ATOM     24  O   UNL     1     -50.406  10.373 -32.416  1.00  0.00    -0.550 OA
ENDBRANCH  21  22
ENDBRANCH  20  21
ENDBRANCH  19  20
ENDBRANCH  18  19
ENDBRANCH  17  18
ENDBRANCH  16  17
ENDBRANCH  15  16
ENDBRANCH  14  15
ENDBRANCH  13  14
ENDBRANCH   1  13
TORSDOF 20
ENDMDL
MODEL 8
REMARK VINA RESULT:    -4.111     14.355     17.083
REMARK INTER + INTRA:         -12.181
REMARK INTER:                  -9.360
REMARK INTRA:                  -2.821
REMARK UNBOUND:                -3.264
REMARK SMILES CCCCCCCCCCCCCCCCCCCCCC(=O)[O-]
REMARK SMILES IDX 12 1 11 2 10 3 9 4 8 5 7 6 6 7 5 8 4 9 3 10 2 11 1 12 13 13
REMARK SMILES IDX 14 14 15 15 16 16 17 17 18 18 19 19 20 20 21 21 22 22 23 23
REMARK SMILES IDX 24 24
REMARK H PARENT
REMARK Flexibility Score: inf
ROOT
ATOM      1  C   UNL     1     -54.121  13.580 -29.542  1.00  0.00     0.000 C 
ENDROOT
BRANCH   1   2
ATOM      2  C   UNL     1     -53.967  14.090 -28.101  1.00  0.00     0.000 C 
BRANCH   2   3
ATOM      3  C   UNL     1     -52.958  15.248 -27.988  1.00  0.00     0.000 C 
BRANCH   3   4
ATOM      4  C   UNL     1     -53.640  16.628 -28.107  1.00  0.00    -0.000 C 
BRANCH   4   5
ATOM      5  C   UNL     1     -53.532  17.260 -29.506  1.00  0.00    -0.000 C 
BRANCH   5   6
ATOM      6  C   UNL     1     -52.177  17.944 -29.751  1.00  0.00    -0.000 C 
BRANCH   6   7
ATOM      7  C   UNL     1     -51.467  17.440 -31.022  1.00  0.00    -0.000 C 
BRANCH   7   8
ATOM      8  C   UNL     1     -51.673  15.945 -31.349  1.00  0.00    -0.000 C 
BRANCH   8   9
ATOM      9  C   UNL     1     -50.381  15.113 -31.457  1.00  0.00    -0.000 C 
BRANCH   9  10
ATOM     10  C   UNL     1     -50.603  13.625 -31.135  1.00  0.00    -0.000 C 
BRANCH  10  11
ATOM     11  C   UNL     1     -50.401  13.317 -29.640  1.00  0.00    -0.003 C 
ATOM     12  C   UNL     1     -49.732  11.962 -29.407  1.00  0.00     0.004 C 
ENDBRANCH  10  11
ENDBRANCH   9  10
ENDBRANCH   8   9
ENDBRANCH   7   8
ENDBRANCH   6   7
ENDBRANCH   5   6
ENDBRANCH   4   5
ENDBRANCH   3   4
ENDBRANCH   2   3
ENDBRANCH   1   2
BRANCH   1  13
ATOM     13  C   UNL     1     -53.915  12.063 -29.659  1.00  0.00     0.000 C 
BRANCH  13  14
ATOM     14  C   UNL     1     -53.587  11.670 -31.106  1.00  0.00     0.000 C 
BRANCH  14  15
ATOM     15  C   UNL     1     -53.276  10.171 -31.268  1.00  0.00     0.000 C 
BRANCH  15  16
ATOM     16  C   UNL     1     -52.524   9.792 -32.560  1.00  0.00     0.000 C 
BRANCH  16  17
ATOM     17  C   UNL     1     -51.090  10.343 -32.669  1.00  0.00     0.000 C 
BRANCH  17  18
ATOM     18  C   UNL     1     -50.041   9.409 -32.038  1.00  0.00     0.000 C 
BRANCH  18  19
ATOM     19  C   UNL     1     -48.901   9.062 -33.010  1.00  0.00     0.000 C 
BRANCH  19  20
ATOM     20  C   UNL     1     -47.670   8.478 -32.293  1.00  0.00     0.006 C 
BRANCH  20  21
ATOM     21  C   UNL     1     -48.018   7.906 -30.912  1.00  0.00     0.053 C 
BRANCH  21  22
ATOM     22  C   UNL     1     -47.210   8.546 -29.824  1.00  0.00     0.041 C 
ATOM     23  O   UNL     1     -46.998   9.788 -29.840  1.00  0.00    -0.550 OA
ATOM     24  O   UNL     1     -46.661   7.766 -28.813  1.00  0.00    -0.550 OA
ENDBRANCH  21  22
ENDBRANCH  20  21
ENDBRANCH  19  20
ENDBRANCH  18  19
ENDBRANCH  17  18
ENDBRANCH  16  17
ENDBRANCH  15  16
ENDBRANCH  14  15
ENDBRANCH  13  14
ENDBRANCH   1  13
TORSDOF 20
ENDMDL
MODEL 9
REMARK VINA RESULT:    -4.050     14.778     18.324
REMARK INTER + INTRA:         -12.049
REMARK INTER:                  -9.057
REMARK INTRA:                  -2.993
REMARK UNBOUND:                -3.264
REMARK SMILES CCCCCCCCCCCCCCCCCCCCCC(=O)[O-]
REMARK SMILES IDX 12 1 11 2 10 3 9 4 8 5 7 6 6 7 5 8 4 9 3 10 2 11 1 12 13 13
REMARK SMILES IDX 14 14 15 15 16 16 17 17 18 18 19 19 20 20 21 21 22 22 23 23
REMARK SMILES IDX 24 24
REMARK H PARENT
REMARK Flexibility Score: inf
ROOT
ATOM      1  C   UNL     1     -51.072  10.237 -32.378  1.00  0.00     0.000 C 
ENDROOT
BRANCH   1   2
ATOM      2  C   UNL     1     -50.578  10.583 -30.966  1.00  0.00     0.000 C 
BRANCH   2   3
ATOM      3  C   UNL     1     -50.376  12.096 -30.763  1.00  0.00     0.000 C 
BRANCH   3   4
ATOM      4  C   UNL     1     -51.169  12.631 -29.551  1.00  0.00    -0.000 C 
BRANCH   4   5
ATOM      5  C   UNL     1     -52.668  12.841 -29.829  1.00  0.00    -0.000 C 
BRANCH   5   6
ATOM      6  C   UNL     1     -53.452  13.285 -28.583  1.00  0.00    -0.000 C 
BRANCH   6   7
ATOM      7  C   UNL     1     -53.178  14.749 -28.188  1.00  0.00    -0.000 C 
BRANCH   7   8
ATOM      8  C   UNL     1     -53.468  15.799 -29.283  1.00  0.00    -0.000 C 
BRANCH   8   9
ATOM      9  C   UNL     1     -52.632  17.089 -29.192  1.00  0.00    -0.000 C 
BRANCH   9  10
ATOM     10  C   UNL     1     -51.774  17.331 -30.447  1.00  0.00    -0.000 C 
BRANCH  10  11
ATOM     11  C   UNL     1     -51.835  16.148 -31.430  1.00  0.00    -0.003 C 
ATOM     12  C   UNL     1     -50.446  15.650 -31.833  1.00  0.00     0.004 C 
ENDBRANCH  10  11
ENDBRANCH   9  10
ENDBRANCH   8   9
ENDBRANCH   7   8
ENDBRANCH   6   7
ENDBRANCH   5   6
ENDBRANCH   4   5
ENDBRANCH   3   4
ENDBRANCH   2   3
ENDBRANCH   1   2
BRANCH   1  13
ATOM     13  C   UNL     1     -52.596  10.056 -32.446  1.00  0.00     0.000 C 
BRANCH  13  14
ATOM     14  C   UNL     1     -53.117   9.366 -31.179  1.00  0.00     0.000 C 
BRANCH  14  15
ATOM     15  C   UNL     1     -53.284   7.844 -31.347  1.00  0.00     0.000 C 
BRANCH  15  16
ATOM     16  C   UNL     1     -53.706   7.382 -32.757  1.00  0.00     0.000 C 
BRANCH  16  17
ATOM     17  C   UNL     1     -52.879   6.222 -33.341  1.00  0.00     0.000 C 
BRANCH  17  18
ATOM     18  C   UNL     1     -51.478   6.661 -33.803  1.00  0.00     0.000 C 
BRANCH  18  19
ATOM     19  C   UNL     1     -50.354   5.944 -33.036  1.00  0.00     0.000 C 
BRANCH  19  20
ATOM     20  C   UNL     1     -49.783   6.799 -31.889  1.00  0.00     0.006 C 
BRANCH  20  21
ATOM     21  C   UNL     1     -48.253   6.903 -31.947  1.00  0.00     0.053 C 
BRANCH  21  22
ATOM     22  C   UNL     1     -47.802   8.279 -32.333  1.00  0.00     0.041 C 
ATOM     23  O   UNL     1     -48.020   8.713 -33.496  1.00  0.00    -0.550 OA
ATOM     24  O   UNL     1     -47.109   9.067 -31.422  1.00  0.00    -0.550 OA
ENDBRANCH  21  22
ENDBRANCH  20  21
ENDBRANCH  19  20
ENDBRANCH  18  19
ENDBRANCH  17  18
ENDBRANCH  16  17
ENDBRANCH  15  16
ENDBRANCH  14  15
ENDBRANCH  13  14
ENDBRANCH   1  13
TORSDOF 20
ENDMDL
