MODEL 1
REMARK VINA RESULT:    -3.252      0.000      0.000
REMARK INTER + INTRA:          -4.184
REMARK INTER:                  -3.917
REMARK INTRA:                  -0.266
REMARK UNBOUND:                -0.266
REMARK SMILES NC(=O)C[C@H]([NH3+])C(=O)[O-]
REMARK SMILES IDX 4 1 5 2 6 3 7 7 8 8 9 9 2 10 3 11 1 12
REMARK H PARENT 6 4 6 5 6 6 1 13 1 14
REMARK Flexibility Score: inf
ROOT
ATOM      1  C   UNL     1      11.575  -7.917  23.764  1.00  0.00     0.171 C 
ENDROOT
BRANCH   1   2
ATOM      2  C   UNL     1      13.063  -7.516  23.711  1.00  0.00     0.237 C 
BRANCH   2   3
ATOM      3  N   UNL     1      13.876  -8.450  24.500  1.00  0.00    -0.350 N 
ATOM      4  H   UNL     1      14.832  -8.525  24.085  1.00  0.00     0.345 HD
ATOM      5  H   UNL     1      13.436  -9.400  24.519  1.00  0.00     0.345 HD
ATOM      6  H   UNL     1      13.972  -8.096  25.481  1.00  0.00     0.345 HD
ENDBRANCH   2   3
BRANCH   2   7
ATOM      7  C   UNL     1      13.263  -6.106  24.204  1.00  0.00     0.100 C 
ATOM      8  O   UNL     1      14.101  -5.860  25.113  1.00  0.00    -0.544 OA
ATOM      9  O   UNL     1      12.508  -5.071  23.670  1.00  0.00    -0.544 OA
ENDBRANCH   2   7
ENDBRANCH   1   2
BRANCH   1  10
ATOM     10  C   UNL     1      11.353  -9.293  23.205  1.00  0.00     0.223 C 
ATOM     11  O   UNL     1      11.555 -10.304  23.930  1.00  0.00    -0.275 OA
ATOM     12  N   UNL     1      10.951  -9.467  21.846  1.00  0.00    -0.369 N 
ATOM     13  H   UNL     1      10.798  -8.641  21.225  1.00  0.00     0.159 HD
ATOM     14  H   UNL     1      10.812 -10.426  21.457  1.00  0.00     0.159 HD
ENDBRANCH   1  10
TORSDOF 4
ENDMDL
MODEL 2
REMARK VINA RESULT:    -3.105      2.237      4.536
REMARK INTER + INTRA:          -4.006
REMARK INTER:                  -3.719
REMARK INTRA:                  -0.287
REMARK UNBOUND:                -0.266
REMARK SMILES NC(=O)C[C@H]([NH3+])C(=O)[O-]
REMARK SMILES IDX 4 1 5 2 6 3 7 7 8 8 9 9 2 10 3 11 1 12
REMARK H PARENT 6 4 6 5 6 6 1 13 1 14
REMARK Flexibility Score: inf
ROOT
ATOM      1  C   UNL     1      11.331  -8.709  24.168  1.00  0.00     0.171 C 
ENDROOT
BRANCH   1   2
ATOM      2  C   UNL     1      10.922  -9.907  23.288  1.00  0.00     0.237 C 
BRANCH   2   3
ATOM      3  N   UNL     1      10.925  -9.529  21.870  1.00  0.00    -0.350 N 
ATOM      4  H   UNL     1      11.895  -9.601  21.487  1.00  0.00     0.345 HD
ATOM      5  H   UNL     1      10.582  -8.548  21.747  1.00  0.00     0.345 HD
ATOM      6  H   UNL     1      10.310 -10.180  21.327  1.00  0.00     0.345 HD
ENDBRANCH   2   3
BRANCH   2   7
ATOM      7  C   UNL     1       9.565 -10.433  23.684  1.00  0.00     0.100 C 
ATOM      8  O   UNL     1       8.776 -10.885  22.812  1.00  0.00    -0.544 OA
ATOM      9  O   UNL     1       9.171 -10.401  25.015  1.00  0.00    -0.544 OA
ENDBRANCH   2   7
ENDBRANCH   1   2
BRANCH   1  10
ATOM     10  C   UNL     1      12.480  -7.950  23.569  1.00  0.00     0.223 C 
ATOM     11  O   UNL     1      13.501  -8.571  23.170  1.00  0.00    -0.275 OA
ATOM     12  N   UNL     1      12.441  -6.525  23.483  1.00  0.00    -0.369 N 
ATOM     13  H   UNL     1      11.611  -5.993  23.827  1.00  0.00     0.159 HD
ATOM     14  H   UNL     1      13.248  -6.000  23.079  1.00  0.00     0.159 HD
ENDBRANCH   1  10
TORSDOF 4
ENDMDL
MODEL 3
REMARK VINA RESULT:    -2.989      2.067      4.590
REMARK INTER + INTRA:          -3.867
REMARK INTER:                  -3.538
REMARK INTRA:                  -0.329
REMARK UNBOUND:                -0.266
REMARK SMILES NC(=O)C[C@H]([NH3+])C(=O)[O-]
REMARK SMILES IDX 4 1 5 2 6 3 7 7 8 8 9 9 2 10 3 11 1 12
REMARK H PARENT 6 4 6 5 6 6 1 13 1 14
REMARK Flexibility Score: inf
ROOT
ATOM      1  C   UNL     1      11.940  -9.979  23.908  1.00  0.00     0.171 C 
ENDROOT
BRANCH   1   2
ATOM      2  C   UNL     1      10.876 -10.498  22.920  1.00  0.00     0.237 C 
BRANCH   2   3
ATOM      3  N   UNL     1      10.817  -9.641  21.730  1.00  0.00    -0.350 N 
ATOM      4  H   UNL     1       9.864  -9.691  21.305  1.00  0.00     0.345 HD
ATOM      5  H   UNL     1      11.525  -9.943  21.020  1.00  0.00     0.345 HD
ATOM      6  H   UNL     1      11.003  -8.646  21.999  1.00  0.00     0.345 HD
ENDBRANCH   2   3
BRANCH   2   7
ATOM      7  C   UNL     1       9.520 -10.575  23.574  1.00  0.00     0.100 C 
ATOM      8  O   UNL     1       8.530 -11.032  22.942  1.00  0.00    -0.544 OA
ATOM      9  O   UNL     1       9.351 -10.121  24.876  1.00  0.00    -0.544 OA
ENDBRANCH   2   7
ENDBRANCH   1   2
BRANCH   1  10
ATOM     10  C   UNL     1      12.310  -8.551  23.623  1.00  0.00     0.223 C 
ATOM     11  O   UNL     1      11.480  -7.632  23.853  1.00  0.00    -0.275 OA
ATOM     12  N   UNL     1      13.581  -8.231  23.057  1.00  0.00    -0.369 N 
ATOM     13  H   UNL     1      14.273  -8.982  22.841  1.00  0.00     0.159 HD
ATOM     14  H   UNL     1      13.828  -7.239  22.846  1.00  0.00     0.159 HD
ENDBRANCH   1  10
TORSDOF 4
ENDMDL
MODEL 4
REMARK VINA RESULT:    -2.977      8.703      9.803
REMARK INTER + INTRA:          -3.852
REMARK INTER:                  -3.368
REMARK INTRA:                  -0.484
REMARK UNBOUND:                -0.266
REMARK SMILES NC(=O)C[C@H]([NH3+])C(=O)[O-]
REMARK SMILES IDX 4 1 5 2 6 3 7 7 8 8 9 9 2 10 3 11 1 12
REMARK H PARENT 6 4 6 5 6 6 1 13 1 14
REMARK Flexibility Score: inf
ROOT
ATOM      1  C   UNL     1       5.956  -3.282  20.656  1.00  0.00     0.171 C 
ENDROOT
BRANCH   1   2
ATOM      2  C   UNL     1       6.695  -3.791  19.402  1.00  0.00     0.237 C 
BRANCH   2   3
ATOM      3  N   UNL     1       7.851  -2.936  19.104  1.00  0.00    -0.350 N 
ATOM      4  H   UNL     1       8.560  -3.021  19.867  1.00  0.00     0.345 HD
ATOM      5  H   UNL     1       7.559  -1.935  19.018  1.00  0.00     0.345 HD
ATOM      6  H   UNL     1       8.297  -3.243  18.208  1.00  0.00     0.345 HD
ENDBRANCH   2   3
BRANCH   2   7
ATOM      7  C   UNL     1       5.770  -3.849  18.213  1.00  0.00     0.100 C 
ATOM      8  O   UNL     1       6.206  -4.185  17.079  1.00  0.00    -0.544 OA
ATOM      9  O   UNL     1       4.430  -3.512  18.359  1.00  0.00    -0.544 OA
ENDBRANCH   2   7
ENDBRANCH   1   2
BRANCH   1  10
ATOM     10  C   UNL     1       6.020  -1.785  20.767  1.00  0.00     0.223 C 
ATOM     11  O   UNL     1       6.982  -1.244  21.375  1.00  0.00    -0.275 OA
ATOM     12  N   UNL     1       4.980  -0.973  20.222  1.00  0.00    -0.369 N 
ATOM     13  H   UNL     1       4.165  -1.407  19.733  1.00  0.00     0.159 HD
ATOM     14  H   UNL     1       5.021   0.066  20.315  1.00  0.00     0.159 HD
ENDBRANCH   1  10
TORSDOF 4
ENDMDL
MODEL 5
REMARK VINA RESULT:    -2.921      9.183     10.143
REMARK INTER + INTRA:          -3.785
REMARK INTER:                  -3.276
REMARK INTRA:                  -0.509
REMARK UNBOUND:                -0.266
REMARK SMILES NC(=O)C[C@H]([NH3+])C(=O)[O-]
REMARK SMILES IDX 4 1 5 2 6 3 7 7 8 8 9 9 2 10 3 11 1 12
REMARK H PARENT 6 4 6 5 6 6 1 13 1 14
REMARK Flexibility Score: inf
ROOT
ATOM      1  C   UNL     1      14.183  -2.416  15.730  1.00  0.00     0.171 C 
ENDROOT
BRANCH   1   2
ATOM      2  C   UNL     1      13.305  -3.677  15.600  1.00  0.00     0.237 C 
BRANCH   2   3
ATOM      3  N   UNL     1      13.553  -4.594  16.719  1.00  0.00    -0.350 N 
ATOM      4  H   UNL     1      13.363  -4.107  17.624  1.00  0.00     0.345 HD
ATOM      5  H   UNL     1      14.546  -4.927  16.713  1.00  0.00     0.345 HD
ATOM      6  H   UNL     1      12.913  -5.419  16.651  1.00  0.00     0.345 HD
ENDBRANCH   2   3
BRANCH   2   7
ATOM      7  C   UNL     1      13.552  -4.378  14.288  1.00  0.00     0.100 C 
ATOM      8  O   UNL     1      12.674  -4.370  13.384  1.00  0.00    -0.544 OA
ATOM      9  O   UNL     1      14.747  -5.054  14.077  1.00  0.00    -0.544 OA
ENDBRANCH   2   7
ENDBRANCH   1   2
BRANCH   1  10
ATOM     10  C   UNL     1      15.441  -2.695  16.501  1.00  0.00     0.223 C 
ATOM     11  O   UNL     1      15.492  -2.430  17.732  1.00  0.00    -0.275 OA
ATOM     12  N   UNL     1      16.593  -3.222  15.843  1.00  0.00    -0.369 N 
ATOM     13  H   UNL     1      16.575  -3.429  14.819  1.00  0.00     0.159 HD
ATOM     14  H   UNL     1      17.471  -3.400  16.380  1.00  0.00     0.159 HD
ENDBRANCH   1  10
TORSDOF 4
ENDMDL
MODEL 6
REMARK VINA RESULT:    -2.848      2.934      4.304
REMARK INTER + INTRA:          -3.697
REMARK INTER:                  -3.184
REMARK INTRA:                  -0.513
REMARK UNBOUND:                -0.266
REMARK SMILES NC(=O)C[C@H]([NH3+])C(=O)[O-]
REMARK SMILES IDX 4 1 5 2 6 3 7 7 8 8 9 9 2 10 3 11 1 12
REMARK H PARENT 6 4 6 5 6 6 1 13 1 14
REMARK Flexibility Score: inf
ROOT
ATOM      1  C   UNL     1      11.189  -8.925  24.201  1.00  0.00     0.171 C 
ENDROOT
BRANCH   1   2
ATOM      2  C   UNL     1      10.824 -10.137  25.081  1.00  0.00     0.237 C 
BRANCH   2   3
ATOM      3  N   UNL     1      11.654 -11.296  24.731  1.00  0.00    -0.350 N 
ATOM      4  H   UNL     1      12.644 -11.120  25.017  1.00  0.00     0.345 HD
ATOM      5  H   UNL     1      11.623 -11.476  23.700  1.00  0.00     0.345 HD
ATOM      6  H   UNL     1      11.312 -12.144  25.239  1.00  0.00     0.345 HD
ENDBRANCH   2   3
BRANCH   2   7
ATOM      7  C   UNL     1       9.362 -10.484  24.948  1.00  0.00     0.100 C 
ATOM      8  O   UNL     1       8.595 -10.411  25.945  1.00  0.00    -0.544 OA
ATOM      9  O   UNL     1       8.858 -10.906  23.725  1.00  0.00    -0.544 OA
ENDBRANCH   2   7
ENDBRANCH   1   2
BRANCH   1  10
ATOM     10  C   UNL     1      11.750  -9.353  22.875  1.00  0.00     0.223 C 
ATOM     11  O   UNL     1      12.996  -9.482  22.736  1.00  0.00    -0.275 OA
ATOM     12  N   UNL     1      10.887  -9.576  21.760  1.00  0.00    -0.369 N 
ATOM     13  H   UNL     1       9.853  -9.454  21.853  1.00  0.00     0.159 HD
ATOM     14  H   UNL     1      11.283  -9.858  20.837  1.00  0.00     0.159 HD
ENDBRANCH   1  10
TORSDOF 4
ENDMDL
MODEL 7
REMARK VINA RESULT:    -2.810      8.724      9.557
REMARK INTER + INTRA:          -3.651
REMARK INTER:                  -3.423
REMARK INTRA:                  -0.228
REMARK UNBOUND:                -0.266
REMARK SMILES NC(=O)C[C@H]([NH3+])C(=O)[O-]
REMARK SMILES IDX 4 1 5 2 6 3 7 7 8 8 9 9 2 10 3 11 1 12
REMARK H PARENT 6 4 6 5 6 6 1 13 1 14
REMARK Flexibility Score: inf
ROOT
ATOM      1  C   UNL     1       5.833  -3.880  18.337  1.00  0.00     0.171 C 
ENDROOT
BRANCH   1   2
ATOM      2  C   UNL     1       6.559  -2.744  19.086  1.00  0.00     0.237 C 
BRANCH   2   3
ATOM      3  N   UNL     1       8.013  -2.878  18.940  1.00  0.00    -0.350 N 
ATOM      4  H   UNL     1       8.484  -2.007  19.274  1.00  0.00     0.345 HD
ATOM      5  H   UNL     1       8.272  -3.045  17.940  1.00  0.00     0.345 HD
ATOM      6  H   UNL     1       8.356  -3.678  19.523  1.00  0.00     0.345 HD
ENDBRANCH   2   3
BRANCH   2   7
ATOM      7  C   UNL     1       6.180  -2.727  20.545  1.00  0.00     0.100 C 
ATOM      8  O   UNL     1       6.481  -1.743  21.272  1.00  0.00    -0.544 OA
ATOM      9  O   UNL     1       5.512  -3.811  21.101  1.00  0.00    -0.544 OA
ENDBRANCH   2   7
ENDBRANCH   1   2
BRANCH   1  10
ATOM     10  C   UNL     1       5.807  -3.637  16.855  1.00  0.00     0.223 C 
ATOM     11  O   UNL     1       6.009  -2.477  16.407  1.00  0.00    -0.275 OA
ATOM     12  N   UNL     1       5.517  -4.704  15.951  1.00  0.00    -0.369 N 
ATOM     13  H   UNL     1       5.328  -5.668  16.307  1.00  0.00     0.159 HD
ATOM     14  H   UNL     1       5.485  -4.527  14.923  1.00  0.00     0.159 HD
ENDBRANCH   1  10
TORSDOF 4
ENDMDL
MODEL 8
REMARK VINA RESULT:    -2.763      2.669      3.459
REMARK INTER + INTRA:          -3.594
REMARK INTER:                  -3.081
REMARK INTRA:                  -0.513
REMARK UNBOUND:                -0.266
REMARK SMILES NC(=O)C[C@H]([NH3+])C(=O)[O-]
REMARK SMILES IDX 4 1 5 2 6 3 7 7 8 8 9 9 2 10 3 11 1 12
REMARK H PARENT 6 4 6 5 6 6 1 13 1 14
REMARK Flexibility Score: inf
ROOT
ATOM      1  C   UNL     1      10.680  -9.454  24.279  1.00  0.00     0.171 C 
ENDROOT
BRANCH   1   2
ATOM      2  C   UNL     1      11.434  -8.991  23.017  1.00  0.00     0.237 C 
BRANCH   2   3
ATOM      3  N   UNL     1      10.820  -9.563  21.812  1.00  0.00    -0.350 N 
ATOM      4  H   UNL     1      10.341  -8.809  21.268  1.00  0.00     0.345 HD
ATOM      5  H   UNL     1      10.119 -10.298  22.066  1.00  0.00     0.345 HD
ATOM      6  H   UNL     1      11.559  -9.987  21.204  1.00  0.00     0.345 HD
ENDBRANCH   2   3
BRANCH   2   7
ATOM      7  C   UNL     1      12.892  -9.367  23.087  1.00  0.00     0.100 C 
ATOM      8  O   UNL     1      13.784  -8.479  23.036  1.00  0.00    -0.544 OA
ATOM      9  O   UNL     1      13.260 -10.702  23.189  1.00  0.00    -0.544 OA
ENDBRANCH   2   7
ENDBRANCH   1   2
BRANCH   1  10
ATOM     10  C   UNL     1       9.981 -10.764  24.057  1.00  0.00     0.223 C 
ATOM     11  O   UNL     1       8.782 -10.777  23.671  1.00  0.00    -0.275 OA
ATOM     12  N   UNL     1      10.653 -11.997  24.317  1.00  0.00    -0.369 N 
ATOM     13  H   UNL     1      11.640 -12.005  24.657  1.00  0.00     0.159 HD
ATOM     14  H   UNL     1      10.158 -12.906  24.176  1.00  0.00     0.159 HD
ENDBRANCH   1  10
TORSDOF 4
ENDMDL
MODEL 9
REMARK VINA RESULT:    -2.741      3.682      5.157
REMARK INTER + INTRA:          -3.568
REMARK INTER:                  -3.152
REMARK INTRA:                  -0.416
REMARK UNBOUND:                -0.266
REMARK SMILES NC(=O)C[C@H]([NH3+])C(=O)[O-]
REMARK SMILES IDX 4 1 5 2 6 3 7 7 8 8 9 9 2 10 3 11 1 12
REMARK H PARENT 6 4 6 5 6 6 1 13 1 14
REMARK Flexibility Score: inf
ROOT
ATOM      1  C   UNL     1      13.944  -3.983  25.601  1.00  0.00     0.171 C 
ENDROOT
BRANCH   1   2
ATOM      2  C   UNL     1      14.414  -2.611  25.080  1.00  0.00     0.237 C 
BRANCH   2   3
ATOM      3  N   UNL     1      13.296  -1.883  24.468  1.00  0.00    -0.350 N 
ATOM      4  H   UNL     1      13.484  -1.736  23.450  1.00  0.00     0.345 HD
ATOM      5  H   UNL     1      13.163  -0.952  24.928  1.00  0.00     0.345 HD
ATOM      6  H   UNL     1      12.415  -2.441  24.560  1.00  0.00     0.345 HD
ENDBRANCH   2   3
BRANCH   2   7
ATOM      7  C   UNL     1      15.541  -2.763  24.090  1.00  0.00     0.100 C 
ATOM      8  O   UNL     1      15.499  -2.172  22.978  1.00  0.00    -0.544 OA
ATOM      9  O   UNL     1      16.626  -3.575  24.393  1.00  0.00    -0.544 OA
ENDBRANCH   2   7
ENDBRANCH   1   2
BRANCH   1  10
ATOM     10  C   UNL     1      13.617  -4.921  24.475  1.00  0.00     0.223 C 
ATOM     11  O   UNL     1      12.580  -4.734  23.785  1.00  0.00    -0.275 OA
ATOM     12  N   UNL     1      14.453  -6.046  24.204  1.00  0.00    -0.369 N 
ATOM     13  H   UNL     1      15.307  -6.228  24.778  1.00  0.00     0.159 HD
ATOM     14  H   UNL     1      14.215  -6.705  23.429  1.00  0.00     0.159 HD
ENDBRANCH   1  10
TORSDOF 4
ENDMDL
