MODEL 1
REMARK VINA RESULT:    -1.454      0.000      0.000
REMARK INTER + INTRA:          -1.422
REMARK INTER:                  -1.710
REMARK INTRA:                   0.288
REMARK UNBOUND:                 0.288
REMARK SMILES O=c1c(O)c(-c2ccc(O)c(O)c2)oc2cc(O)ccc12
REMARK SMILES IDX 5 1 3 2 2 3 1 4 21 5 15 6 14 7 16 8 17 9 19 10 20 11 6 12
REMARK SMILES IDX 7 13 8 14 9 15 13 16 11 17 10 18 12 20 4 22 18 24
REMARK H PARENT 10 19 12 21 4 23 18 25
REMARK Flexibility Score: inf
ROOT
ATOM      1  C   UNL     1      20.354  13.639 -10.127  1.00  0.00     0.180 A 
ATOM      2  C   UNL     1      21.070  14.850 -10.225  1.00  0.00     0.208 A 
ATOM      3  C   UNL     1      20.365  16.030 -10.516  1.00  0.00     0.235 A 
ATOM      4  O   UNL     1      20.984  17.124 -10.620  1.00  0.00    -0.285 OA
ATOM      5  C   UNL     1      18.973  15.979 -10.681  1.00  0.00     0.069 A 
ATOM      6  C   UNL     1      18.327  14.731 -10.543  1.00  0.00     0.142 A 
ATOM      7  O   UNL     1      19.031  13.637 -10.276  1.00  0.00    -0.452 OA
ATOM      8  C   UNL     1      16.938  14.641 -10.690  1.00  0.00     0.094 A 
ATOM      9  C   UNL     1      16.184  15.783 -10.977  1.00  0.00     0.119 A 
ATOM     10  C   UNL     1      16.822  17.023 -11.116  1.00  0.00     0.047 A 
ATOM     11  C   UNL     1      18.208  17.125 -10.969  1.00  0.00     0.020 A 
ENDROOT
BRANCH   1  12
ATOM     12  C   UNL     1      21.027  12.351  -9.842  1.00  0.00     0.025 A 
ATOM     13  C   UNL     1      22.339  12.141 -10.296  1.00  0.00     0.016 A 
ATOM     14  C   UNL     1      23.001  10.943 -10.020  1.00  0.00     0.051 A 
ATOM     15  C   UNL     1      22.367   9.942  -9.271  1.00  0.00     0.157 A 
ATOM     16  C   UNL     1      20.402  11.352  -9.073  1.00  0.00     0.062 A 
ATOM     17  C   UNL     1      21.067  10.149  -8.793  1.00  0.00     0.158 A 
BRANCH  15  18
ATOM     18  O   UNL     1      23.023   8.745  -8.995  1.00  0.00    -0.504 OA
ATOM     19  H   UNL     1      24.025   8.651  -9.106  1.00  0.00     0.293 HD
ENDBRANCH  15  18
BRANCH  17  20
ATOM     20  O   UNL     1      20.444   9.159  -8.037  1.00  0.00    -0.504 OA
ATOM     21  H   UNL     1      19.633   9.359  -7.464  1.00  0.00     0.293 HD
ENDBRANCH  17  20
ENDBRANCH   1  12
BRANCH   2  22
ATOM     22  O   UNL     1      22.449  14.878 -10.007  1.00  0.00    -0.502 OA
ATOM     23  H   UNL     1      23.118  14.891 -10.768  1.00  0.00     0.293 HD
ENDBRANCH   2  22
BRANCH   9  24
ATOM     24  O   UNL     1      14.802  15.676 -11.120  1.00  0.00    -0.508 OA
ATOM     25  H   UNL     1      14.170  16.310 -10.648  1.00  0.00     0.293 HD
ENDBRANCH   9  24
TORSDOF 5
ENDMDL
MODEL 2
REMARK VINA RESULT:    -0.554      1.854      6.861
REMARK INTER + INTRA:          -0.363
REMARK INTER:                  -0.068
REMARK INTRA:                  -0.295
REMARK UNBOUND:                 0.288
REMARK SMILES O=c1c(O)c(-c2ccc(O)c(O)c2)oc2cc(O)ccc12
REMARK SMILES IDX 5 1 3 2 2 3 1 4 21 5 15 6 14 7 16 8 17 9 19 10 20 11 6 12
REMARK SMILES IDX 7 13 8 14 9 15 13 16 11 17 10 18 12 20 4 22 18 24
REMARK H PARENT 10 19 12 21 4 23 18 25
REMARK Flexibility Score: inf
ROOT
ATOM      1  C   UNL     1      19.893  12.285  -9.490  1.00  0.00     0.180 A 
ATOM      2  C   UNL     1      21.162  12.102 -10.077  1.00  0.00     0.208 A 
ATOM      3  C   UNL     1      21.979  11.061  -9.609  1.00  0.00     0.235 A 
ATOM      4  O   UNL     1      23.124  10.883 -10.110  1.00  0.00    -0.285 OA
ATOM      5  C   UNL     1      21.509  10.220  -8.589  1.00  0.00     0.069 A 
ATOM      6  C   UNL     1      20.216  10.454  -8.071  1.00  0.00     0.142 A 
ATOM      7  O   UNL     1      19.479  11.456  -8.535  1.00  0.00    -0.452 OA
ATOM      8  C   UNL     1      19.707   9.631  -7.060  1.00  0.00     0.094 A 
ATOM      9  C   UNL     1      20.474   8.575  -6.557  1.00  0.00     0.119 A 
ATOM     10  C   UNL     1      21.758   8.341  -7.068  1.00  0.00     0.047 A 
ATOM     11  C   UNL     1      22.275   9.155  -8.079  1.00  0.00     0.020 A 
ENDROOT
BRANCH   1  12
ATOM     12  C   UNL     1      18.980  13.372  -9.916  1.00  0.00     0.025 A 
ATOM     13  C   UNL     1      17.876  13.067 -10.728  1.00  0.00     0.016 A 
ATOM     14  C   UNL     1      16.990  14.072 -11.125  1.00  0.00     0.051 A 
ATOM     15  C   UNL     1      17.186  15.393 -10.702  1.00  0.00     0.157 A 
ATOM     16  C   UNL     1      19.162  14.696  -9.477  1.00  0.00     0.062 A 
ATOM     17  C   UNL     1      18.271  15.704  -9.873  1.00  0.00     0.158 A 
BRANCH  15  18
ATOM     18  O   UNL     1      16.306  16.398 -11.096  1.00  0.00    -0.504 OA
ATOM     19  H   UNL     1      16.176  16.637 -12.072  1.00  0.00     0.293 HD
ENDBRANCH  15  18
BRANCH  17  20
ATOM     20  O   UNL     1      18.456  17.017  -9.442  1.00  0.00    -0.504 OA
ATOM     21  H   UNL     1      17.675  17.651  -9.321  1.00  0.00     0.293 HD
ENDBRANCH  17  20
ENDBRANCH   1  12
BRANCH   2  22
ATOM     22  O   UNL     1      21.584  12.924 -11.125  1.00  0.00    -0.502 OA
ATOM     23  H   UNL     1      22.503  12.841 -11.542  1.00  0.00     0.293 HD
ENDBRANCH   2  22
BRANCH   9  24
ATOM     24  O   UNL     1      19.953   7.766  -5.550  1.00  0.00    -0.508 OA
ATOM     25  H   UNL     1      20.534   7.111  -5.042  1.00  0.00     0.293 HD
ENDBRANCH   9  24
TORSDOF 5
ENDMDL
MODEL 3
REMARK VINA RESULT:    -0.302      0.858      1.630
REMARK INTER + INTRA:          -0.067
REMARK INTER:                  -0.220
REMARK INTRA:                   0.154
REMARK UNBOUND:                 0.288
REMARK SMILES O=c1c(O)c(-c2ccc(O)c(O)c2)oc2cc(O)ccc12
REMARK SMILES IDX 5 1 3 2 2 3 1 4 21 5 15 6 14 7 16 8 17 9 19 10 20 11 6 12
REMARK SMILES IDX 7 13 8 14 9 15 13 16 11 17 10 18 12 20 4 22 18 24
REMARK H PARENT 10 19 12 21 4 23 18 25
REMARK Flexibility Score: inf
ROOT
ATOM      1  C   UNL     1      19.633  13.342  -9.653  1.00  0.00     0.180 A 
ATOM      2  C   UNL     1      20.547  14.386  -9.906  1.00  0.00     0.208 A 
ATOM      3  C   UNL     1      20.054  15.620 -10.361  1.00  0.00     0.235 A 
ATOM      4  O   UNL     1      20.852  16.566 -10.605  1.00  0.00    -0.285 OA
ATOM      5  C   UNL     1      18.672  15.790 -10.532  1.00  0.00     0.069 A 
ATOM      6  C   UNL     1      17.821  14.704 -10.233  1.00  0.00     0.142 A 
ATOM      7  O   UNL     1      18.328  13.550  -9.814  1.00  0.00    -0.452 OA
ATOM      8  C   UNL     1      16.436  14.838 -10.381  1.00  0.00     0.094 A 
ATOM      9  C   UNL     1      15.887  16.045 -10.826  1.00  0.00     0.119 A 
ATOM     10  C   UNL     1      16.729  17.125 -11.125  1.00  0.00     0.047 A 
ATOM     11  C   UNL     1      18.113  17.002 -10.979  1.00  0.00     0.020 A 
ENDROOT
BRANCH   1  12
ATOM     12  C   UNL     1      20.076  12.007  -9.190  1.00  0.00     0.025 A 
ATOM     13  C   UNL     1      19.269  11.284  -8.296  1.00  0.00     0.016 A 
ATOM     14  C   UNL     1      19.656  10.013  -7.862  1.00  0.00     0.051 A 
ATOM     15  C   UNL     1      20.847   9.441  -8.328  1.00  0.00     0.157 A 
ATOM     16  C   UNL     1      21.260  11.419  -9.670  1.00  0.00     0.062 A 
ATOM     17  C   UNL     1      21.647  10.143  -9.236  1.00  0.00     0.158 A 
BRANCH  15  18
ATOM     18  O   UNL     1      21.237   8.175  -7.896  1.00  0.00    -0.504 OA
ATOM     19  H   UNL     1      22.173   7.998  -7.549  1.00  0.00     0.293 HD
ENDBRANCH  15  18
BRANCH  17  20
ATOM     20  O   UNL     1      22.825   9.566  -9.709  1.00  0.00    -0.504 OA
ATOM     21  H   UNL     1      22.843   8.623 -10.080  1.00  0.00     0.293 HD
ENDBRANCH  17  20
ENDBRANCH   1  12
BRANCH   2  22
ATOM     22  O   UNL     1      21.913  14.203  -9.680  1.00  0.00    -0.502 OA
ATOM     23  H   UNL     1      22.539  14.976  -9.492  1.00  0.00     0.293 HD
ENDBRANCH   2  22
BRANCH   9  24
ATOM     24  O   UNL     1      14.506  16.161 -10.968  1.00  0.00    -0.508 OA
ATOM     25  H   UNL     1      13.886  16.112 -10.170  1.00  0.00     0.293 HD
ENDBRANCH   9  24
TORSDOF 5
ENDMDL
