MODEL 1
REMARK VINA RESULT:    -1.827      0.000      0.000
REMARK INTER + INTRA:          -6.435
REMARK INTER:                  -4.817
REMARK INTRA:                  -1.618
REMARK UNBOUND:                -1.618
REMARK SMILES CCCCCCCCCCCCCCCCCCCCCCCCCCCCCC(=O)[O-]
REMARK SMILES IDX 16 1 17 2 18 3 19 4 20 5 21 6 22 7 23 8 24 9 25 10 26 11
REMARK SMILES IDX 27 12 28 13 29 14 30 15 31 16 32 17 15 18 14 19 13 20 12 21
REMARK SMILES IDX 11 22 10 23 9 24 8 25 7 26 6 27 5 28 4 29 3 30 2 31 1 32
REMARK H PARENT
REMARK Flexibility Score: inf
ROOT
ATOM      1  C   UNL     1      -8.293 -21.510  33.784  1.00  0.00     0.000 C 
ENDROOT
BRANCH   1   2
ATOM      2  C   UNL     1      -6.893 -22.008  34.190  1.00  0.00     0.000 C 
BRANCH   2   3
ATOM      3  C   UNL     1      -6.653 -21.957  35.709  1.00  0.00     0.000 C 
BRANCH   3   4
ATOM      4  C   UNL     1      -5.162 -21.856  36.080  1.00  0.00     0.000 C 
BRANCH   4   5
ATOM      5  C   UNL     1      -4.588 -20.428  36.123  1.00  0.00     0.000 C 
BRANCH   5   6
ATOM      6  C   UNL     1      -3.059 -20.390  35.984  1.00  0.00     0.000 C 
BRANCH   6   7
ATOM      7  C   UNL     1      -2.647 -20.091  34.535  1.00  0.00     0.000 C 
BRANCH   7   8
ATOM      8  C   UNL     1      -3.778 -20.362  33.531  1.00  0.00     0.000 C 
BRANCH   8   9
ATOM      9  C   UNL     1      -3.967 -19.211  32.527  1.00  0.00     0.000 C 
BRANCH   9  10
ATOM     10  C   UNL     1      -5.181 -18.330  32.862  1.00  0.00     0.000 C 
BRANCH  10  11
ATOM     11  C   UNL     1      -6.520 -19.038  32.592  1.00  0.00     0.000 C 
BRANCH  11  12
ATOM     12  C   UNL     1      -7.590 -18.070  32.046  1.00  0.00     0.000 C 
BRANCH  12  13
ATOM     13  C   UNL     1      -7.968 -18.333  30.579  1.00  0.00     0.006 C 
BRANCH  13  14
ATOM     14  C   UNL     1      -9.102 -19.354  30.425  1.00  0.00     0.053 C 
BRANCH  14  15
ATOM     15  C   UNL     1      -9.390 -19.609  28.978  1.00  0.00     0.041 C 
ATOM     16  O   UNL     1      -9.243 -18.687  28.131  1.00  0.00    -0.550 OA
ATOM     17  O   UNL     1      -9.781 -20.875  28.558  1.00  0.00    -0.550 OA
ENDBRANCH  14  15
ENDBRANCH  13  14
ENDBRANCH  12  13
ENDBRANCH  11  12
ENDBRANCH  10  11
ENDBRANCH   9  10
ENDBRANCH   8   9
ENDBRANCH   7   8
ENDBRANCH   6   7
ENDBRANCH   5   6
ENDBRANCH   4   5
ENDBRANCH   3   4
ENDBRANCH   2   3
ENDBRANCH   1   2
BRANCH   1  18
ATOM     18  C   UNL     1      -9.267 -22.597  33.296  1.00  0.00     0.000 C 
BRANCH  18  19
ATOM     19  C   UNL     1     -10.020 -23.292  34.444  1.00  0.00     0.000 C 
BRANCH  19  20
ATOM     20  C   UNL     1     -10.708 -22.292  35.388  1.00  0.00     0.000 C 
BRANCH  20  21
ATOM     21  C   UNL     1     -12.239 -22.461  35.423  1.00  0.00     0.000 C 
BRANCH  21  22
ATOM     22  C   UNL     1     -12.956 -21.252  36.044  1.00  0.00     0.000 C 
BRANCH  22  23
ATOM     23  C   UNL     1     -13.878 -20.534  35.043  1.00  0.00     0.000 C 
BRANCH  23  24
ATOM     24  C   UNL     1     -14.125 -19.057  35.405  1.00  0.00    -0.000 C 
BRANCH  24  25
ATOM     25  C   UNL     1     -12.957 -18.348  36.114  1.00  0.00    -0.000 C 
BRANCH  25  26
ATOM     26  C   UNL     1     -11.586 -18.951  35.763  1.00  0.00    -0.000 C 
BRANCH  26  27
ATOM     27  C   UNL     1     -10.585 -17.901  35.247  1.00  0.00    -0.000 C 
BRANCH  27  28
ATOM     28  C   UNL     1     -10.382 -17.889  33.720  1.00  0.00    -0.000 C 
BRANCH  28  29
ATOM     29  C   UNL     1     -11.678 -17.877  32.888  1.00  0.00    -0.000 C 
BRANCH  29  30
ATOM     30  C   UNL     1     -11.548 -18.586  31.524  1.00  0.00    -0.000 C 
BRANCH  30  31
ATOM     31  C   UNL     1     -11.964 -20.064  31.590  1.00  0.00    -0.003 C 
ATOM     32  C   UNL     1     -13.476 -20.203  31.749  1.00  0.00     0.004 C 
ENDBRANCH  30  31
ENDBRANCH  29  30
ENDBRANCH  28  29
ENDBRANCH  27  28
ENDBRANCH  26  27
ENDBRANCH  25  26
ENDBRANCH  24  25
ENDBRANCH  23  24
ENDBRANCH  22  23
ENDBRANCH  21  22
ENDBRANCH  20  21
ENDBRANCH  19  20
ENDBRANCH  18  19
ENDBRANCH   1  18
TORSDOF 28
ENDMDL
MODEL 2
REMARK VINA RESULT:    -1.670     19.818     22.260
REMARK INTER + INTRA:          -6.021
REMARK INTER:                  -3.511
REMARK INTRA:                  -2.509
REMARK UNBOUND:                -1.618
REMARK SMILES CCCCCCCCCCCCCCCCCCCCCCCCCCCCCC(=O)[O-]
REMARK SMILES IDX 16 1 17 2 18 3 19 4 20 5 21 6 22 7 23 8 24 9 25 10 26 11
REMARK SMILES IDX 27 12 28 13 29 14 30 15 31 16 32 17 15 18 14 19 13 20 12 21
REMARK SMILES IDX 11 22 10 23 9 24 8 25 7 26 6 27 5 28 4 29 3 30 2 31 1 32
REMARK H PARENT
REMARK Flexibility Score: inf
ROOT
ATOM      1  C   UNL     1       5.843 -37.126  20.819  1.00  0.00     0.000 C 
ENDROOT
BRANCH   1   2
ATOM      2  C   UNL     1       6.125 -36.307  19.546  1.00  0.00     0.000 C 
BRANCH   2   3
ATOM      3  C   UNL     1       5.124 -36.591  18.413  1.00  0.00     0.000 C 
BRANCH   3   4
ATOM      4  C   UNL     1       4.065 -37.643  18.793  1.00  0.00     0.000 C 
BRANCH   4   5
ATOM      5  C   UNL     1       2.827 -37.693  17.880  1.00  0.00     0.000 C 
BRANCH   5   6
ATOM      6  C   UNL     1       1.507 -37.790  18.660  1.00  0.00     0.000 C 
BRANCH   6   7
ATOM      7  C   UNL     1       1.712 -37.414  20.135  1.00  0.00     0.000 C 
BRANCH   7   8
ATOM      8  C   UNL     1       0.637 -38.016  21.053  1.00  0.00     0.000 C 
BRANCH   8   9
ATOM      9  C   UNL     1      -0.784 -37.555  20.684  1.00  0.00     0.000 C 
BRANCH   9  10
ATOM     10  C   UNL     1      -1.799 -37.808  21.810  1.00  0.00     0.000 C 
BRANCH  10  11
ATOM     11  C   UNL     1      -3.172 -37.176  21.523  1.00  0.00     0.000 C 
BRANCH  11  12
ATOM     12  C   UNL     1      -4.093 -38.125  20.727  1.00  0.00     0.000 C 
BRANCH  12  13
ATOM     13  C   UNL     1      -3.945 -37.991  19.202  1.00  0.00     0.006 C 
BRANCH  13  14
ATOM     14  C   UNL     1      -3.810 -36.536  18.738  1.00  0.00     0.053 C 
BRANCH  14  15
ATOM     15  C   UNL     1      -4.884 -36.196  17.752  1.00  0.00     0.041 C 
ATOM     16  O   UNL     1      -5.348 -35.026  17.699  1.00  0.00    -0.550 OA
ATOM     17  O   UNL     1      -5.345 -37.161  16.864  1.00  0.00    -0.550 OA
ENDBRANCH  14  15
ENDBRANCH  13  14
ENDBRANCH  12  13
ENDBRANCH  11  12
ENDBRANCH  10  11
ENDBRANCH   9  10
ENDBRANCH   8   9
ENDBRANCH   7   8
ENDBRANCH   6   7
ENDBRANCH   5   6
ENDBRANCH   4   5
ENDBRANCH   3   4
ENDBRANCH   2   3
ENDBRANCH   1   2
BRANCH   1  18
ATOM     18  C   UNL     1       5.377 -36.311  22.040  1.00  0.00     0.000 C 
BRANCH  18  19
ATOM     19  C   UNL     1       4.344 -37.057  22.903  1.00  0.00     0.000 C 
BRANCH  19  20
ATOM     20  C   UNL     1       3.534 -36.111  23.804  1.00  0.00     0.000 C 
BRANCH  20  21
ATOM     21  C   UNL     1       2.301 -35.521  23.094  1.00  0.00     0.000 C 
BRANCH  21  22
ATOM     22  C   UNL     1       2.440 -34.015  22.816  1.00  0.00     0.000 C 
BRANCH  22  23
ATOM     23  C   UNL     1       2.394 -33.171  24.101  1.00  0.00     0.000 C 
BRANCH  23  24
ATOM     24  C   UNL     1       0.959 -32.854  24.561  1.00  0.00    -0.000 C 
BRANCH  24  25
ATOM     25  C   UNL     1       0.555 -31.370  24.483  1.00  0.00    -0.000 C 
BRANCH  25  26
ATOM     26  C   UNL     1      -0.741 -31.142  23.687  1.00  0.00    -0.000 C 
BRANCH  26  27
ATOM     27  C   UNL     1      -1.824 -30.411  24.504  1.00  0.00    -0.000 C 
BRANCH  27  28
ATOM     28  C   UNL     1      -3.261 -30.576  23.975  1.00  0.00    -0.000 C 
BRANCH  28  29
ATOM     29  C   UNL     1      -3.619 -31.992  23.483  1.00  0.00    -0.000 C 
BRANCH  29  30
ATOM     30  C   UNL     1      -2.792 -33.110  24.154  1.00  0.00    -0.000 C 
BRANCH  30  31
ATOM     31  C   UNL     1      -2.601 -34.328  23.237  1.00  0.00    -0.003 C 
ATOM     32  C   UNL     1      -1.294 -34.229  22.456  1.00  0.00     0.004 C 
ENDBRANCH  30  31
ENDBRANCH  29  30
ENDBRANCH  28  29
ENDBRANCH  27  28
ENDBRANCH  26  27
ENDBRANCH  25  26
ENDBRANCH  24  25
ENDBRANCH  23  24
ENDBRANCH  22  23
ENDBRANCH  21  22
ENDBRANCH  20  21
ENDBRANCH  19  20
ENDBRANCH  18  19
ENDBRANCH   1  18
TORSDOF 28
ENDMDL
MODEL 3
REMARK VINA RESULT:    -1.660     20.261     23.261
REMARK INTER + INTRA:          -5.995
REMARK INTER:                  -3.915
REMARK INTRA:                  -2.081
REMARK UNBOUND:                -1.618
REMARK SMILES CCCCCCCCCCCCCCCCCCCCCCCCCCCCCC(=O)[O-]
REMARK SMILES IDX 16 1 17 2 18 3 19 4 20 5 21 6 22 7 23 8 24 9 25 10 26 11
REMARK SMILES IDX 27 12 28 13 29 14 30 15 31 16 32 17 15 18 14 19 13 20 12 21
REMARK SMILES IDX 11 22 10 23 9 24 8 25 7 26 6 27 5 28 4 29 3 30 2 31 1 32
REMARK H PARENT
REMARK Flexibility Score: inf
ROOT
ATOM      1  C   UNL     1       1.875 -32.241  24.557  1.00  0.00     0.000 C 
ENDROOT
BRANCH   1   2
ATOM      2  C   UNL     1       0.366 -32.458  24.773  1.00  0.00     0.000 C 
BRANCH   2   3
ATOM      3  C   UNL     1      -0.499 -31.820  23.672  1.00  0.00     0.000 C 
BRANCH   3   4
ATOM      4  C   UNL     1      -1.963 -31.612  24.100  1.00  0.00     0.000 C 
BRANCH   4   5
ATOM      5  C   UNL     1      -2.685 -32.871  24.613  1.00  0.00     0.000 C 
BRANCH   5   6
ATOM      6  C   UNL     1      -3.245 -33.747  23.484  1.00  0.00     0.000 C 
BRANCH   6   7
ATOM      7  C   UNL     1      -2.114 -34.467  22.735  1.00  0.00     0.000 C 
BRANCH   7   8
ATOM      8  C   UNL     1      -2.572 -35.791  22.103  1.00  0.00     0.000 C 
BRANCH   8   9
ATOM      9  C   UNL     1      -1.637 -36.965  22.442  1.00  0.00     0.000 C 
BRANCH   9  10
ATOM     10  C   UNL     1      -1.757 -38.125  21.441  1.00  0.00     0.000 C 
BRANCH  10  11
ATOM     11  C   UNL     1      -2.135 -37.650  20.027  1.00  0.00     0.000 C 
BRANCH  11  12
ATOM     12  C   UNL     1      -3.577 -37.104  19.963  1.00  0.00     0.000 C 
BRANCH  12  13
ATOM     13  C   UNL     1      -4.534 -37.988  19.146  1.00  0.00     0.006 C 
BRANCH  13  14
ATOM     14  C   UNL     1      -4.547 -37.638  17.653  1.00  0.00     0.053 C 
BRANCH  14  15
ATOM     15  C   UNL     1      -5.132 -36.277  17.436  1.00  0.00     0.041 C 
ATOM     16  O   UNL     1      -4.543 -35.255  17.882  1.00  0.00    -0.550 OA
ATOM     17  O   UNL     1      -6.305 -36.131  16.705  1.00  0.00    -0.550 OA
ENDBRANCH  14  15
ENDBRANCH  13  14
ENDBRANCH  12  13
ENDBRANCH  11  12
ENDBRANCH  10  11
ENDBRANCH   9  10
ENDBRANCH   8   9
ENDBRANCH   7   8
ENDBRANCH   6   7
ENDBRANCH   5   6
ENDBRANCH   4   5
ENDBRANCH   3   4
ENDBRANCH   2   3
ENDBRANCH   1   2
BRANCH   1  18
ATOM     18  C   UNL     1       2.479 -32.957  23.335  1.00  0.00     0.000 C 
BRANCH  18  19
ATOM     19  C   UNL     1       2.324 -34.487  23.397  1.00  0.00     0.000 C 
BRANCH  19  20
ATOM     20  C   UNL     1       1.237 -35.009  22.444  1.00  0.00     0.000 C 
BRANCH  20  21
ATOM     21  C   UNL     1       1.814 -35.795  21.251  1.00  0.00     0.000 C 
BRANCH  21  22
ATOM     22  C   UNL     1       1.499 -37.298  21.322  1.00  0.00     0.000 C 
BRANCH  22  23
ATOM     23  C   UNL     1       1.827 -38.031  20.010  1.00  0.00     0.000 C 
BRANCH  23  24
ATOM     24  C   UNL     1       1.857 -37.094  18.788  1.00  0.00    -0.000 C 
BRANCH  24  25
ATOM     25  C   UNL     1       3.025 -37.323  17.811  1.00  0.00    -0.000 C 
BRANCH  25  26
ATOM     26  C   UNL     1       4.311 -36.589  18.230  1.00  0.00    -0.000 C 
BRANCH  26  27
ATOM     27  C   UNL     1       5.550 -37.503  18.224  1.00  0.00    -0.000 C 
BRANCH  27  28
ATOM     28  C   UNL     1       5.915 -38.115  19.589  1.00  0.00    -0.000 C 
BRANCH  28  29
ATOM     29  C   UNL     1       5.111 -37.572  20.786  1.00  0.00    -0.000 C 
BRANCH  29  30
ATOM     30  C   UNL     1       5.900 -36.579  21.666  1.00  0.00    -0.000 C 
BRANCH  30  31
ATOM     31  C   UNL     1       5.386 -36.542  23.113  1.00  0.00    -0.003 C 
ATOM     32  C   UNL     1       4.396 -37.673  23.374  1.00  0.00     0.004 C 
ENDBRANCH  30  31
ENDBRANCH  29  30
ENDBRANCH  28  29
ENDBRANCH  27  28
ENDBRANCH  26  27
ENDBRANCH  25  26
ENDBRANCH  24  25
ENDBRANCH  23  24
ENDBRANCH  22  23
ENDBRANCH  21  22
ENDBRANCH  20  21
ENDBRANCH  19  20
ENDBRANCH  18  19
ENDBRANCH   1  18
TORSDOF 28
ENDMDL
MODEL 4
REMARK VINA RESULT:    -1.489     20.289     23.312
REMARK INTER + INTRA:          -5.545
REMARK INTER:                  -3.480
REMARK INTRA:                  -2.065
REMARK UNBOUND:                -1.618
REMARK SMILES CCCCCCCCCCCCCCCCCCCCCCCCCCCCCC(=O)[O-]
REMARK SMILES IDX 16 1 17 2 18 3 19 4 20 5 21 6 22 7 23 8 24 9 25 10 26 11
REMARK SMILES IDX 27 12 28 13 29 14 30 15 31 16 32 17 15 18 14 19 13 20 12 21
REMARK SMILES IDX 11 22 10 23 9 24 8 25 7 26 6 27 5 28 4 29 3 30 2 31 1 32
REMARK H PARENT
REMARK Flexibility Score: inf
ROOT
ATOM      1  C   UNL     1       1.614 -33.744  23.480  1.00  0.00     0.000 C 
ENDROOT
BRANCH   1   2
ATOM      2  C   UNL     1       1.198 -32.714  24.546  1.00  0.00     0.000 C 
BRANCH   2   3
ATOM      3  C   UNL     1       0.652 -31.409  23.941  1.00  0.00     0.000 C 
BRANCH   3   4
ATOM      4  C   UNL     1      -0.668 -30.950  24.588  1.00  0.00     0.000 C 
BRANCH   4   5
ATOM      5  C   UNL     1      -1.927 -31.706  24.124  1.00  0.00     0.000 C 
BRANCH   5   6
ATOM      6  C   UNL     1      -1.658 -33.183  23.800  1.00  0.00     0.000 C 
BRANCH   6   7
ATOM      7  C   UNL     1      -2.878 -33.829  23.127  1.00  0.00     0.000 C 
BRANCH   7   8
ATOM      8  C   UNL     1      -2.996 -35.330  23.434  1.00  0.00     0.000 C 
BRANCH   8   9
ATOM      9  C   UNL     1      -3.487 -36.145  22.225  1.00  0.00     0.000 C 
BRANCH   9  10
ATOM     10  C   UNL     1      -2.560 -36.010  21.006  1.00  0.00     0.000 C 
BRANCH  10  11
ATOM     11  C   UNL     1      -2.619 -37.238  20.079  1.00  0.00     0.000 C 
BRANCH  11  12
ATOM     12  C   UNL     1      -3.848 -38.125  20.366  1.00  0.00     0.000 C 
BRANCH  12  13
ATOM     13  C   UNL     1      -4.900 -38.102  19.244  1.00  0.00     0.006 C 
BRANCH  13  14
ATOM     14  C   UNL     1      -4.321 -37.680  17.888  1.00  0.00     0.053 C 
BRANCH  14  15
ATOM     15  C   UNL     1      -4.974 -36.423  17.404  1.00  0.00     0.041 C 
ATOM     16  O   UNL     1      -6.139 -36.459  16.922  1.00  0.00    -0.550 OA
ATOM     17  O   UNL     1      -4.315 -35.205  17.522  1.00  0.00    -0.550 OA
ENDBRANCH  14  15
ENDBRANCH  13  14
ENDBRANCH  12  13
ENDBRANCH  11  12
ENDBRANCH  10  11
ENDBRANCH   9  10
ENDBRANCH   8   9
ENDBRANCH   7   8
ENDBRANCH   6   7
ENDBRANCH   5   6
ENDBRANCH   4   5
ENDBRANCH   3   4
ENDBRANCH   2   3
ENDBRANCH   1   2
BRANCH   1  18
ATOM     18  C   UNL     1       3.126 -34.017  23.378  1.00  0.00     0.000 C 
BRANCH  18  19
ATOM     19  C   UNL     1       3.461 -35.512  23.240  1.00  0.00     0.000 C 
BRANCH  19  20
ATOM     20  C   UNL     1       4.453 -35.995  24.310  1.00  0.00     0.000 C 
BRANCH  20  21
ATOM     21  C   UNL     1       5.839 -36.336  23.730  1.00  0.00     0.000 C 
BRANCH  21  22
ATOM     22  C   UNL     1       5.839 -36.403  22.194  1.00  0.00     0.000 C 
BRANCH  22  23
ATOM     23  C   UNL     1       6.058 -37.831  21.665  1.00  0.00     0.000 C 
BRANCH  23  24
ATOM     24  C   UNL     1       5.265 -38.125  20.379  1.00  0.00    -0.000 C 
BRANCH  24  25
ATOM     25  C   UNL     1       5.987 -37.777  19.065  1.00  0.00    -0.000 C 
BRANCH  25  26
ATOM     26  C   UNL     1       5.485 -36.469  18.431  1.00  0.00    -0.000 C 
BRANCH  26  27
ATOM     27  C   UNL     1       3.965 -36.274  18.586  1.00  0.00    -0.000 C 
BRANCH  27  28
ATOM     28  C   UNL     1       3.096 -37.267  17.793  1.00  0.00    -0.000 C 
BRANCH  28  29
ATOM     29  C   UNL     1       1.601 -37.271  18.165  1.00  0.00    -0.000 C 
BRANCH  29  30
ATOM     30  C   UNL     1       1.313 -37.843  19.570  1.00  0.00    -0.000 C 
BRANCH  30  31
ATOM     31  C   UNL     1       1.619 -36.834  20.687  1.00  0.00    -0.003 C 
ATOM     32  C   UNL     1       0.735 -35.597  20.570  1.00  0.00     0.004 C 
ENDBRANCH  30  31
ENDBRANCH  29  30
ENDBRANCH  28  29
ENDBRANCH  27  28
ENDBRANCH  26  27
ENDBRANCH  25  26
ENDBRANCH  24  25
ENDBRANCH  23  24
ENDBRANCH  22  23
ENDBRANCH  21  22
ENDBRANCH  20  21
ENDBRANCH  19  20
ENDBRANCH  18  19
ENDBRANCH   1  18
TORSDOF 28
ENDMDL
MODEL 5
REMARK VINA RESULT:    -1.470      1.937      3.016
REMARK INTER + INTRA:          -5.495
REMARK INTER:                  -6.090
REMARK INTRA:                   0.595
REMARK UNBOUND:                -1.618
REMARK SMILES CCCCCCCCCCCCCCCCCCCCCCCCCCCCCC(=O)[O-]
REMARK SMILES IDX 16 1 17 2 18 3 19 4 20 5 21 6 22 7 23 8 24 9 25 10 26 11
REMARK SMILES IDX 27 12 28 13 29 14 30 15 31 16 32 17 15 18 14 19 13 20 12 21
REMARK SMILES IDX 11 22 10 23 9 24 8 25 7 26 6 27 5 28 4 29 3 30 2 31 1 32
REMARK H PARENT
REMARK Flexibility Score: inf
ROOT
ATOM      1  C   UNL     1      -9.276 -21.985  33.498  1.00  0.00     0.000 C 
ENDROOT
BRANCH   1   2
ATOM      2  C   UNL     1      -7.811 -22.288  33.863  1.00  0.00     0.000 C 
BRANCH   2   3
ATOM      3  C   UNL     1      -7.378 -21.650  35.195  1.00  0.00     0.000 C 
BRANCH   3   4
ATOM      4  C   UNL     1      -5.968 -22.081  35.639  1.00  0.00     0.000 C 
BRANCH   4   5
ATOM      5  C   UNL     1      -5.020 -20.933  36.031  1.00  0.00     0.000 C 
BRANCH   5   6
ATOM      6  C   UNL     1      -3.549 -21.365  36.101  1.00  0.00     0.000 C 
BRANCH   6   7
ATOM      7  C   UNL     1      -2.656 -20.405  35.301  1.00  0.00     0.000 C 
BRANCH   7   8
ATOM      8  C   UNL     1      -3.456 -19.521  34.333  1.00  0.00     0.000 C 
BRANCH   8   9
ATOM      9  C   UNL     1      -4.351 -20.339  33.385  1.00  0.00     0.000 C 
BRANCH   9  10
ATOM     10  C   UNL     1      -5.244 -19.453  32.503  1.00  0.00     0.000 C 
BRANCH  10  11
ATOM     11  C   UNL     1      -5.384 -18.021  33.052  1.00  0.00     0.000 C 
BRANCH  11  12
ATOM     12  C   UNL     1      -5.654 -18.006  34.571  1.00  0.00     0.000 C 
BRANCH  12  13
ATOM     13  C   UNL     1      -7.144 -17.875  34.931  1.00  0.00     0.006 C 
BRANCH  13  14
ATOM     14  C   UNL     1      -8.054 -18.720  34.031  1.00  0.00     0.053 C 
BRANCH  14  15
ATOM     15  C   UNL     1      -9.469 -18.240  34.115  1.00  0.00     0.041 C 
ATOM     16  O   UNL     1     -10.095 -17.925  33.067  1.00  0.00    -0.550 OA
ATOM     17  O   UNL     1     -10.113 -18.179  35.345  1.00  0.00    -0.550 OA
ENDBRANCH  14  15
ENDBRANCH  13  14
ENDBRANCH  12  13
ENDBRANCH  11  12
ENDBRANCH  10  11
ENDBRANCH   9  10
ENDBRANCH   8   9
ENDBRANCH   7   8
ENDBRANCH   6   7
ENDBRANCH   5   6
ENDBRANCH   4   5
ENDBRANCH   3   4
ENDBRANCH   2   3
ENDBRANCH   1   2
BRANCH   1  18
ATOM     18  C   UNL     1     -10.310 -22.294  34.596  1.00  0.00     0.000 C 
BRANCH  18  19
ATOM     19  C   UNL     1     -10.548 -23.802  34.794  1.00  0.00     0.000 C 
BRANCH  19  20
ATOM     20  C   UNL     1     -11.583 -24.098  35.891  1.00  0.00     0.000 C 
BRANCH  20  21
ATOM     21  C   UNL     1     -12.707 -23.046  35.951  1.00  0.00     0.000 C 
BRANCH  21  22
ATOM     22  C   UNL     1     -12.212 -21.629  35.620  1.00  0.00     0.000 C 
BRANCH  22  23
ATOM     23  C   UNL     1     -13.262 -20.549  35.934  1.00  0.00     0.000 C 
BRANCH  23  24
ATOM     24  C   UNL     1     -14.123 -20.174  34.713  1.00  0.00    -0.000 C 
BRANCH  24  25
ATOM     25  C   UNL     1     -13.935 -18.738  34.191  1.00  0.00    -0.000 C 
BRANCH  25  26
ATOM     26  C   UNL     1     -13.275 -18.685  32.802  1.00  0.00    -0.000 C 
BRANCH  26  27
ATOM     27  C   UNL     1     -12.673 -20.037  32.375  1.00  0.00    -0.000 C 
BRANCH  27  28
ATOM     28  C   UNL     1     -12.154 -20.090  30.925  1.00  0.00    -0.000 C 
BRANCH  28  29
ATOM     29  C   UNL     1     -10.914 -19.221  30.643  1.00  0.00    -0.000 C 
BRANCH  29  30
ATOM     30  C   UNL     1     -10.338 -19.404  29.222  1.00  0.00    -0.000 C 
BRANCH  30  31
ATOM     31  C   UNL     1      -8.916 -18.838  29.089  1.00  0.00    -0.003 C 
ATOM     32  C   UNL     1      -8.182 -18.873  30.426  1.00  0.00     0.004 C 
ENDBRANCH  30  31
ENDBRANCH  29  30
ENDBRANCH  28  29
ENDBRANCH  27  28
ENDBRANCH  26  27
ENDBRANCH  25  26
ENDBRANCH  24  25
ENDBRANCH  23  24
ENDBRANCH  22  23
ENDBRANCH  21  22
ENDBRANCH  20  21
ENDBRANCH  19  20
ENDBRANCH  18  19
ENDBRANCH   1  18
TORSDOF 28
ENDMDL
MODEL 6
REMARK VINA RESULT:    -1.329     19.861     22.246
REMARK INTER + INTRA:          -5.122
REMARK INTER:                  -4.234
REMARK INTRA:                  -0.888
REMARK UNBOUND:                -1.618
REMARK SMILES CCCCCCCCCCCCCCCCCCCCCCCCCCCCCC(=O)[O-]
REMARK SMILES IDX 16 1 17 2 18 3 19 4 20 5 21 6 22 7 23 8 24 9 25 10 26 11
REMARK SMILES IDX 27 12 28 13 29 14 30 15 31 16 32 17 15 18 14 19 13 20 12 21
REMARK SMILES IDX 11 22 10 23 9 24 8 25 7 26 6 27 5 28 4 29 3 30 2 31 1 32
REMARK H PARENT
REMARK Flexibility Score: inf
ROOT
ATOM      1  C   UNL     1      -2.935 -31.817  24.084  1.00  0.00     0.000 C 
ENDROOT
BRANCH   1   2
ATOM      2  C   UNL     1      -1.929 -30.867  24.759  1.00  0.00     0.000 C 
BRANCH   2   3
ATOM      3  C   UNL     1      -0.707 -30.558  23.876  1.00  0.00     0.000 C 
BRANCH   3   4
ATOM      4  C   UNL     1       0.174 -31.793  23.612  1.00  0.00     0.000 C 
BRANCH   4   5
ATOM      5  C   UNL     1       1.132 -32.177  24.755  1.00  0.00     0.000 C 
BRANCH   5   6
ATOM      6  C   UNL     1       2.327 -33.017  24.282  1.00  0.00     0.000 C 
BRANCH   6   7
ATOM      7  C   UNL     1       1.865 -34.175  23.385  1.00  0.00     0.000 C 
BRANCH   7   8
ATOM      8  C   UNL     1       3.035 -34.885  22.687  1.00  0.00     0.000 C 
BRANCH   8   9
ATOM      9  C   UNL     1       4.246 -35.085  23.615  1.00  0.00     0.000 C 
BRANCH   9  10
ATOM     10  C   UNL     1       5.252 -36.105  23.061  1.00  0.00     0.000 C 
BRANCH  10  11
ATOM     11  C   UNL     1       4.608 -37.471  22.764  1.00  0.00     0.000 C 
BRANCH  11  12
ATOM     12  C   UNL     1       4.946 -37.977  21.345  1.00  0.00     0.000 C 
BRANCH  12  13
ATOM     13  C   UNL     1       5.659 -36.931  20.472  1.00  0.00     0.006 C 
BRANCH  13  14
ATOM     14  C   UNL     1       5.376 -37.106  18.975  1.00  0.00     0.053 C 
BRANCH  14  15
ATOM     15  C   UNL     1       3.991 -36.644  18.644  1.00  0.00     0.041 C 
ATOM     16  O   UNL     1       3.225 -37.376  17.961  1.00  0.00    -0.550 OA
ATOM     17  O   UNL     1       3.531 -35.423  19.123  1.00  0.00    -0.550 OA
ENDBRANCH  14  15
ENDBRANCH  13  14
ENDBRANCH  12  13
ENDBRANCH  11  12
ENDBRANCH  10  11
ENDBRANCH   9  10
ENDBRANCH   8   9
ENDBRANCH   7   8
ENDBRANCH   6   7
ENDBRANCH   5   6
ENDBRANCH   4   5
ENDBRANCH   3   4
ENDBRANCH   2   3
ENDBRANCH   1   2
BRANCH   1  18
ATOM     18  C   UNL     1      -2.672 -33.320  24.297  1.00  0.00     0.000 C 
BRANCH  18  19
ATOM     19  C   UNL     1      -2.652 -34.120  22.983  1.00  0.00     0.000 C 
BRANCH  19  20
ATOM     20  C   UNL     1      -1.246 -34.623  22.620  1.00  0.00     0.000 C 
BRANCH  20  21
ATOM     21  C   UNL     1      -1.161 -35.174  21.184  1.00  0.00     0.000 C 
BRANCH  21  22
ATOM     22  C   UNL     1       0.111 -34.720  20.449  1.00  0.00     0.000 C 
BRANCH  22  23
ATOM     23  C   UNL     1       1.117 -35.867  20.249  1.00  0.00     0.000 C 
BRANCH  23  24
ATOM     24  C   UNL     1       0.952 -36.999  21.281  1.00  0.00    -0.000 C 
BRANCH  24  25
ATOM     25  C   UNL     1      -0.016 -38.125  20.874  1.00  0.00    -0.000 C 
BRANCH  25  26
ATOM     26  C   UNL     1      -1.408 -37.979  21.511  1.00  0.00    -0.000 C 
BRANCH  26  27
ATOM     27  C   UNL     1      -2.551 -38.124  20.489  1.00  0.00    -0.000 C 
BRANCH  27  28
ATOM     28  C   UNL     1      -3.869 -37.430  20.881  1.00  0.00    -0.000 C 
BRANCH  28  29
ATOM     29  C   UNL     1      -4.925 -37.352  19.762  1.00  0.00    -0.000 C 
BRANCH  29  30
ATOM     30  C   UNL     1      -4.450 -37.942  18.417  1.00  0.00    -0.000 C 
BRANCH  30  31
ATOM     31  C   UNL     1      -4.797 -37.037  17.224  1.00  0.00    -0.003 C 
ATOM     32  C   UNL     1      -5.298 -35.675  17.695  1.00  0.00     0.004 C 
ENDBRANCH  30  31
ENDBRANCH  29  30
ENDBRANCH  28  29
ENDBRANCH  27  28
ENDBRANCH  26  27
ENDBRANCH  25  26
ENDBRANCH  24  25
ENDBRANCH  23  24
ENDBRANCH  22  23
ENDBRANCH  21  22
ENDBRANCH  20  21
ENDBRANCH  19  20
ENDBRANCH  18  19
ENDBRANCH   1  18
TORSDOF 28
ENDMDL
MODEL 7
REMARK VINA RESULT:    -0.226     19.605     22.748
REMARK INTER + INTRA:          -2.214
REMARK INTER:                  -0.360
REMARK INTRA:                  -1.854
REMARK UNBOUND:                -1.618
REMARK SMILES CCCCCCCCCCCCCCCCCCCCCCCCCCCCCC(=O)[O-]
REMARK SMILES IDX 16 1 17 2 18 3 19 4 20 5 21 6 22 7 23 8 24 9 25 10 26 11
REMARK SMILES IDX 27 12 28 13 29 14 30 15 31 16 32 17 15 18 14 19 13 20 12 21
REMARK SMILES IDX 11 22 10 23 9 24 8 25 7 26 6 27 5 28 4 29 3 30 2 31 1 32
REMARK H PARENT
REMARK Flexibility Score: inf
ROOT
ATOM      1  C   UNL     1       0.179 -37.121  20.783  1.00  0.00     0.000 C 
ENDROOT
BRANCH   1   2
ATOM      2  C   UNL     1      -1.184 -37.824  20.915  1.00  0.00     0.000 C 
BRANCH   2   3
ATOM      3  C   UNL     1      -1.841 -38.125  19.557  1.00  0.00     0.000 C 
BRANCH   3   4
ATOM      4  C   UNL     1      -2.897 -37.080  19.153  1.00  0.00     0.000 C 
BRANCH   4   5
ATOM      5  C   UNL     1      -4.303 -37.638  18.870  1.00  0.00     0.000 C 
BRANCH   5   6
ATOM      6  C   UNL     1      -5.024 -38.125  20.135  1.00  0.00     0.000 C 
BRANCH   6   7
ATOM      7  C   UNL     1      -4.257 -37.708  21.399  1.00  0.00     0.000 C 
BRANCH   7   8
ATOM      8  C   UNL     1      -4.828 -36.436  22.044  1.00  0.00     0.000 C 
BRANCH   8   9
ATOM      9  C   UNL     1      -3.762 -35.624  22.800  1.00  0.00     0.000 C 
BRANCH   9  10
ATOM     10  C   UNL     1      -2.523 -35.331  21.939  1.00  0.00     0.000 C 
BRANCH  10  11
ATOM     11  C   UNL     1      -1.755 -34.083  22.412  1.00  0.00     0.000 C 
BRANCH  11  12
ATOM     12  C   UNL     1      -1.932 -33.831  23.924  1.00  0.00     0.000 C 
BRANCH  12  13
ATOM     13  C   UNL     1      -2.817 -32.615  24.246  1.00  0.00     0.006 C 
BRANCH  13  14
ATOM     14  C   UNL     1      -2.010 -31.342  24.526  1.00  0.00     0.053 C 
BRANCH  14  15
ATOM     15  C   UNL     1      -2.779 -30.128  24.106  1.00  0.00     0.041 C 
ATOM     16  O   UNL     1      -2.245 -28.987  24.167  1.00  0.00    -0.550 OA
ATOM     17  O   UNL     1      -4.070 -30.258  23.608  1.00  0.00    -0.550 OA
ENDBRANCH  14  15
ENDBRANCH  13  14
ENDBRANCH  12  13
ENDBRANCH  11  12
ENDBRANCH  10  11
ENDBRANCH   9  10
ENDBRANCH   8   9
ENDBRANCH   7   8
ENDBRANCH   6   7
ENDBRANCH   5   6
ENDBRANCH   4   5
ENDBRANCH   3   4
ENDBRANCH   2   3
ENDBRANCH   1   2
BRANCH   1  18
ATOM     18  C   UNL     1       1.408 -38.047  20.819  1.00  0.00     0.000 C 
BRANCH  18  19
ATOM     19  C   UNL     1       2.342 -37.858  19.611  1.00  0.00     0.000 C 
BRANCH  19  20
ATOM     20  C   UNL     1       2.573 -36.376  19.271  1.00  0.00     0.000 C 
BRANCH  20  21
ATOM     21  C   UNL     1       3.971 -36.111  18.679  1.00  0.00     0.000 C 
BRANCH  21  22
ATOM     22  C   UNL     1       4.883 -37.347  18.733  1.00  0.00     0.000 C 
BRANCH  22  23
ATOM     23  C   UNL     1       6.061 -37.170  19.706  1.00  0.00     0.000 C 
BRANCH  23  24
ATOM     24  C   UNL     1       5.994 -38.125  20.913  1.00  0.00    -0.000 C 
BRANCH  24  25
ATOM     25  C   UNL     1       6.079 -37.449  22.294  1.00  0.00    -0.000 C 
BRANCH  25  26
ATOM     26  C   UNL     1       4.698 -37.139  22.896  1.00  0.00    -0.000 C 
BRANCH  26  27
ATOM     27  C   UNL     1       4.342 -35.642  22.835  1.00  0.00    -0.000 C 
BRANCH  27  28
ATOM     28  C   UNL     1       3.048 -35.310  22.069  1.00  0.00    -0.000 C 
BRANCH  28  29
ATOM     29  C   UNL     1       1.935 -34.662  22.914  1.00  0.00    -0.000 C 
BRANCH  29  30
ATOM     30  C   UNL     1       2.381 -33.383  23.654  1.00  0.00    -0.000 C 
BRANCH  30  31
ATOM     31  C   UNL     1       1.264 -32.791  24.527  1.00  0.00    -0.003 C 
ATOM     32  C   UNL     1       1.224 -31.270  24.414  1.00  0.00     0.004 C 
ENDBRANCH  30  31
ENDBRANCH  29  30
ENDBRANCH  28  29
ENDBRANCH  27  28
ENDBRANCH  26  27
ENDBRANCH  25  26
ENDBRANCH  24  25
ENDBRANCH  23  24
ENDBRANCH  22  23
ENDBRANCH  21  22
ENDBRANCH  20  21
ENDBRANCH  19  20
ENDBRANCH  18  19
ENDBRANCH   1  18
TORSDOF 28
ENDMDL
