MODEL 1
REMARK VINA RESULT:    -6.027      0.000      0.000
REMARK INTER + INTRA:          -6.683
REMARK INTER:                  -6.555
REMARK INTRA:                  -0.127
REMARK UNBOUND:                -0.127
REMARK SMILES Cc1ccc(C(C)C)cc1O
REMARK SMILES IDX 1 1 2 2 10 3 9 4 5 5 4 6 3 7 11 8 6 10 7 11 8 12
REMARK H PARENT 11 9
REMARK Flexibility Score: inf
ROOT
ATOM      1  C   UNL     1     367.758 243.562 277.257  1.00  0.00     0.048 C 
ATOM      2  C   UNL     1     369.215 243.386 276.926  1.00  0.00    -0.009 A 
ATOM      3  C   UNL     1     369.673 242.252 276.221  1.00  0.00     0.118 A 
ATOM      4  C   UNL     1     371.035 242.117 275.929  1.00  0.00     0.050 A 
ATOM      5  C   UNL     1     371.961 243.099 276.327  1.00  0.00    -0.042 A 
ATOM      6  C   UNL     1     371.497 244.224 277.027  1.00  0.00     0.004 A 
ATOM      7  C   UNL     1     370.139 244.366 277.323  1.00  0.00     0.007 A 
ENDROOT
BRANCH   3   8
ATOM      8  O   UNL     1     368.804 241.243 275.799  1.00  0.00    -0.508 OA
ATOM      9  H   UNL     1     368.046 241.405 275.149  1.00  0.00     0.293 HD
ENDBRANCH   3   8
BRANCH   5  10
ATOM     10  C   UNL     1     373.438 242.959 276.012  1.00  0.00     0.013 C 
ATOM     11  C   UNL     1     374.268 243.996 276.778  1.00  0.00     0.012 C 
ATOM     12  C   UNL     1     373.932 241.536 276.299  1.00  0.00     0.012 C 
ENDBRANCH   5  10
TORSDOF 2
ENDMDL
MODEL 2
REMARK VINA RESULT:    -5.833      1.379      2.006
REMARK INTER + INTRA:          -6.472
REMARK INTER:                  -6.350
REMARK INTRA:                  -0.122
REMARK UNBOUND:                -0.127
REMARK SMILES Cc1ccc(C(C)C)cc1O
REMARK SMILES IDX 1 1 2 2 10 3 9 4 5 5 4 6 3 7 11 8 6 10 7 11 8 12
REMARK H PARENT 11 9
REMARK Flexibility Score: inf
ROOT
ATOM      1  C   UNL     1     367.582 243.009 276.769  1.00  0.00     0.048 C 
ATOM      2  C   UNL     1     369.074 243.005 276.579  1.00  0.00    -0.009 A 
ATOM      3  C   UNL     1     369.880 244.045 277.092  1.00  0.00     0.118 A 
ATOM      4  C   UNL     1     371.265 244.013 276.896  1.00  0.00     0.050 A 
ATOM      5  C   UNL     1     371.872 242.954 276.195  1.00  0.00    -0.042 A 
ATOM      6  C   UNL     1     371.064 241.924 275.690  1.00  0.00     0.004 A 
ATOM      7  C   UNL     1     369.680 241.949 275.879  1.00  0.00     0.007 A 
ENDROOT
BRANCH   3   8
ATOM      8  O   UNL     1     369.337 245.122 277.796  1.00  0.00    -0.508 OA
ATOM      9  H   UNL     1     368.354 245.190 278.028  1.00  0.00     0.293 HD
ENDBRANCH   3   8
BRANCH   5  10
ATOM     10  C   UNL     1     373.374 242.914 275.982  1.00  0.00     0.013 C 
ATOM     11  C   UNL     1     374.075 244.018 276.783  1.00  0.00     0.012 C 
ATOM     12  C   UNL     1     373.944 241.533 276.328  1.00  0.00     0.012 C 
ENDBRANCH   5  10
TORSDOF 2
ENDMDL
MODEL 3
REMARK VINA RESULT:    -5.602      1.234      4.352
REMARK INTER + INTRA:          -6.220
REMARK INTER:                  -6.109
REMARK INTRA:                  -0.111
REMARK UNBOUND:                -0.127
REMARK SMILES Cc1ccc(C(C)C)cc1O
REMARK SMILES IDX 1 1 2 2 10 3 9 4 5 5 4 6 3 7 11 8 6 10 7 11 8 12
REMARK H PARENT 11 9
REMARK Flexibility Score: inf
ROOT
ATOM      1  C   UNL     1     373.269 243.059 276.051  1.00  0.00     0.048 C 
ATOM      2  C   UNL     1     371.805 243.311 276.290  1.00  0.00    -0.009 A 
ATOM      3  C   UNL     1     370.818 242.710 275.479  1.00  0.00     0.118 A 
ATOM      4  C   UNL     1     369.464 242.966 275.727  1.00  0.00     0.050 A 
ATOM      5  C   UNL     1     369.069 243.815 276.777  1.00  0.00    -0.042 A 
ATOM      6  C   UNL     1     370.057 244.408 277.578  1.00  0.00     0.004 A 
ATOM      7  C   UNL     1     371.411 244.159 277.337  1.00  0.00     0.007 A 
ENDROOT
BRANCH   3   8
ATOM      8  O   UNL     1     371.147 241.858 274.422  1.00  0.00    -0.508 OA
ATOM      9  H   UNL     1     370.601 241.041 274.182  1.00  0.00     0.293 HD
ENDBRANCH   3   8
BRANCH   5  10
ATOM     10  C   UNL     1     367.603 244.095 277.050  1.00  0.00     0.013 C 
ATOM     11  C   UNL     1     367.232 245.530 276.658  1.00  0.00     0.012 C 
ATOM     12  C   UNL     1     366.704 243.078 276.337  1.00  0.00     0.012 C 
ENDBRANCH   5  10
TORSDOF 2
ENDMDL
MODEL 4
REMARK VINA RESULT:    -5.418      1.276      4.324
REMARK INTER + INTRA:          -6.020
REMARK INTER:                  -5.893
REMARK INTRA:                  -0.127
REMARK UNBOUND:                -0.127
REMARK SMILES Cc1ccc(C(C)C)cc1O
REMARK SMILES IDX 1 1 2 2 10 3 9 4 5 5 4 6 3 7 11 8 6 10 7 11 8 12
REMARK H PARENT 11 9
REMARK Flexibility Score: inf
ROOT
ATOM      1  C   UNL     1     373.858 242.840 276.232  1.00  0.00     0.048 C 
ATOM      2  C   UNL     1     372.362 242.996 276.254  1.00  0.00    -0.009 A 
ATOM      3  C   UNL     1     371.522 242.086 275.577  1.00  0.00     0.118 A 
ATOM      4  C   UNL     1     370.133 242.260 275.615  1.00  0.00     0.050 A 
ATOM      5  C   UNL     1     369.558 243.333 276.321  1.00  0.00    -0.042 A 
ATOM      6  C   UNL     1     370.401 244.233 276.991  1.00  0.00     0.004 A 
ATOM      7  C   UNL     1     371.788 244.067 276.958  1.00  0.00     0.007 A 
ENDROOT
BRANCH   3   8
ATOM      8  O   UNL     1     372.032 241.002 274.859  1.00  0.00    -0.508 OA
ATOM      9  H   UNL     1     371.521 240.541 274.118  1.00  0.00     0.293 HD
ENDBRANCH   3   8
BRANCH   5  10
ATOM     10  C   UNL     1     368.054 243.525 276.366  1.00  0.00     0.013 C 
ATOM     11  C   UNL     1     367.382 242.432 277.207  1.00  0.00     0.012 C 
ATOM     12  C   UNL     1     367.691 244.922 276.884  1.00  0.00     0.012 C 
ENDBRANCH   5  10
TORSDOF 2
ENDMDL
MODEL 5
REMARK VINA RESULT:    -5.405      1.201      1.752
REMARK INTER + INTRA:          -6.006
REMARK INTER:                  -5.884
REMARK INTRA:                  -0.122
REMARK UNBOUND:                -0.127
REMARK SMILES Cc1ccc(C(C)C)cc1O
REMARK SMILES IDX 1 1 2 2 10 3 9 4 5 5 4 6 3 7 11 8 6 10 7 11 8 12
REMARK H PARENT 11 9
REMARK Flexibility Score: inf
ROOT
ATOM      1  C   UNL     1     367.106 245.033 276.905  1.00  0.00     0.048 C 
ATOM      2  C   UNL     1     368.432 244.340 276.747  1.00  0.00    -0.009 A 
ATOM      3  C   UNL     1     368.583 243.239 275.876  1.00  0.00     0.118 A 
ATOM      4  C   UNL     1     369.829 242.614 275.753  1.00  0.00     0.050 A 
ATOM      5  C   UNL     1     370.941 243.069 276.486  1.00  0.00    -0.042 A 
ATOM      6  C   UNL     1     370.782 244.164 277.349  1.00  0.00     0.004 A 
ATOM      7  C   UNL     1     369.542 244.793 277.478  1.00  0.00     0.007 A 
ENDROOT
BRANCH   3   8
ATOM      8  O   UNL     1     367.517 242.741 275.122  1.00  0.00    -0.508 OA
ATOM      9  H   UNL     1     367.535 242.686 274.112  1.00  0.00     0.293 HD
ENDBRANCH   3   8
BRANCH   5  10
ATOM     10  C   UNL     1     372.295 242.397 276.355  1.00  0.00     0.013 C 
ATOM     11  C   UNL     1     372.292 241.366 275.219  1.00  0.00     0.012 C 
ATOM     12  C   UNL     1     373.409 243.431 276.160  1.00  0.00     0.012 C 
ENDBRANCH   5  10
TORSDOF 2
ENDMDL
MODEL 6
REMARK VINA RESULT:    -5.356      1.676      4.893
REMARK INTER + INTRA:          -5.953
REMARK INTER:                  -5.834
REMARK INTRA:                  -0.119
REMARK UNBOUND:                -0.127
REMARK SMILES Cc1ccc(C(C)C)cc1O
REMARK SMILES IDX 1 1 2 2 10 3 9 4 5 5 4 6 3 7 11 8 6 10 7 11 8 12
REMARK H PARENT 11 9
REMARK Flexibility Score: inf
ROOT
ATOM      1  C   UNL     1     371.978 243.953 276.690  1.00  0.00     0.048 C 
ATOM      2  C   UNL     1     370.481 243.813 276.618  1.00  0.00    -0.009 A 
ATOM      3  C   UNL     1     369.873 242.926 275.704  1.00  0.00     0.118 A 
ATOM      4  C   UNL     1     368.478 242.820 275.660  1.00  0.00     0.050 A 
ATOM      5  C   UNL     1     367.668 243.586 276.518  1.00  0.00    -0.042 A 
ATOM      6  C   UNL     1     368.281 244.465 277.424  1.00  0.00     0.004 A 
ATOM      7  C   UNL     1     369.672 244.578 277.473  1.00  0.00     0.007 A 
ENDROOT
BRANCH   3   8
ATOM      8  O   UNL     1     370.623 242.138 274.827  1.00  0.00    -0.508 OA
ATOM      9  H   UNL     1     370.231 241.706 274.001  1.00  0.00     0.293 HD
ENDBRANCH   3   8
BRANCH   5  10
ATOM     10  C   UNL     1     366.155 243.474 276.476  1.00  0.00     0.013 C 
ATOM     11  C   UNL     1     365.505 244.850 276.283  1.00  0.00     0.012 C 
ATOM     12  C   UNL     1     365.704 242.492 275.388  1.00  0.00     0.012 C 
ENDBRANCH   5  10
TORSDOF 2
ENDMDL
MODEL 7
REMARK VINA RESULT:    -5.336      1.921      4.506
REMARK INTER + INTRA:          -5.931
REMARK INTER:                  -5.812
REMARK INTRA:                  -0.119
REMARK UNBOUND:                -0.127
REMARK SMILES Cc1ccc(C(C)C)cc1O
REMARK SMILES IDX 1 1 2 2 10 3 9 4 5 5 4 6 3 7 11 8 6 10 7 11 8 12
REMARK H PARENT 11 9
REMARK Flexibility Score: inf
ROOT
ATOM      1  C   UNL     1     373.466 241.215 275.862  1.00  0.00     0.048 C 
ATOM      2  C   UNL     1     372.214 241.926 276.299  1.00  0.00    -0.009 A 
ATOM      3  C   UNL     1     372.141 243.336 276.312  1.00  0.00     0.118 A 
ATOM      4  C   UNL     1     370.963 243.968 276.725  1.00  0.00     0.050 A 
ATOM      5  C   UNL     1     369.843 243.218 277.128  1.00  0.00    -0.042 A 
ATOM      6  C   UNL     1     369.924 241.817 277.111  1.00  0.00     0.004 A 
ATOM      7  C   UNL     1     371.096 241.178 276.701  1.00  0.00     0.007 A 
ENDROOT
BRANCH   3   8
ATOM      8  O   UNL     1     373.219 244.136 275.924  1.00  0.00    -0.508 OA
ATOM      9  H   UNL     1     373.410 244.372 274.959  1.00  0.00     0.293 HD
ENDBRANCH   3   8
BRANCH   5  10
ATOM     10  C   UNL     1     368.563 243.898 277.576  1.00  0.00     0.013 C 
ATOM     11  C   UNL     1     368.681 245.423 277.468  1.00  0.00     0.012 C 
ATOM     12  C   UNL     1     367.356 243.381 276.784  1.00  0.00     0.012 C 
ENDBRANCH   5  10
TORSDOF 2
ENDMDL
MODEL 8
REMARK VINA RESULT:    -5.075      2.390      3.889
REMARK INTER + INTRA:          -5.647
REMARK INTER:                  -5.539
REMARK INTRA:                  -0.108
REMARK UNBOUND:                -0.127
REMARK SMILES Cc1ccc(C(C)C)cc1O
REMARK SMILES IDX 1 1 2 2 10 3 9 4 5 5 4 6 3 7 11 8 6 10 7 11 8 12
REMARK H PARENT 11 9
REMARK Flexibility Score: inf
ROOT
ATOM      1  C   UNL     1     364.977 245.621 275.373  1.00  0.00     0.048 C 
ATOM      2  C   UNL     1     366.219 245.142 276.075  1.00  0.00    -0.009 A 
ATOM      3  C   UNL     1     366.500 243.765 276.206  1.00  0.00     0.118 A 
ATOM      4  C   UNL     1     367.663 243.352 276.866  1.00  0.00     0.050 A 
ATOM      5  C   UNL     1     368.562 244.291 277.403  1.00  0.00    -0.042 A 
ATOM      6  C   UNL     1     368.275 245.658 277.269  1.00  0.00     0.004 A 
ATOM      7  C   UNL     1     367.116 246.080 276.612  1.00  0.00     0.007 A 
ENDROOT
BRANCH   3   8
ATOM      8  O   UNL     1     365.648 242.784 275.693  1.00  0.00    -0.508 OA
ATOM      9  H   UNL     1     365.269 242.818 274.756  1.00  0.00     0.293 HD
ENDBRANCH   3   8
BRANCH   5  10
ATOM     10  C   UNL     1     369.825 243.849 278.118  1.00  0.00     0.013 C 
ATOM     11  C   UNL     1     369.703 242.401 278.609  1.00  0.00     0.012 C 
ATOM     12  C   UNL     1     371.058 244.027 277.225  1.00  0.00     0.012 C 
ENDBRANCH   5  10
TORSDOF 2
ENDMDL
MODEL 9
REMARK VINA RESULT:    -5.014      3.009      3.789
REMARK INTER + INTRA:          -5.581
REMARK INTER:                  -5.475
REMARK INTRA:                  -0.106
REMARK UNBOUND:                -0.127
REMARK SMILES Cc1ccc(C(C)C)cc1O
REMARK SMILES IDX 1 1 2 2 10 3 9 4 5 5 4 6 3 7 11 8 6 10 7 11 8 12
REMARK H PARENT 11 9
REMARK Flexibility Score: inf
ROOT
ATOM      1  C   UNL     1     367.881 246.370 277.005  1.00  0.00     0.048 C 
ATOM      2  C   UNL     1     368.316 244.964 277.319  1.00  0.00    -0.009 A 
ATOM      3  C   UNL     1     367.467 243.863 277.073  1.00  0.00     0.118 A 
ATOM      4  C   UNL     1     367.900 242.568 277.377  1.00  0.00     0.050 A 
ATOM      5  C   UNL     1     369.176 242.343 277.926  1.00  0.00    -0.042 A 
ATOM      6  C   UNL     1     370.014 243.443 278.167  1.00  0.00     0.004 A 
ATOM      7  C   UNL     1     369.589 244.739 277.867  1.00  0.00     0.007 A 
ENDROOT
BRANCH   3   8
ATOM      8  O   UNL     1     366.190 244.022 276.530  1.00  0.00    -0.508 OA
ATOM      9  H   UNL     1     365.903 243.591 275.661  1.00  0.00     0.293 HD
ENDBRANCH   3   8
BRANCH   5  10
ATOM     10  C   UNL     1     369.652 240.941 278.257  1.00  0.00     0.013 C 
ATOM     11  C   UNL     1     369.439 240.621 279.742  1.00  0.00     0.012 C 
ATOM     12  C   UNL     1     368.966 239.900 277.364  1.00  0.00     0.012 C 
ENDBRANCH   5  10
TORSDOF 2
ENDMDL
