MODEL 1
REMARK VINA RESULT:    -6.873      0.000      0.000
REMARK INTER + INTRA:          -8.193
REMARK INTER:                  -7.877
REMARK INTRA:                  -0.316
REMARK UNBOUND:                -0.316
REMARK SMILES O=C1C[C@H](c2ccc(O)cc2)Oc2cc(O)cc(O)c21
REMARK SMILES IDX 3 1 4 2 12 3 13 4 14 5 15 6 17 7 18 8 20 9 2 10 1 11 5 12
REMARK SMILES IDX 6 13 11 14 7 15 10 16 8 17 9 18 19 20 16 22
REMARK H PARENT 9 19 19 21 16 23
REMARK Flexibility Score: inf
ROOT
ATOM      1  C   UNL     1      62.121  40.590   7.359  1.00  0.00     0.131 C 
ATOM      2  C   UNL     1      61.730  40.532   8.843  1.00  0.00     0.211 C 
ATOM      3  O   UNL     1      61.312  39.211   9.201  1.00  0.00    -0.484 OA
ATOM      4  C   UNL     1      60.538  38.406   8.354  1.00  0.00     0.138 A 
ATOM      5  C   UNL     1      59.941  37.256   8.873  1.00  0.00     0.093 A 
ATOM      6  C   UNL     1      59.151  36.442   8.056  1.00  0.00     0.123 A 
ATOM      7  C   UNL     1      58.984  36.766   6.708  1.00  0.00     0.093 A 
ATOM      8  C   UNL     1      59.606  37.892   6.157  1.00  0.00     0.133 A 
ATOM      9  C   UNL     1      60.370  38.748   6.995  1.00  0.00     0.102 A 
ATOM     10  C   UNL     1      61.014  40.004   6.536  1.00  0.00     0.174 C 
ATOM     11  O   UNL     1      60.620  40.615   5.507  1.00  0.00    -0.294 OA
ENDROOT
BRANCH   2  12
ATOM     12  C   UNL     1      62.881  40.966   9.716  1.00  0.00    -0.007 A 
ATOM     13  C   UNL     1      63.182  40.260  10.893  1.00  0.00     0.011 A 
ATOM     14  C   UNL     1      63.630  42.112   9.395  1.00  0.00     0.011 A 
ATOM     15  C   UNL     1      64.228  40.680  11.721  1.00  0.00     0.046 A 
ATOM     16  C   UNL     1      64.676  42.528  10.224  1.00  0.00     0.046 A 
ATOM     17  C   UNL     1      64.979  41.814  11.386  1.00  0.00     0.115 A 
BRANCH  17  18
ATOM     18  O   UNL     1      66.024  42.239  12.202  1.00  0.00    -0.508 OA
ATOM     19  H   UNL     1      66.967  42.342  11.845  1.00  0.00     0.293 HD
ENDBRANCH  17  18
ENDBRANCH   2  12
BRANCH   8  20
ATOM     20  O   UNL     1      59.467  38.095   4.782  1.00  0.00    -0.507 OA
ATOM     21  H   UNL     1      58.579  38.205   4.315  1.00  0.00     0.293 HD
ENDBRANCH   8  20
BRANCH   6  22
ATOM     22  O   UNL     1      58.534  35.304   8.570  1.00  0.00    -0.508 OA
ATOM     23  H   UNL     1      57.549  35.120   8.416  1.00  0.00     0.293 HD
ENDBRANCH   6  22
TORSDOF 4
ENDMDL
MODEL 2
REMARK VINA RESULT:    -6.358      1.862      3.398
REMARK INTER + INTRA:          -7.603
REMARK INTER:                  -7.314
REMARK INTRA:                  -0.289
REMARK UNBOUND:                -0.316
REMARK SMILES O=C1C[C@H](c2ccc(O)cc2)Oc2cc(O)cc(O)c21
REMARK SMILES IDX 3 1 4 2 12 3 13 4 14 5 15 6 17 7 18 8 20 9 2 10 1 11 5 12
REMARK SMILES IDX 6 13 11 14 7 15 10 16 8 17 9 18 19 20 16 22
REMARK H PARENT 9 19 19 21 16 23
REMARK Flexibility Score: inf
ROOT
ATOM      1  C   UNL     1      61.627  39.232   9.949  1.00  0.00     0.131 C 
ATOM      2  C   UNL     1      62.451  40.459   9.535  1.00  0.00     0.211 C 
ATOM      3  O   UNL     1      61.625  41.416   8.866  1.00  0.00    -0.484 OA
ATOM      4  C   UNL     1      60.619  41.048   7.962  1.00  0.00     0.138 A 
ATOM      5  C   UNL     1      60.050  42.029   7.147  1.00  0.00     0.093 A 
ATOM      6  C   UNL     1      59.055  41.689   6.226  1.00  0.00     0.123 A 
ATOM      7  C   UNL     1      58.610  40.368   6.142  1.00  0.00     0.093 A 
ATOM      8  C   UNL     1      59.138  39.377   6.977  1.00  0.00     0.133 A 
ATOM      9  C   UNL     1      60.183  39.708   7.881  1.00  0.00     0.102 A 
ATOM     10  C   UNL     1      60.865  38.727   8.761  1.00  0.00     0.174 C 
ATOM     11  O   UNL     1      60.865  37.494   8.506  1.00  0.00    -0.294 OA
ENDROOT
BRANCH   2  12
ATOM     12  C   UNL     1      63.109  41.091  10.736  1.00  0.00    -0.007 A 
ATOM     13  C   UNL     1      64.054  42.118  10.568  1.00  0.00     0.011 A 
ATOM     14  C   UNL     1      62.828  40.626  12.034  1.00  0.00     0.011 A 
ATOM     15  C   UNL     1      64.688  42.684  11.679  1.00  0.00     0.046 A 
ATOM     16  C   UNL     1      63.462  41.195  13.142  1.00  0.00     0.046 A 
ATOM     17  C   UNL     1      64.391  42.225  12.968  1.00  0.00     0.115 A 
BRANCH  17  18
ATOM     18  O   UNL     1      65.015  42.782  14.082  1.00  0.00    -0.508 OA
ATOM     19  H   UNL     1      65.094  43.786  14.197  1.00  0.00     0.293 HD
ENDBRANCH  17  18
ENDBRANCH   2  12
BRANCH   8  20
ATOM     20  O   UNL     1      58.574  38.101   6.897  1.00  0.00    -0.507 OA
ATOM     21  H   UNL     1      59.112  37.250   6.825  1.00  0.00     0.293 HD
ENDBRANCH   8  20
BRANCH   6  22
ATOM     22  O   UNL     1      58.496  42.656   5.394  1.00  0.00    -0.508 OA
ATOM     23  H   UNL     1      57.760  42.427   4.736  1.00  0.00     0.293 HD
ENDBRANCH   6  22
TORSDOF 4
ENDMDL
MODEL 3
REMARK VINA RESULT:    -5.781      2.755      4.857
REMARK INTER + INTRA:          -6.942
REMARK INTER:                  -6.654
REMARK INTRA:                  -0.287
REMARK UNBOUND:                -0.316
REMARK SMILES O=C1C[C@H](c2ccc(O)cc2)Oc2cc(O)cc(O)c21
REMARK SMILES IDX 3 1 4 2 12 3 13 4 14 5 15 6 17 7 18 8 20 9 2 10 1 11 5 12
REMARK SMILES IDX 6 13 11 14 7 15 10 16 8 17 9 18 19 20 16 22
REMARK H PARENT 9 19 19 21 16 23
REMARK Flexibility Score: inf
ROOT
ATOM      1  C   UNL     1      64.575  40.899  10.775  1.00  0.00     0.131 C 
ATOM      2  C   UNL     1      63.124  40.823  11.272  1.00  0.00     0.211 C 
ATOM      3  O   UNL     1      62.269  40.307  10.247  1.00  0.00    -0.484 OA
ATOM      4  C   UNL     1      62.413  40.652   8.896  1.00  0.00     0.138 A 
ATOM      5  C   UNL     1      61.386  40.338   8.004  1.00  0.00     0.093 A 
ATOM      6  C   UNL     1      61.494  40.683   6.655  1.00  0.00     0.123 A 
ATOM      7  C   UNL     1      62.649  41.318   6.192  1.00  0.00     0.093 A 
ATOM      8  C   UNL     1      63.708  41.607   7.061  1.00  0.00     0.133 A 
ATOM      9  C   UNL     1      63.581  41.302   8.443  1.00  0.00     0.102 A 
ATOM     10  C   UNL     1      64.607  41.626   9.464  1.00  0.00     0.174 C 
ATOM     11  O   UNL     1      65.467  42.528   9.279  1.00  0.00    -0.294 OA
ENDROOT
BRANCH   2  12
ATOM     12  C   UNL     1      63.028  39.963  12.508  1.00  0.00    -0.007 A 
ATOM     13  C   UNL     1      63.491  38.637  12.487  1.00  0.00     0.011 A 
ATOM     14  C   UNL     1      62.424  40.458  13.678  1.00  0.00     0.011 A 
ATOM     15  C   UNL     1      63.374  37.828  13.622  1.00  0.00     0.046 A 
ATOM     16  C   UNL     1      62.309  39.648  14.812  1.00  0.00     0.046 A 
ATOM     17  C   UNL     1      62.785  38.334  14.788  1.00  0.00     0.115 A 
BRANCH  17  18
ATOM     18  O   UNL     1      62.665  37.539  15.925  1.00  0.00    -0.508 OA
ATOM     19  H   UNL     1      62.129  37.842  16.730  1.00  0.00     0.293 HD
ENDBRANCH  17  18
ENDBRANCH   2  12
BRANCH   8  20
ATOM     20  O   UNL     1      64.865  42.158   6.504  1.00  0.00    -0.507 OA
ATOM     21  H   UNL     1      65.515  42.737   7.013  1.00  0.00     0.293 HD
ENDBRANCH   8  20
BRANCH   6  22
ATOM     22  O   UNL     1      60.466  40.392   5.761  1.00  0.00    -0.508 OA
ATOM     23  H   UNL     1      60.058  39.465   5.706  1.00  0.00     0.293 HD
ENDBRANCH   6  22
TORSDOF 4
ENDMDL
MODEL 4
REMARK VINA RESULT:    -5.678      2.845      6.490
REMARK INTER + INTRA:          -6.824
REMARK INTER:                  -6.504
REMARK INTRA:                  -0.320
REMARK UNBOUND:                -0.316
REMARK SMILES O=C1C[C@H](c2ccc(O)cc2)Oc2cc(O)cc(O)c21
REMARK SMILES IDX 3 1 4 2 12 3 13 4 14 5 15 6 17 7 18 8 20 9 2 10 1 11 5 12
REMARK SMILES IDX 6 13 11 14 7 15 10 16 8 17 9 18 19 20 16 22
REMARK H PARENT 9 19 19 21 16 23
REMARK Flexibility Score: inf
ROOT
ATOM      1  C   UNL     1      62.970  41.957   7.210  1.00  0.00     0.131 C 
ATOM      2  C   UNL     1      61.969  40.795   7.276  1.00  0.00     0.211 C 
ATOM      3  O   UNL     1      61.687  40.452   8.636  1.00  0.00    -0.484 OA
ATOM      4  C   UNL     1      62.671  40.441   9.634  1.00  0.00     0.138 A 
ATOM      5  C   UNL     1      62.386  39.835  10.860  1.00  0.00     0.093 A 
ATOM      6  C   UNL     1      63.352  39.795  11.868  1.00  0.00     0.123 A 
ATOM      7  C   UNL     1      64.598  40.391  11.659  1.00  0.00     0.093 A 
ATOM      8  C   UNL     1      64.891  41.039  10.453  1.00  0.00     0.133 A 
ATOM      9  C   UNL     1      63.929  41.040   9.408  1.00  0.00     0.102 A 
ATOM     10  C   UNL     1      64.157  41.633   8.067  1.00  0.00     0.174 C 
ATOM     11  O   UNL     1      65.317  41.819   7.612  1.00  0.00    -0.294 OA
ENDROOT
BRANCH   2  12
ATOM     12  C   UNL     1      60.692  41.149   6.555  1.00  0.00    -0.007 A 
ATOM     13  C   UNL     1      60.737  41.847   5.337  1.00  0.00     0.011 A 
ATOM     14  C   UNL     1      59.442  40.834   7.118  1.00  0.00     0.011 A 
ATOM     15  C   UNL     1      59.553  42.203   4.682  1.00  0.00     0.046 A 
ATOM     16  C   UNL     1      58.261  41.191   6.461  1.00  0.00     0.046 A 
ATOM     17  C   UNL     1      58.313  41.873   5.243  1.00  0.00     0.115 A 
BRANCH  17  18
ATOM     18  O   UNL     1      57.128  42.221   4.599  1.00  0.00    -0.508 OA
ATOM     19  H   UNL     1      56.965  43.163   4.260  1.00  0.00     0.293 HD
ENDBRANCH  17  18
ENDBRANCH   2  12
BRANCH   8  20
ATOM     20  O   UNL     1      66.123  41.691  10.357  1.00  0.00    -0.507 OA
ATOM     21  H   UNL     1      67.015  41.233  10.476  1.00  0.00     0.293 HD
ENDBRANCH   8  20
BRANCH   6  22
ATOM     22  O   UNL     1      63.084  39.174  13.086  1.00  0.00    -0.508 OA
ATOM     23  H   UNL     1      62.529  38.328  13.138  1.00  0.00     0.293 HD
ENDBRANCH   6  22
TORSDOF 4
ENDMDL
MODEL 5
REMARK VINA RESULT:    -5.559     17.867     21.018
REMARK INTER + INTRA:          -6.687
REMARK INTER:                  -6.394
REMARK INTRA:                  -0.293
REMARK UNBOUND:                -0.316
REMARK SMILES O=C1C[C@H](c2ccc(O)cc2)Oc2cc(O)cc(O)c21
REMARK SMILES IDX 3 1 4 2 12 3 13 4 14 5 15 6 17 7 18 8 20 9 2 10 1 11 5 12
REMARK SMILES IDX 6 13 11 14 7 15 10 16 8 17 9 18 19 20 16 22
REMARK H PARENT 9 19 19 21 16 23
REMARK Flexibility Score: inf
ROOT
ATOM      1  C   UNL     1      48.435  27.012  20.874  1.00  0.00     0.131 C 
ATOM      2  C   UNL     1      49.447  26.255  20.003  1.00  0.00     0.211 C 
ATOM      3  O   UNL     1      50.028  27.131  19.032  1.00  0.00    -0.484 OA
ATOM      4  C   UNL     1      49.287  28.113  18.359  1.00  0.00     0.138 A 
ATOM      5  C   UNL     1      49.845  28.733  17.240  1.00  0.00     0.093 A 
ATOM      6  C   UNL     1      49.126  29.705  16.541  1.00  0.00     0.123 A 
ATOM      7  C   UNL     1      47.854  30.078  16.982  1.00  0.00     0.093 A 
ATOM      8  C   UNL     1      47.291  29.498  18.125  1.00  0.00     0.133 A 
ATOM      9  C   UNL     1      47.999  28.475  18.810  1.00  0.00     0.102 A 
ATOM     10  C   UNL     1      47.472  27.742  19.988  1.00  0.00     0.174 C 
ATOM     11  O   UNL     1      46.237  27.674  20.229  1.00  0.00    -0.294 OA
ENDROOT
BRANCH   2  12
ATOM     12  C   UNL     1      50.528  25.636  20.854  1.00  0.00    -0.007 A 
ATOM     13  C   UNL     1      51.527  24.844  20.264  1.00  0.00     0.011 A 
ATOM     14  C   UNL     1      50.518  25.797  22.251  1.00  0.00     0.011 A 
ATOM     15  C   UNL     1      52.512  24.243  21.055  1.00  0.00     0.046 A 
ATOM     16  C   UNL     1      51.504  25.196  23.040  1.00  0.00     0.046 A 
ATOM     17  C   UNL     1      52.503  24.420  22.444  1.00  0.00     0.115 A 
BRANCH  17  18
ATOM     18  O   UNL     1      53.480  23.829  23.242  1.00  0.00    -0.508 OA
ATOM     19  H   UNL     1      53.276  23.019  23.816  1.00  0.00     0.293 HD
ENDBRANCH  17  18
ENDBRANCH   2  12
BRANCH   8  20
ATOM     20  O   UNL     1      46.056  29.991  18.554  1.00  0.00    -0.507 OA
ATOM     21  H   UNL     1      45.679  30.885  18.279  1.00  0.00     0.293 HD
ENDBRANCH   8  20
BRANCH   6  22
ATOM     22  O   UNL     1      49.666  30.315  15.411  1.00  0.00    -0.508 OA
ATOM     23  H   UNL     1      50.648  30.221  15.177  1.00  0.00     0.293 HD
ENDBRANCH   6  22
TORSDOF 4
ENDMDL
MODEL 6
REMARK VINA RESULT:    -5.307     17.320     20.680
REMARK INTER + INTRA:          -6.399
REMARK INTER:                  -6.106
REMARK INTRA:                  -0.293
REMARK UNBOUND:                -0.316
REMARK SMILES O=C1C[C@H](c2ccc(O)cc2)Oc2cc(O)cc(O)c21
REMARK SMILES IDX 3 1 4 2 12 3 13 4 14 5 15 6 17 7 18 8 20 9 2 10 1 11 5 12
REMARK SMILES IDX 6 13 11 14 7 15 10 16 8 17 9 18 19 20 16 22
REMARK H PARENT 9 19 19 21 16 23
REMARK Flexibility Score: inf
ROOT
ATOM      1  C   UNL     1      46.690  28.893  18.384  1.00  0.00     0.131 C 
ATOM      2  C   UNL     1      48.004  29.366  17.744  1.00  0.00     0.211 C 
ATOM      3  O   UNL     1      49.042  28.406  17.960  1.00  0.00    -0.484 OA
ATOM      4  C   UNL     1      49.190  27.710  19.168  1.00  0.00     0.138 A 
ATOM      5  C   UNL     1      50.373  27.006  19.402  1.00  0.00     0.093 A 
ATOM      6  C   UNL     1      50.556  26.315  20.603  1.00  0.00     0.123 A 
ATOM      7  C   UNL     1      49.538  26.305  21.559  1.00  0.00     0.093 A 
ATOM      8  C   UNL     1      48.328  26.970  21.328  1.00  0.00     0.133 A 
ATOM      9  C   UNL     1      48.157  27.713  20.129  1.00  0.00     0.102 A 
ATOM     10  C   UNL     1      46.948  28.513  19.811  1.00  0.00     0.174 C 
ATOM     11  O   UNL     1      46.167  28.922  20.710  1.00  0.00    -0.294 OA
ENDROOT
BRANCH   2  12
ATOM     12  C   UNL     1      47.821  29.609  16.266  1.00  0.00    -0.007 A 
ATOM     13  C   UNL     1      46.627  29.230  15.629  1.00  0.00     0.011 A 
ATOM     14  C   UNL     1      48.860  30.164  15.499  1.00  0.00     0.011 A 
ATOM     15  C   UNL     1      46.468  29.425  14.253  1.00  0.00     0.046 A 
ATOM     16  C   UNL     1      48.698  30.359  14.124  1.00  0.00     0.046 A 
ATOM     17  C   UNL     1      47.503  29.992  13.499  1.00  0.00     0.115 A 
BRANCH  17  18
ATOM     18  O   UNL     1      47.355  30.193  12.128  1.00  0.00    -0.508 OA
ATOM     19  H   UNL     1      46.709  29.639  11.578  1.00  0.00     0.293 HD
ENDBRANCH  17  18
ENDBRANCH   2  12
BRANCH   8  20
ATOM     20  O   UNL     1      47.325  26.834  22.291  1.00  0.00    -0.507 OA
ATOM     21  H   UNL     1      47.501  26.627  23.263  1.00  0.00     0.293 HD
ENDBRANCH   8  20
BRANCH   6  22
ATOM     22  O   UNL     1      51.741  25.628  20.855  1.00  0.00    -0.508 OA
ATOM     23  H   UNL     1      52.427  25.979  21.514  1.00  0.00     0.293 HD
ENDBRANCH   6  22
TORSDOF 4
ENDMDL
MODEL 7
REMARK VINA RESULT:    -5.236      1.843      6.523
REMARK INTER + INTRA:          -6.317
REMARK INTER:                  -6.001
REMARK INTRA:                  -0.316
REMARK UNBOUND:                -0.316
REMARK SMILES O=C1C[C@H](c2ccc(O)cc2)Oc2cc(O)cc(O)c21
REMARK SMILES IDX 3 1 4 2 12 3 13 4 14 5 15 6 17 7 18 8 20 9 2 10 1 11 5 12
REMARK SMILES IDX 6 13 11 14 7 15 10 16 8 17 9 18 19 20 16 22
REMARK H PARENT 9 19 19 21 16 23
REMARK Flexibility Score: inf
ROOT
ATOM      1  C   UNL     1      61.848  41.110   7.757  1.00  0.00     0.131 C 
ATOM      2  C   UNL     1      61.915  39.579   7.848  1.00  0.00     0.211 C 
ATOM      3  O   UNL     1      61.764  39.149   9.204  1.00  0.00    -0.484 OA
ATOM      4  C   UNL     1      62.343  39.830  10.283  1.00  0.00     0.138 A 
ATOM      5  C   UNL     1      62.388  39.206  11.531  1.00  0.00     0.093 A 
ATOM      6  C   UNL     1      62.973  39.854  12.622  1.00  0.00     0.123 A 
ATOM      7  C   UNL     1      63.488  41.143  12.469  1.00  0.00     0.093 A 
ATOM      8  C   UNL     1      63.417  41.803  11.237  1.00  0.00     0.133 A 
ATOM      9  C   UNL     1      62.867  41.130  10.113  1.00  0.00     0.102 A 
ATOM     10  C   UNL     1      62.806  41.703   8.746  1.00  0.00     0.174 C 
ATOM     11  O   UNL     1      63.571  42.635   8.382  1.00  0.00    -0.294 OA
ENDROOT
BRANCH   2  12
ATOM     12  C   UNL     1      60.854  38.946   6.982  1.00  0.00    -0.007 A 
ATOM     13  C   UNL     1      60.092  37.870   7.468  1.00  0.00     0.011 A 
ATOM     14  C   UNL     1      60.652  39.386   5.661  1.00  0.00     0.011 A 
ATOM     15  C   UNL     1      59.130  37.261   6.656  1.00  0.00     0.046 A 
ATOM     16  C   UNL     1      59.688  38.776   4.852  1.00  0.00     0.046 A 
ATOM     17  C   UNL     1      58.925  37.715   5.347  1.00  0.00     0.115 A 
BRANCH  17  18
ATOM     18  O   UNL     1      57.967  37.117   4.530  1.00  0.00    -0.508 OA
ATOM     19  H   UNL     1      57.313  37.670   3.990  1.00  0.00     0.293 HD
ENDBRANCH  17  18
ENDBRANCH   2  12
BRANCH   8  20
ATOM     20  O   UNL     1      63.868  43.125  11.188  1.00  0.00    -0.507 OA
ATOM     21  H   UNL     1      63.543  43.855  11.804  1.00  0.00     0.293 HD
ENDBRANCH   8  20
BRANCH   6  22
ATOM     22  O   UNL     1      63.041  39.231  13.866  1.00  0.00    -0.508 OA
ATOM     23  H   UNL     1      63.558  38.369  13.999  1.00  0.00     0.293 HD
ENDBRANCH   6  22
TORSDOF 4
ENDMDL
MODEL 8
REMARK VINA RESULT:    -4.638     17.796     20.111
REMARK INTER + INTRA:          -5.631
REMARK INTER:                  -5.329
REMARK INTRA:                  -0.302
REMARK UNBOUND:                -0.316
REMARK SMILES O=C1C[C@H](c2ccc(O)cc2)Oc2cc(O)cc(O)c21
REMARK SMILES IDX 3 1 4 2 12 3 13 4 14 5 15 6 17 7 18 8 20 9 2 10 1 11 5 12
REMARK SMILES IDX 6 13 11 14 7 15 10 16 8 17 9 18 19 20 16 22
REMARK H PARENT 9 19 19 21 16 23
REMARK Flexibility Score: inf
ROOT
ATOM      1  C   UNL     1      49.240  29.567  16.732  1.00  0.00     0.131 C 
ATOM      2  C   UNL     1      47.792  29.265  16.321  1.00  0.00     0.211 C 
ATOM      3  O   UNL     1      46.956  29.149  17.476  1.00  0.00    -0.484 OA
ATOM      4  C   UNL     1      47.378  28.522  18.656  1.00  0.00     0.138 A 
ATOM      5  C   UNL     1      46.429  28.202  19.629  1.00  0.00     0.093 A 
ATOM      6  C   UNL     1      46.818  27.564  20.809  1.00  0.00     0.123 A 
ATOM      7  C   UNL     1      48.166  27.271  21.028  1.00  0.00     0.093 A 
ATOM      8  C   UNL     1      49.139  27.619  20.084  1.00  0.00     0.133 A 
ATOM      9  C   UNL     1      48.742  28.224  18.862  1.00  0.00     0.102 A 
ATOM     10  C   UNL     1      49.677  28.571  17.763  1.00  0.00     0.174 C 
ATOM     11  O   UNL     1      50.799  28.012  17.645  1.00  0.00    -0.294 OA
ENDROOT
BRANCH   2  12
ATOM     12  C   UNL     1      47.262  30.338  15.402  1.00  0.00    -0.007 A 
ATOM     13  C   UNL     1      47.358  30.189  14.009  1.00  0.00     0.011 A 
ATOM     14  C   UNL     1      46.718  31.524  15.928  1.00  0.00     0.011 A 
ATOM     15  C   UNL     1      46.896  31.196  13.156  1.00  0.00     0.046 A 
ATOM     16  C   UNL     1      46.255  32.529  15.073  1.00  0.00     0.046 A 
ATOM     17  C   UNL     1      46.341  32.368  13.687  1.00  0.00     0.115 A 
BRANCH  17  18
ATOM     18  O   UNL     1      45.876  33.377  12.847  1.00  0.00    -0.508 OA
ATOM     19  H   UNL     1      44.891  33.470  12.626  1.00  0.00     0.293 HD
ENDBRANCH  17  18
ENDBRANCH   2  12
BRANCH   8  20
ATOM     20  O   UNL     1      50.474  27.377  20.419  1.00  0.00    -0.507 OA
ATOM     21  H   UNL     1      50.830  27.387  21.363  1.00  0.00     0.293 HD
ENDBRANCH   8  20
BRANCH   6  22
ATOM     22  O   UNL     1      45.875  27.222  21.777  1.00  0.00    -0.508 OA
ATOM     23  H   UNL     1      45.667  26.254  21.995  1.00  0.00     0.293 HD
ENDBRANCH   6  22
TORSDOF 4
ENDMDL
MODEL 9
REMARK VINA RESULT:    -4.532     17.830     18.903
REMARK INTER + INTRA:          -5.510
REMARK INTER:                  -5.212
REMARK INTRA:                  -0.298
REMARK UNBOUND:                -0.316
REMARK SMILES O=C1C[C@H](c2ccc(O)cc2)Oc2cc(O)cc(O)c21
REMARK SMILES IDX 3 1 4 2 12 3 13 4 14 5 15 6 17 7 18 8 20 9 2 10 1 11 5 12
REMARK SMILES IDX 6 13 11 14 7 15 10 16 8 17 9 18 19 20 16 22
REMARK H PARENT 9 19 19 21 16 23
REMARK Flexibility Score: inf
ROOT
ATOM      1  C   UNL     1      47.727  29.346  15.300  1.00  0.00     0.131 C 
ATOM      2  C   UNL     1      48.530  30.026  16.417  1.00  0.00     0.211 C 
ATOM      3  O   UNL     1      47.873  31.219  16.855  1.00  0.00    -0.484 OA
ATOM      4  C   UNL     1      47.231  32.097  15.971  1.00  0.00     0.138 A 
ATOM      5  C   UNL     1      46.859  33.364  16.426  1.00  0.00     0.093 A 
ATOM      6  C   UNL     1      46.231  34.266  15.564  1.00  0.00     0.123 A 
ATOM      7  C   UNL     1      45.948  33.887  14.249  1.00  0.00     0.093 A 
ATOM      8  C   UNL     1      46.276  32.608  13.784  1.00  0.00     0.133 A 
ATOM      9  C   UNL     1      46.958  31.705  14.643  1.00  0.00     0.102 A 
ATOM     10  C   UNL     1      47.416  30.354  14.235  1.00  0.00     0.174 C 
ATOM     11  O   UNL     1      47.601  30.052  13.026  1.00  0.00    -0.294 OA
ENDROOT
BRANCH   2  12
ATOM     12  C   UNL     1      48.728  29.087  17.582  1.00  0.00    -0.007 A 
ATOM     13  C   UNL     1      47.692  28.879  18.507  1.00  0.00     0.011 A 
ATOM     14  C   UNL     1      49.966  28.451  17.786  1.00  0.00     0.011 A 
ATOM     15  C   UNL     1      47.883  28.033  19.605  1.00  0.00     0.046 A 
ATOM     16  C   UNL     1      50.154  27.605  18.883  1.00  0.00     0.046 A 
ATOM     17  C   UNL     1      49.114  27.392  19.793  1.00  0.00     0.115 A 
BRANCH  17  18
ATOM     18  O   UNL     1      49.315  26.546  20.881  1.00  0.00    -0.508 OA
ATOM     19  H   UNL     1      49.872  26.831  21.678  1.00  0.00     0.293 HD
ENDBRANCH  17  18
ENDBRANCH   2  12
BRANCH   8  20
ATOM     20  O   UNL     1      45.876  32.274  12.487  1.00  0.00    -0.507 OA
ATOM     21  H   UNL     1      45.876  31.334  12.122  1.00  0.00     0.293 HD
ENDBRANCH   8  20
BRANCH   6  22
ATOM     22  O   UNL     1      45.875  35.539  16.003  1.00  0.00    -0.508 OA
ATOM     23  H   UNL     1      46.336  35.975  16.794  1.00  0.00     0.293 HD
ENDBRANCH   6  22
TORSDOF 4
ENDMDL
