MODEL 1
REMARK VINA RESULT:    -4.080      0.000      0.000
REMARK INTER + INTRA:          -6.330
REMARK INTER:                  -5.750
REMARK INTRA:                  -0.580
REMARK UNBOUND:                -0.580
REMARK SMILES CCCCCCCCC(=O)[O-]
REMARK SMILES IDX 6 1 7 2 8 3 9 4 10 5 11 6 5 7 4 8 3 9 2 10 1 11
REMARK H PARENT
REMARK Flexibility Score: inf
ROOT
ATOM      1  C   UNL     1       5.248  51.888   1.486  1.00  0.00     0.000 C 
ENDROOT
BRANCH   1   2
ATOM      2  C   UNL     1       6.156  52.414   0.365  1.00  0.00     0.006 C 
BRANCH   2   3
ATOM      3  C   UNL     1       5.425  52.406  -0.982  1.00  0.00     0.053 C 
BRANCH   3   4
ATOM      4  C   UNL     1       6.386  52.148  -2.098  1.00  0.00     0.041 C 
ATOM      5  O   UNL     1       5.966  51.739  -3.213  1.00  0.00    -0.550 OA
ATOM      6  O   UNL     1       7.751  52.310  -1.894  1.00  0.00    -0.550 OA
ENDBRANCH   3   4
ENDBRANCH   2   3
ENDBRANCH   1   2
BRANCH   1   7
ATOM      7  C   UNL     1       3.759  51.912   1.103  1.00  0.00     0.000 C 
BRANCH   7   8
ATOM      8  C   UNL     1       3.041  50.596   1.433  1.00  0.00    -0.000 C 
BRANCH   8   9
ATOM      9  C   UNL     1       2.011  50.246   0.348  1.00  0.00    -0.000 C 
BRANCH   9  10
ATOM     10  C   UNL     1       1.877  51.348  -0.716  1.00  0.00    -0.003 C 
ATOM     11  C   UNL     1       2.247  50.864  -2.118  1.00  0.00     0.004 C 
ENDBRANCH   9  10
ENDBRANCH   8   9
ENDBRANCH   7   8
ENDBRANCH   1   7
TORSDOF 7
ENDMDL
MODEL 2
REMARK VINA RESULT:    -4.043      1.141      1.967
REMARK INTER + INTRA:          -6.277
REMARK INTER:                  -5.843
REMARK INTRA:                  -0.435
REMARK UNBOUND:                -0.580
REMARK SMILES CCCCCCCCC(=O)[O-]
REMARK SMILES IDX 6 1 7 2 8 3 9 4 10 5 11 6 5 7 4 8 3 9 2 10 1 11
REMARK H PARENT
REMARK Flexibility Score: inf
ROOT
ATOM      1  C   UNL     1       6.142  52.516   0.303  1.00  0.00     0.000 C 
ENDROOT
BRANCH   1   2
ATOM      2  C   UNL     1       5.451  52.233  -1.039  1.00  0.00     0.006 C 
BRANCH   2   3
ATOM      3  C   UNL     1       6.479  52.109  -2.169  1.00  0.00     0.053 C 
BRANCH   3   4
ATOM      4  C   UNL     1       5.849  52.422  -3.488  1.00  0.00     0.041 C 
ATOM      5  O   UNL     1       6.088  53.519  -4.059  1.00  0.00    -0.550 OA
ATOM      6  O   UNL     1       4.957  51.526  -4.065  1.00  0.00    -0.550 OA
ENDBRANCH   3   4
ENDBRANCH   2   3
ENDBRANCH   1   2
BRANCH   1   7
ATOM      7  C   UNL     1       5.367  51.943   1.501  1.00  0.00     0.000 C 
BRANCH   7   8
ATOM      8  C   UNL     1       3.848  51.933   1.273  1.00  0.00    -0.000 C 
BRANCH   8   9
ATOM      9  C   UNL     1       3.234  50.601   1.731  1.00  0.00    -0.000 C 
BRANCH   9  10
ATOM     10  C   UNL     1       2.081  50.140   0.826  1.00  0.00    -0.003 C 
ATOM     11  C   UNL     1       1.952  50.983  -0.443  1.00  0.00     0.004 C 
ENDBRANCH   9  10
ENDBRANCH   8   9
ENDBRANCH   7   8
ENDBRANCH   1   7
TORSDOF 7
ENDMDL
MODEL 3
REMARK VINA RESULT:    -3.969      1.550      3.650
REMARK INTER + INTRA:          -6.174
REMARK INTER:                  -5.511
REMARK INTRA:                  -0.662
REMARK UNBOUND:                -0.580
REMARK SMILES CCCCCCCCC(=O)[O-]
REMARK SMILES IDX 6 1 7 2 8 3 9 4 10 5 11 6 5 7 4 8 3 9 2 10 1 11
REMARK H PARENT
REMARK Flexibility Score: inf
ROOT
ATOM      1  C   UNL     1       1.875  52.164  -0.418  1.00  0.00     0.000 C 
ENDROOT
BRANCH   1   2
ATOM      2  C   UNL     1       1.985  52.310  -1.942  1.00  0.00     0.006 C 
BRANCH   2   3
ATOM      3  C   UNL     1       2.602  51.056  -2.570  1.00  0.00     0.053 C 
BRANCH   3   4
ATOM      4  C   UNL     1       3.312  51.399  -3.840  1.00  0.00     0.041 C 
ATOM      5  O   UNL     1       4.544  51.167  -3.959  1.00  0.00    -0.550 OA
ATOM      6  O   UNL     1       2.626  52.023  -4.875  1.00  0.00    -0.550 OA
ENDBRANCH   3   4
ENDBRANCH   2   3
ENDBRANCH   1   2
BRANCH   1   7
ATOM      7  C   UNL     1       2.115  50.722   0.058  1.00  0.00     0.000 C 
BRANCH   7   8
ATOM      8  C   UNL     1       2.974  50.653   1.329  1.00  0.00    -0.000 C 
BRANCH   8   9
ATOM      9  C   UNL     1       3.735  51.970   1.549  1.00  0.00    -0.000 C 
BRANCH   9  10
ATOM     10  C   UNL     1       5.227  51.855   1.197  1.00  0.00    -0.003 C 
ATOM     11  C   UNL     1       5.567  52.485  -0.153  1.00  0.00     0.004 C 
ENDBRANCH   9  10
ENDBRANCH   8   9
ENDBRANCH   7   8
ENDBRANCH   1   7
TORSDOF 7
ENDMDL
MODEL 4
REMARK VINA RESULT:    -3.916      1.723      3.697
REMARK INTER + INTRA:          -6.099
REMARK INTER:                  -5.504
REMARK INTRA:                  -0.595
REMARK UNBOUND:                -0.580
REMARK SMILES CCCCCCCCC(=O)[O-]
REMARK SMILES IDX 6 1 7 2 8 3 9 4 10 5 11 6 5 7 4 8 3 9 2 10 1 11
REMARK H PARENT
REMARK Flexibility Score: inf
ROOT
ATOM      1  C   UNL     1       2.265  50.243   0.209  1.00  0.00     0.000 C 
ENDROOT
BRANCH   1   2
ATOM      2  C   UNL     1       2.180  51.359  -0.842  1.00  0.00     0.006 C 
BRANCH   2   3
ATOM      3  C   UNL     1       2.138  50.775  -2.258  1.00  0.00     0.053 C 
BRANCH   3   4
ATOM      4  C   UNL     1       2.866  51.665  -3.215  1.00  0.00     0.041 C 
ATOM      5  O   UNL     1       3.586  51.168  -4.120  1.00  0.00    -0.550 OA
ATOM      6  O   UNL     1       2.790  53.046  -3.077  1.00  0.00    -0.550 OA
ENDBRANCH   3   4
ENDBRANCH   2   3
ENDBRANCH   1   2
BRANCH   1   7
ATOM      7  C   UNL     1       3.020  50.678   1.475  1.00  0.00     0.000 C 
BRANCH   7   8
ATOM      8  C   UNL     1       3.782  51.998   1.287  1.00  0.00    -0.000 C 
BRANCH   8   9
ATOM      9  C   UNL     1       5.289  51.798   1.506  1.00  0.00    -0.000 C 
BRANCH   9  10
ATOM     10  C   UNL     1       6.143  52.602   0.514  1.00  0.00    -0.003 C 
ATOM     11  C   UNL     1       5.751  52.352  -0.942  1.00  0.00     0.004 C 
ENDBRANCH   9  10
ENDBRANCH   8   9
ENDBRANCH   7   8
ENDBRANCH   1   7
TORSDOF 7
ENDMDL
MODEL 5
REMARK VINA RESULT:    -3.885      1.490      1.578
REMARK INTER + INTRA:          -6.054
REMARK INTER:                  -5.300
REMARK INTRA:                  -0.754
REMARK UNBOUND:                -0.580
REMARK SMILES CCCCCCCCC(=O)[O-]
REMARK SMILES IDX 6 1 7 2 8 3 9 4 10 5 11 6 5 7 4 8 3 9 2 10 1 11
REMARK H PARENT
REMARK Flexibility Score: inf
ROOT
ATOM      1  C   UNL     1       5.249  51.661   1.544  1.00  0.00     0.000 C 
ENDROOT
BRANCH   1   2
ATOM      2  C   UNL     1       5.964  52.579   0.542  1.00  0.00     0.006 C 
BRANCH   2   3
ATOM      3  C   UNL     1       5.428  52.363  -0.878  1.00  0.00     0.053 C 
BRANCH   3   4
ATOM      4  C   UNL     1       4.976  53.659  -1.471  1.00  0.00     0.041 C 
ATOM      5  O   UNL     1       3.806  54.076  -1.264  1.00  0.00    -0.550 OA
ATOM      6  O   UNL     1       5.830  54.383  -2.294  1.00  0.00    -0.550 OA
ENDBRANCH   3   4
ENDBRANCH   2   3
ENDBRANCH   1   2
BRANCH   1   7
ATOM      7  C   UNL     1       3.719  51.805   1.492  1.00  0.00     0.000 C 
BRANCH   7   8
ATOM      8  C   UNL     1       2.991  50.469   1.708  1.00  0.00    -0.000 C 
BRANCH   8   9
ATOM      9  C   UNL     1       2.243  50.041   0.437  1.00  0.00    -0.000 C 
BRANCH   9  10
ATOM     10  C   UNL     1       1.876  51.232  -0.463  1.00  0.00    -0.003 C 
ATOM     11  C   UNL     1       2.171  50.970  -1.940  1.00  0.00     0.004 C 
ENDBRANCH   9  10
ENDBRANCH   8   9
ENDBRANCH   7   8
ENDBRANCH   1   7
TORSDOF 7
ENDMDL
MODEL 6
REMARK VINA RESULT:    -3.878      2.048      3.911
REMARK INTER + INTRA:          -6.044
REMARK INTER:                  -5.378
REMARK INTRA:                  -0.666
REMARK UNBOUND:                -0.580
REMARK SMILES CCCCCCCCC(=O)[O-]
REMARK SMILES IDX 6 1 7 2 8 3 9 4 10 5 11 6 5 7 4 8 3 9 2 10 1 11
REMARK H PARENT
REMARK Flexibility Score: inf
ROOT
ATOM      1  C   UNL     1       3.586  51.068   1.510  1.00  0.00     0.000 C 
ENDROOT
BRANCH   1   2
ATOM      2  C   UNL     1       2.687  50.642   0.341  1.00  0.00     0.006 C 
BRANCH   2   3
ATOM      3  C   UNL     1       2.071  51.863  -0.349  1.00  0.00     0.053 C 
BRANCH   3   4
ATOM      4  C   UNL     1       2.312  51.811  -1.824  1.00  0.00     0.041 C 
ATOM      5  O   UNL     1       2.516  52.872  -2.471  1.00  0.00    -0.550 OA
ATOM      6  O   UNL     1       2.265  50.595  -2.495  1.00  0.00    -0.550 OA
ENDBRANCH   3   4
ENDBRANCH   2   3
ENDBRANCH   1   2
BRANCH   1   7
ATOM      7  C   UNL     1       4.383  52.348   1.210  1.00  0.00     0.000 C 
BRANCH   7   8
ATOM      8  C   UNL     1       5.890  52.179   1.452  1.00  0.00    -0.000 C 
BRANCH   8   9
ATOM      9  C   UNL     1       6.692  52.556   0.197  1.00  0.00    -0.000 C 
BRANCH   9  10
ATOM     10  C   UNL     1       5.796  52.793  -1.029  1.00  0.00    -0.003 C 
ATOM     11  C   UNL     1       6.288  52.054  -2.273  1.00  0.00     0.004 C 
ENDBRANCH   9  10
ENDBRANCH   8   9
ENDBRANCH   7   8
ENDBRANCH   1   7
TORSDOF 7
ENDMDL
MODEL 7
REMARK VINA RESULT:    -3.733      2.693      3.034
REMARK INTER + INTRA:          -5.840
REMARK INTER:                  -5.075
REMARK INTRA:                  -0.765
REMARK UNBOUND:                -0.580
REMARK SMILES CCCCCCCCC(=O)[O-]
REMARK SMILES IDX 6 1 7 2 8 3 9 4 10 5 11 6 5 7 4 8 3 9 2 10 1 11
REMARK H PARENT
REMARK Flexibility Score: inf
ROOT
ATOM      1  C   UNL     1       4.893  51.619   1.123  1.00  0.00     0.000 C 
ENDROOT
BRANCH   1   2
ATOM      2  C   UNL     1       5.236  53.113   1.050  1.00  0.00     0.006 C 
BRANCH   2   3
ATOM      3  C   UNL     1       4.046  53.971   1.492  1.00  0.00     0.053 C 
BRANCH   3   4
ATOM      4  C   UNL     1       3.755  55.029   0.475  1.00  0.00     0.041 C 
ATOM      5  O   UNL     1       3.200  54.724  -0.614  1.00  0.00    -0.550 OA
ATOM      6  O   UNL     1       4.141  56.343   0.707  1.00  0.00    -0.550 OA
ENDBRANCH   3   4
ENDBRANCH   2   3
ENDBRANCH   1   2
BRANCH   1   7
ATOM      7  C   UNL     1       3.446  51.364   1.576  1.00  0.00     0.000 C 
BRANCH   7   8
ATOM      8  C   UNL     1       2.650  50.520   0.570  1.00  0.00    -0.000 C 
BRANCH   8   9
ATOM      9  C   UNL     1       1.876  51.418  -0.407  1.00  0.00    -0.000 C 
BRANCH   9  10
ATOM     10  C   UNL     1       2.200  51.108  -1.877  1.00  0.00    -0.003 C 
ATOM     11  C   UNL     1       3.490  51.776  -2.352  1.00  0.00     0.004 C 
ENDBRANCH   9  10
ENDBRANCH   8   9
ENDBRANCH   7   8
ENDBRANCH   1   7
TORSDOF 7
ENDMDL
MODEL 8
REMARK VINA RESULT:    -3.693      2.146      3.403
REMARK INTER + INTRA:          -5.785
REMARK INTER:                  -5.337
REMARK INTRA:                  -0.448
REMARK UNBOUND:                -0.580
REMARK SMILES CCCCCCCCC(=O)[O-]
REMARK SMILES IDX 6 1 7 2 8 3 9 4 10 5 11 6 5 7 4 8 3 9 2 10 1 11
REMARK H PARENT
REMARK Flexibility Score: inf
ROOT
ATOM      1  C   UNL     1       6.029  52.233  -1.927  1.00  0.00     0.000 C 
ENDROOT
BRANCH   1   2
ATOM      2  C   UNL     1       5.583  51.875  -3.352  1.00  0.00     0.006 C 
BRANCH   2   3
ATOM      3  C   UNL     1       4.108  51.463  -3.377  1.00  0.00     0.053 C 
BRANCH   3   4
ATOM      4  C   UNL     1       3.478  51.848  -4.678  1.00  0.00     0.041 C 
ATOM      5  O   UNL     1       2.253  52.136  -4.728  1.00  0.00    -0.550 OA
ATOM      6  O   UNL     1       4.231  51.840  -5.846  1.00  0.00    -0.550 OA
ENDBRANCH   3   4
ENDBRANCH   2   3
ENDBRANCH   1   2
BRANCH   1   7
ATOM      7  C   UNL     1       4.845  52.433  -0.968  1.00  0.00     0.000 C 
BRANCH   7   8
ATOM      8  C   UNL     1       5.224  52.190   0.500  1.00  0.00    -0.000 C 
BRANCH   8   9
ATOM      9  C   UNL     1       4.154  51.345   1.210  1.00  0.00    -0.000 C 
BRANCH   9  10
ATOM     10  C   UNL     1       2.923  51.089   0.327  1.00  0.00    -0.003 C 
ATOM     11  C   UNL     1       2.014  49.993   0.885  1.00  0.00     0.004 C 
ENDBRANCH   9  10
ENDBRANCH   8   9
ENDBRANCH   7   8
ENDBRANCH   1   7
TORSDOF 7
ENDMDL
MODEL 9
REMARK VINA RESULT:    -3.661      2.618      3.333
REMARK INTER + INTRA:          -5.739
REMARK INTER:                  -4.917
REMARK INTRA:                  -0.822
REMARK UNBOUND:                -0.580
REMARK SMILES CCCCCCCCC(=O)[O-]
REMARK SMILES IDX 6 1 7 2 8 3 9 4 10 5 11 6 5 7 4 8 3 9 2 10 1 11
REMARK H PARENT
REMARK Flexibility Score: inf
ROOT
ATOM      1  C   UNL     1       4.106  53.858   1.543  1.00  0.00     0.000 C 
ENDROOT
BRANCH   1   2
ATOM      2  C   UNL     1       3.579  54.872   0.518  1.00  0.00     0.006 C 
BRANCH   2   3
ATOM      3  C   UNL     1       2.344  54.327  -0.206  1.00  0.00     0.053 C 
BRANCH   3   4
ATOM      4  C   UNL     1       2.590  54.251  -1.680  1.00  0.00     0.041 C 
ATOM      5  O   UNL     1       3.476  53.481  -2.134  1.00  0.00    -0.550 OA
ATOM      6  O   UNL     1       1.875  55.067  -2.548  1.00  0.00    -0.550 OA
ENDBRANCH   3   4
ENDBRANCH   2   3
ENDBRANCH   1   2
BRANCH   1   7
ATOM      7  C   UNL     1       5.176  52.924   0.957  1.00  0.00     0.000 C 
BRANCH   7   8
ATOM      8  C   UNL     1       4.632  51.522   0.644  1.00  0.00    -0.000 C 
BRANCH   8   9
ATOM      9  C   UNL     1       3.532  51.126   1.641  1.00  0.00    -0.000 C 
BRANCH   9  10
ATOM     10  C   UNL     1       2.381  50.356   0.976  1.00  0.00    -0.003 C 
ATOM     11  C   UNL     1       2.259  50.650  -0.520  1.00  0.00     0.004 C 
ENDBRANCH   9  10
ENDBRANCH   8   9
ENDBRANCH   7   8
ENDBRANCH   1   7
TORSDOF 7
ENDMDL
