MODEL 1
REMARK VINA RESULT:    -4.635      0.000      0.000
REMARK INTER + INTRA:          -5.357
REMARK INTER:                  -5.312
REMARK INTRA:                  -0.045
REMARK UNBOUND:                -0.045
REMARK SMILES O=C([O-])c1cc(O)c(O)c(O)c1
REMARK SMILES IDX 4 1 5 2 12 3 6 4 10 5 8 6 2 7 1 8 3 9 7 10 11 12 9 14
REMARK H PARENT 7 11 11 13 9 15
REMARK Flexibility Score: inf
ROOT
ATOM      1  C   UNL     1       5.568  20.058   0.507  1.00  0.00     0.005 A 
ATOM      2  C   UNL     1       4.940  20.643   1.620  1.00  0.00     0.060 A 
ATOM      3  C   UNL     1       6.625  19.157   0.716  1.00  0.00     0.060 A 
ATOM      4  C   UNL     1       5.361  20.333   2.921  1.00  0.00     0.162 A 
ATOM      5  C   UNL     1       7.050  18.844   2.015  1.00  0.00     0.162 A 
ATOM      6  C   UNL     1       6.418  19.431   3.120  1.00  0.00     0.200 A 
ENDROOT
BRANCH   1   7
ATOM      7  C   UNL     1       5.125  20.384  -0.867  1.00  0.00     0.072 C 
ATOM      8  O   UNL     1       4.443  19.560  -1.533  1.00  0.00    -0.545 OA
ATOM      9  O   UNL     1       5.457  21.605  -1.444  1.00  0.00    -0.545 OA
ENDBRANCH   1   7
BRANCH   4  10
ATOM     10  O   UNL     1       4.730  20.920   4.019  1.00  0.00    -0.504 OA
ATOM     11  H   UNL     1       3.963  20.463   4.498  1.00  0.00     0.293 HD
ENDBRANCH   4  10
BRANCH   5  12
ATOM     12  O   UNL     1       8.099  17.949   2.217  1.00  0.00    -0.504 OA
ATOM     13  H   UNL     1       8.143  17.361   3.040  1.00  0.00     0.293 HD
ENDBRANCH   5  12
BRANCH   6  14
ATOM     14  O   UNL     1       6.855  19.107   4.405  1.00  0.00    -0.502 OA
ATOM     15  H   UNL     1       7.723  19.464   4.784  1.00  0.00     0.293 HD
ENDBRANCH   6  14
TORSDOF 4
ENDMDL
MODEL 2
REMARK VINA RESULT:    -4.627      0.107      2.423
REMARK INTER + INTRA:          -5.348
REMARK INTER:                  -5.303
REMARK INTRA:                  -0.045
REMARK UNBOUND:                -0.045
REMARK SMILES O=C([O-])c1cc(O)c(O)c(O)c1
REMARK SMILES IDX 4 1 5 2 12 3 6 4 10 5 8 6 2 7 1 8 3 9 7 10 11 12 9 14
REMARK H PARENT 7 11 11 13 9 15
REMARK Flexibility Score: inf
ROOT
ATOM      1  C   UNL     1       5.556  20.039   0.498  1.00  0.00     0.005 A 
ATOM      2  C   UNL     1       6.631  19.168   0.748  1.00  0.00     0.060 A 
ATOM      3  C   UNL     1       4.912  20.655   1.585  1.00  0.00     0.060 A 
ATOM      4  C   UNL     1       7.056  18.916   2.059  1.00  0.00     0.162 A 
ATOM      5  C   UNL     1       5.333  20.406   2.898  1.00  0.00     0.162 A 
ATOM      6  C   UNL     1       6.406  19.537   3.138  1.00  0.00     0.200 A 
ENDROOT
BRANCH   1   7
ATOM      7  C   UNL     1       5.106  20.306  -0.886  1.00  0.00     0.072 C 
ATOM      8  O   UNL     1       4.414  19.457  -1.510  1.00  0.00    -0.545 OA
ATOM      9  O   UNL     1       5.440  21.499  -1.519  1.00  0.00    -0.545 OA
ENDBRANCH   1   7
BRANCH   4  10
ATOM     10  O   UNL     1       8.124  18.050   2.294  1.00  0.00    -0.504 OA
ATOM     11  H   UNL     1       8.093  17.078   2.008  1.00  0.00     0.293 HD
ENDBRANCH   4  10
BRANCH   5  12
ATOM     12  O   UNL     1       4.691  21.020   3.972  1.00  0.00    -0.504 OA
ATOM     13  H   UNL     1       4.839  21.999   4.188  1.00  0.00     0.293 HD
ENDBRANCH   5  12
BRANCH   6  14
ATOM     14  O   UNL     1       6.811  19.302   4.452  1.00  0.00    -0.502 OA
ATOM     15  H   UNL     1       7.602  19.780   4.865  1.00  0.00     0.293 HD
ENDBRANCH   6  14
TORSDOF 4
ENDMDL
MODEL 3
REMARK VINA RESULT:    -4.424      1.715      4.879
REMARK INTER + INTRA:          -5.116
REMARK INTER:                  -5.071
REMARK INTRA:                  -0.045
REMARK UNBOUND:                -0.045
REMARK SMILES O=C([O-])c1cc(O)c(O)c(O)c1
REMARK SMILES IDX 4 1 5 2 12 3 6 4 10 5 8 6 2 7 1 8 3 9 7 10 11 12 9 14
REMARK H PARENT 7 11 11 13 9 15
REMARK Flexibility Score: inf
ROOT
ATOM      1  C   UNL     1       6.965  20.229   3.522  1.00  0.00     0.005 A 
ATOM      2  C   UNL     1       7.754  19.343   2.767  1.00  0.00     0.060 A 
ATOM      3  C   UNL     1       5.746  20.678   2.988  1.00  0.00     0.060 A 
ATOM      4  C   UNL     1       7.333  18.914   1.501  1.00  0.00     0.162 A 
ATOM      5  C   UNL     1       5.321  20.252   1.723  1.00  0.00     0.162 A 
ATOM      6  C   UNL     1       6.113  19.369   0.977  1.00  0.00     0.200 A 
ENDROOT
BRANCH   1   7
ATOM      7  C   UNL     1       7.408  20.683   4.859  1.00  0.00     0.072 C 
ATOM      8  O   UNL     1       7.897  21.834   5.015  1.00  0.00    -0.545 OA
ATOM      9  O   UNL     1       7.290  19.846   5.963  1.00  0.00    -0.545 OA
ENDBRANCH   1   7
BRANCH   4  10
ATOM     10  O   UNL     1       8.125  18.035   0.762  1.00  0.00    -0.504 OA
ATOM     11  H   UNL     1       7.729  17.227   0.295  1.00  0.00     0.293 HD
ENDBRANCH   4  10
BRANCH   5  12
ATOM     12  O   UNL     1       4.109  20.701   1.198  1.00  0.00    -0.504 OA
ATOM     13  H   UNL     1       4.068  21.213   0.325  1.00  0.00     0.293 HD
ENDBRANCH   5  12
BRANCH   6  14
ATOM     14  O   UNL     1       5.672  18.956  -0.281  1.00  0.00    -0.502 OA
ATOM     15  H   UNL     1       4.690  18.929  -0.525  1.00  0.00     0.293 HD
ENDBRANCH   6  14
TORSDOF 4
ENDMDL
MODEL 4
REMARK VINA RESULT:    -4.401      1.725      4.284
REMARK INTER + INTRA:          -5.090
REMARK INTER:                  -5.045
REMARK INTRA:                  -0.045
REMARK UNBOUND:                -0.045
REMARK SMILES O=C([O-])c1cc(O)c(O)c(O)c1
REMARK SMILES IDX 4 1 5 2 12 3 6 4 10 5 8 6 2 7 1 8 3 9 7 10 11 12 9 14
REMARK H PARENT 7 11 11 13 9 15
REMARK Flexibility Score: inf
ROOT
ATOM      1  C   UNL     1       7.046  20.206   3.534  1.00  0.00     0.005 A 
ATOM      2  C   UNL     1       5.819  20.663   3.025  1.00  0.00     0.060 A 
ATOM      3  C   UNL     1       7.812  19.313   2.765  1.00  0.00     0.060 A 
ATOM      4  C   UNL     1       5.362  20.237   1.770  1.00  0.00     0.162 A 
ATOM      5  C   UNL     1       7.360  18.884   1.510  1.00  0.00     0.162 A 
ATOM      6  C   UNL     1       6.136  19.345   1.010  1.00  0.00     0.200 A 
ENDROOT
BRANCH   1   7
ATOM      7  C   UNL     1       7.529  20.654   4.859  1.00  0.00     0.072 C 
ATOM      8  O   UNL     1       8.057  21.790   4.997  1.00  0.00    -0.545 OA
ATOM      9  O   UNL     1       7.407  19.828   5.971  1.00  0.00    -0.545 OA
ENDBRANCH   1   7
BRANCH   4  10
ATOM     10  O   UNL     1       4.142  20.698   1.276  1.00  0.00    -0.504 OA
ATOM     11  H   UNL     1       3.307  20.713   1.851  1.00  0.00     0.293 HD
ENDBRANCH   4  10
BRANCH   5  12
ATOM     12  O   UNL     1       8.125  17.999   0.751  1.00  0.00    -0.504 OA
ATOM     13  H   UNL     1       8.931  17.527   1.141  1.00  0.00     0.293 HD
ENDBRANCH   5  12
BRANCH   6  14
ATOM     14  O   UNL     1       5.703  18.907  -0.242  1.00  0.00    -0.502 OA
ATOM     15  H   UNL     1       5.609  19.536  -1.030  1.00  0.00     0.293 HD
ENDBRANCH   6  14
TORSDOF 4
ENDMDL
MODEL 5
REMARK VINA RESULT:    -4.252     13.673     15.086
REMARK INTER + INTRA:          -4.919
REMARK INTER:                  -4.869
REMARK INTRA:                  -0.050
REMARK UNBOUND:                -0.045
REMARK SMILES O=C([O-])c1cc(O)c(O)c(O)c1
REMARK SMILES IDX 4 1 5 2 12 3 6 4 10 5 8 6 2 7 1 8 3 9 7 10 11 12 9 14
REMARK H PARENT 7 11 11 13 9 15
REMARK Flexibility Score: inf
ROOT
ATOM      1  C   UNL     1      -8.369  16.380   0.176  1.00  0.00     0.005 A 
ATOM      2  C   UNL     1      -7.309  15.459   0.241  1.00  0.00     0.060 A 
ATOM      3  C   UNL     1      -8.812  16.820  -1.083  1.00  0.00     0.060 A 
ATOM      4  C   UNL     1      -6.702  14.984  -0.930  1.00  0.00     0.162 A 
ATOM      5  C   UNL     1      -8.208  16.349  -2.256  1.00  0.00     0.162 A 
ATOM      6  C   UNL     1      -7.153  15.430  -2.183  1.00  0.00     0.200 A 
ENDROOT
BRANCH   1   7
ATOM      7  C   UNL     1      -9.011  16.882   1.411  1.00  0.00     0.072 C 
ATOM      8  O   UNL     1     -10.249  17.116   1.440  1.00  0.00    -0.545 OA
ATOM      9  O   UNL     1      -8.256  17.101   2.559  1.00  0.00    -0.545 OA
ENDBRANCH   1   7
BRANCH   4  10
ATOM     10  O   UNL     1      -5.651  14.070  -0.852  1.00  0.00    -0.504 OA
ATOM     11  H   UNL     1      -4.688  14.374  -0.766  1.00  0.00     0.293 HD
ENDBRANCH   4  10
BRANCH   5  12
ATOM     12  O   UNL     1      -8.653  16.789  -3.502  1.00  0.00    -0.504 OA
ATOM     13  H   UNL     1      -9.587  16.583  -3.835  1.00  0.00     0.293 HD
ENDBRANCH   5  12
BRANCH   6  14
ATOM     14  O   UNL     1      -6.564  14.973  -3.362  1.00  0.00    -0.502 OA
ATOM     15  H   UNL     1      -6.635  15.485  -4.232  1.00  0.00     0.293 HD
ENDBRANCH   6  14
TORSDOF 4
ENDMDL
MODEL 6
REMARK VINA RESULT:    -4.226     13.683     15.003
REMARK INTER + INTRA:          -4.889
REMARK INTER:                  -4.838
REMARK INTRA:                  -0.050
REMARK UNBOUND:                -0.045
REMARK SMILES O=C([O-])c1cc(O)c(O)c(O)c1
REMARK SMILES IDX 4 1 5 2 12 3 6 4 10 5 8 6 2 7 1 8 3 9 7 10 11 12 9 14
REMARK H PARENT 7 11 11 13 9 15
REMARK Flexibility Score: inf
ROOT
ATOM      1  C   UNL     1      -8.418  16.390   0.212  1.00  0.00     0.005 A 
ATOM      2  C   UNL     1      -8.862  16.843  -1.042  1.00  0.00     0.060 A 
ATOM      3  C   UNL     1      -7.351  15.477   0.268  1.00  0.00     0.060 A 
ATOM      4  C   UNL     1      -8.252  16.394  -2.221  1.00  0.00     0.162 A 
ATOM      5  C   UNL     1      -6.738  15.024  -0.908  1.00  0.00     0.162 A 
ATOM      6  C   UNL     1      -7.186  15.482  -2.154  1.00  0.00     0.200 A 
ENDROOT
BRANCH   1   7
ATOM      7  C   UNL     1      -9.061  16.863   1.458  1.00  0.00     0.072 C 
ATOM      8  O   UNL     1     -10.279  17.185   1.468  1.00  0.00    -0.545 OA
ATOM      9  O   UNL     1      -8.329  16.960   2.637  1.00  0.00    -0.545 OA
ENDBRANCH   1   7
BRANCH   4  10
ATOM     10  O   UNL     1      -8.702  16.851  -3.460  1.00  0.00    -0.504 OA
ATOM     11  H   UNL     1      -8.917  16.211  -4.216  1.00  0.00     0.293 HD
ENDBRANCH   4  10
BRANCH   5  12
ATOM     12  O   UNL     1      -5.679  14.119  -0.847  1.00  0.00    -0.504 OA
ATOM     13  H   UNL     1      -5.044  14.099  -0.058  1.00  0.00     0.293 HD
ENDBRANCH   5  12
BRANCH   6  14
ATOM     14  O   UNL     1      -6.563  15.019  -3.314  1.00  0.00    -0.502 OA
ATOM     15  H   UNL     1      -5.685  15.402  -3.642  1.00  0.00     0.293 HD
ENDBRANCH   6  14
TORSDOF 4
ENDMDL
MODEL 7
REMARK VINA RESULT:    -4.142     13.230     13.999
REMARK INTER + INTRA:          -4.792
REMARK INTER:                  -4.747
REMARK INTRA:                  -0.046
REMARK UNBOUND:                -0.045
REMARK SMILES O=C([O-])c1cc(O)c(O)c(O)c1
REMARK SMILES IDX 4 1 5 2 12 3 6 4 10 5 8 6 2 7 1 8 3 9 7 10 11 12 9 14
REMARK H PARENT 7 11 11 13 9 15
REMARK Flexibility Score: inf
ROOT
ATOM      1  C   UNL     1      -8.049  16.283  -0.205  1.00  0.00     0.005 A 
ATOM      2  C   UNL     1      -8.706  16.842   0.904  1.00  0.00     0.060 A 
ATOM      3  C   UNL     1      -6.801  15.665  -0.017  1.00  0.00     0.060 A 
ATOM      4  C   UNL     1      -8.128  16.785   2.180  1.00  0.00     0.162 A 
ATOM      5  C   UNL     1      -6.219  15.606   1.256  1.00  0.00     0.162 A 
ATOM      6  C   UNL     1      -6.881  16.165   2.357  1.00  0.00     0.200 A 
ENDROOT
BRANCH   1   7
ATOM      7  C   UNL     1      -8.658  16.343  -1.553  1.00  0.00     0.072 C 
ATOM      8  O   UNL     1      -9.011  15.287  -2.143  1.00  0.00    -0.545 OA
ATOM      9  O   UNL     1      -8.849  17.565  -2.187  1.00  0.00    -0.545 OA
ENDBRANCH   1   7
BRANCH   4  10
ATOM     10  O   UNL     1      -8.790  17.344   3.274  1.00  0.00    -0.504 OA
ATOM     11  H   UNL     1      -9.636  16.931   3.650  1.00  0.00     0.293 HD
ENDBRANCH   4  10
BRANCH   5  12
ATOM     12  O   UNL     1      -4.980  14.991   1.436  1.00  0.00    -0.504 OA
ATOM     13  H   UNL     1      -4.610  14.807   2.361  1.00  0.00     0.293 HD
ENDBRANCH   5  12
BRANCH   6  14
ATOM     14  O   UNL     1      -6.285  16.096   3.617  1.00  0.00    -0.502 OA
ATOM     15  H   UNL     1      -6.682  15.548   4.370  1.00  0.00     0.293 HD
ENDBRANCH   6  14
TORSDOF 4
ENDMDL
MODEL 8
REMARK VINA RESULT:    -4.136     13.220     14.195
REMARK INTER + INTRA:          -4.786
REMARK INTER:                  -4.740
REMARK INTRA:                  -0.046
REMARK UNBOUND:                -0.045
REMARK SMILES O=C([O-])c1cc(O)c(O)c(O)c1
REMARK SMILES IDX 4 1 5 2 12 3 6 4 10 5 8 6 2 7 1 8 3 9 7 10 11 12 9 14
REMARK H PARENT 7 11 11 13 9 15
REMARK Flexibility Score: inf
ROOT
ATOM      1  C   UNL     1      -8.025  16.295  -0.235  1.00  0.00     0.005 A 
ATOM      2  C   UNL     1      -6.774  15.683  -0.043  1.00  0.00     0.060 A 
ATOM      3  C   UNL     1      -8.698  16.831   0.876  1.00  0.00     0.060 A 
ATOM      4  C   UNL     1      -6.204  15.607   1.235  1.00  0.00     0.162 A 
ATOM      5  C   UNL     1      -8.133  16.757   2.157  1.00  0.00     0.162 A 
ATOM      6  C   UNL     1      -6.885  16.146   2.339  1.00  0.00     0.200 A 
ENDROOT
BRANCH   1   7
ATOM      7  C   UNL     1      -8.628  16.376  -1.584  1.00  0.00     0.072 C 
ATOM      8  O   UNL     1      -8.974  15.330  -2.195  1.00  0.00    -0.545 OA
ATOM      9  O   UNL     1      -8.822  17.610  -2.196  1.00  0.00    -0.545 OA
ENDBRANCH   1   7
BRANCH   4  10
ATOM     10  O   UNL     1      -4.962  14.997   1.412  1.00  0.00    -0.504 OA
ATOM     11  H   UNL     1      -4.879  14.003   1.590  1.00  0.00     0.293 HD
ENDBRANCH   4  10
BRANCH   5  12
ATOM     12  O   UNL     1      -8.805  17.291   3.255  1.00  0.00    -0.504 OA
ATOM     13  H   UNL     1      -8.919  18.291   3.372  1.00  0.00     0.293 HD
ENDBRANCH   5  12
BRANCH   6  14
ATOM     14  O   UNL     1      -6.338  16.082   3.621  1.00  0.00    -0.502 OA
ATOM     15  H   UNL     1      -5.339  16.100   3.781  1.00  0.00     0.293 HD
ENDBRANCH   6  14
TORSDOF 4
ENDMDL
MODEL 9
REMARK VINA RESULT:    -4.073     14.729     16.519
REMARK INTER + INTRA:          -4.714
REMARK INTER:                  -4.661
REMARK INTRA:                  -0.053
REMARK UNBOUND:                -0.045
REMARK SMILES O=C([O-])c1cc(O)c(O)c(O)c1
REMARK SMILES IDX 4 1 5 2 12 3 6 4 10 5 8 6 2 7 1 8 3 9 7 10 11 12 9 14
REMARK H PARENT 7 11 11 13 9 15
REMARK Flexibility Score: inf
ROOT
ATOM      1  C   UNL     1      -7.723  15.004  -4.149  1.00  0.00     0.005 A 
ATOM      2  C   UNL     1      -6.508  14.471  -4.612  1.00  0.00     0.060 A 
ATOM      3  C   UNL     1      -8.781  15.177  -5.057  1.00  0.00     0.060 A 
ATOM      4  C   UNL     1      -6.350  14.118  -5.959  1.00  0.00     0.162 A 
ATOM      5  C   UNL     1      -8.629  14.826  -6.405  1.00  0.00     0.162 A 
ATOM      6  C   UNL     1      -7.414  14.295  -6.859  1.00  0.00     0.200 A 
ENDROOT
BRANCH   1   7
ATOM      7  C   UNL     1      -7.891  15.377  -2.727  1.00  0.00     0.072 C 
ATOM      8  O   UNL     1      -6.997  15.103  -1.882  1.00  0.00    -0.545 OA
ATOM      9  O   UNL     1      -9.040  16.036  -2.302  1.00  0.00    -0.545 OA
ENDBRANCH   1   7
BRANCH   4  10
ATOM     10  O   UNL     1      -5.139  13.591  -6.407  1.00  0.00    -0.504 OA
ATOM     11  H   UNL     1      -4.317  13.568  -5.814  1.00  0.00     0.293 HD
ENDBRANCH   4  10
BRANCH   5  12
ATOM     12  O   UNL     1      -9.682  15.000  -7.302  1.00  0.00    -0.504 OA
ATOM     13  H   UNL     1      -9.827  14.365  -8.078  1.00  0.00     0.293 HD
ENDBRANCH   5  12
BRANCH   6  14
ATOM     14  O   UNL     1      -7.281  13.951  -8.204  1.00  0.00    -0.502 OA
ATOM     15  H   UNL     1      -7.254  14.648  -8.938  1.00  0.00     0.293 HD
ENDBRANCH   6  14
TORSDOF 4
ENDMDL
