MODEL 1
REMARK VINA RESULT:    -3.207      0.000      0.000
REMARK INTER + INTRA:          -9.784
REMARK INTER:                  -6.956
REMARK INTRA:                  -2.827
REMARK UNBOUND:                -2.827
REMARK SMILES CCCCCCCCCCCCCCCCCCCCCC(=O)[O-]
REMARK SMILES IDX 12 1 11 2 10 3 9 4 8 5 7 6 6 7 5 8 4 9 3 10 2 11 1 12 13 13
REMARK SMILES IDX 14 14 15 15 16 16 17 17 18 18 19 19 20 20 21 21 22 22 23 23
REMARK SMILES IDX 24 24
REMARK H PARENT
REMARK Flexibility Score: inf
ROOT
ATOM      1  C   UNL     1       7.926 -16.702   8.354  1.00  0.00     0.000 C 
ENDROOT
BRANCH   1   2
ATOM      2  C   UNL     1       7.289 -18.030   7.916  1.00  0.00     0.000 C 
BRANCH   2   3
ATOM      3  C   UNL     1       5.766 -17.903   7.809  1.00  0.00     0.000 C 
BRANCH   3   4
ATOM      4  C   UNL     1       5.199 -18.916   6.802  1.00  0.00    -0.000 C 
BRANCH   4   5
ATOM      5  C   UNL     1       4.003 -19.703   7.361  1.00  0.00    -0.000 C 
BRANCH   5   6
ATOM      6  C   UNL     1       2.708 -19.453   6.568  1.00  0.00    -0.000 C 
BRANCH   6   7
ATOM      7  C   UNL     1       2.840 -18.302   5.557  1.00  0.00    -0.000 C 
BRANCH   7   8
ATOM      8  C   UNL     1       2.207 -18.634   4.194  1.00  0.00    -0.000 C 
BRANCH   8   9
ATOM      9  C   UNL     1       2.929 -17.952   3.017  1.00  0.00    -0.000 C 
BRANCH   9  10
ATOM     10  C   UNL     1       3.847 -18.873   2.194  1.00  0.00    -0.000 C 
BRANCH  10  11
ATOM     11  C   UNL     1       5.128 -19.267   2.943  1.00  0.00    -0.003 C 
ATOM     12  C   UNL     1       5.116 -20.747   3.315  1.00  0.00     0.004 C 
ENDBRANCH  10  11
ENDBRANCH   9  10
ENDBRANCH   8   9
ENDBRANCH   7   8
ENDBRANCH   6   7
ENDBRANCH   5   6
ENDBRANCH   4   5
ENDBRANCH   3   4
ENDBRANCH   2   3
ENDBRANCH   1   2
BRANCH   1  13
ATOM     13  C   UNL     1       7.560 -15.535   7.422  1.00  0.00     0.000 C 
BRANCH  13  14
ATOM     14  C   UNL     1       8.787 -14.717   6.990  1.00  0.00     0.000 C 
BRANCH  14  15
ATOM     15  C   UNL     1       9.921 -14.848   8.014  1.00  0.00     0.000 C 
BRANCH  15  16
ATOM     16  C   UNL     1      11.291 -14.880   7.319  1.00  0.00     0.000 C 
BRANCH  16  17
ATOM     17  C   UNL     1      11.251 -15.620   5.964  1.00  0.00     0.000 C 
BRANCH  17  18
ATOM     18  C   UNL     1      11.361 -17.151   6.088  1.00  0.00     0.000 C 
BRANCH  18  19
ATOM     19  C   UNL     1      10.256 -17.945   5.367  1.00  0.00     0.000 C 
BRANCH  19  20
ATOM     20  C   UNL     1       9.531 -17.182   4.239  1.00  0.00     0.006 C 
BRANCH  20  21
ATOM     21  C   UNL     1       8.578 -18.044   3.395  1.00  0.00     0.053 C 
BRANCH  21  22
ATOM     22  C   UNL     1       9.321 -18.958   2.470  1.00  0.00     0.041 C 
ATOM     23  O   UNL     1      10.174 -18.494   1.668  1.00  0.00    -0.550 OA
ATOM     24  O   UNL     1       9.052 -20.320   2.474  1.00  0.00    -0.550 OA
ENDBRANCH  21  22
ENDBRANCH  20  21
ENDBRANCH  19  20
ENDBRANCH  18  19
ENDBRANCH  17  18
ENDBRANCH  16  17
ENDBRANCH  15  16
ENDBRANCH  14  15
ENDBRANCH  13  14
ENDBRANCH   1  13
TORSDOF 20
ENDMDL
MODEL 2
REMARK VINA RESULT:    -3.151      2.302      5.688
REMARK INTER + INTRA:          -9.663
REMARK INTER:                  -6.159
REMARK INTRA:                  -3.504
REMARK UNBOUND:                -2.827
REMARK SMILES CCCCCCCCCCCCCCCCCCCCCC(=O)[O-]
REMARK SMILES IDX 12 1 11 2 10 3 9 4 8 5 7 6 6 7 5 8 4 9 3 10 2 11 1 12 13 13
REMARK SMILES IDX 14 14 15 15 16 16 17 17 18 18 19 19 20 20 21 21 22 22 23 23
REMARK SMILES IDX 24 24
REMARK H PARENT
REMARK Flexibility Score: inf
ROOT
ATOM      1  C   UNL     1       3.080 -18.096   2.814  1.00  0.00     0.000 C 
ENDROOT
BRANCH   1   2
ATOM      2  C   UNL     1       2.331 -18.580   4.065  1.00  0.00     0.000 C 
BRANCH   2   3
ATOM      3  C   UNL     1       2.907 -17.942   5.335  1.00  0.00     0.000 C 
BRANCH   3   4
ATOM      4  C   UNL     1       2.215 -18.496   6.590  1.00  0.00    -0.000 C 
BRANCH   4   5
ATOM      5  C   UNL     1       2.339 -20.023   6.711  1.00  0.00    -0.000 C 
BRANCH   5   6
ATOM      6  C   UNL     1       3.614 -20.456   7.456  1.00  0.00    -0.000 C 
BRANCH   6   7
ATOM      7  C   UNL     1       3.575 -20.114   8.954  1.00  0.00    -0.000 C 
BRANCH   7   8
ATOM      8  C   UNL     1       4.732 -19.195   9.383  1.00  0.00    -0.000 C 
BRANCH   8   9
ATOM      9  C   UNL     1       5.849 -19.106   8.327  1.00  0.00    -0.000 C 
BRANCH   9  10
ATOM     10  C   UNL     1       6.057 -17.708   7.715  1.00  0.00    -0.000 C 
BRANCH  10  11
ATOM     11  C   UNL     1       5.598 -16.574   8.642  1.00  0.00    -0.003 C 
ATOM     12  C   UNL     1       4.944 -15.445   7.849  1.00  0.00     0.004 C 
ENDBRANCH  10  11
ENDBRANCH   9  10
ENDBRANCH   8   9
ENDBRANCH   7   8
ENDBRANCH   6   7
ENDBRANCH   5   6
ENDBRANCH   4   5
ENDBRANCH   3   4
ENDBRANCH   2   3
ENDBRANCH   1   2
BRANCH   1  13
ATOM     13  C   UNL     1       4.394 -18.860   2.580  1.00  0.00     0.000 C 
BRANCH  13  14
ATOM     14  C   UNL     1       4.248 -20.371   2.813  1.00  0.00     0.000 C 
BRANCH  14  15
ATOM     15  C   UNL     1       5.376 -20.900   3.708  1.00  0.00     0.000 C 
BRANCH  15  16
ATOM     16  C   UNL     1       5.943 -19.784   4.598  1.00  0.00     0.000 C 
BRANCH  16  17
ATOM     17  C   UNL     1       7.487 -19.777   4.630  1.00  0.00     0.000 C 
BRANCH  17  18
ATOM     18  C   UNL     1       8.131 -19.132   3.388  1.00  0.00     0.000 C 
BRANCH  18  19
ATOM     19  C   UNL     1       8.889 -17.817   3.654  1.00  0.00     0.000 C 
BRANCH  19  20
ATOM     20  C   UNL     1       9.287 -17.578   5.126  1.00  0.00     0.006 C 
BRANCH  20  21
ATOM     21  C   UNL     1       9.670 -16.125   5.455  1.00  0.00     0.053 C 
BRANCH  21  22
ATOM     22  C   UNL     1       9.011 -15.643   6.710  1.00  0.00     0.041 C 
ATOM     23  O   UNL     1       8.241 -14.647   6.680  1.00  0.00    -0.550 OA
ATOM     24  O   UNL     1       9.269 -16.276   7.918  1.00  0.00    -0.550 OA
ENDBRANCH  21  22
ENDBRANCH  20  21
ENDBRANCH  19  20
ENDBRANCH  18  19
ENDBRANCH  17  18
ENDBRANCH  16  17
ENDBRANCH  15  16
ENDBRANCH  14  15
ENDBRANCH  13  14
ENDBRANCH   1  13
TORSDOF 20
ENDMDL
MODEL 3
REMARK VINA RESULT:    -3.115      1.175      5.282
REMARK INTER + INTRA:          -9.585
REMARK INTER:                  -6.503
REMARK INTRA:                  -3.082
REMARK UNBOUND:                -2.827
REMARK SMILES CCCCCCCCCCCCCCCCCCCCCC(=O)[O-]
REMARK SMILES IDX 12 1 11 2 10 3 9 4 8 5 7 6 6 7 5 8 4 9 3 10 2 11 1 12 13 13
REMARK SMILES IDX 14 14 15 15 16 16 17 17 18 18 19 19 20 20 21 21 22 22 23 23
REMARK SMILES IDX 24 24
REMARK H PARENT
REMARK Flexibility Score: inf
ROOT
ATOM      1  C   UNL     1       3.803 -18.368   2.578  1.00  0.00     0.000 C 
ENDROOT
BRANCH   1   2
ATOM      2  C   UNL     1       2.430 -18.152   3.232  1.00  0.00     0.000 C 
BRANCH   2   3
ATOM      3  C   UNL     1       2.262 -19.038   4.471  1.00  0.00     0.000 C 
BRANCH   3   4
ATOM      4  C   UNL     1       2.677 -18.286   5.744  1.00  0.00    -0.000 C 
BRANCH   4   5
ATOM      5  C   UNL     1       3.270 -19.214   6.816  1.00  0.00    -0.000 C 
BRANCH   5   6
ATOM      6  C   UNL     1       4.287 -18.499   7.723  1.00  0.00    -0.000 C 
BRANCH   6   7
ATOM      7  C   UNL     1       4.476 -17.018   7.355  1.00  0.00    -0.000 C 
BRANCH   7   8
ATOM      8  C   UNL     1       5.456 -16.294   8.294  1.00  0.00    -0.000 C 
BRANCH   8   9
ATOM      9  C   UNL     1       6.628 -17.188   8.742  1.00  0.00    -0.000 C 
BRANCH   9  10
ATOM     10  C   UNL     1       8.022 -16.701   8.307  1.00  0.00    -0.000 C 
BRANCH  10  11
ATOM     11  C   UNL     1       7.966 -15.526   7.320  1.00  0.00    -0.003 C 
ATOM     12  C   UNL     1       9.334 -14.866   7.172  1.00  0.00     0.004 C 
ENDBRANCH  10  11
ENDBRANCH   9  10
ENDBRANCH   8   9
ENDBRANCH   7   8
ENDBRANCH   6   7
ENDBRANCH   5   6
ENDBRANCH   4   5
ENDBRANCH   3   4
ENDBRANCH   2   3
ENDBRANCH   1   2
BRANCH   1  13
ATOM     13  C   UNL     1       4.350 -19.786   2.808  1.00  0.00     0.000 C 
BRANCH  13  14
ATOM     14  C   UNL     1       5.671 -19.790   3.592  1.00  0.00     0.000 C 
BRANCH  14  15
ATOM     15  C   UNL     1       5.726 -20.971   4.569  1.00  0.00     0.000 C 
BRANCH  15  16
ATOM     16  C   UNL     1       6.474 -20.589   5.856  1.00  0.00     0.000 C 
BRANCH  16  17
ATOM     17  C   UNL     1       7.264 -19.270   5.714  1.00  0.00     0.000 C 
BRANCH  17  18
ATOM     18  C   UNL     1       8.713 -19.462   5.228  1.00  0.00     0.000 C 
BRANCH  18  19
ATOM     19  C   UNL     1       9.578 -18.188   5.235  1.00  0.00     0.000 C 
BRANCH  19  20
ATOM     20  C   UNL     1       9.608 -17.410   3.903  1.00  0.00     0.006 C 
BRANCH  20  21
ATOM     21  C   UNL     1       8.849 -18.088   2.751  1.00  0.00     0.053 C 
BRANCH  21  22
ATOM     22  C   UNL     1       9.723 -19.028   1.980  1.00  0.00     0.041 C 
ATOM     23  O   UNL     1       9.501 -20.267   2.006  1.00  0.00    -0.550 OA
ATOM     24  O   UNL     1      10.800 -18.538   1.253  1.00  0.00    -0.550 OA
ENDBRANCH  21  22
ENDBRANCH  20  21
ENDBRANCH  19  20
ENDBRANCH  18  19
ENDBRANCH  17  18
ENDBRANCH  16  17
ENDBRANCH  15  16
ENDBRANCH  14  15
ENDBRANCH  13  14
ENDBRANCH   1  13
TORSDOF 20
ENDMDL
MODEL 4
REMARK VINA RESULT:    -3.108      3.172      7.559
REMARK INTER + INTRA:          -9.569
REMARK INTER:                  -6.681
REMARK INTRA:                  -2.889
REMARK UNBOUND:                -2.827
REMARK SMILES CCCCCCCCCCCCCCCCCCCCCC(=O)[O-]
REMARK SMILES IDX 12 1 11 2 10 3 9 4 8 5 7 6 6 7 5 8 4 9 3 10 2 11 1 12 13 13
REMARK SMILES IDX 14 14 15 15 16 16 17 17 18 18 19 19 20 20 21 21 22 22 23 23
REMARK SMILES IDX 24 24
REMARK H PARENT
REMARK Flexibility Score: inf
ROOT
ATOM      1  C   UNL     1       3.986 -18.466   2.325  1.00  0.00     0.000 C 
ENDROOT
BRANCH   1   2
ATOM      2  C   UNL     1       4.038 -20.000   2.262  1.00  0.00     0.000 C 
BRANCH   2   3
ATOM      3  C   UNL     1       4.992 -20.564   3.321  1.00  0.00     0.000 C 
BRANCH   3   4
ATOM      4  C   UNL     1       5.904 -19.462   3.881  1.00  0.00    -0.000 C 
BRANCH   4   5
ATOM      5  C   UNL     1       7.391 -19.717   3.590  1.00  0.00    -0.000 C 
BRANCH   5   6
ATOM      6  C   UNL     1       8.103 -18.479   3.015  1.00  0.00    -0.000 C 
BRANCH   6   7
ATOM      7  C   UNL     1       9.255 -17.987   3.906  1.00  0.00    -0.000 C 
BRANCH   7   8
ATOM      8  C   UNL     1       9.140 -18.490   5.356  1.00  0.00    -0.000 C 
BRANCH   8   9
ATOM      9  C   UNL     1       9.592 -17.443   6.391  1.00  0.00    -0.000 C 
BRANCH   9  10
ATOM     10  C   UNL     1       9.505 -15.980   5.919  1.00  0.00    -0.000 C 
BRANCH  10  11
ATOM     11  C   UNL     1       8.567 -15.127   6.783  1.00  0.00    -0.003 C 
ATOM     12  C   UNL     1       9.295 -14.573   8.005  1.00  0.00     0.004 C 
ENDBRANCH  10  11
ENDBRANCH   9  10
ENDBRANCH   8   9
ENDBRANCH   7   8
ENDBRANCH   6   7
ENDBRANCH   5   6
ENDBRANCH   4   5
ENDBRANCH   3   4
ENDBRANCH   2   3
ENDBRANCH   1   2
BRANCH   1  13
ATOM     13  C   UNL     1       2.768 -17.948   3.107  1.00  0.00     0.000 C 
BRANCH  13  14
ATOM     14  C   UNL     1       1.771 -19.064   3.453  1.00  0.00     0.000 C 
BRANCH  14  15
ATOM     15  C   UNL     1       1.780 -19.359   4.958  1.00  0.00     0.000 C 
BRANCH  15  16
ATOM     16  C   UNL     1       2.623 -18.324   5.719  1.00  0.00     0.000 C 
BRANCH  16  17
ATOM     17  C   UNL     1       3.564 -18.973   6.757  1.00  0.00     0.000 C 
BRANCH  17  18
ATOM     18  C   UNL     1       4.600 -17.999   7.350  1.00  0.00     0.000 C 
BRANCH  18  19
ATOM     19  C   UNL     1       6.024 -18.569   7.494  1.00  0.00     0.000 C 
BRANCH  19  20
ATOM     20  C   UNL     1       6.785 -18.117   8.758  1.00  0.00     0.006 C 
BRANCH  20  21
ATOM     21  C   UNL     1       6.237 -16.836   9.409  1.00  0.00     0.053 C 
BRANCH  21  22
ATOM     22  C   UNL     1       5.496 -17.126  10.677  1.00  0.00     0.041 C 
ATOM     23  O   UNL     1       5.260 -18.315  11.018  1.00  0.00    -0.550 OA
ATOM     24  O   UNL     1       5.040 -16.081  11.470  1.00  0.00    -0.550 OA
ENDBRANCH  21  22
ENDBRANCH  20  21
ENDBRANCH  19  20
ENDBRANCH  18  19
ENDBRANCH  17  18
ENDBRANCH  16  17
ENDBRANCH  15  16
ENDBRANCH  14  15
ENDBRANCH  13  14
ENDBRANCH   1  13
TORSDOF 20
ENDMDL
MODEL 5
REMARK VINA RESULT:    -3.106      1.444      2.215
REMARK INTER + INTRA:          -9.566
REMARK INTER:                  -6.767
REMARK INTRA:                  -2.799
REMARK UNBOUND:                -2.827
REMARK SMILES CCCCCCCCCCCCCCCCCCCCCC(=O)[O-]
REMARK SMILES IDX 12 1 11 2 10 3 9 4 8 5 7 6 6 7 5 8 4 9 3 10 2 11 1 12 13 13
REMARK SMILES IDX 14 14 15 15 16 16 17 17 18 18 19 19 20 20 21 21 22 22 23 23
REMARK SMILES IDX 24 24
REMARK H PARENT
REMARK Flexibility Score: inf
ROOT
ATOM      1  C   UNL     1       6.470 -17.134   9.298  1.00  0.00     0.000 C 
ENDROOT
BRANCH   1   2
ATOM      2  C   UNL     1       5.510 -17.322   8.112  1.00  0.00     0.000 C 
BRANCH   2   3
ATOM      3  C   UNL     1       5.784 -18.644   7.385  1.00  0.00     0.000 C 
BRANCH   3   4
ATOM      4  C   UNL     1       4.499 -19.198   6.752  1.00  0.00    -0.000 C 
BRANCH   4   5
ATOM      5  C   UNL     1       3.399 -18.134   6.613  1.00  0.00    -0.000 C 
BRANCH   5   6
ATOM      6  C   UNL     1       1.987 -18.710   6.822  1.00  0.00    -0.000 C 
BRANCH   6   7
ATOM      7  C   UNL     1       1.718 -19.955   5.961  1.00  0.00    -0.000 C 
BRANCH   7   8
ATOM      8  C   UNL     1       1.067 -19.612   4.610  1.00  0.00    -0.000 C 
BRANCH   8   9
ATOM      9  C   UNL     1       2.051 -19.712   3.429  1.00  0.00    -0.000 C 
BRANCH   9  10
ATOM     10  C   UNL     1       2.450 -18.366   2.797  1.00  0.00    -0.000 C 
BRANCH  10  11
ATOM     11  C   UNL     1       3.896 -18.352   2.282  1.00  0.00    -0.003 C 
ATOM     12  C   UNL     1       4.747 -19.397   2.999  1.00  0.00     0.004 C 
ENDBRANCH  10  11
ENDBRANCH   9  10
ENDBRANCH   8   9
ENDBRANCH   7   8
ENDBRANCH   6   7
ENDBRANCH   5   6
ENDBRANCH   4   5
ENDBRANCH   3   4
ENDBRANCH   2   3
ENDBRANCH   1   2
BRANCH   1  13
ATOM     13  C   UNL     1       7.560 -18.216   9.353  1.00  0.00     0.000 C 
BRANCH  13  14
ATOM     14  C   UNL     1       8.917 -17.664   9.817  1.00  0.00     0.000 C 
BRANCH  14  15
ATOM     15  C   UNL     1       8.901 -16.131   9.857  1.00  0.00     0.000 C 
BRANCH  15  16
ATOM     16  C   UNL     1      10.052 -15.546   9.024  1.00  0.00     0.000 C 
BRANCH  16  17
ATOM     17  C   UNL     1       9.554 -14.637   7.879  1.00  0.00     0.000 C 
BRANCH  17  18
ATOM     18  C   UNL     1       8.602 -15.342   6.895  1.00  0.00     0.000 C 
BRANCH  18  19
ATOM     19  C   UNL     1       9.286 -16.279   5.882  1.00  0.00     0.000 C 
BRANCH  19  20
ATOM     20  C   UNL     1       8.969 -17.779   6.060  1.00  0.00     0.006 C 
BRANCH  20  21
ATOM     21  C   UNL     1       9.068 -18.609   4.769  1.00  0.00     0.053 C 
BRANCH  21  22
ATOM     22  C   UNL     1       9.666 -17.824   3.643  1.00  0.00     0.041 C 
ATOM     23  O   UNL     1       8.924 -17.290   2.777  1.00  0.00    -0.550 OA
ATOM     24  O   UNL     1      11.045 -17.706   3.534  1.00  0.00    -0.550 OA
ENDBRANCH  21  22
ENDBRANCH  20  21
ENDBRANCH  19  20
ENDBRANCH  18  19
ENDBRANCH  17  18
ENDBRANCH  16  17
ENDBRANCH  15  16
ENDBRANCH  14  15
ENDBRANCH  13  14
ENDBRANCH   1  13
TORSDOF 20
ENDMDL
MODEL 6
REMARK VINA RESULT:    -3.098      2.386      6.955
REMARK INTER + INTRA:          -9.547
REMARK INTER:                  -6.320
REMARK INTRA:                  -3.227
REMARK UNBOUND:                -2.827
REMARK SMILES CCCCCCCCCCCCCCCCCCCCCC(=O)[O-]
REMARK SMILES IDX 12 1 11 2 10 3 9 4 8 5 7 6 6 7 5 8 4 9 3 10 2 11 1 12 13 13
REMARK SMILES IDX 14 14 15 15 16 16 17 17 18 18 19 19 20 20 21 21 22 22 23 23
REMARK SMILES IDX 24 24
REMARK H PARENT
REMARK Flexibility Score: inf
ROOT
ATOM      1  C   UNL     1       8.595 -17.769   6.410  1.00  0.00     0.000 C 
ENDROOT
BRANCH   1   2
ATOM      2  C   UNL     1       9.510 -17.081   5.385  1.00  0.00     0.000 C 
BRANCH   2   3
ATOM      3  C   UNL     1       9.799 -15.631   5.788  1.00  0.00     0.000 C 
BRANCH   3   4
ATOM      4  C   UNL     1       8.678 -15.075   6.680  1.00  0.00    -0.000 C 
BRANCH   4   5
ATOM      5  C   UNL     1       9.194 -14.567   8.035  1.00  0.00    -0.000 C 
BRANCH   5   6
ATOM      6  C   UNL     1      10.549 -15.186   8.423  1.00  0.00    -0.000 C 
BRANCH   6   7
ATOM      7  C   UNL     1      10.408 -16.367   9.398  1.00  0.00    -0.000 C 
BRANCH   7   8
ATOM      8  C   UNL     1       9.011 -16.443  10.038  1.00  0.00    -0.000 C 
BRANCH   8   9
ATOM      9  C   UNL     1       8.489 -17.886  10.167  1.00  0.00    -0.000 C 
BRANCH   9  10
ATOM     10  C   UNL     1       7.061 -18.113   9.640  1.00  0.00    -0.000 C 
BRANCH  10  11
ATOM     11  C   UNL     1       6.239 -16.818   9.563  1.00  0.00    -0.003 C 
ATOM     12  C   UNL     1       5.481 -16.725   8.242  1.00  0.00     0.004 C 
ENDBRANCH  10  11
ENDBRANCH   9  10
ENDBRANCH   8   9
ENDBRANCH   7   8
ENDBRANCH   6   7
ENDBRANCH   5   6
ENDBRANCH   4   5
ENDBRANCH   3   4
ENDBRANCH   2   3
ENDBRANCH   1   2
BRANCH   1  13
ATOM     13  C   UNL     1       8.972 -19.240   6.645  1.00  0.00     0.000 C 
BRANCH  13  14
ATOM     14  C   UNL     1       7.843 -20.208   6.261  1.00  0.00     0.000 C 
BRANCH  14  15
ATOM     15  C   UNL     1       6.644 -19.450   5.679  1.00  0.00     0.000 C 
BRANCH  15  16
ATOM     16  C   UNL     1       5.333 -19.900   6.340  1.00  0.00     0.000 C 
BRANCH  16  17
ATOM     17  C   UNL     1       4.253 -20.294   5.309  1.00  0.00     0.000 C 
BRANCH  17  18
ATOM     18  C   UNL     1       2.961 -19.461   5.413  1.00  0.00     0.000 C 
BRANCH  18  19
ATOM     19  C   UNL     1       2.994 -18.111   4.672  1.00  0.00     0.000 C 
BRANCH  19  20
ATOM     20  C   UNL     1       2.525 -18.159   3.202  1.00  0.00     0.006 C 
BRANCH  20  21
ATOM     21  C   UNL     1       3.637 -18.470   2.187  1.00  0.00     0.053 C 
BRANCH  21  22
ATOM     22  C   UNL     1       3.281 -19.623   1.301  1.00  0.00     0.041 C 
ATOM     23  O   UNL     1       3.775 -19.712   0.145  1.00  0.00    -0.550 OA
ATOM     24  O   UNL     1       2.384 -20.587   1.740  1.00  0.00    -0.550 OA
ENDBRANCH  21  22
ENDBRANCH  20  21
ENDBRANCH  19  20
ENDBRANCH  18  19
ENDBRANCH  17  18
ENDBRANCH  16  17
ENDBRANCH  15  16
ENDBRANCH  14  15
ENDBRANCH  13  14
ENDBRANCH   1  13
TORSDOF 20
ENDMDL
MODEL 7
REMARK VINA RESULT:    -3.072      2.968      4.602
REMARK INTER + INTRA:          -9.491
REMARK INTER:                  -6.328
REMARK INTRA:                  -3.163
REMARK UNBOUND:                -2.827
REMARK SMILES CCCCCCCCCCCCCCCCCCCCCC(=O)[O-]
REMARK SMILES IDX 12 1 11 2 10 3 9 4 8 5 7 6 6 7 5 8 4 9 3 10 2 11 1 12 13 13
REMARK SMILES IDX 14 14 15 15 16 16 17 17 18 18 19 19 20 20 21 21 22 22 23 23
REMARK SMILES IDX 24 24
REMARK H PARENT
REMARK Flexibility Score: inf
ROOT
ATOM      1  C   UNL     1       9.634 -16.963   4.706  1.00  0.00     0.000 C 
ENDROOT
BRANCH   1   2
ATOM      2  C   UNL     1       8.848 -18.279   4.812  1.00  0.00     0.000 C 
BRANCH   2   3
ATOM      3  C   UNL     1       8.282 -18.696   3.450  1.00  0.00     0.000 C 
BRANCH   3   4
ATOM      4  C   UNL     1       6.963 -19.465   3.616  1.00  0.00    -0.000 C 
BRANCH   4   5
ATOM      5  C   UNL     1       6.974 -20.409   4.829  1.00  0.00    -0.000 C 
BRANCH   5   6
ATOM      6  C   UNL     1       5.582 -20.570   5.468  1.00  0.00    -0.000 C 
BRANCH   6   7
ATOM      7  C   UNL     1       5.097 -19.290   6.169  1.00  0.00    -0.000 C 
BRANCH   7   8
ATOM      8  C   UNL     1       3.580 -19.077   6.030  1.00  0.00    -0.000 C 
BRANCH   8   9
ATOM      9  C   UNL     1       2.924 -20.061   5.043  1.00  0.00    -0.000 C 
BRANCH   9  10
ATOM     10  C   UNL     1       2.185 -19.404   3.863  1.00  0.00    -0.000 C 
BRANCH  10  11
ATOM     11  C   UNL     1       2.833 -18.089   3.408  1.00  0.00    -0.003 C 
ATOM     12  C   UNL     1       3.764 -18.316   2.220  1.00  0.00     0.004 C 
ENDBRANCH  10  11
ENDBRANCH   9  10
ENDBRANCH   8   9
ENDBRANCH   7   8
ENDBRANCH   6   7
ENDBRANCH   5   6
ENDBRANCH   4   5
ENDBRANCH   3   4
ENDBRANCH   2   3
ENDBRANCH   1   2
BRANCH   1  13
ATOM     13  C   UNL     1       9.920 -16.333   6.078  1.00  0.00     0.000 C 
BRANCH  13  14
ATOM     14  C   UNL     1       8.983 -15.158   6.396  1.00  0.00     0.000 C 
BRANCH  14  15
ATOM     15  C   UNL     1       9.256 -14.603   7.800  1.00  0.00     0.000 C 
BRANCH  15  16
ATOM     16  C   UNL     1      10.587 -15.134   8.353  1.00  0.00     0.000 C 
BRANCH  16  17
ATOM     17  C   UNL     1      10.425 -15.836   9.719  1.00  0.00     0.000 C 
BRANCH  17  18
ATOM     18  C   UNL     1       8.981 -16.277  10.023  1.00  0.00     0.000 C 
BRANCH  18  19
ATOM     19  C   UNL     1       8.657 -17.740   9.667  1.00  0.00     0.000 C 
BRANCH  19  20
ATOM     20  C   UNL     1       7.644 -17.925   8.517  1.00  0.00     0.006 C 
BRANCH  20  21
ATOM     21  C   UNL     1       6.455 -16.952   8.552  1.00  0.00     0.053 C 
BRANCH  21  22
ATOM     22  C   UNL     1       5.478 -17.298   9.633  1.00  0.00     0.041 C 
ATOM     23  O   UNL     1       5.296 -16.512  10.600  1.00  0.00    -0.550 OA
ATOM     24  O   UNL     1       4.788 -18.502   9.587  1.00  0.00    -0.550 OA
ENDBRANCH  21  22
ENDBRANCH  20  21
ENDBRANCH  19  20
ENDBRANCH  18  19
ENDBRANCH  17  18
ENDBRANCH  16  17
ENDBRANCH  15  16
ENDBRANCH  14  15
ENDBRANCH  13  14
ENDBRANCH   1  13
TORSDOF 20
ENDMDL
MODEL 8
REMARK VINA RESULT:    -3.032      1.393      5.880
REMARK INTER + INTRA:          -9.405
REMARK INTER:                  -6.065
REMARK INTRA:                  -3.340
REMARK UNBOUND:                -2.827
REMARK SMILES CCCCCCCCCCCCCCCCCCCCCC(=O)[O-]
REMARK SMILES IDX 12 1 11 2 10 3 9 4 8 5 7 6 6 7 5 8 4 9 3 10 2 11 1 12 13 13
REMARK SMILES IDX 14 14 15 15 16 16 17 17 18 18 19 19 20 20 21 21 22 22 23 23
REMARK SMILES IDX 24 24
REMARK H PARENT
REMARK Flexibility Score: inf
ROOT
ATOM      1  C   UNL     1       2.359 -19.337   5.778  1.00  0.00     0.000 C 
ENDROOT
BRANCH   1   2
ATOM      2  C   UNL     1       3.075 -18.109   6.359  1.00  0.00     0.000 C 
BRANCH   2   3
ATOM      3  C   UNL     1       4.093 -18.518   7.430  1.00  0.00     0.000 C 
BRANCH   3   4
ATOM      4  C   UNL     1       5.243 -17.504   7.510  1.00  0.00    -0.000 C 
BRANCH   4   5
ATOM      5  C   UNL     1       6.304 -17.890   8.554  1.00  0.00    -0.000 C 
BRANCH   5   6
ATOM      6  C   UNL     1       6.910 -19.281   8.295  1.00  0.00    -0.000 C 
BRANCH   6   7
ATOM      7  C   UNL     1       8.379 -19.216   7.846  1.00  0.00    -0.000 C 
BRANCH   7   8
ATOM      8  C   UNL     1       8.882 -17.773   7.669  1.00  0.00    -0.000 C 
BRANCH   8   9
ATOM      9  C   UNL     1       9.053 -17.375   6.191  1.00  0.00    -0.000 C 
BRANCH   9  10
ATOM     10  C   UNL     1       9.289 -15.874   5.943  1.00  0.00    -0.000 C 
BRANCH  10  11
ATOM     11  C   UNL     1       8.913 -15.001   7.149  1.00  0.00    -0.003 C 
ATOM     12  C   UNL     1       7.592 -14.274   6.912  1.00  0.00     0.004 C 
ENDBRANCH  10  11
ENDBRANCH   9  10
ENDBRANCH   8   9
ENDBRANCH   7   8
ENDBRANCH   6   7
ENDBRANCH   5   6
ENDBRANCH   4   5
ENDBRANCH   3   4
ENDBRANCH   2   3
ENDBRANCH   1   2
BRANCH   1  13
ATOM     13  C   UNL     1       1.923 -19.131   4.318  1.00  0.00     0.000 C 
BRANCH  13  14
ATOM     14  C   UNL     1       2.696 -17.999   3.625  1.00  0.00     0.000 C 
BRANCH  14  15
ATOM     15  C   UNL     1       3.473 -18.528   2.413  1.00  0.00     0.000 C 
BRANCH  15  16
ATOM     16  C   UNL     1       4.355 -19.724   2.801  1.00  0.00     0.000 C 
BRANCH  16  17
ATOM     17  C   UNL     1       5.713 -19.291   3.397  1.00  0.00     0.000 C 
BRANCH  17  18
ATOM     18  C   UNL     1       6.101 -20.054   4.677  1.00  0.00     0.000 C 
BRANCH  18  19
ATOM     19  C   UNL     1       7.521 -20.652   4.675  1.00  0.00     0.000 C 
BRANCH  19  20
ATOM     20  C   UNL     1       8.281 -20.529   3.338  1.00  0.00     0.006 C 
BRANCH  20  21
ATOM     21  C   UNL     1       9.552 -19.666   3.404  1.00  0.00     0.053 C 
BRANCH  21  22
ATOM     22  C   UNL     1       9.548 -18.584   2.368  1.00  0.00     0.041 C 
ATOM     23  O   UNL     1       8.794 -17.583   2.497  1.00  0.00    -0.550 OA
ATOM     24  O   UNL     1      10.358 -18.694   1.246  1.00  0.00    -0.550 OA
ENDBRANCH  21  22
ENDBRANCH  20  21
ENDBRANCH  19  20
ENDBRANCH  18  19
ENDBRANCH  17  18
ENDBRANCH  16  17
ENDBRANCH  15  16
ENDBRANCH  14  15
ENDBRANCH  13  14
ENDBRANCH   1  13
TORSDOF 20
ENDMDL
MODEL 9
REMARK VINA RESULT:    -3.020      1.326      6.027
REMARK INTER + INTRA:          -9.378
REMARK INTER:                  -6.125
REMARK INTRA:                  -3.253
REMARK UNBOUND:                -2.827
REMARK SMILES CCCCCCCCCCCCCCCCCCCCCC(=O)[O-]
REMARK SMILES IDX 12 1 11 2 10 3 9 4 8 5 7 6 6 7 5 8 4 9 3 10 2 11 1 12 13 13
REMARK SMILES IDX 14 14 15 15 16 16 17 17 18 18 19 19 20 20 21 21 22 22 23 23
REMARK SMILES IDX 24 24
REMARK H PARENT
REMARK Flexibility Score: inf
ROOT
ATOM      1  C   UNL     1       2.223 -18.699   4.057  1.00  0.00     0.000 C 
ENDROOT
BRANCH   1   2
ATOM      2  C   UNL     1       2.730 -18.306   5.454  1.00  0.00     0.000 C 
BRANCH   2   3
ATOM      3  C   UNL     1       2.591 -19.472   6.439  1.00  0.00     0.000 C 
BRANCH   3   4
ATOM      4  C   UNL     1       3.881 -19.661   7.251  1.00  0.00    -0.000 C 
BRANCH   4   5
ATOM      5  C   UNL     1       4.596 -18.334   7.548  1.00  0.00    -0.000 C 
BRANCH   5   6
ATOM      6  C   UNL     1       5.891 -18.526   8.357  1.00  0.00    -0.000 C 
BRANCH   6   7
ATOM      7  C   UNL     1       6.644 -17.208   8.599  1.00  0.00    -0.000 C 
BRANCH   7   8
ATOM      8  C   UNL     1       7.630 -17.295   9.777  1.00  0.00    -0.000 C 
BRANCH   8   9
ATOM      9  C   UNL     1       8.836 -16.350   9.620  1.00  0.00    -0.000 C 
BRANCH   9  10
ATOM     10  C   UNL     1       9.528 -16.400   8.246  1.00  0.00    -0.000 C 
BRANCH  10  11
ATOM     11  C   UNL     1       9.647 -15.020   7.584  1.00  0.00    -0.003 C 
ATOM     12  C   UNL     1       8.381 -14.670   6.807  1.00  0.00     0.004 C 
ENDBRANCH  10  11
ENDBRANCH   9  10
ENDBRANCH   8   9
ENDBRANCH   7   8
ENDBRANCH   6   7
ENDBRANCH   5   6
ENDBRANCH   4   5
ENDBRANCH   3   4
ENDBRANCH   2   3
ENDBRANCH   1   2
BRANCH   1  13
ATOM     13  C   UNL     1       2.951 -17.947   2.931  1.00  0.00     0.000 C 
BRANCH  13  14
ATOM     14  C   UNL     1       4.213 -18.681   2.451  1.00  0.00     0.000 C 
BRANCH  14  15
ATOM     15  C   UNL     1       4.043 -20.200   2.570  1.00  0.00     0.000 C 
BRANCH  15  16
ATOM     16  C   UNL     1       5.277 -20.844   3.221  1.00  0.00     0.000 C 
BRANCH  16  17
ATOM     17  C   UNL     1       6.046 -19.864   4.134  1.00  0.00     0.000 C 
BRANCH  17  18
ATOM     18  C   UNL     1       6.817 -20.552   5.275  1.00  0.00     0.000 C 
BRANCH  18  19
ATOM     19  C   UNL     1       8.111 -19.840   5.712  1.00  0.00     0.000 C 
BRANCH  19  20
ATOM     20  C   UNL     1       8.214 -18.357   5.297  1.00  0.00     0.006 C 
BRANCH  20  21
ATOM     21  C   UNL     1       9.581 -17.949   4.723  1.00  0.00     0.053 C 
BRANCH  21  22
ATOM     22  C   UNL     1       9.662 -18.183   3.246  1.00  0.00     0.041 C 
ATOM     23  O   UNL     1      10.537 -18.955   2.773  1.00  0.00    -0.550 OA
ATOM     24  O   UNL     1       8.788 -17.528   2.389  1.00  0.00    -0.550 OA
ENDBRANCH  21  22
ENDBRANCH  20  21
ENDBRANCH  19  20
ENDBRANCH  18  19
ENDBRANCH  17  18
ENDBRANCH  16  17
ENDBRANCH  15  16
ENDBRANCH  14  15
ENDBRANCH  13  14
ENDBRANCH   1  13
TORSDOF 20
ENDMDL
