MODEL 1
REMARK VINA RESULT:    -2.405      0.000      0.000
REMARK INTER + INTRA:          -2.405
REMARK INTER:                  -2.405
REMARK INTRA:                   0.000
REMARK UNBOUND:                 0.000
REMARK SMILES CC(=O)[O-]
REMARK SMILES IDX 1 1 2 2 3 3 4 4
REMARK H PARENT
REMARK Flexibility Score: inf
ROOT
ATOM      1  C   UNL     1      13.974   5.951  -6.730  1.00  0.00     0.063 C 
ATOM      2  C   UNL     1      15.283   5.242  -6.644  1.00  0.00     0.038 C 
ATOM      3  O   UNL     1      15.325   4.032  -6.301  1.00  0.00    -0.550 OA
ATOM      4  O   UNL     1      16.454   5.901  -6.996  1.00  0.00    -0.550 OA
ENDROOT
TORSDOF 0
ENDMDL
MODEL 2
REMARK VINA RESULT:    -2.373      0.220      1.621
REMARK INTER + INTRA:          -2.373
REMARK INTER:                  -2.373
REMARK INTRA:                   0.000
REMARK UNBOUND:                 0.000
REMARK SMILES CC(=O)[O-]
REMARK SMILES IDX 1 1 2 2 3 3 4 4
REMARK H PARENT
REMARK Flexibility Score: inf
ROOT
ATOM      1  C   UNL     1      14.118   5.925  -6.687  1.00  0.00     0.063 C 
ATOM      2  C   UNL     1      15.455   5.266  -6.646  1.00  0.00     0.038 C 
ATOM      3  O   UNL     1      16.468   5.863  -7.093  1.00  0.00    -0.550 OA
ATOM      4  O   UNL     1      15.594   4.012  -6.065  1.00  0.00    -0.550 OA
ENDROOT
TORSDOF 0
ENDMDL
MODEL 3
REMARK VINA RESULT:    -2.191      7.646      8.320
REMARK INTER + INTRA:          -2.191
REMARK INTER:                  -2.191
REMARK INTRA:                   0.000
REMARK UNBOUND:                 0.000
REMARK SMILES CC(=O)[O-]
REMARK SMILES IDX 1 1 2 2 3 3 4 4
REMARK H PARENT
REMARK Flexibility Score: inf
ROOT
ATOM      1  C   UNL     1      15.049  13.122  -7.618  1.00  0.00     0.063 C 
ATOM      2  C   UNL     1      15.993  13.430  -6.507  1.00  0.00     0.038 C 
ATOM      3  O   UNL     1      16.071  14.600  -6.048  1.00  0.00    -0.550 OA
ATOM      4  O   UNL     1      16.751  12.415  -5.937  1.00  0.00    -0.550 OA
ENDROOT
TORSDOF 0
ENDMDL
MODEL 4
REMARK VINA RESULT:    -2.160      1.444      2.137
REMARK INTER + INTRA:          -2.160
REMARK INTER:                  -2.160
REMARK INTRA:                   0.000
REMARK UNBOUND:                 0.000
REMARK SMILES CC(=O)[O-]
REMARK SMILES IDX 1 1 2 2 3 3 4 4
REMARK H PARENT
REMARK Flexibility Score: inf
ROOT
ATOM      1  C   UNL     1      14.994   5.219  -6.465  1.00  0.00     0.063 C 
ATOM      2  C   UNL     1      15.814   3.983  -6.311  1.00  0.00     0.038 C 
ATOM      3  O   UNL     1      17.009   4.062  -5.924  1.00  0.00    -0.550 OA
ATOM      4  O   UNL     1      15.244   2.738  -6.542  1.00  0.00    -0.550 OA
ENDROOT
TORSDOF 0
ENDMDL
MODEL 5
REMARK VINA RESULT:    -2.155      9.003      9.560
REMARK INTER + INTRA:          -2.155
REMARK INTER:                  -2.155
REMARK INTRA:                   0.000
REMARK UNBOUND:                 0.000
REMARK SMILES CC(=O)[O-]
REMARK SMILES IDX 1 1 2 2 3 3 4 4
REMARK H PARENT
REMARK Flexibility Score: inf
ROOT
ATOM      1  C   UNL     1      16.679  15.845  -5.234  1.00  0.00     0.063 C 
ATOM      2  C   UNL     1      17.042  14.401  -5.157  1.00  0.00     0.038 C 
ATOM      3  O   UNL     1      17.990  14.026  -4.420  1.00  0.00    -0.550 OA
ATOM      4  O   UNL     1      16.298  13.459  -5.857  1.00  0.00    -0.550 OA
ENDROOT
TORSDOF 0
ENDMDL
MODEL 6
REMARK VINA RESULT:    -2.153      1.312      2.156
REMARK INTER + INTRA:          -2.153
REMARK INTER:                  -2.153
REMARK INTRA:                   0.000
REMARK UNBOUND:                 0.000
REMARK SMILES CC(=O)[O-]
REMARK SMILES IDX 1 1 2 2 3 3 4 4
REMARK H PARENT
REMARK Flexibility Score: inf
ROOT
ATOM      1  C   UNL     1      16.727   5.692  -7.229  1.00  0.00     0.063 C 
ATOM      2  C   UNL     1      15.432   5.221  -6.660  1.00  0.00     0.038 C 
ATOM      3  O   UNL     1      14.468   6.020  -6.537  1.00  0.00    -0.550 OA
ATOM      4  O   UNL     1      15.269   3.885  -6.316  1.00  0.00    -0.550 OA
ENDROOT
TORSDOF 0
ENDMDL
MODEL 7
REMARK VINA RESULT:    -2.130      9.014      9.523
REMARK INTER + INTRA:          -2.130
REMARK INTER:                  -2.130
REMARK INTRA:                   0.000
REMARK UNBOUND:                 0.000
REMARK SMILES CC(=O)[O-]
REMARK SMILES IDX 1 1 2 2 3 3 4 4
REMARK H PARENT
REMARK Flexibility Score: inf
ROOT
ATOM      1  C   UNL     1      16.711  15.861  -5.236  1.00  0.00     0.063 C 
ATOM      2  C   UNL     1      16.998  14.398  -5.211  1.00  0.00     0.038 C 
ATOM      3  O   UNL     1      16.313  13.607  -5.909  1.00  0.00    -0.550 OA
ATOM      4  O   UNL     1      18.059  13.911  -4.457  1.00  0.00    -0.550 OA
ENDROOT
TORSDOF 0
ENDMDL
MODEL 8
REMARK VINA RESULT:    -2.120      9.442      9.969
REMARK INTER + INTRA:          -2.120
REMARK INTER:                  -2.120
REMARK INTRA:                   0.000
REMARK UNBOUND:                 0.000
REMARK SMILES CC(=O)[O-]
REMARK SMILES IDX 1 1 2 2 3 3 4 4
REMARK H PARENT
REMARK Flexibility Score: inf
ROOT
ATOM      1  C   UNL     1      17.948  14.400  -4.566  1.00  0.00     0.063 C 
ATOM      2  C   UNL     1      16.751  14.854  -5.331  1.00  0.00     0.038 C 
ATOM      3  O   UNL     1      16.109  14.038  -6.043  1.00  0.00    -0.550 OA
ATOM      4  O   UNL     1      16.310  16.166  -5.217  1.00  0.00    -0.550 OA
ENDROOT
TORSDOF 0
ENDMDL
MODEL 9
REMARK VINA RESULT:    -2.078      8.015      8.157
REMARK INTER + INTRA:          -2.078
REMARK INTER:                  -2.078
REMARK INTRA:                   0.000
REMARK UNBOUND:                 0.000
REMARK SMILES CC(=O)[O-]
REMARK SMILES IDX 1 1 2 2 3 3 4 4
REMARK H PARENT
REMARK Flexibility Score: inf
ROOT
ATOM      1  C   UNL     1      16.502  12.669  -7.780  1.00  0.00     0.063 C 
ATOM      2  C   UNL     1      15.243  12.948  -8.527  1.00  0.00     0.038 C 
ATOM      3  O   UNL     1      15.229  12.896  -9.784  1.00  0.00    -0.550 OA
ATOM      4  O   UNL     1      14.067  13.212  -7.835  1.00  0.00    -0.550 OA
ENDROOT
TORSDOF 0
ENDMDL
