MODEL 1
REMARK VINA RESULT:    10.607      0.000      0.000
REMARK INTER + INTRA:          19.031
REMARK INTER:                  19.288
REMARK INTRA:                  -0.257
REMARK UNBOUND:                -0.257
REMARK SMILES CCCCCCCCCCCCCC[C@H](C)C(=O)[O-]
REMARK SMILES IDX 9 1 10 2 11 3 12 4 13 5 14 6 15 7 16 8 17 9 18 10 19 11 8 12
REMARK SMILES IDX 7 13 6 14 5 15 4 16 3 17 2 18 1 19
REMARK H PARENT
REMARK Flexibility Score: inf
ROOT
ATOM      1  C   UNL     1      17.652 -15.706   6.324  1.00  0.00     0.000 C 
ENDROOT
BRANCH   1   2
ATOM      2  C   UNL     1      16.371 -16.072   7.094  1.00  0.00     0.000 C 
BRANCH   2   3
ATOM      3  C   UNL     1      15.465 -14.859   7.355  1.00  0.00     0.000 C 
BRANCH   3   4
ATOM      4  C   UNL     1      14.237 -14.884   6.433  1.00  0.00     0.000 C 
BRANCH   4   5
ATOM      5  C   UNL     1      13.242 -13.748   6.727  1.00  0.00     0.001 C 
BRANCH   5   6
ATOM      6  C   UNL     1      12.417 -13.268   5.514  1.00  0.00     0.009 C 
BRANCH   6   7
ATOM      7  C   UNL     1      11.218 -12.361   5.872  1.00  0.00     0.032 C 
ATOM      8  C   UNL     1       9.922 -12.930   5.286  1.00  0.00     0.014 C 
BRANCH   7   9
ATOM      9  C   UNL     1      11.425 -10.951   5.389  1.00  0.00     0.044 C 
ATOM     10  O   UNL     1      10.721 -10.009   5.839  1.00  0.00    -0.550 OA
ATOM     11  O   UNL     1      12.400 -10.682   4.436  1.00  0.00    -0.550 OA
ENDBRANCH   7   9
ENDBRANCH   6   7
ENDBRANCH   5   6
ENDBRANCH   4   5
ENDBRANCH   3   4
ENDBRANCH   2   3
ENDBRANCH   1   2
BRANCH   1  12
ATOM     12  C   UNL     1      18.942 -16.370   6.848  1.00  0.00     0.000 C 
BRANCH  12  13
ATOM     13  C   UNL     1      19.066 -17.878   6.559  1.00  0.00    -0.000 C 
BRANCH  13  14
ATOM     14  C   UNL     1      19.113 -18.196   5.055  1.00  0.00    -0.000 C 
BRANCH  14  15
ATOM     15  C   UNL     1      19.125 -16.928   4.185  1.00  0.00    -0.000 C 
BRANCH  15  16
ATOM     16  C   UNL     1      18.485 -17.155   2.804  1.00  0.00    -0.000 C 
BRANCH  16  17
ATOM     17  C   UNL     1      16.956 -17.004   2.830  1.00  0.00    -0.000 C 
BRANCH  17  18
ATOM     18  C   UNL     1      16.457 -15.866   1.927  1.00  0.00    -0.003 C 
ATOM     19  C   UNL     1      14.932 -15.831   1.879  1.00  0.00     0.004 C 
ENDBRANCH  17  18
ENDBRANCH  16  17
ENDBRANCH  15  16
ENDBRANCH  14  15
ENDBRANCH  13  14
ENDBRANCH  12  13
ENDBRANCH   1  12
TORSDOF 14
ENDMDL
MODEL 2
REMARK VINA RESULT:    11.399      5.813      9.178
REMARK INTER + INTRA:          20.471
REMARK INTER:                  21.165
REMARK INTRA:                  -0.693
REMARK UNBOUND:                -0.257
REMARK SMILES CCCCCCCCCCCCCC[C@H](C)C(=O)[O-]
REMARK SMILES IDX 9 1 10 2 11 3 12 4 13 5 14 6 15 7 16 8 17 9 18 10 19 11 8 12
REMARK SMILES IDX 7 13 6 14 5 15 4 16 3 17 2 18 1 19
REMARK H PARENT
REMARK Flexibility Score: inf
ROOT
ATOM      1  C   UNL     1      16.270  -8.672   1.875  1.00  0.00     0.000 C 
ENDROOT
BRANCH   1   2
ATOM      2  C   UNL     1      15.040  -9.596   1.896  1.00  0.00     0.000 C 
BRANCH   2   3
ATOM      3  C   UNL     1      14.753 -10.177   3.288  1.00  0.00     0.000 C 
BRANCH   3   4
ATOM      4  C   UNL     1      13.279 -10.587   3.418  1.00  0.00     0.000 C 
BRANCH   4   5
ATOM      5  C   UNL     1      12.774 -10.559   4.871  1.00  0.00     0.001 C 
BRANCH   5   6
ATOM      6  C   UNL     1      11.255 -10.778   5.042  1.00  0.00     0.009 C 
BRANCH   6   7
ATOM      7  C   UNL     1      10.878 -11.977   5.942  1.00  0.00     0.032 C 
ATOM      8  C   UNL     1      12.063 -12.937   6.079  1.00  0.00     0.014 C 
BRANCH   7   9
ATOM      9  C   UNL     1       9.679 -12.714   5.410  1.00  0.00     0.044 C 
ATOM     10  O   UNL     1       8.584 -12.116   5.235  1.00  0.00    -0.550 OA
ATOM     11  O   UNL     1       9.776 -14.067   5.108  1.00  0.00    -0.550 OA
ENDBRANCH   7   9
ENDBRANCH   6   7
ENDBRANCH   5   6
ENDBRANCH   4   5
ENDBRANCH   3   4
ENDBRANCH   2   3
ENDBRANCH   1   2
BRANCH   1  12
ATOM     12  C   UNL     1      15.968  -7.176   2.100  1.00  0.00     0.000 C 
BRANCH  12  13
ATOM     13  C   UNL     1      16.688  -6.535   3.302  1.00  0.00    -0.000 C 
BRANCH  13  14
ATOM     14  C   UNL     1      15.981  -6.813   4.639  1.00  0.00    -0.000 C 
BRANCH  14  15
ATOM     15  C   UNL     1      16.595  -6.023   5.806  1.00  0.00    -0.000 C 
BRANCH  15  16
ATOM     16  C   UNL     1      15.566  -5.130   6.521  1.00  0.00    -0.000 C 
BRANCH  16  17
ATOM     17  C   UNL     1      16.195  -3.857   7.108  1.00  0.00    -0.000 C 
BRANCH  17  18
ATOM     18  C   UNL     1      15.373  -2.595   6.805  1.00  0.00    -0.003 C 
ATOM     19  C   UNL     1      15.988  -1.367   7.470  1.00  0.00     0.004 C 
ENDBRANCH  17  18
ENDBRANCH  16  17
ENDBRANCH  15  16
ENDBRANCH  14  15
ENDBRANCH  13  14
ENDBRANCH  12  13
ENDBRANCH   1  12
TORSDOF 14
ENDMDL
MODEL 3
REMARK VINA RESULT:    11.560      2.661      4.393
REMARK INTER + INTRA:          20.763
REMARK INTER:                  21.580
REMARK INTRA:                  -0.816
REMARK UNBOUND:                -0.257
REMARK SMILES CCCCCCCCCCCCCC[C@H](C)C(=O)[O-]
REMARK SMILES IDX 9 1 10 2 11 3 12 4 13 5 14 6 15 7 16 8 17 9 18 10 19 11 8 12
REMARK SMILES IDX 7 13 6 14 5 15 4 16 3 17 2 18 1 19
REMARK H PARENT
REMARK Flexibility Score: inf
ROOT
ATOM      1  C   UNL     1      11.946 -19.538   5.796  1.00  0.00     0.000 C 
ENDROOT
BRANCH   1   2
ATOM      2  C   UNL     1      12.067 -18.136   5.173  1.00  0.00     0.000 C 
BRANCH   2   3
ATOM      3  C   UNL     1      10.800 -17.288   5.359  1.00  0.00     0.000 C 
BRANCH   3   4
ATOM      4  C   UNL     1      10.861 -16.016   4.502  1.00  0.00     0.000 C 
BRANCH   4   5
ATOM      5  C   UNL     1      10.249 -14.790   5.202  1.00  0.00     0.001 C 
BRANCH   5   6
ATOM      6  C   UNL     1      11.230 -13.627   5.464  1.00  0.00     0.009 C 
BRANCH   6   7
ATOM      7  C   UNL     1      10.557 -12.311   5.916  1.00  0.00     0.032 C 
ATOM      8  C   UNL     1       9.113 -12.246   5.407  1.00  0.00     0.014 C 
BRANCH   7   9
ATOM      9  C   UNL     1      11.323 -11.106   5.443  1.00  0.00     0.044 C 
ATOM     10  O   UNL     1      10.992  -9.949   5.816  1.00  0.00    -0.550 OA
ATOM     11  O   UNL     1      12.405 -11.265   4.586  1.00  0.00    -0.550 OA
ENDBRANCH   7   9
ENDBRANCH   6   7
ENDBRANCH   5   6
ENDBRANCH   4   5
ENDBRANCH   3   4
ENDBRANCH   2   3
ENDBRANCH   1   2
BRANCH   1  12
ATOM     12  C   UNL     1      13.142 -19.972   6.669  1.00  0.00     0.000 C 
BRANCH  12  13
ATOM     13  C   UNL     1      13.681 -18.892   7.625  1.00  0.00    -0.000 C 
BRANCH  13  14
ATOM     14  C   UNL     1      15.026 -18.305   7.165  1.00  0.00    -0.000 C 
BRANCH  14  15
ATOM     15  C   UNL     1      15.183 -16.822   7.540  1.00  0.00    -0.000 C 
BRANCH  15  16
ATOM     16  C   UNL     1      15.925 -16.016   6.460  1.00  0.00    -0.000 C 
BRANCH  16  17
ATOM     17  C   UNL     1      17.322 -15.565   6.916  1.00  0.00    -0.000 C 
BRANCH  17  18
ATOM     18  C   UNL     1      18.329 -16.724   6.977  1.00  0.00    -0.003 C 
ATOM     19  C   UNL     1      19.124 -16.829   5.679  1.00  0.00     0.004 C 
ENDBRANCH  17  18
ENDBRANCH  16  17
ENDBRANCH  15  16
ENDBRANCH  14  15
ENDBRANCH  13  14
ENDBRANCH  12  13
ENDBRANCH   1  12
TORSDOF 14
ENDMDL
MODEL 4
REMARK VINA RESULT:    11.676      2.932      3.926
REMARK INTER + INTRA:          20.975
REMARK INTER:                  21.337
REMARK INTRA:                  -0.362
REMARK UNBOUND:                -0.257
REMARK SMILES CCCCCCCCCCCCCC[C@H](C)C(=O)[O-]
REMARK SMILES IDX 9 1 10 2 11 3 12 4 13 5 14 6 15 7 16 8 17 9 18 10 19 11 8 12
REMARK SMILES IDX 7 13 6 14 5 15 4 16 3 17 2 18 1 19
REMARK H PARENT
REMARK Flexibility Score: inf
ROOT
ATOM      1  C   UNL     1      17.765 -15.182   6.187  1.00  0.00     0.000 C 
ENDROOT
BRANCH   1   2
ATOM      2  C   UNL     1      16.599 -14.834   7.129  1.00  0.00     0.000 C 
BRANCH   2   3
ATOM      3  C   UNL     1      15.224 -15.032   6.474  1.00  0.00     0.000 C 
BRANCH   3   4
ATOM      4  C   UNL     1      14.180 -14.093   7.096  1.00  0.00     0.000 C 
BRANCH   4   5
ATOM      5  C   UNL     1      12.926 -13.925   6.221  1.00  0.00     0.001 C 
BRANCH   5   6
ATOM      6  C   UNL     1      12.002 -12.753   6.617  1.00  0.00     0.009 C 
BRANCH   6   7
ATOM      7  C   UNL     1      11.186 -12.157   5.448  1.00  0.00     0.032 C 
ATOM      8  C   UNL     1      10.994 -10.650   5.642  1.00  0.00     0.014 C 
BRANCH   7   9
ATOM      9  C   UNL     1       9.848 -12.831   5.306  1.00  0.00     0.044 C 
ATOM     10  O   UNL     1       9.757 -14.087   5.319  1.00  0.00    -0.550 OA
ATOM     11  O   UNL     1       8.699 -12.063   5.157  1.00  0.00    -0.550 OA
ENDBRANCH   7   9
ENDBRANCH   6   7
ENDBRANCH   5   6
ENDBRANCH   4   5
ENDBRANCH   3   4
ENDBRANCH   2   3
ENDBRANCH   1   2
BRANCH   1  12
ATOM     12  C   UNL     1      18.357 -16.594   6.373  1.00  0.00     0.000 C 
BRANCH  12  13
ATOM     13  C   UNL     1      17.768 -17.403   7.544  1.00  0.00    -0.000 C 
BRANCH  13  14
ATOM     14  C   UNL     1      16.713 -18.426   7.091  1.00  0.00    -0.000 C 
BRANCH  14  15
ATOM     15  C   UNL     1      15.287 -18.026   7.502  1.00  0.00    -0.000 C 
BRANCH  15  16
ATOM     16  C   UNL     1      14.403 -19.242   7.827  1.00  0.00    -0.000 C 
BRANCH  16  17
ATOM     17  C   UNL     1      13.205 -19.373   6.874  1.00  0.00    -0.000 C 
BRANCH  17  18
ATOM     18  C   UNL     1      12.528 -20.750   6.957  1.00  0.00    -0.003 C 
ATOM     19  C   UNL     1      11.559 -20.957   5.797  1.00  0.00     0.004 C 
ENDBRANCH  17  18
ENDBRANCH  16  17
ENDBRANCH  15  16
ENDBRANCH  14  15
ENDBRANCH  13  14
ENDBRANCH  12  13
ENDBRANCH   1  12
TORSDOF 14
ENDMDL
MODEL 5
REMARK VINA RESULT:    12.226      1.547      3.883
REMARK INTER + INTRA:          21.976
REMARK INTER:                  21.065
REMARK INTRA:                   0.911
REMARK UNBOUND:                -0.257
REMARK SMILES CCCCCCCCCCCCCC[C@H](C)C(=O)[O-]
REMARK SMILES IDX 9 1 10 2 11 3 12 4 13 5 14 6 15 7 16 8 17 9 18 10 19 11 8 12
REMARK SMILES IDX 7 13 6 14 5 15 4 16 3 17 2 18 1 19
REMARK H PARENT
REMARK Flexibility Score: inf
ROOT
ATOM      1  C   UNL     1      12.865 -15.234   5.413  1.00  0.00     0.000 C 
ENDROOT
BRANCH   1   2
ATOM      2  C   UNL     1      11.821 -14.104   5.389  1.00  0.00     0.000 C 
BRANCH   2   3
ATOM      3  C   UNL     1      10.376 -14.625   5.376  1.00  0.00     0.000 C 
BRANCH   3   4
ATOM      4  C   UNL     1       9.406 -13.541   4.886  1.00  0.00     0.000 C 
BRANCH   4   5
ATOM      5  C   UNL     1       9.662 -12.169   5.534  1.00  0.00     0.001 C 
BRANCH   5   6
ATOM      6  C   UNL     1      11.106 -11.936   6.027  1.00  0.00     0.009 C 
BRANCH   6   7
ATOM      7  C   UNL     1      11.665 -10.527   5.728  1.00  0.00     0.032 C 
ATOM      8  C   UNL     1      10.521  -9.541   5.470  1.00  0.00     0.014 C 
BRANCH   7   9
ATOM      9  C   UNL     1      12.606 -10.541   4.554  1.00  0.00     0.044 C 
ATOM     10  O   UNL     1      12.668 -11.543   3.794  1.00  0.00    -0.550 OA
ATOM     11  O   UNL     1      13.416  -9.440   4.303  1.00  0.00    -0.550 OA
ENDBRANCH   7   9
ENDBRANCH   6   7
ENDBRANCH   5   6
ENDBRANCH   4   5
ENDBRANCH   3   4
ENDBRANCH   2   3
ENDBRANCH   1   2
BRANCH   1  12
ATOM     12  C   UNL     1      14.219 -14.861   6.052  1.00  0.00     0.000 C 
BRANCH  12  13
ATOM     13  C   UNL     1      15.042 -16.048   6.584  1.00  0.00    -0.000 C 
BRANCH  13  14
ATOM     14  C   UNL     1      16.461 -15.644   7.017  1.00  0.00    -0.000 C 
BRANCH  14  15
ATOM     15  C   UNL     1      17.380 -16.858   7.234  1.00  0.00    -0.000 C 
BRANCH  15  16
ATOM     16  C   UNL     1      18.776 -16.658   6.618  1.00  0.00    -0.000 C 
BRANCH  16  17
ATOM     17  C   UNL     1      18.715 -16.125   5.177  1.00  0.00    -0.000 C 
BRANCH  17  18
ATOM     18  C   UNL     1      19.125 -17.179   4.137  1.00  0.00    -0.003 C 
ATOM     19  C   UNL     1      18.352 -16.994   2.835  1.00  0.00     0.004 C 
ENDBRANCH  17  18
ENDBRANCH  16  17
ENDBRANCH  15  16
ENDBRANCH  14  15
ENDBRANCH  13  14
ENDBRANCH  12  13
ENDBRANCH   1  12
TORSDOF 14
ENDMDL
MODEL 6
REMARK VINA RESULT:    12.309      6.048      8.735
REMARK INTER + INTRA:          22.127
REMARK INTER:                  23.178
REMARK INTRA:                  -1.052
REMARK UNBOUND:                -0.257
REMARK SMILES CCCCCCCCCCCCCC[C@H](C)C(=O)[O-]
REMARK SMILES IDX 9 1 10 2 11 3 12 4 13 5 14 6 15 7 16 8 17 9 18 10 19 11 8 12
REMARK SMILES IDX 7 13 6 14 5 15 4 16 3 17 2 18 1 19
REMARK H PARENT
REMARK Flexibility Score: inf
ROOT
ATOM      1  C   UNL     1      15.866  -9.969   2.211  1.00  0.00     0.000 C 
ENDROOT
BRANCH   1   2
ATOM      2  C   UNL     1      15.774  -8.470   1.876  1.00  0.00     0.000 C 
BRANCH   2   3
ATOM      3  C   UNL     1      17.128  -7.752   1.972  1.00  0.00     0.000 C 
BRANCH   3   4
ATOM      4  C   UNL     1      17.052  -6.566   2.944  1.00  0.00     0.000 C 
BRANCH   4   5
ATOM      5  C   UNL     1      15.792  -6.592   3.826  1.00  0.00     0.001 C 
BRANCH   5   6
ATOM      6  C   UNL     1      16.055  -6.562   5.347  1.00  0.00     0.009 C 
BRANCH   6   7
ATOM      7  C   UNL     1      16.665  -5.240   5.866  1.00  0.00     0.032 C 
ATOM      8  C   UNL     1      18.012  -5.503   6.547  1.00  0.00     0.014 C 
BRANCH   7   9
ATOM      9  C   UNL     1      15.737  -4.537   6.818  1.00  0.00     0.044 C 
ATOM     10  O   UNL     1      16.185  -3.970   7.850  1.00  0.00    -0.550 OA
ATOM     11  O   UNL     1      14.371  -4.512   6.562  1.00  0.00    -0.550 OA
ENDBRANCH   7   9
ENDBRANCH   6   7
ENDBRANCH   5   6
ENDBRANCH   4   5
ENDBRANCH   3   4
ENDBRANCH   2   3
ENDBRANCH   1   2
BRANCH   1  12
ATOM     12  C   UNL     1      14.521 -10.650   2.539  1.00  0.00     0.000 C 
BRANCH  12  13
ATOM     13  C   UNL     1      13.850 -10.182   3.843  1.00  0.00    -0.000 C 
BRANCH  13  14
ATOM     14  C   UNL     1      12.566 -10.964   4.167  1.00  0.00    -0.000 C 
BRANCH  14  15
ATOM     15  C   UNL     1      11.709 -10.272   5.240  1.00  0.00    -0.000 C 
BRANCH  15  16
ATOM     16  C   UNL     1      10.760 -11.249   5.957  1.00  0.00    -0.000 C 
BRANCH  16  17
ATOM     17  C   UNL     1      11.276 -12.697   5.933  1.00  0.00    -0.000 C 
BRANCH  17  18
ATOM     18  C   UNL     1      10.282 -13.669   5.278  1.00  0.00    -0.003 C 
ATOM     19  C   UNL     1       8.926 -13.004   5.060  1.00  0.00     0.004 C 
ENDBRANCH  17  18
ENDBRANCH  16  17
ENDBRANCH  15  16
ENDBRANCH  14  15
ENDBRANCH  13  14
ENDBRANCH  12  13
ENDBRANCH   1  12
TORSDOF 14
ENDMDL
MODEL 7
REMARK VINA RESULT:    12.466      3.876      7.673
REMARK INTER + INTRA:          22.411
REMARK INTER:                  23.230
REMARK INTRA:                  -0.819
REMARK UNBOUND:                -0.257
REMARK SMILES CCCCCCCCCCCCCC[C@H](C)C(=O)[O-]
REMARK SMILES IDX 9 1 10 2 11 3 12 4 13 5 14 6 15 7 16 8 17 9 18 10 19 11 8 12
REMARK SMILES IDX 7 13 6 14 5 15 4 16 3 17 2 18 1 19
REMARK H PARENT
REMARK Flexibility Score: inf
ROOT
ATOM      1  C   UNL     1      11.444 -18.957   5.213  1.00  0.00     0.000 C 
ENDROOT
BRANCH   1   2
ATOM      2  C   UNL     1      11.845 -19.267   6.666  1.00  0.00     0.000 C 
BRANCH   2   3
ATOM      3  C   UNL     1      13.165 -20.047   6.767  1.00  0.00     0.000 C 
BRANCH   3   4
ATOM      4  C   UNL     1      14.153 -19.334   7.701  1.00  0.00     0.000 C 
BRANCH   4   5
ATOM      5  C   UNL     1      14.767 -18.070   7.074  1.00  0.00     0.001 C 
BRANCH   5   6
ATOM      6  C   UNL     1      16.242 -17.805   7.445  1.00  0.00     0.009 C 
BRANCH   6   7
ATOM      7  C   UNL     1      16.680 -16.328   7.314  1.00  0.00     0.032 C 
ATOM      8  C   UNL     1      15.566 -15.495   6.671  1.00  0.00     0.014 C 
BRANCH   7   9
ATOM      9  C   UNL     1      17.947 -16.195   6.514  1.00  0.00     0.044 C 
ATOM     10  O   UNL     1      18.912 -16.981   6.706  1.00  0.00    -0.550 OA
ATOM     11  O   UNL     1      18.059 -15.194   5.556  1.00  0.00    -0.550 OA
ENDBRANCH   7   9
ENDBRANCH   6   7
ENDBRANCH   5   6
ENDBRANCH   4   5
ENDBRANCH   3   4
ENDBRANCH   2   3
ENDBRANCH   1   2
BRANCH   1  12
ATOM     12  C   UNL     1      11.710 -17.507   4.757  1.00  0.00     0.000 C 
BRANCH  12  13
ATOM     13  C   UNL     1      10.455 -16.628   4.602  1.00  0.00    -0.000 C 
BRANCH  13  14
ATOM     14  C   UNL     1      10.713 -15.152   4.951  1.00  0.00    -0.000 C 
BRANCH  14  15
ATOM     15  C   UNL     1       9.424 -14.399   5.320  1.00  0.00    -0.000 C 
BRANCH  15  16
ATOM     16  C   UNL     1       9.608 -12.872   5.299  1.00  0.00    -0.000 C 
BRANCH  16  17
ATOM     17  C   UNL     1      11.007 -12.438   5.766  1.00  0.00    -0.000 C 
BRANCH  17  18
ATOM     18  C   UNL     1      11.237 -10.926   5.624  1.00  0.00    -0.003 C 
ATOM     19  C   UNL     1      12.380 -10.634   4.656  1.00  0.00     0.004 C 
ENDBRANCH  17  18
ENDBRANCH  16  17
ENDBRANCH  15  16
ENDBRANCH  14  15
ENDBRANCH  13  14
ENDBRANCH  12  13
ENDBRANCH   1  12
TORSDOF 14
ENDMDL
