MODEL 1
REMARK VINA RESULT:    -7.588      0.000      0.000
REMARK INTER + INTRA:          -9.207
REMARK INTER:                  -8.919
REMARK INTRA:                  -0.288
REMARK UNBOUND:                -0.288
REMARK SMILES O=c1c(O)c(-c2ccc(O)c(O)c2)oc2cc(O)ccc12
REMARK SMILES IDX 5 1 3 2 2 3 1 4 21 5 15 6 14 7 16 8 17 9 19 10 20 11 6 12
REMARK SMILES IDX 7 13 8 14 9 15 13 16 11 17 10 18 12 20 4 22 18 24
REMARK H PARENT 10 19 12 21 4 23 18 25
REMARK Flexibility Score: inf
ROOT
ATOM      1  C   UNL     1      52.789  47.891  72.106  1.00  0.00     0.180 A 
ATOM      2  C   UNL     1      52.408  46.533  72.119  1.00  0.00     0.208 A 
ATOM      3  C   UNL     1      51.383  46.127  72.988  1.00  0.00     0.235 A 
ATOM      4  O   UNL     1      51.032  44.915  73.026  1.00  0.00    -0.285 OA
ATOM      5  C   UNL     1      50.751  47.079  73.803  1.00  0.00     0.069 A 
ATOM      6  C   UNL     1      51.174  48.422  73.714  1.00  0.00     0.142 A 
ATOM      7  O   UNL     1      52.154  48.765  72.885  1.00  0.00    -0.452 OA
ATOM      8  C   UNL     1      50.561  49.403  74.503  1.00  0.00     0.094 A 
ATOM      9  C   UNL     1      49.530  49.055  75.385  1.00  0.00     0.119 A 
ATOM     10  C   UNL     1      49.110  47.724  75.476  1.00  0.00     0.047 A 
ATOM     11  C   UNL     1      49.714  46.738  74.691  1.00  0.00     0.020 A 
ENDROOT
BRANCH   1  12
ATOM     12  C   UNL     1      53.873  48.395  71.232  1.00  0.00     0.025 A 
ATOM     13  C   UNL     1      55.167  48.547  71.756  1.00  0.00     0.016 A 
ATOM     14  C   UNL     1      56.210  49.001  70.944  1.00  0.00     0.051 A 
ATOM     15  C   UNL     1      55.977  49.295  69.595  1.00  0.00     0.157 A 
ATOM     16  C   UNL     1      53.649  48.670  69.872  1.00  0.00     0.062 A 
ATOM     17  C   UNL     1      54.696  49.125  69.056  1.00  0.00     0.158 A 
BRANCH  15  18
ATOM     18  O   UNL     1      57.014  49.750  68.781  1.00  0.00    -0.504 OA
ATOM     19  H   UNL     1      57.872  49.221  68.671  1.00  0.00     0.293 HD
ENDBRANCH  15  18
BRANCH  17  20
ATOM     20  O   UNL     1      54.470  49.404  67.710  1.00  0.00    -0.504 OA
ATOM     21  H   UNL     1      54.220  50.334  67.395  1.00  0.00     0.293 HD
ENDBRANCH  17  20
ENDBRANCH   1  12
BRANCH   2  22
ATOM     22  O   UNL     1      53.022  45.618  71.261  1.00  0.00    -0.502 OA
ATOM     23  H   UNL     1      54.027  45.581  71.138  1.00  0.00     0.293 HD
ENDBRANCH   2  22
BRANCH   9  24
ATOM     24  O   UNL     1      48.914  50.024  76.174  1.00  0.00    -0.508 OA
ATOM     25  H   UNL     1      48.469  49.787  77.054  1.00  0.00     0.293 HD
ENDBRANCH   9  24
TORSDOF 5
ENDMDL
MODEL 2
REMARK VINA RESULT:    -7.324      2.298      6.610
REMARK INTER + INTRA:          -8.897
REMARK INTER:                  -8.765
REMARK INTRA:                  -0.132
REMARK UNBOUND:                -0.288
REMARK SMILES O=c1c(O)c(-c2ccc(O)c(O)c2)oc2cc(O)ccc12
REMARK SMILES IDX 5 1 3 2 2 3 1 4 21 5 15 6 14 7 16 8 17 9 19 10 20 11 6 12
REMARK SMILES IDX 7 13 8 14 9 15 13 16 11 17 10 18 12 20 4 22 18 24
REMARK H PARENT 10 19 12 21 4 23 18 25
REMARK Flexibility Score: inf
ROOT
ATOM      1  C   UNL     1      51.394  47.666  73.674  1.00  0.00     0.180 A 
ATOM      2  C   UNL     1      52.144  46.765  72.890  1.00  0.00     0.208 A 
ATOM      3  C   UNL     1      52.695  47.217  71.681  1.00  0.00     0.235 A 
ATOM      4  O   UNL     1      53.361  46.426  70.956  1.00  0.00    -0.285 OA
ATOM      5  C   UNL     1      52.507  48.552  71.293  1.00  0.00     0.069 A 
ATOM      6  C   UNL     1      51.765  49.398  72.144  1.00  0.00     0.142 A 
ATOM      7  O   UNL     1      51.251  48.929  73.277  1.00  0.00    -0.452 OA
ATOM      8  C   UNL     1      51.564  50.739  71.797  1.00  0.00     0.094 A 
ATOM      9  C   UNL     1      52.095  51.246  70.604  1.00  0.00     0.119 A 
ATOM     10  C   UNL     1      52.831  50.409  69.758  1.00  0.00     0.047 A 
ATOM     11  C   UNL     1      53.038  49.069  70.097  1.00  0.00     0.020 A 
ENDROOT
BRANCH   1  12
ATOM     12  C   UNL     1      50.764  47.261  74.951  1.00  0.00     0.025 A 
ATOM     13  C   UNL     1      51.576  46.870  76.027  1.00  0.00     0.016 A 
ATOM     14  C   UNL     1      51.004  46.504  77.249  1.00  0.00     0.051 A 
ATOM     15  C   UNL     1      49.614  46.540  77.415  1.00  0.00     0.157 A 
ATOM     16  C   UNL     1      49.370  47.316  75.129  1.00  0.00     0.062 A 
ATOM     17  C   UNL     1      48.796  46.950  76.356  1.00  0.00     0.158 A 
BRANCH  15  18
ATOM     18  O   UNL     1      49.038  46.174  78.632  1.00  0.00    -0.504 OA
ATOM     19  H   UNL     1      48.200  45.605  78.671  1.00  0.00     0.293 HD
ENDBRANCH  15  18
BRANCH  17  20
ATOM     20  O   UNL     1      47.414  46.997  76.529  1.00  0.00    -0.504 OA
ATOM     21  H   UNL     1      46.833  46.178  76.394  1.00  0.00     0.293 HD
ENDBRANCH  17  20
ENDBRANCH   1  12
BRANCH   2  22
ATOM     22  O   UNL     1      52.355  45.455  73.326  1.00  0.00    -0.502 OA
ATOM     23  H   UNL     1      52.272  45.187  74.299  1.00  0.00     0.293 HD
ENDBRANCH   2  22
BRANCH   9  24
ATOM     24  O   UNL     1      51.900  52.579  70.250  1.00  0.00    -0.508 OA
ATOM     25  H   UNL     1      51.083  52.875  69.728  1.00  0.00     0.293 HD
ENDBRANCH   9  24
TORSDOF 5
ENDMDL
MODEL 3
REMARK VINA RESULT:    -7.249      2.579      2.931
REMARK INTER + INTRA:          -8.808
REMARK INTER:                  -8.493
REMARK INTRA:                  -0.315
REMARK UNBOUND:                -0.288
REMARK SMILES O=c1c(O)c(-c2ccc(O)c(O)c2)oc2cc(O)ccc12
REMARK SMILES IDX 5 1 3 2 2 3 1 4 21 5 15 6 14 7 16 8 17 9 19 10 20 11 6 12
REMARK SMILES IDX 7 13 8 14 9 15 13 16 11 17 10 18 12 20 4 22 18 24
REMARK H PARENT 10 19 12 21 4 23 18 25
REMARK Flexibility Score: inf
ROOT
ATOM      1  C   UNL     1      53.672  49.181  72.907  1.00  0.00     0.180 A 
ATOM      2  C   UNL     1      53.656  48.103  71.998  1.00  0.00     0.208 A 
ATOM      3  C   UNL     1      52.755  47.048  72.215  1.00  0.00     0.235 A 
ATOM      4  O   UNL     1      52.730  46.067  71.421  1.00  0.00    -0.285 OA
ATOM      5  C   UNL     1      51.883  47.101  73.312  1.00  0.00     0.069 A 
ATOM      6  C   UNL     1      51.943  48.225  74.163  1.00  0.00     0.142 A 
ATOM      7  O   UNL     1      52.817  49.199  73.928  1.00  0.00    -0.452 OA
ATOM      8  C   UNL     1      51.083  48.320  75.262  1.00  0.00     0.094 A 
ATOM      9  C   UNL     1      50.160  47.298  75.525  1.00  0.00     0.119 A 
ATOM     10  C   UNL     1      50.099  46.182  74.683  1.00  0.00     0.047 A 
ATOM     11  C   UNL     1      50.953  46.080  73.583  1.00  0.00     0.020 A 
ENDROOT
BRANCH   1  12
ATOM     12  C   UNL     1      54.605  50.321  72.759  1.00  0.00     0.025 A 
ATOM     13  C   UNL     1      55.894  50.235  73.307  1.00  0.00     0.016 A 
ATOM     14  C   UNL     1      56.798  51.290  73.161  1.00  0.00     0.051 A 
ATOM     15  C   UNL     1      56.430  52.440  72.452  1.00  0.00     0.157 A 
ATOM     16  C   UNL     1      54.247  51.469  72.029  1.00  0.00     0.062 A 
ATOM     17  C   UNL     1      55.155  52.529  71.881  1.00  0.00     0.158 A 
BRANCH  15  18
ATOM     18  O   UNL     1      57.328  53.497  72.305  1.00  0.00    -0.504 OA
ATOM     19  H   UNL     1      58.246  53.475  72.734  1.00  0.00     0.293 HD
ENDBRANCH  15  18
BRANCH  17  20
ATOM     20  O   UNL     1      54.797  53.668  71.163  1.00  0.00    -0.504 OA
ATOM     21  H   UNL     1      55.490  54.243  70.699  1.00  0.00     0.293 HD
ENDBRANCH  17  20
ENDBRANCH   1  12
BRANCH   2  22
ATOM     22  O   UNL     1      54.503  48.102  70.887  1.00  0.00    -0.502 OA
ATOM     23  H   UNL     1      55.512  48.108  70.975  1.00  0.00     0.293 HD
ENDBRANCH   2  22
BRANCH   9  24
ATOM     24  O   UNL     1      49.299  47.383  76.616  1.00  0.00    -0.508 OA
ATOM     25  H   UNL     1      48.467  46.807  76.681  1.00  0.00     0.293 HD
ENDBRANCH   9  24
TORSDOF 5
ENDMDL
MODEL 4
REMARK VINA RESULT:    -7.115      1.908      6.818
REMARK INTER + INTRA:          -8.652
REMARK INTER:                  -8.330
REMARK INTRA:                  -0.322
REMARK UNBOUND:                -0.288
REMARK SMILES O=c1c(O)c(-c2ccc(O)c(O)c2)oc2cc(O)ccc12
REMARK SMILES IDX 5 1 3 2 2 3 1 4 21 5 15 6 14 7 16 8 17 9 19 10 20 11 6 12
REMARK SMILES IDX 7 13 8 14 9 15 13 16 11 17 10 18 12 20 4 22 18 24
REMARK H PARENT 10 19 12 21 4 23 18 25
REMARK Flexibility Score: inf
ROOT
ATOM      1  C   UNL     1      51.980  48.613  72.941  1.00  0.00     0.180 A 
ATOM      2  C   UNL     1      51.673  48.632  71.565  1.00  0.00     0.208 A 
ATOM      3  C   UNL     1      52.650  49.074  70.659  1.00  0.00     0.235 A 
ATOM      4  O   UNL     1      52.394  49.110  69.424  1.00  0.00    -0.285 OA
ATOM      5  C   UNL     1      53.909  49.465  71.139  1.00  0.00     0.069 A 
ATOM      6  C   UNL     1      54.147  49.395  72.529  1.00  0.00     0.142 A 
ATOM      7  O   UNL     1      53.192  48.979  73.354  1.00  0.00    -0.452 OA
ATOM      8  C   UNL     1      55.393  49.766  73.046  1.00  0.00     0.094 A 
ATOM      9  C   UNL     1      56.408  50.212  72.188  1.00  0.00     0.119 A 
ATOM     10  C   UNL     1      56.174  50.283  70.810  1.00  0.00     0.047 A 
ATOM     11  C   UNL     1      54.933  49.913  70.285  1.00  0.00     0.020 A 
ENDROOT
BRANCH   1  12
ATOM     12  C   UNL     1      50.998  48.178  73.960  1.00  0.00     0.025 A 
ATOM     13  C   UNL     1      50.955  46.829  74.346  1.00  0.00     0.016 A 
ATOM     14  C   UNL     1      50.051  46.401  75.322  1.00  0.00     0.051 A 
ATOM     15  C   UNL     1      49.188  47.317  75.935  1.00  0.00     0.157 A 
ATOM     16  C   UNL     1      50.144  49.099  74.594  1.00  0.00     0.062 A 
ATOM     17  C   UNL     1      49.237  48.669  75.574  1.00  0.00     0.158 A 
BRANCH  15  18
ATOM     18  O   UNL     1      48.282  46.894  76.907  1.00  0.00    -0.504 OA
ATOM     19  H   UNL     1      48.072  47.463  77.718  1.00  0.00     0.293 HD
ENDBRANCH  15  18
BRANCH  17  20
ATOM     20  O   UNL     1      48.386  49.581  76.195  1.00  0.00    -0.504 OA
ATOM     21  H   UNL     1      48.520  50.581  76.102  1.00  0.00     0.293 HD
ENDBRANCH  17  20
ENDBRANCH   1  12
BRANCH   2  22
ATOM     22  O   UNL     1      50.427  48.190  71.112  1.00  0.00    -0.502 OA
ATOM     23  H   UNL     1      49.927  47.430  71.557  1.00  0.00     0.293 HD
ENDBRANCH   2  22
BRANCH   9  24
ATOM     24  O   UNL     1      57.652  50.584  72.693  1.00  0.00    -0.508 OA
ATOM     25  H   UNL     1      58.086  51.463  72.436  1.00  0.00     0.293 HD
ENDBRANCH   9  24
TORSDOF 5
ENDMDL
MODEL 5
REMARK VINA RESULT:    -7.038      2.135      7.211
REMARK INTER + INTRA:          -8.561
REMARK INTER:                  -8.576
REMARK INTRA:                   0.015
REMARK UNBOUND:                -0.288
REMARK SMILES O=c1c(O)c(-c2ccc(O)c(O)c2)oc2cc(O)ccc12
REMARK SMILES IDX 5 1 3 2 2 3 1 4 21 5 15 6 14 7 16 8 17 9 19 10 20 11 6 12
REMARK SMILES IDX 7 13 8 14 9 15 13 16 11 17 10 18 12 20 4 22 18 24
REMARK H PARENT 10 19 12 21 4 23 18 25
REMARK Flexibility Score: inf
ROOT
ATOM      1  C   UNL     1      51.169  48.827  73.732  1.00  0.00     0.180 A 
ATOM      2  C   UNL     1      50.772  50.158  73.483  1.00  0.00     0.208 A 
ATOM      3  C   UNL     1      51.338  50.841  72.396  1.00  0.00     0.235 A 
ATOM      4  O   UNL     1      51.007  52.036  72.160  1.00  0.00    -0.285 OA
ATOM      5  C   UNL     1      52.264  50.181  71.573  1.00  0.00     0.069 A 
ATOM      6  C   UNL     1      52.591  48.842  71.873  1.00  0.00     0.142 A 
ATOM      7  O   UNL     1      52.040  48.233  72.919  1.00  0.00    -0.452 OA
ATOM      8  C   UNL     1      53.503  48.146  71.071  1.00  0.00     0.094 A 
ATOM      9  C   UNL     1      54.096  48.777  69.969  1.00  0.00     0.119 A 
ATOM     10  C   UNL     1      53.773  50.105  69.670  1.00  0.00     0.047 A 
ATOM     11  C   UNL     1      52.864  50.807  70.464  1.00  0.00     0.020 A 
ENDROOT
BRANCH   1  12
ATOM     12  C   UNL     1      50.633  48.046  74.870  1.00  0.00     0.025 A 
ATOM     13  C   UNL     1      51.523  47.430  75.764  1.00  0.00     0.016 A 
ATOM     14  C   UNL     1      51.039  46.705  76.856  1.00  0.00     0.051 A 
ATOM     15  C   UNL     1      49.661  46.600  77.079  1.00  0.00     0.157 A 
ATOM     16  C   UNL     1      49.250  47.956  75.109  1.00  0.00     0.062 A 
ATOM     17  C   UNL     1      48.765  47.229  76.207  1.00  0.00     0.158 A 
BRANCH  15  18
ATOM     18  O   UNL     1      49.174  45.876  78.166  1.00  0.00    -0.504 OA
ATOM     19  H   UNL     1      49.513  44.944  78.377  1.00  0.00     0.293 HD
ENDBRANCH  15  18
BRANCH  17  20
ATOM     20  O   UNL     1      47.394  47.135  76.438  1.00  0.00    -0.504 OA
ATOM     21  H   UNL     1      46.785  46.614  75.818  1.00  0.00     0.293 HD
ENDBRANCH  17  20
ENDBRANCH   1  12
BRANCH   2  22
ATOM     22  O   UNL     1      49.812  50.772  74.291  1.00  0.00    -0.502 OA
ATOM     23  H   UNL     1      49.078  50.249  74.753  1.00  0.00     0.293 HD
ENDBRANCH   2  22
BRANCH   9  24
ATOM     24  O   UNL     1      55.004  48.093  69.164  1.00  0.00    -0.508 OA
ATOM     25  H   UNL     1      55.282  48.451  68.257  1.00  0.00     0.293 HD
ENDBRANCH   9  24
TORSDOF 5
ENDMDL
MODEL 6
REMARK VINA RESULT:    -6.858      2.392      2.795
REMARK INTER + INTRA:          -8.349
REMARK INTER:                  -8.025
REMARK INTRA:                  -0.324
REMARK UNBOUND:                -0.288
REMARK SMILES O=c1c(O)c(-c2ccc(O)c(O)c2)oc2cc(O)ccc12
REMARK SMILES IDX 5 1 3 2 2 3 1 4 21 5 15 6 14 7 16 8 17 9 19 10 20 11 6 12
REMARK SMILES IDX 7 13 8 14 9 15 13 16 11 17 10 18 12 20 4 22 18 24
REMARK H PARENT 10 19 12 21 4 23 18 25
REMARK Flexibility Score: inf
ROOT
ATOM      1  C   UNL     1      52.104  49.224  72.325  1.00  0.00     0.180 A 
ATOM      2  C   UNL     1      52.664  47.931  72.276  1.00  0.00     0.208 A 
ATOM      3  C   UNL     1      52.142  46.935  73.116  1.00  0.00     0.235 A 
ATOM      4  O   UNL     1      52.634  45.773  73.098  1.00  0.00    -0.285 OA
ATOM      5  C   UNL     1      51.068  47.242  73.965  1.00  0.00     0.069 A 
ATOM      6  C   UNL     1      50.547  48.553  73.938  1.00  0.00     0.142 A 
ATOM      7  O   UNL     1      51.076  49.470  73.134  1.00  0.00    -0.452 OA
ATOM      8  C   UNL     1      49.469  48.896  74.763  1.00  0.00     0.094 A 
ATOM      9  C   UNL     1      48.905  47.941  75.619  1.00  0.00     0.119 A 
ATOM     10  C   UNL     1      49.421  46.641  75.648  1.00  0.00     0.047 A 
ATOM     11  C   UNL     1      50.496  46.289  74.828  1.00  0.00     0.020 A 
ENDROOT
BRANCH   1  12
ATOM     12  C   UNL     1      52.610  50.333  71.484  1.00  0.00     0.025 A 
ATOM     13  C   UNL     1      52.013  50.584  70.239  1.00  0.00     0.016 A 
ATOM     14  C   UNL     1      52.461  51.638  69.439  1.00  0.00     0.051 A 
ATOM     15  C   UNL     1      53.502  52.465  69.879  1.00  0.00     0.157 A 
ATOM     16  C   UNL     1      53.641  51.179  71.932  1.00  0.00     0.062 A 
ATOM     17  C   UNL     1      54.091  52.238  71.129  1.00  0.00     0.158 A 
BRANCH  15  18
ATOM     18  O   UNL     1      53.954  53.517  69.083  1.00  0.00    -0.504 OA
ATOM     19  H   UNL     1      53.675  53.604  68.112  1.00  0.00     0.293 HD
ENDBRANCH  15  18
BRANCH  17  20
ATOM     20  O   UNL     1      55.117  53.071  71.570  1.00  0.00    -0.504 OA
ATOM     21  H   UNL     1      55.936  52.702  72.038  1.00  0.00     0.293 HD
ENDBRANCH  17  20
ENDBRANCH   1  12
BRANCH   2  22
ATOM     22  O   UNL     1      53.701  47.642  71.385  1.00  0.00    -0.502 OA
ATOM     23  H   UNL     1      54.465  47.023  71.626  1.00  0.00     0.293 HD
ENDBRANCH   2  22
BRANCH   9  24
ATOM     24  O   UNL     1      47.832  48.273  76.443  1.00  0.00    -0.508 OA
ATOM     25  H   UNL     1      47.892  48.184  77.452  1.00  0.00     0.293 HD
ENDBRANCH   9  24
TORSDOF 5
ENDMDL
MODEL 7
REMARK VINA RESULT:    -6.826      4.441      6.152
REMARK INTER + INTRA:          -8.311
REMARK INTER:                  -7.989
REMARK INTRA:                  -0.322
REMARK UNBOUND:                -0.288
REMARK SMILES O=c1c(O)c(-c2ccc(O)c(O)c2)oc2cc(O)ccc12
REMARK SMILES IDX 5 1 3 2 2 3 1 4 21 5 15 6 14 7 16 8 17 9 19 10 20 11 6 12
REMARK SMILES IDX 7 13 8 14 9 15 13 16 11 17 10 18 12 20 4 22 18 24
REMARK H PARENT 10 19 12 21 4 23 18 25
REMARK Flexibility Score: inf
ROOT
ATOM      1  C   UNL     1      54.205  51.723  72.138  1.00  0.00     0.180 A 
ATOM      2  C   UNL     1      54.792  51.406  70.895  1.00  0.00     0.208 A 
ATOM      3  C   UNL     1      54.687  50.092  70.413  1.00  0.00     0.235 A 
ATOM      4  O   UNL     1      55.214  49.782  69.309  1.00  0.00    -0.285 OA
ATOM      5  C   UNL     1      53.988  49.135  71.164  1.00  0.00     0.069 A 
ATOM      6  C   UNL     1      53.408  49.537  72.386  1.00  0.00     0.142 A 
ATOM      7  O   UNL     1      53.538  50.789  72.813  1.00  0.00    -0.452 OA
ATOM      8  C   UNL     1      52.693  48.614  73.159  1.00  0.00     0.094 A 
ATOM      9  C   UNL     1      52.553  47.290  72.725  1.00  0.00     0.119 A 
ATOM     10  C   UNL     1      53.128  46.889  71.513  1.00  0.00     0.047 A 
ATOM     11  C   UNL     1      53.842  47.803  70.735  1.00  0.00     0.020 A 
ENDROOT
BRANCH   1  12
ATOM     12  C   UNL     1      54.288  53.080  72.724  1.00  0.00     0.025 A 
ATOM     13  C   UNL     1      53.281  54.016  72.442  1.00  0.00     0.016 A 
ATOM     14  C   UNL     1      53.328  55.296  73.000  1.00  0.00     0.051 A 
ATOM     15  C   UNL     1      54.374  55.653  73.860  1.00  0.00     0.157 A 
ATOM     16  C   UNL     1      55.325  53.435  73.605  1.00  0.00     0.062 A 
ATOM     17  C   UNL     1      55.372  54.720  74.167  1.00  0.00     0.158 A 
BRANCH  15  18
ATOM     18  O   UNL     1      54.426  56.929  74.419  1.00  0.00    -0.504 OA
ATOM     19  H   UNL     1      53.750  57.233  75.110  1.00  0.00     0.293 HD
ENDBRANCH  15  18
BRANCH  17  20
ATOM     20  O   UNL     1      56.404  55.073  75.034  1.00  0.00    -0.504 OA
ATOM     21  H   UNL     1      57.353  55.205  74.704  1.00  0.00     0.293 HD
ENDBRANCH  17  20
ENDBRANCH   1  12
BRANCH   2  22
ATOM     22  O   UNL     1      55.440  52.392  70.147  1.00  0.00    -0.502 OA
ATOM     23  H   UNL     1      56.087  53.051  70.565  1.00  0.00     0.293 HD
ENDBRANCH   2  22
BRANCH   9  24
ATOM     24  O   UNL     1      51.844  46.364  73.487  1.00  0.00    -0.508 OA
ATOM     25  H   UNL     1      51.188  45.719  73.061  1.00  0.00     0.293 HD
ENDBRANCH   9  24
TORSDOF 5
ENDMDL
MODEL 8
REMARK VINA RESULT:    -6.733      1.810      6.730
REMARK INTER + INTRA:          -8.203
REMARK INTER:                  -8.107
REMARK INTRA:                  -0.095
REMARK UNBOUND:                -0.288
REMARK SMILES O=c1c(O)c(-c2ccc(O)c(O)c2)oc2cc(O)ccc12
REMARK SMILES IDX 5 1 3 2 2 3 1 4 21 5 15 6 14 7 16 8 17 9 19 10 20 11 6 12
REMARK SMILES IDX 7 13 8 14 9 15 13 16 11 17 10 18 12 20 4 22 18 24
REMARK H PARENT 10 19 12 21 4 23 18 25
REMARK Flexibility Score: inf
ROOT
ATOM      1  C   UNL     1      52.511  48.589  73.138  1.00  0.00     0.180 A 
ATOM      2  C   UNL     1      52.648  47.789  71.985  1.00  0.00     0.208 A 
ATOM      3  C   UNL     1      53.783  47.955  71.177  1.00  0.00     0.235 A 
ATOM      4  O   UNL     1      53.922  47.258  70.133  1.00  0.00    -0.285 OA
ATOM      5  C   UNL     1      54.760  48.893  71.543  1.00  0.00     0.069 A 
ATOM      6  C   UNL     1      54.562  49.639  72.725  1.00  0.00     0.142 A 
ATOM      7  O   UNL     1      53.468  49.458  73.459  1.00  0.00    -0.452 OA
ATOM      8  C   UNL     1      55.518  50.577  73.131  1.00  0.00     0.094 A 
ATOM      9  C   UNL     1      56.673  50.782  72.365  1.00  0.00     0.119 A 
ATOM     10  C   UNL     1      56.871  50.045  71.192  1.00  0.00     0.047 A 
ATOM     11  C   UNL     1      55.923  49.105  70.780  1.00  0.00     0.020 A 
ENDROOT
BRANCH   1  12
ATOM     12  C   UNL     1      51.335  48.487  74.032  1.00  0.00     0.025 A 
ATOM     13  C   UNL     1      50.499  49.601  74.201  1.00  0.00     0.016 A 
ATOM     14  C   UNL     1      49.371  49.521  75.023  1.00  0.00     0.051 A 
ATOM     15  C   UNL     1      49.057  48.322  75.674  1.00  0.00     0.157 A 
ATOM     16  C   UNL     1      51.003  47.278  74.670  1.00  0.00     0.062 A 
ATOM     17  C   UNL     1      49.871  47.198  75.495  1.00  0.00     0.158 A 
BRANCH  15  18
ATOM     18  O   UNL     1      47.934  48.238  76.497  1.00  0.00    -0.504 OA
ATOM     19  H   UNL     1      48.016  48.020  77.484  1.00  0.00     0.293 HD
ENDBRANCH  15  18
BRANCH  17  20
ATOM     20  O   UNL     1      49.548  46.002  76.132  1.00  0.00    -0.504 OA
ATOM     21  H   UNL     1      48.717  45.913  76.706  1.00  0.00     0.293 HD
ENDBRANCH  17  20
ENDBRANCH   1  12
BRANCH   2  22
ATOM     22  O   UNL     1      51.683  46.829  71.672  1.00  0.00    -0.502 OA
ATOM     23  H   UNL     1      50.693  47.045  71.642  1.00  0.00     0.293 HD
ENDBRANCH   2  22
BRANCH   9  24
ATOM     24  O   UNL     1      57.631  51.713  72.760  1.00  0.00    -0.508 OA
ATOM     25  H   UNL     1      57.665  52.642  72.355  1.00  0.00     0.293 HD
ENDBRANCH   9  24
TORSDOF 5
ENDMDL
MODEL 9
REMARK VINA RESULT:    -6.651      1.707      3.398
REMARK INTER + INTRA:          -8.106
REMARK INTER:                  -7.782
REMARK INTRA:                  -0.323
REMARK UNBOUND:                -0.288
REMARK SMILES O=c1c(O)c(-c2ccc(O)c(O)c2)oc2cc(O)ccc12
REMARK SMILES IDX 5 1 3 2 2 3 1 4 21 5 15 6 14 7 16 8 17 9 19 10 20 11 6 12
REMARK SMILES IDX 7 13 8 14 9 15 13 16 11 17 10 18 12 20 4 22 18 24
REMARK H PARENT 10 19 12 21 4 23 18 25
REMARK Flexibility Score: inf
ROOT
ATOM      1  C   UNL     1      53.559  48.935  70.630  1.00  0.00     0.180 A 
ATOM      2  C   UNL     1      53.026  49.958  71.442  1.00  0.00     0.208 A 
ATOM      3  C   UNL     1      52.073  49.622  72.415  1.00  0.00     0.235 A 
ATOM      4  O   UNL     1      51.574  50.522  73.146  1.00  0.00    -0.285 OA
ATOM      5  C   UNL     1      51.689  48.282  72.572  1.00  0.00     0.069 A 
ATOM      6  C   UNL     1      52.286  47.313  71.737  1.00  0.00     0.142 A 
ATOM      7  O   UNL     1      53.179  47.673  70.821  1.00  0.00    -0.452 OA
ATOM      8  C   UNL     1      51.938  45.963  71.870  1.00  0.00     0.094 A 
ATOM      9  C   UNL     1      50.995  45.570  72.828  1.00  0.00     0.119 A 
ATOM     10  C   UNL     1      50.401  46.529  73.656  1.00  0.00     0.047 A 
ATOM     11  C   UNL     1      50.744  47.877  73.532  1.00  0.00     0.020 A 
ENDROOT
BRANCH   1  12
ATOM     12  C   UNL     1      54.554  49.211  69.569  1.00  0.00     0.025 A 
ATOM     13  C   UNL     1      55.922  49.077  69.853  1.00  0.00     0.016 A 
ATOM     14  C   UNL     1      56.878  49.311  68.861  1.00  0.00     0.051 A 
ATOM     15  C   UNL     1      56.478  49.668  67.567  1.00  0.00     0.157 A 
ATOM     16  C   UNL     1      54.156  49.548  68.262  1.00  0.00     0.062 A 
ATOM     17  C   UNL     1      55.116  49.783  67.266  1.00  0.00     0.158 A 
BRANCH  15  18
ATOM     18  O   UNL     1      57.428  49.905  66.575  1.00  0.00    -0.504 OA
ATOM     19  H   UNL     1      57.998  50.743  66.577  1.00  0.00     0.293 HD
ENDBRANCH  15  18
BRANCH  17  20
ATOM     20  O   UNL     1      54.721  50.124  65.974  1.00  0.00    -0.504 OA
ATOM     21  H   UNL     1      55.380  50.483  65.294  1.00  0.00     0.293 HD
ENDBRANCH  17  20
ENDBRANCH   1  12
BRANCH   2  22
ATOM     22  O   UNL     1      53.463  51.277  71.295  1.00  0.00    -0.502 OA
ATOM     23  H   UNL     1      53.561  51.906  72.083  1.00  0.00     0.293 HD
ENDBRANCH   2  22
BRANCH   9  24
ATOM     24  O   UNL     1      50.642  44.229  72.967  1.00  0.00    -0.508 OA
ATOM     25  H   UNL     1      50.129  43.898  73.777  1.00  0.00     0.293 HD
ENDBRANCH   9  24
TORSDOF 5
ENDMDL
