MODEL 1
REMARK VINA RESULT:    -4.668      0.000      0.000
REMARK INTER + INTRA:          -5.106
REMARK INTER:                  -5.077
REMARK INTRA:                  -0.029
REMARK UNBOUND:                -0.029
REMARK SMILES O=C([O-])c1ccc(O)cc1
REMARK SMILES IDX 4 1 5 2 10 3 6 4 9 5 7 6 2 7 1 8 3 9 8 10
REMARK H PARENT 8 11
REMARK Flexibility Score: inf
ROOT
ATOM      1  C   UNL     1      20.924   0.420 -20.587  1.00  0.00    -0.003 A 
ATOM      2  C   UNL     1      19.798  -0.409 -20.737  1.00  0.00     0.014 A 
ATOM      3  C   UNL     1      21.384   0.717 -19.291  1.00  0.00     0.014 A 
ATOM      4  C   UNL     1      19.147  -0.929 -19.614  1.00  0.00     0.047 A 
ATOM      5  C   UNL     1      20.730   0.195 -18.171  1.00  0.00     0.047 A 
ATOM      6  C   UNL     1      19.609  -0.629 -18.329  1.00  0.00     0.115 A 
ENDROOT
BRANCH   1   7
ATOM      7  C   UNL     1      21.617   0.973 -21.771  1.00  0.00     0.071 C 
ATOM      8  O   UNL     1      21.726   2.219 -21.926  1.00  0.00    -0.545 OA
ATOM      9  O   UNL     1      22.159   0.126 -22.730  1.00  0.00    -0.545 OA
ENDBRANCH   1   7
BRANCH   6  10
ATOM     10  O   UNL     1      18.950  -1.154 -17.221  1.00  0.00    -0.508 OA
ATOM     11  H   UNL     1      18.300  -1.928 -17.309  1.00  0.00     0.293 HD
ENDBRANCH   6  10
TORSDOF 2
ENDMDL
MODEL 2
REMARK VINA RESULT:    -4.565      1.801      4.024
REMARK INTER + INTRA:          -4.995
REMARK INTER:                  -4.966
REMARK INTRA:                  -0.029
REMARK UNBOUND:                -0.029
REMARK SMILES O=C([O-])c1ccc(O)cc1
REMARK SMILES IDX 4 1 5 2 10 3 6 4 9 5 7 6 2 7 1 8 3 9 8 10
REMARK H PARENT 8 11
REMARK Flexibility Score: inf
ROOT
ATOM      1  C   UNL     1      20.987   0.175 -18.862  1.00  0.00    -0.003 A 
ATOM      2  C   UNL     1      21.438   0.968 -19.933  1.00  0.00     0.014 A 
ATOM      3  C   UNL     1      20.472  -1.106 -19.131  1.00  0.00     0.014 A 
ATOM      4  C   UNL     1      21.373   0.489 -21.245  1.00  0.00     0.047 A 
ATOM      5  C   UNL     1      20.409  -1.581 -20.445  1.00  0.00     0.047 A 
ATOM      6  C   UNL     1      20.859  -0.785 -21.505  1.00  0.00     0.115 A 
ENDROOT
BRANCH   1   7
ATOM      7  C   UNL     1      21.053   0.676 -17.472  1.00  0.00     0.071 C 
ATOM      8  O   UNL     1      20.002   0.817 -16.790  1.00  0.00    -0.545 OA
ATOM      9  O   UNL     1      22.276   1.001 -16.897  1.00  0.00    -0.545 OA
ENDBRANCH   1   7
BRANCH   6  10
ATOM     10  O   UNL     1      20.801  -1.248 -22.817  1.00  0.00    -0.508 OA
ATOM     11  H   UNL     1      19.952  -1.175 -23.368  1.00  0.00     0.293 HD
ENDBRANCH   6  10
TORSDOF 2
ENDMDL
MODEL 3
REMARK VINA RESULT:    -4.562      1.743      3.931
REMARK INTER + INTRA:          -4.991
REMARK INTER:                  -4.962
REMARK INTRA:                  -0.029
REMARK UNBOUND:                -0.029
REMARK SMILES O=C([O-])c1ccc(O)cc1
REMARK SMILES IDX 4 1 5 2 10 3 6 4 9 5 7 6 2 7 1 8 3 9 8 10
REMARK H PARENT 8 11
REMARK Flexibility Score: inf
ROOT
ATOM      1  C   UNL     1      20.991   0.172 -18.923  1.00  0.00    -0.003 A 
ATOM      2  C   UNL     1      20.499  -1.106 -19.243  1.00  0.00     0.014 A 
ATOM      3  C   UNL     1      21.455   1.003 -19.959  1.00  0.00     0.014 A 
ATOM      4  C   UNL     1      20.473  -1.543 -20.571  1.00  0.00     0.047 A 
ATOM      5  C   UNL     1      21.427   0.562 -21.286  1.00  0.00     0.047 A 
ATOM      6  C   UNL     1      20.937  -0.713 -21.595  1.00  0.00     0.115 A 
ENDROOT
BRANCH   1   7
ATOM      7  C   UNL     1      21.022   0.641 -17.520  1.00  0.00     0.071 C 
ATOM      8  O   UNL     1      22.115   0.934 -16.966  1.00  0.00    -0.545 OA
ATOM      9  O   UNL     1      19.843   0.763 -16.793  1.00  0.00    -0.545 OA
ENDBRANCH   1   7
BRANCH   6  10
ATOM     10  O   UNL     1      20.904  -1.162 -22.913  1.00  0.00    -0.508 OA
ATOM     11  H   UNL     1      21.325  -2.044 -23.182  1.00  0.00     0.293 HD
ENDBRANCH   6  10
TORSDOF 2
ENDMDL
MODEL 4
REMARK VINA RESULT:    -4.392      1.146      2.179
REMARK INTER + INTRA:          -4.806
REMARK INTER:                  -4.773
REMARK INTRA:                  -0.033
REMARK UNBOUND:                -0.029
REMARK SMILES O=C([O-])c1ccc(O)cc1
REMARK SMILES IDX 4 1 5 2 10 3 6 4 9 5 7 6 2 7 1 8 3 9 8 10
REMARK H PARENT 8 11
REMARK Flexibility Score: inf
ROOT
ATOM      1  C   UNL     1      20.477  -0.173 -19.907  1.00  0.00    -0.003 A 
ATOM      2  C   UNL     1      21.201   0.453 -18.876  1.00  0.00     0.014 A 
ATOM      3  C   UNL     1      19.244  -0.777 -19.605  1.00  0.00     0.014 A 
ATOM      4  C   UNL     1      20.700   0.471 -17.570  1.00  0.00     0.047 A 
ATOM      5  C   UNL     1      18.746  -0.756 -18.298  1.00  0.00     0.047 A 
ATOM      6  C   UNL     1      19.474  -0.133 -17.277  1.00  0.00     0.115 A 
ENDROOT
BRANCH   1   7
ATOM      7  C   UNL     1      21.002  -0.196 -21.290  1.00  0.00     0.071 C 
ATOM      8  O   UNL     1      20.734  -1.156 -22.062  1.00  0.00    -0.545 OA
ATOM      9  O   UNL     1      21.799   0.842 -21.759  1.00  0.00    -0.545 OA
ENDBRANCH   1   7
BRANCH   6  10
ATOM     10  O   UNL     1      18.989  -0.105 -15.973  1.00  0.00    -0.508 OA
ATOM     11  H   UNL     1      19.206   0.659 -15.342  1.00  0.00     0.293 HD
ENDBRANCH   6  10
TORSDOF 2
ENDMDL
MODEL 5
REMARK VINA RESULT:    -4.349      1.210      4.184
REMARK INTER + INTRA:          -4.759
REMARK INTER:                  -4.724
REMARK INTRA:                  -0.035
REMARK UNBOUND:                -0.029
REMARK SMILES O=C([O-])c1ccc(O)cc1
REMARK SMILES IDX 4 1 5 2 10 3 6 4 9 5 7 6 2 7 1 8 3 9 8 10
REMARK H PARENT 8 11
REMARK Flexibility Score: inf
ROOT
ATOM      1  C   UNL     1      20.197  -0.583 -20.020  1.00  0.00    -0.003 A 
ATOM      2  C   UNL     1      20.321  -1.254 -21.250  1.00  0.00     0.014 A 
ATOM      3  C   UNL     1      20.865   0.642 -19.840  1.00  0.00     0.014 A 
ATOM      4  C   UNL     1      21.100  -0.711 -22.277  1.00  0.00     0.047 A 
ATOM      5  C   UNL     1      21.642   1.181 -20.870  1.00  0.00     0.047 A 
ATOM      6  C   UNL     1      21.762   0.506 -22.091  1.00  0.00     0.115 A 
ENDROOT
BRANCH   1   7
ATOM      7  C   UNL     1      19.375  -1.152 -18.930  1.00  0.00     0.071 C 
ATOM      8  O   UNL     1      18.928  -0.414 -18.011  1.00  0.00    -0.545 OA
ATOM      9  O   UNL     1      19.084  -2.511 -18.902  1.00  0.00    -0.545 OA
ENDBRANCH   1   7
BRANCH   6  10
ATOM     10  O   UNL     1      22.533   1.034 -23.123  1.00  0.00    -0.508 OA
ATOM     11  H   UNL     1      22.204   1.037 -24.082  1.00  0.00     0.293 HD
ENDBRANCH   6  10
TORSDOF 2
ENDMDL
MODEL 6
REMARK VINA RESULT:    -4.210     16.387     17.746
REMARK INTER + INTRA:          -4.608
REMARK INTER:                  -4.576
REMARK INTRA:                  -0.032
REMARK UNBOUND:                -0.029
REMARK SMILES O=C([O-])c1ccc(O)cc1
REMARK SMILES IDX 4 1 5 2 10 3 6 4 9 5 7 6 2 7 1 8 3 9 8 10
REMARK H PARENT 8 11
REMARK Flexibility Score: inf
ROOT
ATOM      1  C   UNL     1       9.684  -6.246  -8.324  1.00  0.00    -0.003 A 
ATOM      2  C   UNL     1       9.133  -5.660  -9.478  1.00  0.00     0.014 A 
ATOM      3  C   UNL     1       8.966  -6.182  -7.117  1.00  0.00     0.014 A 
ATOM      4  C   UNL     1       7.890  -5.022  -9.423  1.00  0.00     0.047 A 
ATOM      5  C   UNL     1       7.723  -5.543  -7.066  1.00  0.00     0.047 A 
ATOM      6  C   UNL     1       7.182  -4.961  -8.219  1.00  0.00     0.115 A 
ENDROOT
BRANCH   1   7
ATOM      7  C   UNL     1      10.999  -6.922  -8.375  1.00  0.00     0.071 C 
ATOM      8  O   UNL     1      11.199  -7.985  -7.728  1.00  0.00    -0.545 OA
ATOM      9  O   UNL     1      12.034  -6.394  -9.138  1.00  0.00    -0.545 OA
ENDBRANCH   1   7
BRANCH   6  10
ATOM     10  O   UNL     1       5.945  -4.323  -8.181  1.00  0.00    -0.508 OA
ATOM     11  H   UNL     1       5.098  -4.823  -7.934  1.00  0.00     0.293 HD
ENDBRANCH   6  10
TORSDOF 2
ENDMDL
MODEL 7
REMARK VINA RESULT:    -4.195      0.910      4.631
REMARK INTER + INTRA:          -4.592
REMARK INTER:                  -4.560
REMARK INTRA:                  -0.032
REMARK UNBOUND:                -0.029
REMARK SMILES O=C([O-])c1ccc(O)cc1
REMARK SMILES IDX 4 1 5 2 10 3 6 4 9 5 7 6 2 7 1 8 3 9 8 10
REMARK H PARENT 8 11
REMARK Flexibility Score: inf
ROOT
ATOM      1  C   UNL     1      19.887  -0.105 -18.436  1.00  0.00    -0.003 A 
ATOM      2  C   UNL     1      21.063   0.664 -18.372  1.00  0.00     0.014 A 
ATOM      3  C   UNL     1      19.382  -0.475 -19.696  1.00  0.00     0.014 A 
ATOM      4  C   UNL     1      21.718   1.055 -19.545  1.00  0.00     0.047 A 
ATOM      5  C   UNL     1      20.039  -0.082 -20.865  1.00  0.00     0.047 A 
ATOM      6  C   UNL     1      21.209   0.685 -20.793  1.00  0.00     0.115 A 
ENDROOT
BRANCH   1   7
ATOM      7  C   UNL     1      19.190  -0.522 -17.200  1.00  0.00     0.071 C 
ATOM      8  O   UNL     1      18.706  -1.681 -17.096  1.00  0.00    -0.545 OA
ATOM      9  O   UNL     1      19.057   0.361 -16.134  1.00  0.00    -0.545 OA
ENDBRANCH   1   7
BRANCH   6  10
ATOM     10  O   UNL     1      21.872   1.081 -21.951  1.00  0.00    -0.508 OA
ATOM     11  H   UNL     1      22.520   1.862 -21.950  1.00  0.00     0.293 HD
ENDBRANCH   6  10
TORSDOF 2
ENDMDL
MODEL 8
REMARK VINA RESULT:    -4.150     17.335     18.039
REMARK INTER + INTRA:          -4.543
REMARK INTER:                  -4.516
REMARK INTRA:                  -0.027
REMARK UNBOUND:                -0.029
REMARK SMILES O=C([O-])c1ccc(O)cc1
REMARK SMILES IDX 4 1 5 2 10 3 6 4 9 5 7 6 2 7 1 8 3 9 8 10
REMARK H PARENT 8 11
REMARK Flexibility Score: inf
ROOT
ATOM      1  C   UNL     1       8.387  -7.216  -9.312  1.00  0.00    -0.003 A 
ATOM      2  C   UNL     1       7.646  -6.249  -8.608  1.00  0.00     0.014 A 
ATOM      3  C   UNL     1       9.733  -7.429  -8.967  1.00  0.00     0.014 A 
ATOM      4  C   UNL     1       8.243  -5.511  -7.580  1.00  0.00     0.047 A 
ATOM      5  C   UNL     1      10.326  -6.690  -7.938  1.00  0.00     0.047 A 
ATOM      6  C   UNL     1       9.582  -5.728  -7.243  1.00  0.00     0.115 A 
ENDROOT
BRANCH   1   7
ATOM      7  C   UNL     1       7.762  -7.999 -10.400  1.00  0.00     0.071 C 
ATOM      8  O   UNL     1       7.207  -9.105 -10.158  1.00  0.00    -0.545 OA
ATOM      9  O   UNL     1       7.778  -7.527 -11.708  1.00  0.00    -0.545 OA
ENDBRANCH   1   7
BRANCH   6  10
ATOM     10  O   UNL     1      10.161  -4.986  -6.217  1.00  0.00    -0.508 OA
ATOM     11  H   UNL     1      11.132  -5.115  -5.953  1.00  0.00     0.293 HD
ENDBRANCH   6  10
TORSDOF 2
ENDMDL
MODEL 9
REMARK VINA RESULT:    -4.053     17.852     18.937
REMARK INTER + INTRA:          -4.437
REMARK INTER:                  -4.410
REMARK INTRA:                  -0.028
REMARK UNBOUND:                -0.029
REMARK SMILES O=C([O-])c1ccc(O)cc1
REMARK SMILES IDX 4 1 5 2 10 3 6 4 9 5 7 6 2 7 1 8 3 9 8 10
REMARK H PARENT 8 11
REMARK Flexibility Score: inf
ROOT
ATOM      1  C   UNL     1       9.200  -7.438  -7.643  1.00  0.00    -0.003 A 
ATOM      2  C   UNL     1       8.101  -7.860  -6.872  1.00  0.00     0.014 A 
ATOM      3  C   UNL     1       9.749  -6.165  -7.409  1.00  0.00     0.014 A 
ATOM      4  C   UNL     1       7.564  -7.023  -5.889  1.00  0.00     0.047 A 
ATOM      5  C   UNL     1       9.210  -5.332  -6.425  1.00  0.00     0.047 A 
ATOM      6  C   UNL     1       8.115  -5.758  -5.662  1.00  0.00     0.115 A 
ENDROOT
BRANCH   1   7
ATOM      7  C   UNL     1       9.772  -8.319  -8.686  1.00  0.00     0.071 C 
ATOM      8  O   UNL     1      10.898  -8.859  -8.521  1.00  0.00    -0.545 OA
ATOM      9  O   UNL     1       9.075  -8.562  -9.864  1.00  0.00    -0.545 OA
ENDBRANCH   1   7
BRANCH   6  10
ATOM     10  O   UNL     1       7.570  -4.937  -4.679  1.00  0.00    -0.508 OA
ATOM     11  H   UNL     1       7.290  -3.983  -4.881  1.00  0.00     0.293 HD
ENDBRANCH   6  10
TORSDOF 2
ENDMDL
