MODEL 1
REMARK VINA RESULT:    -3.346      0.000      0.000
REMARK INTER + INTRA:          -3.640
REMARK INTER:                  -3.541
REMARK INTRA:                  -0.098
REMARK UNBOUND:                -0.098
REMARK SMILES C=C(C)[C@H]1CC=C(C)C(=O)C1
REMARK SMILES IDX 8 1 7 2 6 3 5 4 4 5 11 6 9 7 10 8 2 9 1 10 3 11
REMARK H PARENT
REMARK Flexibility Score: inf
ROOT
ATOM      1  C   UNL     1      -5.439  15.090   6.094  1.00  0.00     0.048 C 
ATOM      2  C   UNL     1      -4.709  13.921   6.697  1.00  0.00    -0.012 C 
ATOM      3  C   UNL     1      -3.500  13.570   6.223  1.00  0.00    -0.019 C 
ATOM      4  C   UNL     1      -2.735  12.398   6.779  1.00  0.00     0.036 C 
ATOM      5  C   UNL     1      -3.015  12.215   8.282  1.00  0.00     0.025 C 
ATOM      6  C   UNL     1      -4.529  12.094   8.533  1.00  0.00     0.089 C 
ATOM      7  C   UNL     1      -5.265  13.238   7.892  1.00  0.00     0.158 C 
ATOM      8  O   UNL     1      -6.381  13.590   8.361  1.00  0.00    -0.295 OA
ENDROOT
BRANCH   5   9
ATOM      9  C   UNL     1      -2.260  11.021   8.848  1.00  0.00    -0.077 C 
ATOM     10  C   UNL     1      -2.911   9.875   9.111  1.00  0.00     0.008 C 
ATOM     11  C   UNL     1      -0.779  11.086   9.125  1.00  0.00     0.039 C 
ENDBRANCH   5   9
TORSDOF 1
ENDMDL
MODEL 2
REMARK VINA RESULT:    -2.929      1.965      4.636
REMARK INTER + INTRA:          -3.198
REMARK INTER:                  -3.100
REMARK INTRA:                  -0.098
REMARK UNBOUND:                -0.098
REMARK SMILES C=C(C)[C@H]1CC=C(C)C(=O)C1
REMARK SMILES IDX 8 1 7 2 6 3 5 4 4 5 11 6 9 7 10 8 2 9 1 10 3 11
REMARK H PARENT
REMARK Flexibility Score: inf
ROOT
ATOM      1  C   UNL     1      -1.628   9.896   8.343  1.00  0.00     0.048 C 
ATOM      2  C   UNL     1      -2.777  10.848   8.160  1.00  0.00    -0.012 C 
ATOM      3  C   UNL     1      -3.706  10.970   9.125  1.00  0.00    -0.019 C 
ATOM      4  C   UNL     1      -4.885  11.896   8.985  1.00  0.00     0.036 C 
ATOM      5  C   UNL     1      -4.517  13.142   8.158  1.00  0.00     0.025 C 
ATOM      6  C   UNL     1      -3.937  12.728   6.794  1.00  0.00     0.089 C 
ATOM      7  C   UNL     1      -2.817  11.740   6.974  1.00  0.00     0.158 C 
ATOM      8  O   UNL     1      -1.927  11.653   6.085  1.00  0.00    -0.295 OA
ENDROOT
BRANCH   5   9
ATOM      9  C   UNL     1      -5.709  14.075   7.996  1.00  0.00    -0.077 C 
ATOM     10  C   UNL     1      -5.911  14.715   6.832  1.00  0.00     0.008 C 
ATOM     11  C   UNL     1      -6.688  14.304   9.121  1.00  0.00     0.039 C 
ENDBRANCH   5   9
TORSDOF 1
ENDMDL
MODEL 3
REMARK VINA RESULT:    -2.537      1.516      2.131
REMARK INTER + INTRA:          -2.784
REMARK INTER:                  -2.694
REMARK INTRA:                  -0.090
REMARK UNBOUND:                -0.098
REMARK SMILES C=C(C)[C@H]1CC=C(C)C(=O)C1
REMARK SMILES IDX 8 1 7 2 6 3 5 4 4 5 11 6 9 7 10 8 2 9 1 10 3 11
REMARK H PARENT
REMARK Flexibility Score: inf
ROOT
ATOM      1  C   UNL     1      -5.770  15.022   5.656  1.00  0.00     0.048 C 
ATOM      2  C   UNL     1      -4.919  14.144   6.531  1.00  0.00    -0.012 C 
ATOM      3  C   UNL     1      -5.456  13.559   7.617  1.00  0.00    -0.019 C 
ATOM      4  C   UNL     1      -4.644  12.684   8.536  1.00  0.00     0.036 C 
ATOM      5  C   UNL     1      -3.550  11.928   7.759  1.00  0.00     0.025 C 
ATOM      6  C   UNL     1      -2.673  12.917   6.970  1.00  0.00     0.089 C 
ATOM      7  C   UNL     1      -3.526  13.826   6.128  1.00  0.00     0.158 C 
ATOM      8  O   UNL     1      -3.032  14.344   5.091  1.00  0.00    -0.295 OA
ENDROOT
BRANCH   5   9
ATOM      9  C   UNL     1      -2.713  11.056   8.684  1.00  0.00    -0.077 C 
ATOM     10  C   UNL     1      -3.196   9.883   9.125  1.00  0.00     0.008 C 
ATOM     11  C   UNL     1      -1.332  11.477   9.125  1.00  0.00     0.039 C 
ENDBRANCH   5   9
TORSDOF 1
ENDMDL
MODEL 4
REMARK VINA RESULT:    -1.922      0.666      1.239
REMARK INTER + INTRA:          -2.133
REMARK INTER:                  -2.043
REMARK INTRA:                  -0.090
REMARK UNBOUND:                -0.098
REMARK SMILES C=C(C)[C@H]1CC=C(C)C(=O)C1
REMARK SMILES IDX 8 1 7 2 6 3 5 4 4 5 11 6 9 7 10 8 2 9 1 10 3 11
REMARK H PARENT
REMARK Flexibility Score: inf
ROOT
ATOM      1  C   UNL     1      -4.838  15.475   5.397  1.00  0.00     0.048 C 
ATOM      2  C   UNL     1      -4.326  14.285   6.161  1.00  0.00    -0.012 C 
ATOM      3  C   UNL     1      -3.134  13.748   5.844  1.00  0.00    -0.019 C 
ATOM      4  C   UNL     1      -2.583  12.547   6.565  1.00  0.00     0.036 C 
ATOM      5  C   UNL     1      -3.024  12.536   8.041  1.00  0.00     0.025 C 
ATOM      6  C   UNL     1      -4.557  12.623   8.142  1.00  0.00     0.089 C 
ATOM      7  C   UNL     1      -5.075  13.786   7.341  1.00  0.00     0.158 C 
ATOM      8  O   UNL     1      -6.174  14.312   7.663  1.00  0.00    -0.295 OA
ENDROOT
BRANCH   5   9
ATOM      9  C   UNL     1      -2.487  11.314   8.773  1.00  0.00    -0.077 C 
ATOM     10  C   UNL     1      -1.191  11.254   9.123  1.00  0.00     0.008 C 
ATOM     11  C   UNL     1      -3.381  10.151   9.125  1.00  0.00     0.039 C 
ENDBRANCH   5   9
TORSDOF 1
ENDMDL
MODEL 5
REMARK VINA RESULT:    -1.234      1.200      1.289
REMARK INTER + INTRA:          -1.404
REMARK INTER:                  -1.308
REMARK INTRA:                  -0.097
REMARK UNBOUND:                -0.098
REMARK SMILES C=C(C)[C@H]1CC=C(C)C(=O)C1
REMARK SMILES IDX 8 1 7 2 6 3 5 4 4 5 11 6 9 7 10 8 2 9 1 10 3 11
REMARK H PARENT
REMARK Flexibility Score: inf
ROOT
ATOM      1  C   UNL     1      -4.915  16.074   5.410  1.00  0.00     0.048 C 
ATOM      2  C   UNL     1      -4.490  14.732   5.938  1.00  0.00    -0.012 C 
ATOM      3  C   UNL     1      -3.324  14.194   5.539  1.00  0.00    -0.019 C 
ATOM      4  C   UNL     1      -2.859  12.846   6.023  1.00  0.00     0.036 C 
ATOM      5  C   UNL     1      -3.335  12.580   7.463  1.00  0.00     0.025 C 
ATOM      6  C   UNL     1      -4.863  12.739   7.560  1.00  0.00     0.089 C 
ATOM      7  C   UNL     1      -5.294  14.063   6.991  1.00  0.00     0.158 C 
ATOM      8  O   UNL     1      -6.369  14.583   7.394  1.00  0.00    -0.295 OA
ENDROOT
BRANCH   5   9
ATOM      9  C   UNL     1      -2.886  11.211   7.954  1.00  0.00    -0.077 C 
ATOM     10  C   UNL     1      -3.351  10.726   9.118  1.00  0.00     0.008 C 
ATOM     11  C   UNL     1      -1.920  10.368   7.159  1.00  0.00     0.039 C 
ENDBRANCH   5   9
TORSDOF 1
ENDMDL
MODEL 6
REMARK VINA RESULT:    -0.950      1.873      2.553
REMARK INTER + INTRA:          -1.104
REMARK INTER:                  -1.014
REMARK INTRA:                  -0.090
REMARK UNBOUND:                -0.098
REMARK SMILES C=C(C)[C@H]1CC=C(C)C(=O)C1
REMARK SMILES IDX 8 1 7 2 6 3 5 4 4 5 11 6 9 7 10 8 2 9 1 10 3 11
REMARK H PARENT
REMARK Flexibility Score: inf
ROOT
ATOM      1  C   UNL     1      -5.411  15.822   4.827  1.00  0.00     0.048 C 
ATOM      2  C   UNL     1      -4.853  14.909   5.884  1.00  0.00    -0.012 C 
ATOM      3  C   UNL     1      -5.598  14.596   6.959  1.00  0.00    -0.019 C 
ATOM      4  C   UNL     1      -5.082  13.701   8.054  1.00  0.00     0.036 C 
ATOM      5  C   UNL     1      -4.118  12.638   7.494  1.00  0.00     0.025 C 
ATOM      6  C   UNL     1      -2.980  13.311   6.706  1.00  0.00     0.089 C 
ATOM      7  C   UNL     1      -3.535  14.258   5.678  1.00  0.00     0.158 C 
ATOM      8  O   UNL     1      -2.851  14.522   4.654  1.00  0.00    -0.295 OA
ENDROOT
BRANCH   5   9
ATOM      9  C   UNL     1      -3.576  11.741   8.598  1.00  0.00    -0.077 C 
ATOM     10  C   UNL     1      -4.351  10.778   9.124  1.00  0.00     0.008 C 
ATOM     11  C   UNL     1      -2.172  11.903   9.125  1.00  0.00     0.039 C 
ENDBRANCH   5   9
TORSDOF 1
ENDMDL
MODEL 7
REMARK VINA RESULT:    -0.386      2.019      4.734
REMARK INTER + INTRA:          -0.507
REMARK INTER:                  -0.410
REMARK INTRA:                  -0.097
REMARK UNBOUND:                -0.098
REMARK SMILES C=C(C)[C@H]1CC=C(C)C(=O)C1
REMARK SMILES IDX 8 1 7 2 6 3 5 4 4 5 11 6 9 7 10 8 2 9 1 10 3 11
REMARK H PARENT
REMARK Flexibility Score: inf
ROOT
ATOM      1  C   UNL     1      -2.181  10.042   9.124  1.00  0.00     0.048 C 
ATOM      2  C   UNL     1      -3.123  10.882   8.307  1.00  0.00    -0.012 C 
ATOM      3  C   UNL     1      -4.330  11.209   8.803  1.00  0.00    -0.019 C 
ATOM      4  C   UNL     1      -5.318  12.033   8.020  1.00  0.00     0.036 C 
ATOM      5  C   UNL     1      -4.598  13.047   7.112  1.00  0.00     0.025 C 
ATOM      6  C   UNL     1      -3.588  12.327   6.201  1.00  0.00     0.089 C 
ATOM      7  C   UNL     1      -2.673  11.452   7.012  1.00  0.00     0.158 C 
ATOM      8  O   UNL     1      -1.529  11.176   6.563  1.00  0.00    -0.295 OA
ENDROOT
BRANCH   5   9
ATOM      9  C   UNL     1      -5.589  13.871   6.302  1.00  0.00    -0.077 C 
ATOM     10  C   UNL     1      -6.665  13.284   5.753  1.00  0.00     0.008 C 
ATOM     11  C   UNL     1      -5.396  15.354   6.096  1.00  0.00     0.039 C 
ENDBRANCH   5   9
TORSDOF 1
ENDMDL
