MODEL 1
REMARK VINA RESULT:    -5.761      0.000      0.000
REMARK INTER + INTRA:         -15.939
REMARK INTER:                 -13.170
REMARK INTRA:                  -2.768
REMARK UNBOUND:                -2.768
REMARK SMILES CCCCCCCCCCCCCCCCCCCCCCCC(=O)[O-]
REMARK SMILES IDX 13 1 14 2 15 3 16 4 17 5 18 6 19 7 20 8 21 9 22 10 23 11
REMARK SMILES IDX 24 12 25 13 26 14 12 15 11 16 10 17 9 18 8 19 7 20 6 21 5 22
REMARK SMILES IDX 4 23 3 24 2 25 1 26
REMARK H PARENT
REMARK Flexibility Score: inf
ROOT
ATOM      1  C   UNL     1      18.954   0.275 -22.017  1.00  0.00     0.000 C 
ENDROOT
BRANCH   1   2
ATOM      2  C   UNL     1      20.466   0.483 -21.832  1.00  0.00     0.000 C 
BRANCH   2   3
ATOM      3  C   UNL     1      20.834   0.942 -20.410  1.00  0.00     0.000 C 
BRANCH   3   4
ATOM      4  C   UNL     1      19.934   0.305 -19.338  1.00  0.00     0.000 C 
BRANCH   4   5
ATOM      5  C   UNL     1      20.330  -1.150 -19.029  1.00  0.00     0.000 C 
BRANCH   5   6
ATOM      6  C   UNL     1      21.100  -1.296 -17.704  1.00  0.00     0.000 C 
BRANCH   6   7
ATOM      7  C   UNL     1      20.238  -1.640 -16.475  1.00  0.00     0.000 C 
BRANCH   7   8
ATOM      8  C   UNL     1      20.818  -1.090 -15.161  1.00  0.00     0.000 C 
BRANCH   8   9
ATOM      9  C   UNL     1      21.153   0.410 -15.241  1.00  0.00     0.000 C 
BRANCH   9  10
ATOM     10  C   UNL     1      20.044   1.325 -14.683  1.00  0.00     0.006 C 
BRANCH  10  11
ATOM     11  C   UNL     1      19.294   2.071 -15.796  1.00  0.00     0.053 C 
BRANCH  11  12
ATOM     12  C   UNL     1      17.920   1.507 -15.972  1.00  0.00     0.041 C 
ATOM     13  O   UNL     1      17.395   0.821 -15.056  1.00  0.00    -0.550 OA
ATOM     14  O   UNL     1      17.199   1.780 -17.128  1.00  0.00    -0.550 OA
ENDBRANCH  11  12
ENDBRANCH  10  11
ENDBRANCH   9  10
ENDBRANCH   8   9
ENDBRANCH   7   8
ENDBRANCH   6   7
ENDBRANCH   5   6
ENDBRANCH   4   5
ENDBRANCH   3   4
ENDBRANCH   2   3
ENDBRANCH   1   2
BRANCH   1  15
ATOM     15  C   UNL     1      18.179   1.601 -22.101  1.00  0.00     0.000 C 
BRANCH  15  16
ATOM     16  C   UNL     1      17.066   1.576 -23.164  1.00  0.00     0.000 C 
BRANCH  16  17
ATOM     17  C   UNL     1      16.563   0.172 -23.559  1.00  0.00     0.000 C 
BRANCH  17  18
ATOM     18  C   UNL     1      15.981   0.063 -24.980  1.00  0.00    -0.000 C 
BRANCH  18  19
ATOM     19  C   UNL     1      15.939   1.411 -25.714  1.00  0.00    -0.000 C 
BRANCH  19  20
ATOM     20  C   UNL     1      17.029   1.485 -26.790  1.00  0.00    -0.000 C 
BRANCH  20  21
ATOM     21  C   UNL     1      17.845   0.185 -26.835  1.00  0.00    -0.000 C 
BRANCH  21  22
ATOM     22  C   UNL     1      19.329   0.398 -26.484  1.00  0.00    -0.000 C 
BRANCH  22  23
ATOM     23  C   UNL     1      19.840  -0.418 -25.279  1.00  0.00    -0.000 C 
BRANCH  23  24
ATOM     24  C   UNL     1      20.517  -1.754 -25.636  1.00  0.00    -0.000 C 
BRANCH  24  25
ATOM     25  C   UNL     1      19.595  -2.964 -25.427  1.00  0.00    -0.003 C 
ATOM     26  C   UNL     1      18.633  -2.728 -24.267  1.00  0.00     0.004 C 
ENDBRANCH  24  25
ENDBRANCH  23  24
ENDBRANCH  22  23
ENDBRANCH  21  22
ENDBRANCH  20  21
ENDBRANCH  19  20
ENDBRANCH  18  19
ENDBRANCH  17  18
ENDBRANCH  16  17
ENDBRANCH  15  16
ENDBRANCH   1  15
TORSDOF 22
ENDMDL
MODEL 2
REMARK VINA RESULT:    -5.664      1.661      4.161
REMARK INTER + INTRA:         -15.716
REMARK INTER:                 -12.638
REMARK INTRA:                  -3.079
REMARK UNBOUND:                -2.768
REMARK SMILES CCCCCCCCCCCCCCCCCCCCCCCC(=O)[O-]
REMARK SMILES IDX 13 1 14 2 15 3 16 4 17 5 18 6 19 7 20 8 21 9 22 10 23 11
REMARK SMILES IDX 24 12 25 13 26 14 12 15 11 16 10 17 9 18 8 19 7 20 6 21 5 22
REMARK SMILES IDX 4 23 3 24 2 25 1 26
REMARK H PARENT
REMARK Flexibility Score: inf
ROOT
ATOM      1  C   UNL     1      20.113  -2.265 -18.605  1.00  0.00     0.000 C 
ENDROOT
BRANCH   1   2
ATOM      2  C   UNL     1      19.807  -2.444 -17.109  1.00  0.00     0.000 C 
BRANCH   2   3
ATOM      3  C   UNL     1      19.780  -1.109 -16.343  1.00  0.00     0.000 C 
BRANCH   3   4
ATOM      4  C   UNL     1      20.383  -1.230 -14.934  1.00  0.00     0.000 C 
BRANCH   4   5
ATOM      5  C   UNL     1      21.881  -1.583 -14.964  1.00  0.00     0.000 C 
BRANCH   5   6
ATOM      6  C   UNL     1      22.718  -0.585 -15.785  1.00  0.00     0.000 C 
BRANCH   6   7
ATOM      7  C   UNL     1      22.513   0.898 -15.426  1.00  0.00     0.000 C 
BRANCH   7   8
ATOM      8  C   UNL     1      22.193   1.775 -16.649  1.00  0.00     0.000 C 
BRANCH   8   9
ATOM      9  C   UNL     1      21.114   2.832 -16.357  1.00  0.00     0.000 C 
BRANCH   9  10
ATOM     10  C   UNL     1      20.071   2.382 -15.313  1.00  0.00     0.006 C 
BRANCH  10  11
ATOM     11  C   UNL     1      18.678   2.959 -15.601  1.00  0.00     0.053 C 
BRANCH  11  12
ATOM     12  C   UNL     1      17.706   1.861 -15.900  1.00  0.00     0.041 C 
ATOM     13  O   UNL     1      17.451   0.987 -15.030  1.00  0.00    -0.550 OA
ATOM     14  O   UNL     1      17.044   1.832 -17.121  1.00  0.00    -0.550 OA
ENDBRANCH  11  12
ENDBRANCH  10  11
ENDBRANCH   9  10
ENDBRANCH   8   9
ENDBRANCH   7   8
ENDBRANCH   6   7
ENDBRANCH   5   6
ENDBRANCH   4   5
ENDBRANCH   3   4
ENDBRANCH   2   3
ENDBRANCH   1   2
BRANCH   1  15
ATOM     15  C   UNL     1      20.862  -0.955 -18.905  1.00  0.00     0.000 C 
BRANCH  15  16
ATOM     16  C   UNL     1      20.095  -0.039 -19.876  1.00  0.00     0.000 C 
BRANCH  16  17
ATOM     17  C   UNL     1      20.513   1.446 -19.850  1.00  0.00     0.000 C 
BRANCH  17  18
ATOM     18  C   UNL     1      20.845   2.054 -21.225  1.00  0.00    -0.000 C 
BRANCH  18  19
ATOM     19  C   UNL     1      20.712   1.044 -22.373  1.00  0.00    -0.000 C 
BRANCH  19  20
ATOM     20  C   UNL     1      19.642   1.490 -23.377  1.00  0.00    -0.000 C 
BRANCH  20  21
ATOM     21  C   UNL     1      18.233   1.278 -22.806  1.00  0.00    -0.000 C 
BRANCH  21  22
ATOM     22  C   UNL     1      17.791  -0.196 -22.835  1.00  0.00    -0.000 C 
BRANCH  22  23
ATOM     23  C   UNL     1      17.239  -0.687 -24.189  1.00  0.00    -0.000 C 
BRANCH  23  24
ATOM     24  C   UNL     1      15.946   0.006 -24.657  1.00  0.00    -0.000 C 
BRANCH  24  25
ATOM     25  C   UNL     1      16.066   0.599 -26.068  1.00  0.00    -0.003 C 
ATOM     26  C   UNL     1      16.477   2.067 -26.014  1.00  0.00     0.004 C 
ENDBRANCH  24  25
ENDBRANCH  23  24
ENDBRANCH  22  23
ENDBRANCH  21  22
ENDBRANCH  20  21
ENDBRANCH  19  20
ENDBRANCH  18  19
ENDBRANCH  17  18
ENDBRANCH  16  17
ENDBRANCH  15  16
ENDBRANCH   1  15
TORSDOF 22
ENDMDL
MODEL 3
REMARK VINA RESULT:    -5.616      1.093      2.447
REMARK INTER + INTRA:         -15.607
REMARK INTER:                 -12.540
REMARK INTRA:                  -3.066
REMARK UNBOUND:                -2.768
REMARK SMILES CCCCCCCCCCCCCCCCCCCCCCCC(=O)[O-]
REMARK SMILES IDX 13 1 14 2 15 3 16 4 17 5 18 6 19 7 20 8 21 9 22 10 23 11
REMARK SMILES IDX 24 12 25 13 26 14 12 15 11 16 10 17 9 18 8 19 7 20 6 21 5 22
REMARK SMILES IDX 4 23 3 24 2 25 1 26
REMARK H PARENT
REMARK Flexibility Score: inf
ROOT
ATOM      1  C   UNL     1      20.538   1.077 -22.056  1.00  0.00     0.000 C 
ENDROOT
BRANCH   1   2
ATOM      2  C   UNL     1      21.468   1.551 -20.928  1.00  0.00     0.000 C 
BRANCH   2   3
ATOM      3  C   UNL     1      21.212   0.819 -19.598  1.00  0.00     0.000 C 
BRANCH   3   4
ATOM      4  C   UNL     1      20.110  -0.246 -19.719  1.00  0.00     0.000 C 
BRANCH   4   5
ATOM      5  C   UNL     1      20.457  -1.538 -18.958  1.00  0.00     0.000 C 
BRANCH   5   6
ATOM      6  C   UNL     1      19.629  -1.721 -17.673  1.00  0.00     0.000 C 
BRANCH   6   7
ATOM      7  C   UNL     1      20.446  -1.813 -16.370  1.00  0.00     0.000 C 
BRANCH   7   8
ATOM      8  C   UNL     1      21.704  -0.930 -16.386  1.00  0.00     0.000 C 
BRANCH   8   9
ATOM      9  C   UNL     1      21.537   0.360 -15.563  1.00  0.00     0.000 C 
BRANCH   9  10
ATOM     10  C   UNL     1      20.109   0.568 -15.019  1.00  0.00     0.006 C 
BRANCH  10  11
ATOM     11  C   UNL     1      19.376   1.709 -15.737  1.00  0.00     0.053 C 
BRANCH  11  12
ATOM     12  C   UNL     1      17.904   1.442 -15.781  1.00  0.00     0.041 C 
ATOM     13  O   UNL     1      17.347   0.813 -14.843  1.00  0.00    -0.550 OA
ATOM     14  O   UNL     1      17.139   1.934 -16.831  1.00  0.00    -0.550 OA
ENDBRANCH  11  12
ENDBRANCH  10  11
ENDBRANCH   9  10
ENDBRANCH   8   9
ENDBRANCH   7   8
ENDBRANCH   6   7
ENDBRANCH   5   6
ENDBRANCH   4   5
ENDBRANCH   3   4
ENDBRANCH   2   3
ENDBRANCH   1   2
BRANCH   1  15
ATOM     15  C   UNL     1      21.309   0.625 -23.309  1.00  0.00     0.000 C 
BRANCH  15  16
ATOM     16  C   UNL     1      21.186   1.621 -24.477  1.00  0.00     0.000 C 
BRANCH  16  17
ATOM     17  C   UNL     1      19.864   1.550 -25.268  1.00  0.00     0.000 C 
BRANCH  17  18
ATOM     18  C   UNL     1      19.816   0.471 -26.365  1.00  0.00    -0.000 C 
BRANCH  18  19
ATOM     19  C   UNL     1      18.383   0.097 -26.772  1.00  0.00    -0.000 C 
BRANCH  19  20
ATOM     20  C   UNL     1      17.492   1.342 -26.847  1.00  0.00    -0.000 C 
BRANCH  20  21
ATOM     21  C   UNL     1      16.257   1.188 -25.947  1.00  0.00    -0.000 C 
BRANCH  21  22
ATOM     22  C   UNL     1      16.331   2.057 -24.678  1.00  0.00    -0.000 C 
BRANCH  22  23
ATOM     23  C   UNL     1      16.787   1.317 -23.404  1.00  0.00    -0.000 C 
BRANCH  23  24
ATOM     24  C   UNL     1      16.662  -0.216 -23.460  1.00  0.00    -0.000 C 
BRANCH  24  25
ATOM     25  C   UNL     1      17.985  -0.933 -23.150  1.00  0.00    -0.003 C 
ATOM     26  C   UNL     1      18.175  -2.149 -24.052  1.00  0.00     0.004 C 
ENDBRANCH  24  25
ENDBRANCH  23  24
ENDBRANCH  22  23
ENDBRANCH  21  22
ENDBRANCH  20  21
ENDBRANCH  19  20
ENDBRANCH  18  19
ENDBRANCH  17  18
ENDBRANCH  16  17
ENDBRANCH  15  16
ENDBRANCH   1  15
TORSDOF 22
ENDMDL
MODEL 4
REMARK VINA RESULT:    -5.571      0.940      1.958
REMARK INTER + INTRA:         -15.504
REMARK INTER:                 -12.427
REMARK INTRA:                  -3.078
REMARK UNBOUND:                -2.768
REMARK SMILES CCCCCCCCCCCCCCCCCCCCCCCC(=O)[O-]
REMARK SMILES IDX 13 1 14 2 15 3 16 4 17 5 18 6 19 7 20 8 21 9 22 10 23 11
REMARK SMILES IDX 24 12 25 13 26 14 12 15 11 16 10 17 9 18 8 19 7 20 6 21 5 22
REMARK SMILES IDX 4 23 3 24 2 25 1 26
REMARK H PARENT
REMARK Flexibility Score: inf
ROOT
ATOM      1  C   UNL     1      20.990   0.888 -22.424  1.00  0.00     0.000 C 
ENDROOT
BRANCH   1   2
ATOM      2  C   UNL     1      21.902   1.444 -21.319  1.00  0.00     0.000 C 
BRANCH   2   3
ATOM      3  C   UNL     1      21.127   2.232 -20.248  1.00  0.00     0.000 C 
BRANCH   3   4
ATOM      4  C   UNL     1      20.743   1.358 -19.042  1.00  0.00     0.000 C 
BRANCH   4   5
ATOM      5  C   UNL     1      20.087   0.031 -19.465  1.00  0.00     0.000 C 
BRANCH   5   6
ATOM      6  C   UNL     1      20.226  -1.075 -18.403  1.00  0.00     0.000 C 
BRANCH   6   7
ATOM      7  C   UNL     1      21.598  -1.152 -17.709  1.00  0.00     0.000 C 
BRANCH   7   8
ATOM      8  C   UNL     1      21.493  -1.277 -16.180  1.00  0.00     0.000 C 
BRANCH   8   9
ATOM      9  C   UNL     1      20.095  -0.915 -15.648  1.00  0.00     0.000 C 
BRANCH   9  10
ATOM     10  C   UNL     1      20.055   0.411 -14.861  1.00  0.00     0.006 C 
BRANCH  10  11
ATOM     11  C   UNL     1      19.414   1.547 -15.671  1.00  0.00     0.053 C 
BRANCH  11  12
ATOM     12  C   UNL     1      17.931   1.364 -15.749  1.00  0.00     0.041 C 
ATOM     13  O   UNL     1      17.307   0.837 -14.791  1.00  0.00    -0.550 OA
ATOM     14  O   UNL     1      17.232   1.821 -16.859  1.00  0.00    -0.550 OA
ENDBRANCH  11  12
ENDBRANCH  10  11
ENDBRANCH   9  10
ENDBRANCH   8   9
ENDBRANCH   7   8
ENDBRANCH   6   7
ENDBRANCH   5   6
ENDBRANCH   4   5
ENDBRANCH   3   4
ENDBRANCH   2   3
ENDBRANCH   1   2
BRANCH   1  15
ATOM     15  C   UNL     1      20.545   1.968 -23.426  1.00  0.00     0.000 C 
BRANCH  15  16
ATOM     16  C   UNL     1      19.044   2.292 -23.326  1.00  0.00     0.000 C 
BRANCH  16  17
ATOM     17  C   UNL     1      18.240   1.405 -22.354  1.00  0.00     0.000 C 
BRANCH  17  18
ATOM     18  C   UNL     1      16.837   1.002 -22.844  1.00  0.00    -0.000 C 
BRANCH  18  19
ATOM     19  C   UNL     1      16.859  -0.214 -23.781  1.00  0.00    -0.000 C 
BRANCH  19  20
ATOM     20  C   UNL     1      15.926  -0.002 -24.980  1.00  0.00    -0.000 C 
BRANCH  20  21
ATOM     21  C   UNL     1      15.967   1.458 -25.454  1.00  0.00    -0.000 C 
BRANCH  21  22
ATOM     22  C   UNL     1      17.165   1.755 -26.374  1.00  0.00    -0.000 C 
BRANCH  22  23
ATOM     23  C   UNL     1      17.747   0.529 -27.105  1.00  0.00    -0.000 C 
BRANCH  23  24
ATOM     24  C   UNL     1      19.238   0.256 -26.836  1.00  0.00    -0.000 C 
BRANCH  24  25
ATOM     25  C   UNL     1      19.528  -1.222 -26.533  1.00  0.00    -0.003 C 
ATOM     26  C   UNL     1      19.961  -1.410 -25.082  1.00  0.00     0.004 C 
ENDBRANCH  24  25
ENDBRANCH  23  24
ENDBRANCH  22  23
ENDBRANCH  21  22
ENDBRANCH  20  21
ENDBRANCH  19  20
ENDBRANCH  18  19
ENDBRANCH  17  18
ENDBRANCH  16  17
ENDBRANCH  15  16
ENDBRANCH   1  15
TORSDOF 22
ENDMDL
MODEL 5
REMARK VINA RESULT:    -5.529      2.833      8.992
REMARK INTER + INTRA:         -15.409
REMARK INTER:                 -11.944
REMARK INTRA:                  -3.465
REMARK UNBOUND:                -2.768
REMARK SMILES CCCCCCCCCCCCCCCCCCCCCCCC(=O)[O-]
REMARK SMILES IDX 13 1 14 2 15 3 16 4 17 5 18 6 19 7 20 8 21 9 22 10 23 11
REMARK SMILES IDX 24 12 25 13 26 14 12 15 11 16 10 17 9 18 8 19 7 20 6 21 5 22
REMARK SMILES IDX 4 23 3 24 2 25 1 26
REMARK H PARENT
REMARK Flexibility Score: inf
ROOT
ATOM      1  C   UNL     1      19.135   0.140 -22.541  1.00  0.00     0.000 C 
ENDROOT
BRANCH   1   2
ATOM      2  C   UNL     1      18.230   1.383 -22.533  1.00  0.00     0.000 C 
BRANCH   2   3
ATOM      3  C   UNL     1      16.775   1.063 -22.915  1.00  0.00     0.000 C 
BRANCH   3   4
ATOM      4  C   UNL     1      16.655  -0.239 -23.725  1.00  0.00     0.000 C 
BRANCH   4   5
ATOM      5  C   UNL     1      15.978  -0.020 -25.091  1.00  0.00     0.000 C 
BRANCH   5   6
ATOM      6  C   UNL     1      15.987   1.452 -25.539  1.00  0.00     0.000 C 
BRANCH   6   7
ATOM      7  C   UNL     1      17.149   1.851 -26.468  1.00  0.00     0.000 C 
BRANCH   7   8
ATOM      8  C   UNL     1      18.074   0.673 -26.814  1.00  0.00     0.000 C 
BRANCH   8   9
ATOM      9  C   UNL     1      19.441   0.765 -26.113  1.00  0.00     0.000 C 
BRANCH   9  10
ATOM     10  C   UNL     1      20.134  -0.600 -25.921  1.00  0.00     0.006 C 
BRANCH  10  11
ATOM     11  C   UNL     1      19.193  -1.775 -26.223  1.00  0.00     0.053 C 
BRANCH  11  12
ATOM     12  C   UNL     1      19.461  -2.914 -25.292  1.00  0.00     0.041 C 
ATOM     13  O   UNL     1      18.540  -3.363 -24.559  1.00  0.00    -0.550 OA
ATOM     14  O   UNL     1      20.713  -3.515 -25.269  1.00  0.00    -0.550 OA
ENDBRANCH  11  12
ENDBRANCH  10  11
ENDBRANCH   9  10
ENDBRANCH   8   9
ENDBRANCH   7   8
ENDBRANCH   6   7
ENDBRANCH   5   6
ENDBRANCH   4   5
ENDBRANCH   3   4
ENDBRANCH   2   3
ENDBRANCH   1   2
BRANCH   1  15
ATOM     15  C   UNL     1      20.590   0.463 -22.157  1.00  0.00     0.000 C 
BRANCH  15  16
ATOM     16  C   UNL     1      20.747   1.863 -21.537  1.00  0.00     0.000 C 
BRANCH  16  17
ATOM     17  C   UNL     1      20.926   1.890 -20.006  1.00  0.00     0.000 C 
BRANCH  17  18
ATOM     18  C   UNL     1      20.188   0.776 -19.242  1.00  0.00    -0.000 C 
BRANCH  18  19
ATOM     19  C   UNL     1      21.142  -0.253 -18.618  1.00  0.00    -0.000 C 
BRANCH  19  20
ATOM     20  C   UNL     1      20.538  -1.661 -18.664  1.00  0.00    -0.000 C 
BRANCH  20  21
ATOM     21  C   UNL     1      19.704  -1.942 -17.405  1.00  0.00    -0.000 C 
BRANCH  21  22
ATOM     22  C   UNL     1      20.544  -1.923 -16.115  1.00  0.00    -0.000 C 
BRANCH  22  23
ATOM     23  C   UNL     1      20.164  -0.822 -15.103  1.00  0.00    -0.000 C 
BRANCH  23  24
ATOM     24  C   UNL     1      19.045   0.129 -15.563  1.00  0.00    -0.000 C 
BRANCH  24  25
ATOM     25  C   UNL     1      19.501   1.594 -15.636  1.00  0.00    -0.003 C 
ATOM     26  C   UNL     1      20.967   1.733 -15.238  1.00  0.00     0.004 C 
ENDBRANCH  24  25
ENDBRANCH  23  24
ENDBRANCH  22  23
ENDBRANCH  21  22
ENDBRANCH  20  21
ENDBRANCH  19  20
ENDBRANCH  18  19
ENDBRANCH  17  18
ENDBRANCH  16  17
ENDBRANCH  15  16
ENDBRANCH   1  15
TORSDOF 22
ENDMDL
MODEL 6
REMARK VINA RESULT:    -5.516      1.268      3.372
REMARK INTER + INTRA:         -15.378
REMARK INTER:                 -11.968
REMARK INTRA:                  -3.410
REMARK UNBOUND:                -2.768
REMARK SMILES CCCCCCCCCCCCCCCCCCCCCCCC(=O)[O-]
REMARK SMILES IDX 13 1 14 2 15 3 16 4 17 5 18 6 19 7 20 8 21 9 22 10 23 11
REMARK SMILES IDX 24 12 25 13 26 14 12 15 11 16 10 17 9 18 8 19 7 20 6 21 5 22
REMARK SMILES IDX 4 23 3 24 2 25 1 26
REMARK H PARENT
REMARK Flexibility Score: inf
ROOT
ATOM      1  C   UNL     1      21.166   1.699 -19.021  1.00  0.00     0.000 C 
ENDROOT
BRANCH   1   2
ATOM      2  C   UNL     1      19.988   0.713 -19.069  1.00  0.00     0.000 C 
BRANCH   2   3
ATOM      3  C   UNL     1      20.442  -0.752 -19.187  1.00  0.00     0.000 C 
BRANCH   3   4
ATOM      4  C   UNL     1      19.624  -1.694 -18.288  1.00  0.00     0.000 C 
BRANCH   4   5
ATOM      5  C   UNL     1      20.403  -2.134 -17.036  1.00  0.00     0.000 C 
BRANCH   5   6
ATOM      6  C   UNL     1      19.977  -1.378 -15.764  1.00  0.00     0.000 C 
BRANCH   6   7
ATOM      7  C   UNL     1      21.124  -0.728 -14.968  1.00  0.00     0.000 C 
BRANCH   7   8
ATOM      8  C   UNL     1      21.777   0.451 -15.708  1.00  0.00     0.000 C 
BRANCH   8   9
ATOM      9  C   UNL     1      21.466   1.809 -15.055  1.00  0.00     0.000 C 
BRANCH   9  10
ATOM     10  C   UNL     1      19.974   2.007 -14.715  1.00  0.00     0.006 C 
BRANCH  10  11
ATOM     11  C   UNL     1      19.138   2.348 -15.956  1.00  0.00     0.053 C 
BRANCH  11  12
ATOM     12  C   UNL     1      17.792   1.699 -15.877  1.00  0.00     0.041 C 
ATOM     13  O   UNL     1      16.932   1.913 -16.772  1.00  0.00    -0.550 OA
ATOM     14  O   UNL     1      17.506   0.816 -14.843  1.00  0.00    -0.550 OA
ENDBRANCH  11  12
ENDBRANCH  10  11
ENDBRANCH   9  10
ENDBRANCH   8   9
ENDBRANCH   7   8
ENDBRANCH   6   7
ENDBRANCH   5   6
ENDBRANCH   4   5
ENDBRANCH   3   4
ENDBRANCH   2   3
ENDBRANCH   1   2
BRANCH   1  15
ATOM     15  C   UNL     1      21.326   2.496 -20.328  1.00  0.00     0.000 C 
BRANCH  15  16
ATOM     16  C   UNL     1      21.993   1.678 -21.448  1.00  0.00     0.000 C 
BRANCH  16  17
ATOM     17  C   UNL     1      21.249   1.678 -22.798  1.00  0.00     0.000 C 
BRANCH  17  18
ATOM     18  C   UNL     1      20.693   0.312 -23.238  1.00  0.00    -0.000 C 
BRANCH  18  19
ATOM     19  C   UNL     1      19.297   0.024 -22.667  1.00  0.00    -0.000 C 
BRANCH  19  20
ATOM     20  C   UNL     1      18.502   1.322 -22.479  1.00  0.00    -0.000 C 
BRANCH  20  21
ATOM     21  C   UNL     1      17.012   1.101 -22.781  1.00  0.00    -0.000 C 
BRANCH  21  22
ATOM     22  C   UNL     1      16.596   1.639 -24.162  1.00  0.00    -0.000 C 
BRANCH  22  23
ATOM     23  C   UNL     1      15.839   0.635 -25.054  1.00  0.00    -0.000 C 
BRANCH  23  24
ATOM     24  C   UNL     1      16.623   0.127 -26.277  1.00  0.00    -0.000 C 
BRANCH  24  25
ATOM     25  C   UNL     1      18.017   0.760 -26.395  1.00  0.00    -0.003 C 
ATOM     26  C   UNL     1      19.104  -0.310 -26.450  1.00  0.00     0.004 C 
ENDBRANCH  24  25
ENDBRANCH  23  24
ENDBRANCH  22  23
ENDBRANCH  21  22
ENDBRANCH  20  21
ENDBRANCH  19  20
ENDBRANCH  18  19
ENDBRANCH  17  18
ENDBRANCH  16  17
ENDBRANCH  15  16
ENDBRANCH   1  15
TORSDOF 22
ENDMDL
MODEL 7
REMARK VINA RESULT:    -5.493      1.342      3.270
REMARK INTER + INTRA:         -15.325
REMARK INTER:                 -12.406
REMARK INTRA:                  -2.920
REMARK UNBOUND:                -2.768
REMARK SMILES CCCCCCCCCCCCCCCCCCCCCCCC(=O)[O-]
REMARK SMILES IDX 13 1 14 2 15 3 16 4 17 5 18 6 19 7 20 8 21 9 22 10 23 11
REMARK SMILES IDX 24 12 25 13 26 14 12 15 11 16 10 17 9 18 8 19 7 20 6 21 5 22
REMARK SMILES IDX 4 23 3 24 2 25 1 26
REMARK H PARENT
REMARK Flexibility Score: inf
ROOT
ATOM      1  C   UNL     1      16.744   0.140 -23.225  1.00  0.00     0.000 C 
ENDROOT
BRANCH   1   2
ATOM      2  C   UNL     1      17.119   1.589 -22.874  1.00  0.00     0.000 C 
BRANCH   2   3
ATOM      3  C   UNL     1      18.558   1.721 -22.346  1.00  0.00     0.000 C 
BRANCH   3   4
ATOM      4  C   UNL     1      19.523   0.734 -23.023  1.00  0.00     0.000 C 
BRANCH   4   5
ATOM      5  C   UNL     1      20.886   0.664 -22.311  1.00  0.00     0.000 C 
BRANCH   5   6
ATOM      6  C   UNL     1      21.004   1.653 -21.137  1.00  0.00     0.000 C 
BRANCH   6   7
ATOM      7  C   UNL     1      21.226   1.011 -19.755  1.00  0.00     0.000 C 
BRANCH   7   8
ATOM      8  C   UNL     1      20.413  -0.278 -19.553  1.00  0.00     0.000 C 
BRANCH   8   9
ATOM      9  C   UNL     1      19.757  -0.355 -18.163  1.00  0.00     0.000 C 
BRANCH   9  10
ATOM     10  C   UNL     1      18.881   0.868 -17.821  1.00  0.00     0.006 C 
BRANCH  10  11
ATOM     11  C   UNL     1      19.340   1.568 -16.534  1.00  0.00     0.053 C 
BRANCH  11  12
ATOM     12  C   UNL     1      18.796   0.865 -15.331  1.00  0.00     0.041 C 
ATOM     13  O   UNL     1      17.555   0.843 -15.117  1.00  0.00    -0.550 OA
ATOM     14  O   UNL     1      19.655   0.190 -14.472  1.00  0.00    -0.550 OA
ENDBRANCH  11  12
ENDBRANCH  10  11
ENDBRANCH   9  10
ENDBRANCH   8   9
ENDBRANCH   7   8
ENDBRANCH   6   7
ENDBRANCH   5   6
ENDBRANCH   4   5
ENDBRANCH   3   4
ENDBRANCH   2   3
ENDBRANCH   1   2
BRANCH   1  15
ATOM     15  C   UNL     1      16.006   0.028 -24.570  1.00  0.00     0.000 C 
BRANCH  15  16
ATOM     16  C   UNL     1      16.006   1.348 -25.363  1.00  0.00     0.000 C 
BRANCH  16  17
ATOM     17  C   UNL     1      16.923   1.373 -26.603  1.00  0.00     0.000 C 
BRANCH  17  18
ATOM     18  C   UNL     1      18.143   0.436 -26.533  1.00  0.00    -0.000 C 
BRANCH  18  19
ATOM     19  C   UNL     1      18.393  -0.317 -27.847  1.00  0.00    -0.000 C 
BRANCH  19  20
ATOM     20  C   UNL     1      19.319  -1.518 -27.624  1.00  0.00    -0.000 C 
BRANCH  20  21
ATOM     21  C   UNL     1      20.204  -1.307 -26.387  1.00  0.00    -0.000 C 
BRANCH  21  22
ATOM     22  C   UNL     1      20.187  -2.510 -25.427  1.00  0.00    -0.000 C 
BRANCH  22  23
ATOM     23  C   UNL     1      18.965  -2.580 -24.488  1.00  0.00    -0.000 C 
BRANCH  23  24
ATOM     24  C   UNL     1      18.327  -3.973 -24.350  1.00  0.00    -0.000 C 
BRANCH  24  25
ATOM     25  C   UNL     1      18.975  -5.019 -25.269  1.00  0.00    -0.003 C 
ATOM     26  C   UNL     1      18.209  -6.338 -25.227  1.00  0.00     0.004 C 
ENDBRANCH  24  25
ENDBRANCH  23  24
ENDBRANCH  22  23
ENDBRANCH  21  22
ENDBRANCH  20  21
ENDBRANCH  19  20
ENDBRANCH  18  19
ENDBRANCH  17  18
ENDBRANCH  16  17
ENDBRANCH  15  16
ENDBRANCH   1  15
TORSDOF 22
ENDMDL
MODEL 8
REMARK VINA RESULT:    -5.492      1.054      3.129
REMARK INTER + INTRA:         -15.325
REMARK INTER:                 -12.518
REMARK INTRA:                  -2.807
REMARK UNBOUND:                -2.768
REMARK SMILES CCCCCCCCCCCCCCCCCCCCCCCC(=O)[O-]
REMARK SMILES IDX 13 1 14 2 15 3 16 4 17 5 18 6 19 7 20 8 21 9 22 10 23 11
REMARK SMILES IDX 24 12 25 13 26 14 12 15 11 16 10 17 9 18 8 19 7 20 6 21 5 22
REMARK SMILES IDX 4 23 3 24 2 25 1 26
REMARK H PARENT
REMARK Flexibility Score: inf
ROOT
ATOM      1  C   UNL     1      20.032  -0.634 -19.399  1.00  0.00     0.000 C 
ENDROOT
BRANCH   1   2
ATOM      2  C   UNL     1      20.763  -1.747 -18.631  1.00  0.00     0.000 C 
BRANCH   2   3
ATOM      3  C   UNL     1      19.924  -2.324 -17.477  1.00  0.00     0.000 C 
BRANCH   3   4
ATOM      4  C   UNL     1      19.813  -1.353 -16.290  1.00  0.00     0.000 C 
BRANCH   4   5
ATOM      5  C   UNL     1      20.744  -1.739 -15.127  1.00  0.00     0.000 C 
BRANCH   5   6
ATOM      6  C   UNL     1      22.056  -0.933 -15.112  1.00  0.00     0.000 C 
BRANCH   6   7
ATOM      7  C   UNL     1      22.028   0.386 -15.907  1.00  0.00     0.000 C 
BRANCH   7   8
ATOM      8  C   UNL     1      22.506   1.594 -15.084  1.00  0.00     0.000 C 
BRANCH   8   9
ATOM      9  C   UNL     1      21.381   2.606 -14.806  1.00  0.00     0.000 C 
BRANCH   9  10
ATOM     10  C   UNL     1      19.982   1.966 -14.697  1.00  0.00     0.006 C 
BRANCH  10  11
ATOM     11  C   UNL     1      18.991   2.565 -15.704  1.00  0.00     0.053 C 
BRANCH  11  12
ATOM     12  C   UNL     1      17.740   1.746 -15.760  1.00  0.00     0.041 C 
ATOM     13  O   UNL     1      17.550   0.822 -14.926  1.00  0.00    -0.550 OA
ATOM     14  O   UNL     1      16.760   2.036 -16.702  1.00  0.00    -0.550 OA
ENDBRANCH  11  12
ENDBRANCH  10  11
ENDBRANCH   9  10
ENDBRANCH   8   9
ENDBRANCH   7   8
ENDBRANCH   6   7
ENDBRANCH   5   6
ENDBRANCH   4   5
ENDBRANCH   3   4
ENDBRANCH   2   3
ENDBRANCH   1   2
BRANCH   1  15
ATOM     15  C   UNL     1      20.723   0.734 -19.263  1.00  0.00     0.000 C 
BRANCH  15  16
ATOM     16  C   UNL     1      21.271   1.261 -20.601  1.00  0.00     0.000 C 
BRANCH  16  17
ATOM     17  C   UNL     1      20.686   0.595 -21.863  1.00  0.00     0.000 C 
BRANCH  17  18
ATOM     18  C   UNL     1      19.634   1.431 -22.616  1.00  0.00    -0.000 C 
BRANCH  18  19
ATOM     19  C   UNL     1      18.217   1.253 -22.053  1.00  0.00    -0.000 C 
BRANCH  19  20
ATOM     20  C   UNL     1      17.162   1.469 -23.145  1.00  0.00    -0.000 C 
BRANCH  20  21
ATOM     21  C   UNL     1      16.406   0.165 -23.442  1.00  0.00    -0.000 C 
BRANCH  21  22
ATOM     22  C   UNL     1      17.210  -0.802 -24.330  1.00  0.00    -0.000 C 
BRANCH  22  23
ATOM     23  C   UNL     1      17.726  -0.201 -25.653  1.00  0.00    -0.000 C 
BRANCH  23  24
ATOM     24  C   UNL     1      19.206  -0.486 -25.966  1.00  0.00    -0.000 C 
BRANCH  24  25
ATOM     25  C   UNL     1      19.851  -1.456 -24.965  1.00  0.00    -0.003 C 
ATOM     26  C   UNL     1      19.950  -2.862 -25.550  1.00  0.00     0.004 C 
ENDBRANCH  24  25
ENDBRANCH  23  24
ENDBRANCH  22  23
ENDBRANCH  21  22
ENDBRANCH  20  21
ENDBRANCH  19  20
ENDBRANCH  18  19
ENDBRANCH  17  18
ENDBRANCH  16  17
ENDBRANCH  15  16
ENDBRANCH   1  15
TORSDOF 22
ENDMDL
MODEL 9
REMARK VINA RESULT:    -5.481      3.040      8.564
REMARK INTER + INTRA:         -15.299
REMARK INTER:                 -12.192
REMARK INTRA:                  -3.107
REMARK UNBOUND:                -2.768
REMARK SMILES CCCCCCCCCCCCCCCCCCCCCCCC(=O)[O-]
REMARK SMILES IDX 13 1 14 2 15 3 16 4 17 5 18 6 19 7 20 8 21 9 22 10 23 11
REMARK SMILES IDX 24 12 25 13 26 14 12 15 11 16 10 17 9 18 8 19 7 20 6 21 5 22
REMARK SMILES IDX 4 23 3 24 2 25 1 26
REMARK H PARENT
REMARK Flexibility Score: inf
ROOT
ATOM      1  C   UNL     1      16.364  -0.427 -24.413  1.00  0.00     0.000 C 
ENDROOT
BRANCH   1   2
ATOM      2  C   UNL     1      15.686   0.485 -25.448  1.00  0.00     0.000 C 
BRANCH   2   3
ATOM      3  C   UNL     1      15.993   1.976 -25.219  1.00  0.00     0.000 C 
BRANCH   3   4
ATOM      4  C   UNL     1      17.036   2.518 -26.210  1.00  0.00     0.000 C 
BRANCH   4   5
ATOM      5  C   UNL     1      18.470   2.100 -25.839  1.00  0.00     0.000 C 
BRANCH   5   6
ATOM      6  C   UNL     1      19.060   2.931 -24.684  1.00  0.00     0.000 C 
BRANCH   6   7
ATOM      7  C   UNL     1      20.475   2.522 -24.234  1.00  0.00     0.000 C 
BRANCH   7   8
ATOM      8  C   UNL     1      21.061   1.370 -25.067  1.00  0.00     0.000 C 
BRANCH   8   9
ATOM      9  C   UNL     1      21.493   0.172 -24.203  1.00  0.00     0.000 C 
BRANCH   9  10
ATOM     10  C   UNL     1      21.575  -1.157 -24.981  1.00  0.00     0.006 C 
BRANCH  10  11
ATOM     11  C   UNL     1      20.235  -1.531 -25.631  1.00  0.00     0.053 C 
BRANCH  11  12
ATOM     12  C   UNL     1      19.843  -2.926 -25.261  1.00  0.00     0.041 C 
ATOM     13  O   UNL     1      20.649  -3.878 -25.435  1.00  0.00    -0.550 OA
ATOM     14  O   UNL     1      18.607  -3.169 -24.676  1.00  0.00    -0.550 OA
ENDBRANCH  11  12
ENDBRANCH  10  11
ENDBRANCH   9  10
ENDBRANCH   8   9
ENDBRANCH   7   8
ENDBRANCH   6   7
ENDBRANCH   5   6
ENDBRANCH   4   5
ENDBRANCH   3   4
ENDBRANCH   2   3
ENDBRANCH   1   2
BRANCH   1  15
ATOM     15  C   UNL     1      16.749   0.322 -23.125  1.00  0.00     0.000 C 
BRANCH  15  16
ATOM     16  C   UNL     1      18.165  -0.029 -22.631  1.00  0.00     0.000 C 
BRANCH  16  17
ATOM     17  C   UNL     1      18.678   0.814 -21.446  1.00  0.00     0.000 C 
BRANCH  17  18
ATOM     18  C   UNL     1      20.074   0.428 -20.925  1.00  0.00    -0.000 C 
BRANCH  18  19
ATOM     19  C   UNL     1      20.105   0.210 -19.406  1.00  0.00    -0.000 C 
BRANCH  19  20
ATOM     20  C   UNL     1      20.276  -1.275 -19.067  1.00  0.00    -0.000 C 
BRANCH  20  21
ATOM     21  C   UNL     1      19.672  -1.597 -17.692  1.00  0.00    -0.000 C 
BRANCH  21  22
ATOM     22  C   UNL     1      20.639  -1.306 -16.531  1.00  0.00    -0.000 C 
BRANCH  22  23
ATOM     23  C   UNL     1      19.965  -0.928 -15.196  1.00  0.00    -0.000 C 
BRANCH  23  24
ATOM     24  C   UNL     1      19.655   0.569 -15.022  1.00  0.00    -0.000 C 
BRANCH  24  25
ATOM     25  C   UNL     1      18.264   0.954 -15.548  1.00  0.00    -0.003 C 
ATOM     26  C   UNL     1      18.364   2.007 -16.648  1.00  0.00     0.004 C 
ENDBRANCH  24  25
ENDBRANCH  23  24
ENDBRANCH  22  23
ENDBRANCH  21  22
ENDBRANCH  20  21
ENDBRANCH  19  20
ENDBRANCH  18  19
ENDBRANCH  17  18
ENDBRANCH  16  17
ENDBRANCH  15  16
ENDBRANCH   1  15
TORSDOF 22
ENDMDL
