MODEL 1
REMARK VINA RESULT:    -5.212      0.000      0.000
REMARK INTER + INTRA:          -5.918
REMARK INTER:                  -5.669
REMARK INTRA:                  -0.249
REMARK UNBOUND:                -0.249
REMARK SMILES O=C([O-])c1ccccc1O
REMARK SMILES IDX 4 1 9 2 5 3 8 4 6 5 7 6 2 7 1 8 3 9 10 10
REMARK H PARENT 10 11
REMARK Flexibility Score: inf
ROOT
ATOM      1  C   UNL     1      -4.540 -18.873 -22.420  1.00  0.00     0.039 A 
ATOM      2  C   UNL     1      -5.732 -18.422 -23.045  1.00  0.00     0.124 A 
ATOM      3  C   UNL     1      -3.646 -17.921 -21.895  1.00  0.00     0.014 A 
ATOM      4  C   UNL     1      -5.966 -17.048 -23.181  1.00  0.00     0.047 A 
ATOM      5  C   UNL     1      -3.905 -16.554 -22.021  1.00  0.00     0.001 A 
ATOM      6  C   UNL     1      -5.058 -16.118 -22.672  1.00  0.00     0.004 A 
ENDROOT
BRANCH   1   7
ATOM      7  C   UNL     1      -4.182 -20.305 -22.334  1.00  0.00     0.075 C 
ATOM      8  O   UNL     1      -2.990 -20.670 -22.512  1.00  0.00    -0.545 OA
ATOM      9  O   UNL     1      -5.159 -21.272 -22.127  1.00  0.00    -0.545 OA
ENDBRANCH   1   7
BRANCH   2  10
ATOM     10  O   UNL     1      -6.717 -19.298 -23.504  1.00  0.00    -0.507 OA
ATOM     11  H   UNL     1      -6.691 -20.297 -23.347  1.00  0.00     0.293 HD
ENDBRANCH   2  10
TORSDOF 2
ENDMDL
MODEL 2
REMARK VINA RESULT:    -4.779      1.541      2.344
REMARK INTER + INTRA:          -5.447
REMARK INTER:                  -5.236
REMARK INTRA:                  -0.211
REMARK UNBOUND:                -0.249
REMARK SMILES O=C([O-])c1ccccc1O
REMARK SMILES IDX 4 1 9 2 5 3 8 4 6 5 7 6 2 7 1 8 3 9 10 10
REMARK H PARENT 10 11
REMARK Flexibility Score: inf
ROOT
ATOM      1  C   UNL     1      -5.179 -18.177 -22.295  1.00  0.00     0.039 A 
ATOM      2  C   UNL     1      -4.402 -16.994 -22.207  1.00  0.00     0.124 A 
ATOM      3  C   UNL     1      -6.579 -18.066 -22.399  1.00  0.00     0.014 A 
ATOM      4  C   UNL     1      -5.040 -15.747 -22.162  1.00  0.00     0.047 A 
ATOM      5  C   UNL     1      -7.198 -16.814 -22.373  1.00  0.00     0.001 A 
ATOM      6  C   UNL     1      -6.431 -15.658 -22.245  1.00  0.00     0.004 A 
ENDROOT
BRANCH   1   7
ATOM      7  C   UNL     1      -4.577 -19.528 -22.244  1.00  0.00     0.075 C 
ATOM      8  O   UNL     1      -3.382 -19.672 -21.875  1.00  0.00    -0.545 OA
ATOM      9  O   UNL     1      -5.292 -20.642 -22.664  1.00  0.00    -0.545 OA
ENDBRANCH   1   7
BRANCH   2  10
ATOM     10  O   UNL     1      -3.006 -17.010 -22.199  1.00  0.00    -0.507 OA
ATOM     11  H   UNL     1      -2.451 -16.745 -21.397  1.00  0.00     0.293 HD
ENDBRANCH   2  10
TORSDOF 2
ENDMDL
MODEL 3
REMARK VINA RESULT:    -4.757      2.365      4.213
REMARK INTER + INTRA:          -5.423
REMARK INTER:                  -5.208
REMARK INTRA:                  -0.215
REMARK UNBOUND:                -0.249
REMARK SMILES O=C([O-])c1ccccc1O
REMARK SMILES IDX 4 1 9 2 5 3 8 4 6 5 7 6 2 7 1 8 3 9 10 10
REMARK H PARENT 10 11
REMARK Flexibility Score: inf
ROOT
ATOM      1  C   UNL     1      -5.559 -17.621 -22.506  1.00  0.00     0.039 A 
ATOM      2  C   UNL     1      -4.174 -17.853 -22.302  1.00  0.00     0.124 A 
ATOM      3  C   UNL     1      -6.425 -18.725 -22.614  1.00  0.00     0.014 A 
ATOM      4  C   UNL     1      -3.688 -19.167 -22.272  1.00  0.00     0.047 A 
ATOM      5  C   UNL     1      -5.927 -20.029 -22.562  1.00  0.00     0.001 A 
ATOM      6  C   UNL     1      -4.560 -20.249 -22.402  1.00  0.00     0.004 A 
ENDROOT
BRANCH   1   7
ATOM      7  C   UNL     1      -6.122 -16.260 -22.650  1.00  0.00     0.075 C 
ATOM      8  O   UNL     1      -7.369 -16.097 -22.717  1.00  0.00    -0.545 OA
ATOM      9  O   UNL     1      -5.290 -15.156 -22.782  1.00  0.00    -0.545 OA
ENDBRANCH   1   7
BRANCH   2  10
ATOM     10  O   UNL     1      -3.262 -16.818 -22.088  1.00  0.00    -0.507 OA
ATOM     11  H   UNL     1      -2.401 -16.933 -21.570  1.00  0.00     0.293 HD
ENDBRANCH   2  10
TORSDOF 2
ENDMDL
MODEL 4
REMARK VINA RESULT:    -3.967     16.857     18.182
REMARK INTER + INTRA:          -4.564
REMARK INTER:                  -4.312
REMARK INTRA:                  -0.252
REMARK UNBOUND:                -0.249
REMARK SMILES O=C([O-])c1ccccc1O
REMARK SMILES IDX 4 1 9 2 5 3 8 4 6 5 7 6 2 7 1 8 3 9 10 10
REMARK H PARENT 10 11
REMARK Flexibility Score: inf
ROOT
ATOM      1  C   UNL     1       0.183 -29.546 -35.371  1.00  0.00     0.039 A 
ATOM      2  C   UNL     1       0.679 -30.830 -35.716  1.00  0.00     0.124 A 
ATOM      3  C   UNL     1      -0.213 -28.671 -36.401  1.00  0.00     0.014 A 
ATOM      4  C   UNL     1       0.822 -31.178 -37.066  1.00  0.00     0.047 A 
ATOM      5  C   UNL     1      -0.083 -29.043 -37.741  1.00  0.00     0.001 A 
ATOM      6  C   UNL     1       0.443 -30.289 -38.073  1.00  0.00     0.004 A 
ENDROOT
BRANCH   1   7
ATOM      7  C   UNL     1       0.103 -29.076 -33.971  1.00  0.00     0.075 C 
ATOM      8  O   UNL     1      -0.866 -28.365 -33.598  1.00  0.00    -0.545 OA
ATOM      9  O   UNL     1       1.124 -29.351 -33.069  1.00  0.00    -0.545 OA
ENDBRANCH   1   7
BRANCH   2  10
ATOM     10  O   UNL     1       1.002 -31.793 -34.758  1.00  0.00    -0.507 OA
ATOM     11  H   UNL     1       0.314 -32.254 -34.180  1.00  0.00     0.293 HD
ENDBRANCH   2  10
TORSDOF 2
ENDMDL
MODEL 5
REMARK VINA RESULT:    -3.578     16.933     18.226
REMARK INTER + INTRA:          -4.141
REMARK INTER:                  -3.894
REMARK INTRA:                  -0.247
REMARK UNBOUND:                -0.249
REMARK SMILES O=C([O-])c1ccccc1O
REMARK SMILES IDX 4 1 9 2 5 3 8 4 6 5 7 6 2 7 1 8 3 9 10 10
REMARK H PARENT 10 11
REMARK Flexibility Score: inf
ROOT
ATOM      1  C   UNL     1       0.401 -29.860 -35.290  1.00  0.00     0.039 A 
ATOM      2  C   UNL     1       0.179 -29.194 -36.524  1.00  0.00     0.124 A 
ATOM      3  C   UNL     1       0.763 -31.220 -35.307  1.00  0.00     0.014 A 
ATOM      4  C   UNL     1       0.263 -29.913 -37.724  1.00  0.00     0.047 A 
ATOM      5  C   UNL     1       0.863 -31.916 -36.514  1.00  0.00     0.001 A 
ATOM      6  C   UNL     1       0.603 -31.267 -37.719  1.00  0.00     0.004 A 
ENDROOT
BRANCH   1   7
ATOM      7  C   UNL     1       0.228 -29.187 -33.984  1.00  0.00     0.075 C 
ATOM      8  O   UNL     1       1.055 -29.387 -33.057  1.00  0.00    -0.545 OA
ATOM      9  O   UNL     1      -0.880 -28.386 -33.738  1.00  0.00    -0.545 OA
ENDBRANCH   1   7
BRANCH   2  10
ATOM     10  O   UNL     1      -0.088 -27.826 -36.603  1.00  0.00    -0.507 OA
ATOM     11  H   UNL     1       0.365 -27.137 -36.019  1.00  0.00     0.293 HD
ENDBRANCH   2  10
TORSDOF 2
ENDMDL
MODEL 6
REMARK VINA RESULT:    -3.561      9.105      9.953
REMARK INTER + INTRA:          -4.122
REMARK INTER:                  -3.873
REMARK INTRA:                  -0.249
REMARK UNBOUND:                -0.249
REMARK SMILES O=C([O-])c1ccccc1O
REMARK SMILES IDX 4 1 9 2 5 3 8 4 6 5 7 6 2 7 1 8 3 9 10 10
REMARK H PARENT 10 11
REMARK Flexibility Score: inf
ROOT
ATOM      1  C   UNL     1      -3.255 -13.825 -30.954  1.00  0.00     0.039 A 
ATOM      2  C   UNL     1      -3.898 -14.753 -30.095  1.00  0.00     0.124 A 
ATOM      3  C   UNL     1      -4.042 -12.903 -31.671  1.00  0.00     0.014 A 
ATOM      4  C   UNL     1      -5.298 -14.776 -30.023  1.00  0.00     0.047 A 
ATOM      5  C   UNL     1      -5.435 -12.927 -31.572  1.00  0.00     0.001 A 
ATOM      6  C   UNL     1      -6.062 -13.868 -30.757  1.00  0.00     0.004 A 
ENDROOT
BRANCH   1   7
ATOM      7  C   UNL     1      -1.789 -13.815 -31.156  1.00  0.00     0.075 C 
ATOM      8  O   UNL     1      -1.015 -13.889 -30.166  1.00  0.00    -0.545 OA
ATOM      9  O   UNL     1      -1.247 -13.654 -32.425  1.00  0.00    -0.545 OA
ENDBRANCH   1   7
BRANCH   2  10
ATOM     10  O   UNL     1      -3.191 -15.635 -29.276  1.00  0.00    -0.507 OA
ATOM     11  H   UNL     1      -2.181 -15.657 -29.224  1.00  0.00     0.293 HD
ENDBRANCH   2  10
TORSDOF 2
ENDMDL
MODEL 7
REMARK VINA RESULT:    -3.192     17.884     18.872
REMARK INTER + INTRA:          -3.721
REMARK INTER:                  -3.472
REMARK INTRA:                  -0.248
REMARK UNBOUND:                -0.249
REMARK SMILES O=C([O-])c1ccccc1O
REMARK SMILES IDX 4 1 9 2 5 3 8 4 6 5 7 6 2 7 1 8 3 9 10 10
REMARK H PARENT 10 11
REMARK Flexibility Score: inf
ROOT
ATOM      1  C   UNL     1       0.499 -30.047 -36.586  1.00  0.00     0.039 A 
ATOM      2  C   UNL     1       0.620 -28.634 -36.636  1.00  0.00     0.124 A 
ATOM      3  C   UNL     1       0.093 -30.736 -37.745  1.00  0.00     0.014 A 
ATOM      4  C   UNL     1       0.276 -27.950 -37.809  1.00  0.00     0.047 A 
ATOM      5  C   UNL     1      -0.226 -30.039 -38.913  1.00  0.00     0.001 A 
ATOM      6  C   UNL     1      -0.145 -28.649 -38.942  1.00  0.00     0.004 A 
ENDROOT
BRANCH   1   7
ATOM      7  C   UNL     1       0.746 -30.822 -35.350  1.00  0.00     0.075 C 
ATOM      8  O   UNL     1       1.125 -32.020 -35.421  1.00  0.00    -0.545 OA
ATOM      9  O   UNL     1       0.501 -30.266 -34.101  1.00  0.00    -0.545 OA
ENDBRANCH   1   7
BRANCH   2  10
ATOM     10  O   UNL     1       1.109 -27.884 -35.565  1.00  0.00    -0.507 OA
ATOM     11  H   UNL     1       0.519 -27.502 -34.838  1.00  0.00     0.293 HD
ENDBRANCH   2  10
TORSDOF 2
ENDMDL
MODEL 8
REMARK VINA RESULT:    -3.137     18.913     20.232
REMARK INTER + INTRA:          -3.661
REMARK INTER:                  -3.415
REMARK INTRA:                  -0.246
REMARK UNBOUND:                -0.249
REMARK SMILES O=C([O-])c1ccccc1O
REMARK SMILES IDX 4 1 9 2 5 3 8 4 6 5 7 6 2 7 1 8 3 9 10 10
REMARK H PARENT 10 11
REMARK Flexibility Score: inf
ROOT
ATOM      1  C   UNL     1       0.188 -30.272 -37.649  1.00  0.00     0.039 A 
ATOM      2  C   UNL     1       0.296 -31.560 -37.064  1.00  0.00     0.124 A 
ATOM      3  C   UNL     1      -0.189 -30.168 -39.002  1.00  0.00     0.014 A 
ATOM      4  C   UNL     1       0.088 -32.699 -37.854  1.00  0.00     0.047 A 
ATOM      5  C   UNL     1      -0.413 -31.314 -39.769  1.00  0.00     0.001 A 
ATOM      6  C   UNL     1      -0.265 -32.576 -39.199  1.00  0.00     0.004 A 
ENDROOT
BRANCH   1   7
ATOM      7  C   UNL     1       0.494 -29.033 -36.901  1.00  0.00     0.075 C 
ATOM      8  O   UNL     1       0.129 -28.913 -35.702  1.00  0.00    -0.545 OA
ATOM      9  O   UNL     1       1.123 -27.963 -37.525  1.00  0.00    -0.545 OA
ENDBRANCH   1   7
BRANCH   2  10
ATOM     10  O   UNL     1       0.568 -31.750 -35.708  1.00  0.00    -0.507 OA
ATOM     11  H   UNL     1      -0.096 -32.147 -35.058  1.00  0.00     0.293 HD
ENDBRANCH   2  10
TORSDOF 2
ENDMDL
