MODEL 1
REMARK VINA RESULT:    -7.427      0.000      0.000
REMARK INTER + INTRA:          -7.427
REMARK INTER:                  -7.427
REMARK INTRA:                   0.000
REMARK UNBOUND:                 0.000
REMARK SMILES C=C1CCC[C@]2(C)CC(=O)C(=C(C)C)C[C@H]12
REMARK SMILES IDX 13 1 12 2 11 3 15 4 16 5 2 6 1 7 3 8 4 9 5 10 6 11 8 12 9 13
REMARK SMILES IDX 10 14 7 15 14 16
REMARK H PARENT
REMARK Flexibility Score: inf
ROOT
ATOM      1  C   UNL     1     -14.119 -14.348  27.853  1.00  0.00     0.039 C 
ATOM      2  C   UNL     1     -13.434 -15.673  27.610  1.00  0.00    -0.070 C 
ATOM      3  C   UNL     1     -12.889 -16.388  28.637  1.00  0.00    -0.006 C 
ATOM      4  C   UNL     1     -12.931 -15.898  30.071  1.00  0.00     0.047 C 
ATOM      5  C   UNL     1     -13.067 -17.043  31.108  1.00  0.00     0.025 C 
ATOM      6  C   UNL     1     -12.855 -16.467  32.499  1.00  0.00    -0.073 C 
ATOM      7  C   UNL     1     -13.905 -16.148  33.272  1.00  0.00     0.008 C 
ATOM      8  C   UNL     1     -11.449 -16.113  32.935  1.00  0.00     0.031 C 
ATOM      9  C   UNL     1     -10.457 -17.240  32.615  1.00  0.00     0.005 C 
ATOM     10  C   UNL     1     -10.621 -17.791  31.186  1.00  0.00     0.008 C 
ATOM     11  C   UNL     1     -12.081 -18.232  30.871  1.00  0.00    -0.018 C 
ATOM     12  C   UNL     1     -12.183 -18.732  29.406  1.00  0.00     0.088 C 
ATOM     13  C   UNL     1     -12.099 -17.620  28.411  1.00  0.00     0.159 C 
ATOM     14  O   UNL     1     -11.358 -17.747  27.399  1.00  0.00    -0.295 OA
ATOM     15  C   UNL     1     -12.477 -19.427  31.781  1.00  0.00     0.012 C 
ATOM     16  C   UNL     1     -13.414 -16.192  26.192  1.00  0.00     0.039 C 
ENDROOT
TORSDOF 0
ENDMDL
MODEL 2
REMARK VINA RESULT:    -6.593      0.944      1.029
REMARK INTER + INTRA:          -6.593
REMARK INTER:                  -6.593
REMARK INTRA:                   0.000
REMARK UNBOUND:                 0.000
REMARK SMILES C=C1CCC[C@]2(C)CC(=O)C(=C(C)C)C[C@H]12
REMARK SMILES IDX 13 1 12 2 11 3 15 4 16 5 2 6 1 7 3 8 4 9 5 10 6 11 8 12 9 13
REMARK SMILES IDX 10 14 7 15 14 16
REMARK H PARENT
REMARK Flexibility Score: inf
ROOT
ATOM      1  C   UNL     1     -13.944 -15.334  27.407  1.00  0.00     0.039 C 
ATOM      2  C   UNL     1     -12.761 -16.269  27.517  1.00  0.00    -0.070 C 
ATOM      3  C   UNL     1     -12.262 -16.641  28.732  1.00  0.00    -0.006 C 
ATOM      4  C   UNL     1     -12.854 -16.139  30.034  1.00  0.00     0.047 C 
ATOM      5  C   UNL     1     -12.794 -17.183  31.179  1.00  0.00     0.025 C 
ATOM      6  C   UNL     1     -13.184 -16.500  32.480  1.00  0.00    -0.073 C 
ATOM      7  C   UNL     1     -14.434 -16.604  32.958  1.00  0.00     0.008 C 
ATOM      8  C   UNL     1     -12.186 -15.575  33.145  1.00  0.00     0.031 C 
ATOM      9  C   UNL     1     -10.789 -16.206  33.216  1.00  0.00     0.005 C 
ATOM     10  C   UNL     1     -10.357 -16.848  31.885  1.00  0.00     0.008 C 
ATOM     11  C   UNL     1     -11.399 -17.869  31.338  1.00  0.00    -0.018 C 
ATOM     12  C   UNL     1     -10.922 -18.441  29.976  1.00  0.00     0.088 C 
ATOM     13  C   UNL     1     -11.027 -17.446  28.866  1.00  0.00     0.159 C 
ATOM     14  O   UNL     1     -10.063 -17.308  28.065  1.00  0.00    -0.295 OA
ATOM     15  C   UNL     1     -11.517 -19.072  32.313  1.00  0.00     0.012 C 
ATOM     16  C   UNL     1     -12.181 -16.805  26.230  1.00  0.00     0.039 C 
ENDROOT
TORSDOF 0
ENDMDL
MODEL 3
REMARK VINA RESULT:    -6.431      2.118      4.611
REMARK INTER + INTRA:          -6.431
REMARK INTER:                  -6.431
REMARK INTRA:                   0.000
REMARK UNBOUND:                 0.000
REMARK SMILES C=C1CCC[C@]2(C)CC(=O)C(=C(C)C)C[C@H]12
REMARK SMILES IDX 13 1 12 2 11 3 15 4 16 5 2 6 1 7 3 8 4 9 5 10 6 11 8 12 9 13
REMARK SMILES IDX 10 14 7 15 14 16
REMARK H PARENT
REMARK Flexibility Score: inf
ROOT
ATOM      1  C   UNL     1     -15.469 -14.751  32.459  1.00  0.00     0.039 C 
ATOM      2  C   UNL     1     -14.030 -14.944  32.880  1.00  0.00    -0.070 C 
ATOM      3  C   UNL     1     -13.127 -15.555  32.059  1.00  0.00    -0.006 C 
ATOM      4  C   UNL     1     -13.509 -16.077  30.688  1.00  0.00     0.047 C 
ATOM      5  C   UNL     1     -12.371 -15.951  29.643  1.00  0.00     0.025 C 
ATOM      6  C   UNL     1     -12.772 -16.716  28.392  1.00  0.00    -0.073 C 
ATOM      7  C   UNL     1     -13.301 -16.073  27.339  1.00  0.00     0.008 C 
ATOM      8  C   UNL     1     -12.712 -18.229  28.413  1.00  0.00     0.031 C 
ATOM      9  C   UNL     1     -11.389 -18.734  29.004  1.00  0.00     0.005 C 
ATOM     10  C   UNL     1     -11.002 -18.009  30.306  1.00  0.00     0.008 C 
ATOM     11  C   UNL     1     -10.984 -16.459  30.153  1.00  0.00    -0.018 C 
ATOM     12  C   UNL     1     -10.632 -15.793  31.509  1.00  0.00     0.088 C 
ATOM     13  C   UNL     1     -11.750 -15.875  32.498  1.00  0.00     0.159 C 
ATOM     14  O   UNL     1     -11.503 -16.217  33.686  1.00  0.00    -0.295 OA
ATOM     15  C   UNL     1      -9.875 -16.043  29.148  1.00  0.00     0.012 C 
ATOM     16  C   UNL     1     -13.625 -14.398  34.229  1.00  0.00     0.039 C 
ENDROOT
TORSDOF 0
ENDMDL
MODEL 4
REMARK VINA RESULT:    -6.332      2.813      5.682
REMARK INTER + INTRA:          -6.332
REMARK INTER:                  -6.332
REMARK INTRA:                   0.000
REMARK UNBOUND:                 0.000
REMARK SMILES C=C1CCC[C@]2(C)CC(=O)C(=C(C)C)C[C@H]12
REMARK SMILES IDX 13 1 12 2 11 3 15 4 16 5 2 6 1 7 3 8 4 9 5 10 6 11 8 12 9 13
REMARK SMILES IDX 10 14 7 15 14 16
REMARK H PARENT
REMARK Flexibility Score: inf
ROOT
ATOM      1  C   UNL     1      -9.876 -14.105  35.554  1.00  0.00     0.039 C 
ATOM      2  C   UNL     1     -11.370 -14.199  35.347  1.00  0.00    -0.070 C 
ATOM      3  C   UNL     1     -11.897 -14.832  34.259  1.00  0.00    -0.006 C 
ATOM      4  C   UNL     1     -11.023 -15.470  33.197  1.00  0.00     0.047 C 
ATOM      5  C   UNL     1     -11.642 -16.751  32.580  1.00  0.00     0.025 C 
ATOM      6  C   UNL     1     -10.810 -17.161  31.375  1.00  0.00    -0.073 C 
ATOM      7  C   UNL     1      -9.875 -18.118  31.485  1.00  0.00     0.008 C 
ATOM      8  C   UNL     1     -10.942 -16.366  30.093  1.00  0.00     0.031 C 
ATOM      9  C   UNL     1     -12.413 -16.123  29.728  1.00  0.00     0.005 C 
ATOM     10  C   UNL     1     -13.255 -15.647  30.927  1.00  0.00     0.008 C 
ATOM     11  C   UNL     1     -13.139 -16.592  32.160  1.00  0.00    -0.018 C 
ATOM     12  C   UNL     1     -13.973 -16.031  33.342  1.00  0.00     0.088 C 
ATOM     13  C   UNL     1     -13.348 -14.824  33.965  1.00  0.00     0.159 C 
ATOM     14  O   UNL     1     -14.065 -13.821  34.227  1.00  0.00    -0.295 OA
ATOM     15  C   UNL     1     -13.734 -17.984  31.813  1.00  0.00     0.012 C 
ATOM     16  C   UNL     1     -12.256 -13.599  36.414  1.00  0.00     0.039 C 
ENDROOT
TORSDOF 0
ENDMDL
MODEL 5
REMARK VINA RESULT:    -5.930      2.187      3.729
REMARK INTER + INTRA:          -5.930
REMARK INTER:                  -5.930
REMARK INTRA:                   0.000
REMARK UNBOUND:                 0.000
REMARK SMILES C=C1CCC[C@]2(C)CC(=O)C(=C(C)C)C[C@H]12
REMARK SMILES IDX 13 1 12 2 11 3 15 4 16 5 2 6 1 7 3 8 4 9 5 10 6 11 8 12 9 13
REMARK SMILES IDX 10 14 7 15 14 16
REMARK H PARENT
REMARK Flexibility Score: inf
ROOT
ATOM      1  C   UNL     1     -14.375 -13.999  27.866  1.00  0.00     0.039 C 
ATOM      2  C   UNL     1     -14.628 -14.026  29.355  1.00  0.00    -0.070 C 
ATOM      3  C   UNL     1     -13.977 -14.908  30.169  1.00  0.00    -0.006 C 
ATOM      4  C   UNL     1     -12.973 -15.908  29.632  1.00  0.00     0.047 C 
ATOM      5  C   UNL     1     -11.805 -16.194  30.613  1.00  0.00     0.025 C 
ATOM      6  C   UNL     1     -11.005 -17.374  30.085  1.00  0.00    -0.073 C 
ATOM      7  C   UNL     1      -9.875 -17.175  29.389  1.00  0.00     0.008 C 
ATOM      8  C   UNL     1     -11.584 -18.766  30.222  1.00  0.00     0.031 C 
ATOM      9  C   UNL     1     -12.127 -19.017  31.636  1.00  0.00     0.005 C 
ATOM     10  C   UNL     1     -12.991 -17.854  32.158  1.00  0.00     0.008 C 
ATOM     11  C   UNL     1     -12.265 -16.478  32.079  1.00  0.00    -0.018 C 
ATOM     12  C   UNL     1     -13.207 -15.349  32.577  1.00  0.00     0.088 C 
ATOM     13  C   UNL     1     -14.303 -15.045  31.607  1.00  0.00     0.159 C 
ATOM     14  O   UNL     1     -15.483 -14.912  32.028  1.00  0.00    -0.295 OA
ATOM     15  C   UNL     1     -11.030 -16.481  33.021  1.00  0.00     0.012 C 
ATOM     16  C   UNL     1     -15.600 -13.012  29.911  1.00  0.00     0.039 C 
ENDROOT
TORSDOF 0
ENDMDL
MODEL 6
REMARK VINA RESULT:    -5.726      3.827      5.888
REMARK INTER + INTRA:          -5.726
REMARK INTER:                  -5.726
REMARK INTRA:                   0.000
REMARK UNBOUND:                 0.000
REMARK SMILES C=C1CCC[C@]2(C)CC(=O)C(=C(C)C)C[C@H]12
REMARK SMILES IDX 13 1 12 2 11 3 15 4 16 5 2 6 1 7 3 8 4 9 5 10 6 11 8 12 9 13
REMARK SMILES IDX 10 14 7 15 14 16
REMARK H PARENT
REMARK Flexibility Score: inf
ROOT
ATOM      1  C   UNL     1     -14.969 -15.243  32.876  1.00  0.00     0.039 C 
ATOM      2  C   UNL     1     -13.525 -15.687  32.846  1.00  0.00    -0.070 C 
ATOM      3  C   UNL     1     -12.587 -15.106  33.650  1.00  0.00    -0.006 C 
ATOM      4  C   UNL     1     -12.932 -13.985  34.610  1.00  0.00     0.047 C 
ATOM      5  C   UNL     1     -12.104 -14.020  35.920  1.00  0.00     0.025 C 
ATOM      6  C   UNL     1     -12.353 -12.732  36.688  1.00  0.00    -0.073 C 
ATOM      7  C   UNL     1     -13.242 -12.699  37.694  1.00  0.00     0.008 C 
ATOM      8  C   UNL     1     -11.702 -11.455  36.201  1.00  0.00     0.031 C 
ATOM      9  C   UNL     1     -10.215 -11.664  35.884  1.00  0.00     0.005 C 
ATOM     10  C   UNL     1      -9.955 -12.934  35.052  1.00  0.00     0.008 C 
ATOM     11  C   UNL     1     -10.570 -14.214  35.694  1.00  0.00    -0.018 C 
ATOM     12  C   UNL     1     -10.310 -15.444  34.784  1.00  0.00     0.088 C 
ATOM     13  C   UNL     1     -11.146 -15.429  33.545  1.00  0.00     0.159 C 
ATOM     14  O   UNL     1     -10.611 -15.691  32.434  1.00  0.00    -0.295 OA
ATOM     15  C   UNL     1      -9.875 -14.505  37.052  1.00  0.00     0.012 C 
ATOM     16  C   UNL     1     -13.171 -16.827  31.920  1.00  0.00     0.039 C 
ENDROOT
TORSDOF 0
ENDMDL
MODEL 7
REMARK VINA RESULT:    -5.519      1.702      3.284
REMARK INTER + INTRA:          -5.519
REMARK INTER:                  -5.519
REMARK INTRA:                   0.000
REMARK UNBOUND:                 0.000
REMARK SMILES C=C1CCC[C@]2(C)CC(=O)C(=C(C)C)C[C@H]12
REMARK SMILES IDX 13 1 12 2 11 3 15 4 16 5 2 6 1 7 3 8 4 9 5 10 6 11 8 12 9 13
REMARK SMILES IDX 10 14 7 15 14 16
REMARK H PARENT
REMARK Flexibility Score: inf
ROOT
ATOM      1  C   UNL     1     -14.776 -14.694  32.723  1.00  0.00     0.039 C 
ATOM      2  C   UNL     1     -14.517 -14.613  31.237  1.00  0.00    -0.070 C 
ATOM      3  C   UNL     1     -13.688 -15.499  30.612  1.00  0.00    -0.006 C 
ATOM      4  C   UNL     1     -12.978 -16.607  31.364  1.00  0.00     0.047 C 
ATOM      5  C   UNL     1     -12.810 -17.905  30.533  1.00  0.00     0.025 C 
ATOM      6  C   UNL     1     -11.884 -18.847  31.285  1.00  0.00    -0.073 C 
ATOM      7  C   UNL     1     -12.386 -19.840  32.038  1.00  0.00     0.008 C 
ATOM      8  C   UNL     1     -10.399 -18.553  31.299  1.00  0.00     0.031 C 
ATOM      9  C   UNL     1      -9.875 -18.222  29.895  1.00  0.00     0.005 C 
ATOM     10  C   UNL     1     -10.772 -17.220  29.145  1.00  0.00     0.008 C 
ATOM     11  C   UNL     1     -12.264 -17.667  29.089  1.00  0.00    -0.018 C 
ATOM     12  C   UNL     1     -13.116 -16.592  28.361  1.00  0.00     0.088 C 
ATOM     13  C   UNL     1     -13.315 -15.361  29.186  1.00  0.00     0.159 C 
ATOM     14  O   UNL     1     -13.160 -14.229  28.654  1.00  0.00    -0.295 OA
ATOM     15  C   UNL     1     -12.389 -18.975  28.261  1.00  0.00     0.012 C 
ATOM     16  C   UNL     1     -15.244 -13.536  30.466  1.00  0.00     0.039 C 
ENDROOT
TORSDOF 0
ENDMDL
