MODEL 1
REMARK VINA RESULT:     7.896      0.000      0.000
REMARK INTER + INTRA:          11.905
REMARK INTER:                  12.051
REMARK INTRA:                  -0.147
REMARK UNBOUND:                -0.147
REMARK SMILES O=C([O-])CCCCCCCCC(=O)[O-]
REMARK SMILES IDX 7 1 6 2 5 3 4 4 2 5 1 6 3 7 8 8 9 9 10 10 11 11 12 12 13 13
REMARK SMILES IDX 14 14
REMARK H PARENT
REMARK Flexibility Score: inf
ROOT
ATOM      1  C   UNL     1      16.077  17.400  17.071  1.00  0.00     0.000 C 
ENDROOT
BRANCH   1   2
ATOM      2  C   UNL     1      17.368  17.331  16.240  1.00  0.00     0.000 C 
BRANCH   2   3
ATOM      3  C   UNL     1      17.099  17.087  14.747  1.00  0.00     0.006 C 
BRANCH   3   4
ATOM      4  C   UNL     1      18.020  17.949  13.878  1.00  0.00     0.053 C 
BRANCH   4   5
ATOM      5  C   UNL     1      17.984  19.375  14.331  1.00  0.00     0.041 C 
ATOM      6  O   UNL     1      16.926  19.860  14.812  1.00  0.00    -0.550 OA
ATOM      7  O   UNL     1      19.103  20.181  14.179  1.00  0.00    -0.550 OA
ENDBRANCH   4   5
ENDBRANCH   3   4
ENDBRANCH   2   3
ENDBRANCH   1   2
BRANCH   1   8
ATOM      8  C   UNL     1      16.303  18.001  18.467  1.00  0.00     0.000 C 
BRANCH   8   9
ATOM      9  C   UNL     1      16.475  16.898  19.518  1.00  0.00     0.000 C 
BRANCH   9  10
ATOM     10  C   UNL     1      17.728  17.141  20.372  1.00  0.00     0.006 C 
BRANCH  10  11
ATOM     11  C   UNL     1      18.965  17.442  19.515  1.00  0.00     0.053 C 
BRANCH  11  12
ATOM     12  C   UNL     1      20.060  18.072  20.322  1.00  0.00     0.041 C 
ATOM     13  O   UNL     1      19.787  18.709  21.372  1.00  0.00    -0.550 OA
ATOM     14  O   UNL     1      21.384  17.925  19.930  1.00  0.00    -0.550 OA
ENDBRANCH  11  12
ENDBRANCH  10  11
ENDBRANCH   9  10
ENDBRANCH   8   9
ENDBRANCH   1   8
TORSDOF 9
ENDMDL
MODEL 2
REMARK VINA RESULT:     7.971      0.148      5.573
REMARK INTER + INTRA:          12.018
REMARK INTER:                  12.113
REMARK INTRA:                  -0.095
REMARK UNBOUND:                -0.147
REMARK SMILES O=C([O-])CCCCCCCCC(=O)[O-]
REMARK SMILES IDX 7 1 6 2 5 3 4 4 2 5 1 6 3 7 8 8 9 9 10 10 11 11 12 12 13 13
REMARK SMILES IDX 14 14
REMARK H PARENT
REMARK Flexibility Score: inf
ROOT
ATOM      1  C   UNL     1      16.404  18.006  18.587  1.00  0.00     0.000 C 
ENDROOT
BRANCH   1   2
ATOM      2  C   UNL     1      16.456  16.985  19.734  1.00  0.00     0.000 C 
BRANCH   2   3
ATOM      3  C   UNL     1      17.832  16.928  20.414  1.00  0.00     0.006 C 
BRANCH   3   4
ATOM      4  C   UNL     1      18.909  17.556  19.524  1.00  0.00     0.053 C 
BRANCH   4   5
ATOM      5  C   UNL     1      20.007  18.134  20.359  1.00  0.00     0.041 C 
ATOM      6  O   UNL     1      19.734  18.831  21.372  1.00  0.00    -0.550 OA
ATOM      7  O   UNL     1      21.333  17.945  19.993  1.00  0.00    -0.550 OA
ENDBRANCH   4   5
ENDBRANCH   3   4
ENDBRANCH   2   3
ENDBRANCH   1   2
BRANCH   1   8
ATOM      8  C   UNL     1      16.138  17.351  17.223  1.00  0.00     0.000 C 
BRANCH   8   9
ATOM      9  C   UNL     1      17.407  17.343  16.361  1.00  0.00     0.000 C 
BRANCH   9  10
ATOM     10  C   UNL     1      17.070  17.066  14.888  1.00  0.00     0.006 C 
BRANCH  10  11
ATOM     11  C   UNL     1      17.929  17.900  13.929  1.00  0.00     0.053 C 
BRANCH  11  12
ATOM     12  C   UNL     1      17.919  19.353  14.296  1.00  0.00     0.041 C 
ATOM     13  O   UNL     1      16.921  19.853  14.879  1.00  0.00    -0.550 OA
ATOM     14  O   UNL     1      19.025  20.147  14.022  1.00  0.00    -0.550 OA
ENDBRANCH  11  12
ENDBRANCH  10  11
ENDBRANCH   9  10
ENDBRANCH   8   9
ENDBRANCH   1   8
TORSDOF 9
ENDMDL
MODEL 3
REMARK VINA RESULT:     8.994      1.781      2.252
REMARK INTER + INTRA:          13.580
REMARK INTER:                  13.182
REMARK INTRA:                   0.398
REMARK UNBOUND:                -0.147
REMARK SMILES O=C([O-])CCCCCCCCC(=O)[O-]
REMARK SMILES IDX 7 1 6 2 5 3 4 4 2 5 1 6 3 7 8 8 9 9 10 10 11 11 12 12 13 13
REMARK SMILES IDX 14 14
REMARK H PARENT
REMARK Flexibility Score: inf
ROOT
ATOM      1  C   UNL     1      16.862  17.486  17.200  1.00  0.00     0.000 C 
ENDROOT
BRANCH   1   2
ATOM      2  C   UNL     1      16.335  17.869  15.808  1.00  0.00     0.000 C 
BRANCH   2   3
ATOM      3  C   UNL     1      17.296  18.792  15.044  1.00  0.00     0.006 C 
BRANCH   3   4
ATOM      4  C   UNL     1      17.991  18.036  13.907  1.00  0.00     0.053 C 
BRANCH   4   5
ATOM      5  C   UNL     1      17.784  16.562  14.055  1.00  0.00     0.041 C 
ATOM      6  O   UNL     1      18.761  15.806  14.299  1.00  0.00    -0.550 OA
ATOM      7  O   UNL     1      16.520  16.016  13.875  1.00  0.00    -0.550 OA
ENDBRANCH   4   5
ENDBRANCH   3   4
ENDBRANCH   2   3
ENDBRANCH   1   2
BRANCH   1   8
ATOM      8  C   UNL     1      15.922  17.930  18.331  1.00  0.00     0.000 C 
BRANCH   8   9
ATOM      9  C   UNL     1      16.180  17.121  19.609  1.00  0.00     0.000 C 
BRANCH   9  10
ATOM     10  C   UNL     1      17.684  17.003  19.893  1.00  0.00     0.006 C 
BRANCH  10  11
ATOM     11  C   UNL     1      18.147  17.977  20.985  1.00  0.00     0.053 C 
BRANCH  11  12
ATOM     12  C   UNL     1      19.606  18.295  20.862  1.00  0.00     0.041 C 
ATOM     13  O   UNL     1      20.251  17.935  19.843  1.00  0.00    -0.550 OA
ATOM     14  O   UNL     1      20.246  19.019  21.860  1.00  0.00    -0.550 OA
ENDBRANCH  11  12
ENDBRANCH  10  11
ENDBRANCH   9  10
ENDBRANCH   8   9
ENDBRANCH   1   8
TORSDOF 9
ENDMDL
MODEL 4
REMARK VINA RESULT:     9.261      1.806      5.800
REMARK INTER + INTRA:          13.987
REMARK INTER:                  14.484
REMARK INTRA:                  -0.497
REMARK UNBOUND:                -0.147
REMARK SMILES O=C([O-])CCCCCCCCC(=O)[O-]
REMARK SMILES IDX 7 1 6 2 5 3 4 4 2 5 1 6 3 7 8 8 9 9 10 10 11 11 12 12 13 13
REMARK SMILES IDX 14 14
REMARK H PARENT
REMARK Flexibility Score: inf
ROOT
ATOM      1  C   UNL     1      16.092  17.841  19.081  1.00  0.00     0.000 C 
ENDROOT
BRANCH   1   2
ATOM      2  C   UNL     1      16.591  16.622  19.874  1.00  0.00     0.000 C 
BRANCH   2   3
ATOM      3  C   UNL     1      18.075  16.731  20.256  1.00  0.00     0.006 C 
BRANCH   3   4
ATOM      4  C   UNL     1      18.527  18.194  20.280  1.00  0.00     0.053 C 
BRANCH   4   5
ATOM      5  C   UNL     1      19.946  18.296  20.744  1.00  0.00     0.041 C 
ATOM      6  O   UNL     1      20.208  18.761  21.885  1.00  0.00    -0.550 OA
ATOM      7  O   UNL     1      20.982  17.922  19.899  1.00  0.00    -0.550 OA
ENDBRANCH   4   5
ENDBRANCH   3   4
ENDBRANCH   2   3
ENDBRANCH   1   2
BRANCH   1   8
ATOM      8  C   UNL     1      15.778  17.505  17.616  1.00  0.00     0.000 C 
BRANCH   8   9
ATOM      9  C   UNL     1      17.046  17.568  16.754  1.00  0.00     0.000 C 
BRANCH   9  10
ATOM     10  C   UNL     1      16.777  18.299  15.431  1.00  0.00     0.006 C 
BRANCH  10  11
ATOM     11  C   UNL     1      17.759  17.883  14.328  1.00  0.00     0.053 C 
BRANCH  11  12
ATOM     12  C   UNL     1      17.867  16.392  14.214  1.00  0.00     0.041 C 
ATOM     13  O   UNL     1      18.959  15.815  14.452  1.00  0.00    -0.550 OA
ATOM     14  O   UNL     1      16.749  15.639  13.877  1.00  0.00    -0.550 OA
ENDBRANCH  11  12
ENDBRANCH  10  11
ENDBRANCH   9  10
ENDBRANCH   8   9
ENDBRANCH   1   8
TORSDOF 9
ENDMDL
