MODEL 1
REMARK VINA RESULT:    -3.875      0.000      0.000
REMARK INTER + INTRA:          -4.993
REMARK INTER:                  -4.894
REMARK INTRA:                  -0.099
REMARK UNBOUND:                -0.099
REMARK SMILES CCCCCCO
REMARK SMILES IDX 4 1 3 2 2 3 1 4 5 5 6 6 7 7
REMARK H PARENT 7 8
REMARK Flexibility Score: inf
ROOT
ATOM      1  C   UNL     1      -5.007 -19.840 -12.657  1.00  0.00     0.002 C 
ENDROOT
BRANCH   1   2
ATOM      2  C   UNL     1      -6.028 -18.996 -13.442  1.00  0.00    -0.000 C 
BRANCH   2   3
ATOM      3  C   UNL     1      -6.251 -19.505 -14.872  1.00  0.00    -0.003 C 
ATOM      4  C   UNL     1      -6.904 -18.434 -15.741  1.00  0.00     0.004 C 
ENDBRANCH   2   3
ENDBRANCH   1   2
BRANCH   1   5
ATOM      5  C   UNL     1      -5.604 -20.685 -11.517  1.00  0.00     0.028 C 
BRANCH   5   6
ATOM      6  C   UNL     1      -5.846 -22.145 -11.916  1.00  0.00     0.156 C 
BRANCH   6   7
ATOM      7  O   UNL     1      -7.214 -22.366 -12.130  1.00  0.00    -0.396 OA
ATOM      8  H   UNL     1      -7.569 -22.780 -11.300  1.00  0.00     0.210 HD
ENDBRANCH   6   7
ENDBRANCH   5   6
ENDBRANCH   1   5
TORSDOF 5
ENDMDL
MODEL 2
REMARK VINA RESULT:    -3.832      2.653      4.520
REMARK INTER + INTRA:          -4.939
REMARK INTER:                  -4.897
REMARK INTRA:                  -0.042
REMARK UNBOUND:                -0.099
REMARK SMILES CCCCCCO
REMARK SMILES IDX 4 1 3 2 2 3 1 4 5 5 6 6 7 7
REMARK H PARENT 7 8
REMARK Flexibility Score: inf
ROOT
ATOM      1  C   UNL     1      -6.246 -19.371 -14.650  1.00  0.00     0.002 C 
ENDROOT
BRANCH   1   2
ATOM      2  C   UNL     1      -5.950 -19.040 -13.176  1.00  0.00    -0.000 C 
BRANCH   2   3
ATOM      3  C   UNL     1      -4.943 -20.006 -12.537  1.00  0.00    -0.003 C 
ATOM      4  C   UNL     1      -5.421 -20.469 -11.163  1.00  0.00     0.004 C 
ENDBRANCH   2   3
ENDBRANCH   1   2
BRANCH   1   5
ATOM      5  C   UNL     1      -6.917 -18.238 -15.448  1.00  0.00     0.028 C 
BRANCH   5   6
ATOM      6  C   UNL     1      -7.753 -17.299 -14.569  1.00  0.00     0.156 C 
BRANCH   6   7
ATOM      7  O   UNL     1      -7.115 -16.057 -14.447  1.00  0.00    -0.396 OA
ATOM      8  H   UNL     1      -6.956 -15.914 -13.477  1.00  0.00     0.210 HD
ENDBRANCH   6   7
ENDBRANCH   5   6
ENDBRANCH   1   5
TORSDOF 5
ENDMDL
MODEL 3
REMARK VINA RESULT:    -3.722      2.289      4.220
REMARK INTER + INTRA:          -4.800
REMARK INTER:                  -4.698
REMARK INTRA:                  -0.103
REMARK UNBOUND:                -0.099
REMARK SMILES CCCCCCO
REMARK SMILES IDX 4 1 3 2 2 3 1 4 5 5 6 6 7 7
REMARK H PARENT 7 8
REMARK Flexibility Score: inf
ROOT
ATOM      1  C   UNL     1      -6.028 -19.104 -13.290  1.00  0.00     0.002 C 
ENDROOT
BRANCH   1   2
ATOM      2  C   UNL     1      -4.880 -19.887 -12.628  1.00  0.00    -0.000 C 
BRANCH   2   3
ATOM      3  C   UNL     1      -5.356 -20.795 -11.486  1.00  0.00    -0.003 C 
ATOM      4  C   UNL     1      -6.046 -22.044 -12.027  1.00  0.00     0.004 C 
ENDBRANCH   2   3
ENDBRANCH   1   2
BRANCH   1   5
ATOM      5  C   UNL     1      -6.275 -19.443 -14.771  1.00  0.00     0.028 C 
BRANCH   5   6
ATOM      6  C   UNL     1      -6.852 -18.266 -15.567  1.00  0.00     0.156 C 
BRANCH   6   7
ATOM      7  O   UNL     1      -6.558 -17.057 -14.923  1.00  0.00    -0.396 OA
ATOM      8  H   UNL     1      -7.422 -16.583 -14.799  1.00  0.00     0.210 HD
ENDBRANCH   6   7
ENDBRANCH   5   6
ENDBRANCH   1   5
TORSDOF 5
ENDMDL
MODEL 4
REMARK VINA RESULT:    -3.550      3.653      4.584
REMARK INTER + INTRA:          -4.583
REMARK INTER:                  -4.484
REMARK INTRA:                  -0.098
REMARK UNBOUND:                -0.099
REMARK SMILES CCCCCCO
REMARK SMILES IDX 4 1 3 2 2 3 1 4 5 5 6 6 7 7
REMARK H PARENT 7 8
REMARK Flexibility Score: inf
ROOT
ATOM      1  C   UNL     1      -2.504 -21.945 -11.781  1.00  0.00     0.002 C 
ENDROOT
BRANCH   1   2
ATOM      2  C   UNL     1      -3.791 -22.105 -10.953  1.00  0.00    -0.000 C 
BRANCH   2   3
ATOM      3  C   UNL     1      -5.031 -21.539 -11.658  1.00  0.00    -0.003 C 
ATOM      4  C   UNL     1      -4.726 -20.193 -12.309  1.00  0.00     0.004 C 
ENDBRANCH   2   3
ENDBRANCH   1   2
BRANCH   1   5
ATOM      5  C   UNL     1      -1.673 -23.231 -11.946  1.00  0.00     0.028 C 
BRANCH   5   6
ATOM      6  C   UNL     1      -2.531 -24.464 -12.249  1.00  0.00     0.156 C 
BRANCH   6   7
ATOM      7  O   UNL     1      -1.715 -25.541 -12.622  1.00  0.00    -0.396 OA
ATOM      8  H   UNL     1      -1.430 -25.986 -11.781  1.00  0.00     0.210 HD
ENDBRANCH   6   7
ENDBRANCH   5   6
ENDBRANCH   1   5
TORSDOF 5
ENDMDL
MODEL 5
REMARK VINA RESULT:    -3.528      2.642      4.693
REMARK INTER + INTRA:          -4.555
REMARK INTER:                  -4.488
REMARK INTRA:                  -0.067
REMARK UNBOUND:                -0.099
REMARK SMILES CCCCCCO
REMARK SMILES IDX 4 1 3 2 2 3 1 4 5 5 6 6 7 7
REMARK H PARENT 7 8
REMARK Flexibility Score: inf
ROOT
ATOM      1  C   UNL     1      -6.451 -18.915 -15.901  1.00  0.00     0.002 C 
ENDROOT
BRANCH   1   2
ATOM      2  C   UNL     1      -6.202 -19.814 -14.677  1.00  0.00    -0.000 C 
BRANCH   2   3
ATOM      3  C   UNL     1      -6.032 -19.019 -13.375  1.00  0.00    -0.003 C 
ATOM      4  C   UNL     1      -5.207 -19.800 -12.357  1.00  0.00     0.004 C 
ENDBRANCH   2   3
ENDBRANCH   1   2
BRANCH   1   5
ATOM      5  C   UNL     1      -7.453 -17.769 -15.671  1.00  0.00     0.028 C 
BRANCH   5   6
ATOM      6  C   UNL     1      -8.552 -17.710 -16.737  1.00  0.00     0.156 C 
BRANCH   6   7
ATOM      7  O   UNL     1      -9.752 -18.222 -16.223  1.00  0.00    -0.396 OA
ATOM      8  H   UNL     1      -9.526 -18.662 -15.362  1.00  0.00     0.210 HD
ENDBRANCH   6   7
ENDBRANCH   5   6
ENDBRANCH   1   5
TORSDOF 5
ENDMDL
MODEL 6
REMARK VINA RESULT:    -3.444      2.918      4.585
REMARK INTER + INTRA:          -4.449
REMARK INTER:                  -4.364
REMARK INTRA:                  -0.084
REMARK UNBOUND:                -0.099
REMARK SMILES CCCCCCO
REMARK SMILES IDX 4 1 3 2 2 3 1 4 5 5 6 6 7 7
REMARK H PARENT 7 8
REMARK Flexibility Score: inf
ROOT
ATOM      1  C   UNL     1      -3.761 -22.272 -11.162  1.00  0.00     0.002 C 
ENDROOT
BRANCH   1   2
ATOM      2  C   UNL     1      -2.346 -21.861 -11.606  1.00  0.00    -0.000 C 
BRANCH   2   3
ATOM      3  C   UNL     1      -1.535 -23.031 -12.180  1.00  0.00    -0.003 C 
ATOM      4  C   UNL     1      -2.346 -24.323 -12.159  1.00  0.00     0.004 C 
ENDBRANCH   2   3
ENDBRANCH   1   2
BRANCH   1   5
ATOM      5  C   UNL     1      -4.899 -21.410 -11.739  1.00  0.00     0.028 C 
BRANCH   5   6
ATOM      6  C   UNL     1      -6.263 -21.717 -11.110  1.00  0.00     0.156 C 
BRANCH   6   7
ATOM      7  O   UNL     1      -7.094 -22.350 -12.044  1.00  0.00    -0.396 OA
ATOM      8  H   UNL     1      -7.724 -22.917 -11.526  1.00  0.00     0.210 HD
ENDBRANCH   6   7
ENDBRANCH   5   6
ENDBRANCH   1   5
TORSDOF 5
ENDMDL
MODEL 7
REMARK VINA RESULT:    -3.379      4.071      4.814
REMARK INTER + INTRA:          -4.367
REMARK INTER:                  -4.303
REMARK INTRA:                  -0.063
REMARK UNBOUND:                -0.099
REMARK SMILES CCCCCCO
REMARK SMILES IDX 4 1 3 2 2 3 1 4 5 5 6 6 7 7
REMARK H PARENT 7 8
REMARK Flexibility Score: inf
ROOT
ATOM      1  C   UNL     1      -2.825 -21.578 -11.856  1.00  0.00     0.002 C 
ENDROOT
BRANCH   1   2
ATOM      2  C   UNL     1      -4.155 -21.857 -11.133  1.00  0.00    -0.000 C 
BRANCH   2   3
ATOM      3  C   UNL     1      -5.365 -21.239 -11.847  1.00  0.00    -0.003 C 
ATOM      4  C   UNL     1      -5.004 -19.898 -12.479  1.00  0.00     0.004 C 
ENDBRANCH   2   3
ENDBRANCH   1   2
BRANCH   1   5
ATOM      5  C   UNL     1      -1.778 -22.701 -11.746  1.00  0.00     0.028 C 
BRANCH   5   6
ATOM      6  C   UNL     1      -0.347 -22.174 -11.589  1.00  0.00     0.156 C 
BRANCH   6   7
ATOM      7  O   UNL     1       0.398 -22.449 -12.744  1.00  0.00    -0.396 OA
ATOM      8  H   UNL     1       0.665 -23.404 -12.688  1.00  0.00     0.210 HD
ENDBRANCH   6   7
ENDBRANCH   5   6
ENDBRANCH   1   5
TORSDOF 5
ENDMDL
MODEL 8
REMARK VINA RESULT:    -3.362      2.169      3.310
REMARK INTER + INTRA:          -4.345
REMARK INTER:                  -4.264
REMARK INTRA:                  -0.081
REMARK UNBOUND:                -0.099
REMARK SMILES CCCCCCO
REMARK SMILES IDX 4 1 3 2 2 3 1 4 5 5 6 6 7 7
REMARK H PARENT 7 8
REMARK Flexibility Score: inf
ROOT
ATOM      1  C   UNL     1      -6.737 -18.088 -15.287  1.00  0.00     0.002 C 
ENDROOT
BRANCH   1   2
ATOM      2  C   UNL     1      -8.143 -17.784 -14.739  1.00  0.00    -0.000 C 
BRANCH   2   3
ATOM      3  C   UNL     1      -8.118 -16.895 -13.488  1.00  0.00    -0.003 C 
ATOM      4  C   UNL     1      -9.459 -16.929 -12.762  1.00  0.00     0.004 C 
ENDBRANCH   2   3
ENDBRANCH   1   2
BRANCH   1   5
ATOM      5  C   UNL     1      -6.241 -19.524 -15.040  1.00  0.00     0.028 C 
BRANCH   5   6
ATOM      6  C   UNL     1      -5.812 -19.769 -13.588  1.00  0.00     0.156 C 
BRANCH   6   7
ATOM      7  O   UNL     1      -6.446 -20.913 -13.084  1.00  0.00    -0.396 OA
ATOM      8  H   UNL     1      -5.733 -21.586 -12.925  1.00  0.00     0.210 HD
ENDBRANCH   6   7
ENDBRANCH   5   6
ENDBRANCH   1   5
TORSDOF 5
ENDMDL
MODEL 9
REMARK VINA RESULT:    -3.201      2.162      4.290
REMARK INTER + INTRA:          -4.142
REMARK INTER:                  -4.046
REMARK INTRA:                  -0.096
REMARK UNBOUND:                -0.099
REMARK SMILES CCCCCCO
REMARK SMILES IDX 4 1 3 2 2 3 1 4 5 5 6 6 7 7
REMARK H PARENT 7 8
REMARK Flexibility Score: inf
ROOT
ATOM      1  C   UNL     1      -5.429 -20.263 -11.244  1.00  0.00     0.002 C 
ENDROOT
BRANCH   1   2
ATOM      2  C   UNL     1      -4.626 -21.374 -10.545  1.00  0.00    -0.000 C 
BRANCH   2   3
ATOM      3  C   UNL     1      -3.540 -21.983 -11.444  1.00  0.00    -0.003 C 
ATOM      4  C   UNL     1      -2.219 -22.122 -10.693  1.00  0.00     0.004 C 
ENDBRANCH   2   3
ENDBRANCH   1   2
BRANCH   1   5
ATOM      5  C   UNL     1      -4.915 -19.872 -12.642  1.00  0.00     0.028 C 
BRANCH   5   6
ATOM      6  C   UNL     1      -5.966 -19.140 -13.484  1.00  0.00     0.156 C 
BRANCH   6   7
ATOM      7  O   UNL     1      -6.672 -20.054 -14.278  1.00  0.00    -0.396 OA
ATOM      8  H   UNL     1      -6.224 -20.066 -15.164  1.00  0.00     0.210 HD
ENDBRANCH   6   7
ENDBRANCH   5   6
ENDBRANCH   1   5
TORSDOF 5
ENDMDL
