MODEL 1
REMARK VINA RESULT:     6.368      0.000      0.000
REMARK INTER + INTRA:          10.453
REMARK INTER:                  10.835
REMARK INTRA:                  -0.382
REMARK UNBOUND:                -0.382
REMARK SMILES CCCCCCCCCCCCCC(=O)[O-]
REMARK SMILES IDX 8 1 9 2 10 3 11 4 12 5 13 6 14 7 15 8 16 9 7 10 6 11 5 12
REMARK SMILES IDX 4 13 3 14 2 15 1 16
REMARK H PARENT
REMARK Flexibility Score: inf
ROOT
ATOM      1  C   UNL     1     -33.418  13.878  16.739  1.00  0.00     0.000 C 
ENDROOT
BRANCH   1   2
ATOM      2  C   UNL     1     -34.323  14.860  17.502  1.00  0.00     0.000 C 
BRANCH   2   3
ATOM      3  C   UNL     1     -34.750  16.059  16.628  1.00  0.00     0.000 C 
BRANCH   3   4
ATOM      4  C   UNL     1     -35.054  17.337  17.435  1.00  0.00     0.000 C 
BRANCH   4   5
ATOM      5  C   UNL     1     -36.529  17.512  17.835  1.00  0.00     0.006 C 
BRANCH   5   6
ATOM      6  C   UNL     1     -37.413  16.349  17.366  1.00  0.00     0.053 C 
BRANCH   6   7
ATOM      7  C   UNL     1     -38.714  16.355  18.106  1.00  0.00     0.041 C 
ATOM      8  O   UNL     1     -38.828  15.734  19.194  1.00  0.00    -0.550 OA
ATOM      9  O   UNL     1     -39.816  17.006  17.566  1.00  0.00    -0.550 OA
ENDBRANCH   6   7
ENDBRANCH   5   6
ENDBRANCH   4   5
ENDBRANCH   3   4
ENDBRANCH   2   3
ENDBRANCH   1   2
BRANCH   1  10
ATOM     10  C   UNL     1     -33.241  12.541  17.479  1.00  0.00     0.000 C 
BRANCH  10  11
ATOM     11  C   UNL     1     -32.564  12.714  18.851  1.00  0.00    -0.000 C 
BRANCH  11  12
ATOM     12  C   UNL     1     -33.485  12.328  20.020  1.00  0.00    -0.000 C 
BRANCH  12  13
ATOM     13  C   UNL     1     -33.802  10.822  20.047  1.00  0.00    -0.000 C 
BRANCH  13  14
ATOM     14  C   UNL     1     -33.926  10.263  21.477  1.00  0.00    -0.000 C 
BRANCH  14  15
ATOM     15  C   UNL     1     -33.244   8.902  21.704  1.00  0.00    -0.003 C 
ATOM     16  C   UNL     1     -34.110   7.924  22.497  1.00  0.00     0.004 C 
ENDBRANCH  14  15
ENDBRANCH  13  14
ENDBRANCH  12  13
ENDBRANCH  11  12
ENDBRANCH  10  11
ENDBRANCH   1  10
TORSDOF 12
ENDMDL
MODEL 2
REMARK VINA RESULT:     6.397      3.090      7.046
REMARK INTER + INTRA:          10.503
REMARK INTER:                  11.115
REMARK INTRA:                  -0.613
REMARK UNBOUND:                -0.382
REMARK SMILES CCCCCCCCCCCCCC(=O)[O-]
REMARK SMILES IDX 8 1 9 2 10 3 11 4 12 5 13 6 14 7 15 8 16 9 7 10 6 11 5 12
REMARK SMILES IDX 4 13 3 14 2 15 1 16
REMARK H PARENT
REMARK Flexibility Score: inf
ROOT
ATOM      1  C   UNL     1     -34.364  15.234  17.269  1.00  0.00     0.000 C 
ENDROOT
BRANCH   1   2
ATOM      2  C   UNL     1     -33.940  14.159  16.254  1.00  0.00     0.000 C 
BRANCH   2   3
ATOM      3  C   UNL     1     -33.646  12.802  16.930  1.00  0.00     0.000 C 
BRANCH   3   4
ATOM      4  C   UNL     1     -32.411  12.824  17.852  1.00  0.00     0.000 C 
BRANCH   4   5
ATOM      5  C   UNL     1     -32.602  12.112  19.202  1.00  0.00     0.006 C 
BRANCH   5   6
ATOM      6  C   UNL     1     -33.577  12.848  20.130  1.00  0.00     0.053 C 
BRANCH   6   7
ATOM      7  C   UNL     1     -33.998  11.956  21.255  1.00  0.00     0.041 C 
ATOM      8  O   UNL     1     -34.281  12.445  22.379  1.00  0.00    -0.550 OA
ATOM      9  O   UNL     1     -34.029  10.579  21.074  1.00  0.00    -0.550 OA
ENDBRANCH   6   7
ENDBRANCH   5   6
ENDBRANCH   4   5
ENDBRANCH   3   4
ENDBRANCH   2   3
ENDBRANCH   1   2
BRANCH   1  10
ATOM     10  C   UNL     1     -34.896  16.509  16.592  1.00  0.00     0.000 C 
BRANCH  10  11
ATOM     11  C   UNL     1     -35.205  17.627  17.604  1.00  0.00    -0.000 C 
BRANCH  11  12
ATOM     12  C   UNL     1     -36.711  17.796  17.860  1.00  0.00    -0.000 C 
BRANCH  12  13
ATOM     13  C   UNL     1     -37.524  16.566  17.421  1.00  0.00    -0.000 C 
BRANCH  13  14
ATOM     14  C   UNL     1     -38.561  16.126  18.473  1.00  0.00    -0.000 C 
BRANCH  14  15
ATOM     15  C   UNL     1     -40.027  16.401  18.095  1.00  0.00    -0.003 C 
ATOM     16  C   UNL     1     -40.172  17.415  16.960  1.00  0.00     0.004 C 
ENDBRANCH  14  15
ENDBRANCH  13  14
ENDBRANCH  12  13
ENDBRANCH  11  12
ENDBRANCH  10  11
ENDBRANCH   1  10
TORSDOF 12
ENDMDL
MODEL 3
REMARK VINA RESULT:     6.413      2.903      7.360
REMARK INTER + INTRA:          10.529
REMARK INTER:                  11.113
REMARK INTRA:                  -0.583
REMARK UNBOUND:                -0.382
REMARK SMILES CCCCCCCCCCCCCC(=O)[O-]
REMARK SMILES IDX 8 1 9 2 10 3 11 4 12 5 13 6 14 7 15 8 16 9 7 10 6 11 5 12
REMARK SMILES IDX 4 13 3 14 2 15 1 16
REMARK H PARENT
REMARK Flexibility Score: inf
ROOT
ATOM      1  C   UNL     1     -34.821  16.196  16.671  1.00  0.00     0.000 C 
ENDROOT
BRANCH   1   2
ATOM      2  C   UNL     1     -34.392  14.956  17.475  1.00  0.00     0.000 C 
BRANCH   2   3
ATOM      3  C   UNL     1     -33.728  13.884  16.584  1.00  0.00     0.000 C 
BRANCH   3   4
ATOM      4  C   UNL     1     -32.622  13.082  17.299  1.00  0.00     0.000 C 
BRANCH   4   5
ATOM      5  C   UNL     1     -32.820  12.919  18.815  1.00  0.00     0.006 C 
BRANCH   5   6
ATOM      6  C   UNL     1     -33.048  11.460  19.230  1.00  0.00     0.053 C 
BRANCH   6   7
ATOM      7  C   UNL     1     -33.732  11.398  20.560  1.00  0.00     0.041 C 
ATOM      8  O   UNL     1     -34.000  12.458  21.184  1.00  0.00    -0.550 OA
ATOM      9  O   UNL     1     -34.027  10.168  21.132  1.00  0.00    -0.550 OA
ENDBRANCH   6   7
ENDBRANCH   5   6
ENDBRANCH   4   5
ENDBRANCH   3   4
ENDBRANCH   2   3
ENDBRANCH   1   2
BRANCH   1  10
ATOM     10  C   UNL     1     -35.155  17.397  17.572  1.00  0.00     0.000 C 
BRANCH  10  11
ATOM     11  C   UNL     1     -36.672  17.593  17.750  1.00  0.00    -0.000 C 
BRANCH  11  12
ATOM     12  C   UNL     1     -37.480  16.338  17.381  1.00  0.00    -0.000 C 
BRANCH  12  13
ATOM     13  C   UNL     1     -38.445  15.910  18.500  1.00  0.00    -0.000 C 
BRANCH  13  14
ATOM     14  C   UNL     1     -39.804  16.630  18.427  1.00  0.00    -0.000 C 
BRANCH  14  15
ATOM     15  C   UNL     1     -40.336  16.871  17.003  1.00  0.00    -0.003 C 
ATOM     16  C   UNL     1     -40.385  18.351  16.625  1.00  0.00     0.004 C 
ENDBRANCH  14  15
ENDBRANCH  13  14
ENDBRANCH  12  13
ENDBRANCH  11  12
ENDBRANCH  10  11
ENDBRANCH   1  10
TORSDOF 12
ENDMDL
MODEL 4
REMARK VINA RESULT:     7.286      3.777      7.433
REMARK INTER + INTRA:          12.016
REMARK INTER:                  12.582
REMARK INTRA:                  -0.566
REMARK UNBOUND:                -0.382
REMARK SMILES CCCCCCCCCCCCCC(=O)[O-]
REMARK SMILES IDX 8 1 9 2 10 3 11 4 12 5 13 6 14 7 15 8 16 9 7 10 6 11 5 12
REMARK SMILES IDX 4 13 3 14 2 15 1 16
REMARK H PARENT
REMARK Flexibility Score: inf
ROOT
ATOM      1  C   UNL     1     -33.839  13.800  16.566  1.00  0.00     0.000 C 
ENDROOT
BRANCH   1   2
ATOM      2  C   UNL     1     -33.566  12.504  17.347  1.00  0.00     0.000 C 
BRANCH   2   3
ATOM      3  C   UNL     1     -32.579  12.723  18.515  1.00  0.00     0.000 C 
BRANCH   3   4
ATOM      4  C   UNL     1     -33.160  12.359  19.895  1.00  0.00     0.000 C 
BRANCH   4   5
ATOM      5  C   UNL     1     -33.833  10.977  19.968  1.00  0.00     0.006 C 
BRANCH   5   6
ATOM      6  C   UNL     1     -34.043  10.494  21.409  1.00  0.00     0.053 C 
BRANCH   6   7
ATOM      7  C   UNL     1     -33.358   9.181  21.621  1.00  0.00     0.041 C 
ATOM      8  O   UNL     1     -32.200   8.989  21.167  1.00  0.00    -0.550 OA
ATOM      9  O   UNL     1     -34.021   8.151  22.277  1.00  0.00    -0.550 OA
ENDBRANCH   6   7
ENDBRANCH   5   6
ENDBRANCH   4   5
ENDBRANCH   3   4
ENDBRANCH   2   3
ENDBRANCH   1   2
BRANCH   1  10
ATOM     10  C   UNL     1     -34.438  14.907  17.450  1.00  0.00     0.000 C 
BRANCH  10  11
ATOM     11  C   UNL     1     -34.892  16.131  16.633  1.00  0.00    -0.000 C 
BRANCH  11  12
ATOM     12  C   UNL     1     -35.072  17.388  17.500  1.00  0.00    -0.000 C 
BRANCH  12  13
ATOM     13  C   UNL     1     -36.550  17.677  17.818  1.00  0.00    -0.000 C 
BRANCH  13  14
ATOM     14  C   UNL     1     -37.495  16.558  17.340  1.00  0.00    -0.000 C 
BRANCH  14  15
ATOM     15  C   UNL     1     -38.865  16.523  18.040  1.00  0.00    -0.003 C 
ATOM     16  C   UNL     1     -38.942  15.478  19.153  1.00  0.00     0.004 C 
ENDBRANCH  14  15
ENDBRANCH  13  14
ENDBRANCH  12  13
ENDBRANCH  11  12
ENDBRANCH  10  11
ENDBRANCH   1  10
TORSDOF 12
ENDMDL
MODEL 5
REMARK VINA RESULT:     7.390      3.755      7.889
REMARK INTER + INTRA:          12.192
REMARK INTER:                  12.714
REMARK INTRA:                  -0.522
REMARK UNBOUND:                -0.382
REMARK SMILES CCCCCCCCCCCCCC(=O)[O-]
REMARK SMILES IDX 8 1 9 2 10 3 11 4 12 5 13 6 14 7 15 8 16 9 7 10 6 11 5 12
REMARK SMILES IDX 4 13 3 14 2 15 1 16
REMARK H PARENT
REMARK Flexibility Score: inf
ROOT
ATOM      1  C   UNL     1     -33.392  12.290  17.797  1.00  0.00     0.000 C 
ENDROOT
BRANCH   1   2
ATOM      2  C   UNL     1     -32.718  12.413  19.174  1.00  0.00     0.000 C 
BRANCH   2   3
ATOM      3  C   UNL     1     -33.663  12.006  20.326  1.00  0.00     0.000 C 
BRANCH   3   4
ATOM      4  C   UNL     1     -33.906  10.487  20.420  1.00  0.00     0.000 C 
BRANCH   4   5
ATOM      5  C   UNL     1     -34.028   9.940  21.853  1.00  0.00     0.006 C 
BRANCH   5   6
ATOM      6  C   UNL     1     -33.438   8.532  22.003  1.00  0.00     0.053 C 
BRANCH   6   7
ATOM      7  C   UNL     1     -34.415   7.630  22.689  1.00  0.00     0.041 C 
ATOM      8  O   UNL     1     -35.511   7.347  22.139  1.00  0.00    -0.550 OA
ATOM      9  O   UNL     1     -34.136   7.143  23.960  1.00  0.00    -0.550 OA
ENDBRANCH   6   7
ENDBRANCH   5   6
ENDBRANCH   4   5
ENDBRANCH   3   4
ENDBRANCH   2   3
ENDBRANCH   1   2
BRANCH   1  10
ATOM     10  C   UNL     1     -33.450  13.631  17.047  1.00  0.00     0.000 C 
BRANCH  10  11
ATOM     11  C   UNL     1     -34.263  14.696  17.806  1.00  0.00    -0.000 C 
BRANCH  11  12
ATOM     12  C   UNL     1     -34.845  15.772  16.875  1.00  0.00    -0.000 C 
BRANCH  12  13
ATOM     13  C   UNL     1     -35.138  17.091  17.610  1.00  0.00    -0.000 C 
BRANCH  13  14
ATOM     14  C   UNL     1     -36.645  17.366  17.770  1.00  0.00    -0.000 C 
BRANCH  14  15
ATOM     15  C   UNL     1     -37.557  16.152  17.517  1.00  0.00    -0.003 C 
ATOM     16  C   UNL     1     -38.544  15.897  18.656  1.00  0.00     0.004 C 
ENDBRANCH  14  15
ENDBRANCH  13  14
ENDBRANCH  12  13
ENDBRANCH  11  12
ENDBRANCH  10  11
ENDBRANCH   1  10
TORSDOF 12
ENDMDL
