MODEL 1
REMARK VINA RESULT:    -3.432      0.000      0.000
REMARK INTER + INTRA:          -5.655
REMARK INTER:                  -5.237
REMARK INTRA:                  -0.417
REMARK UNBOUND:                -0.417
REMARK SMILES O=C([O-])CCCCCCCCC(=O)[O-]
REMARK SMILES IDX 7 1 6 2 5 3 4 4 2 5 1 6 3 7 8 8 9 9 10 10 11 11 12 12 13 13
REMARK SMILES IDX 14 14
REMARK H PARENT
REMARK Flexibility Score: inf
ROOT
ATOM      1  C   UNL     1     158.623 145.565 152.089  1.00  0.00     0.000 C 
ENDROOT
BRANCH   1   2
ATOM      2  C   UNL     1     158.611 146.161 153.508  1.00  0.00     0.000 C 
BRANCH   2   3
ATOM      3  C   UNL     1     159.056 147.632 153.533  1.00  0.00     0.006 C 
BRANCH   3   4
ATOM      4  C   UNL     1     159.555 148.073 154.915  1.00  0.00     0.053 C 
BRANCH   4   5
ATOM      5  C   UNL     1     161.040 147.915 155.008  1.00  0.00     0.041 C 
ATOM      6  O   UNL     1     161.651 147.175 154.191  1.00  0.00    -0.550 OA
ATOM      7  O   UNL     1     161.744 148.544 156.026  1.00  0.00    -0.550 OA
ENDBRANCH   4   5
ENDBRANCH   3   4
ENDBRANCH   2   3
ENDBRANCH   1   2
BRANCH   1   8
ATOM      8  C   UNL     1     159.972 144.920 151.732  1.00  0.00     0.000 C 
BRANCH   8   9
ATOM      9  C   UNL     1     160.308 145.040 150.238  1.00  0.00     0.000 C 
BRANCH   9  10
ATOM     10  C   UNL     1     159.035 145.259 149.405  1.00  0.00     0.006 C 
BRANCH  10  11
ATOM     11  C   UNL     1     158.525 143.958 148.771  1.00  0.00     0.053 C 
BRANCH  11  12
ATOM     12  C   UNL     1     157.031 143.947 148.652  1.00  0.00     0.041 C 
ATOM     13  O   UNL     1     156.312 143.975 149.685  1.00  0.00    -0.550 OA
ATOM     14  O   UNL     1     156.435 143.875 147.400  1.00  0.00    -0.550 OA
ENDBRANCH  11  12
ENDBRANCH  10  11
ENDBRANCH   9  10
ENDBRANCH   8   9
ENDBRANCH   1   8
TORSDOF 9
ENDMDL
MODEL 2
REMARK VINA RESULT:    -2.971     15.323     17.190
REMARK INTER + INTRA:          -4.951
REMARK INTER:                  -3.793
REMARK INTRA:                  -1.158
REMARK UNBOUND:                -0.417
REMARK SMILES O=C([O-])CCCCCCCCC(=O)[O-]
REMARK SMILES IDX 7 1 6 2 5 3 4 4 2 5 1 6 3 7 8 8 9 9 10 10 11 11 12 12 13 13
REMARK SMILES IDX 14 14
REMARK H PARENT
REMARK Flexibility Score: inf
ROOT
ATOM      1  C   UNL     1     147.954 144.513 141.517  1.00  0.00     0.000 C 
ENDROOT
BRANCH   1   2
ATOM      2  C   UNL     1     146.529 144.333 140.962  1.00  0.00     0.000 C 
BRANCH   2   3
ATOM      3  C   UNL     1     146.325 145.050 139.618  1.00  0.00     0.006 C 
BRANCH   3   4
ATOM      4  C   UNL     1     145.257 146.149 139.692  1.00  0.00     0.053 C 
BRANCH   4   5
ATOM      5  C   UNL     1     145.893 147.500 139.605  1.00  0.00     0.041 C 
ATOM      6  O   UNL     1     147.138 147.607 139.450  1.00  0.00    -0.550 OA
ATOM      7  O   UNL     1     145.117 148.644 139.744  1.00  0.00    -0.550 OA
ENDBRANCH   4   5
ENDBRANCH   3   4
ENDBRANCH   2   3
ENDBRANCH   1   2
BRANCH   1   8
ATOM      8  C   UNL     1     148.036 145.613 142.586  1.00  0.00     0.000 C 
BRANCH   8   9
ATOM      9  C   UNL     1     146.729 145.766 143.378  1.00  0.00     0.000 C 
BRANCH   9  10
ATOM     10  C   UNL     1     146.215 147.213 143.315  1.00  0.00     0.006 C 
BRANCH  10  11
ATOM     11  C   UNL     1     147.311 148.201 142.893  1.00  0.00     0.053 C 
BRANCH  11  12
ATOM     12  C   UNL     1     146.772 149.589 142.729  1.00  0.00     0.041 C 
ATOM     13  O   UNL     1     147.324 150.394 141.934  1.00  0.00    -0.550 OA
ATOM     14  O   UNL     1     145.680 150.004 143.480  1.00  0.00    -0.550 OA
ENDBRANCH  11  12
ENDBRANCH  10  11
ENDBRANCH   9  10
ENDBRANCH   8   9
ENDBRANCH   1   8
TORSDOF 9
ENDMDL
MODEL 3
REMARK VINA RESULT:    -2.821     15.348     16.656
REMARK INTER + INTRA:          -4.723
REMARK INTER:                  -3.773
REMARK INTRA:                  -0.950
REMARK UNBOUND:                -0.417
REMARK SMILES O=C([O-])CCCCCCCCC(=O)[O-]
REMARK SMILES IDX 7 1 6 2 5 3 4 4 2 5 1 6 3 7 8 8 9 9 10 10 11 11 12 12 13 13
REMARK SMILES IDX 14 14
REMARK H PARENT
REMARK Flexibility Score: inf
ROOT
ATOM      1  C   UNL     1     147.906 145.580 142.674  1.00  0.00     0.000 C 
ENDROOT
BRANCH   1   2
ATOM      2  C   UNL     1     146.562 145.837 143.379  1.00  0.00     0.000 C 
BRANCH   2   3
ATOM      3  C   UNL     1     146.163 147.321 143.363  1.00  0.00     0.006 C 
BRANCH   3   4
ATOM      4  C   UNL     1     147.293 148.230 142.862  1.00  0.00     0.053 C 
BRANCH   4   5
ATOM      5  C   UNL     1     146.821 149.647 142.774  1.00  0.00     0.041 C 
ATOM      6  O   UNL     1     145.838 150.032 143.461  1.00  0.00    -0.550 OA
ATOM      7  O   UNL     1     147.436 150.532 141.897  1.00  0.00    -0.550 OA
ENDBRANCH   4   5
ENDBRANCH   3   4
ENDBRANCH   2   3
ENDBRANCH   1   2
BRANCH   1   8
ATOM      8  C   UNL     1     147.774 144.618 141.483  1.00  0.00     0.000 C 
BRANCH   8   9
ATOM      9  C   UNL     1     146.564 144.942 140.593  1.00  0.00     0.000 C 
BRANCH   9  10
ATOM     10  C   UNL     1     147.009 145.632 139.294  1.00  0.00     0.006 C 
BRANCH  10  11
ATOM     11  C   UNL     1     146.969 147.162 139.407  1.00  0.00     0.053 C 
BRANCH  11  12
ATOM     12  C   UNL     1     145.596 147.702 139.146  1.00  0.00     0.041 C 
ATOM     13  O   UNL     1     144.949 147.328 138.133  1.00  0.00    -0.550 OA
ATOM     14  O   UNL     1     145.044 148.642 140.007  1.00  0.00    -0.550 OA
ENDBRANCH  11  12
ENDBRANCH  10  11
ENDBRANCH   9  10
ENDBRANCH   8   9
ENDBRANCH   1   8
TORSDOF 9
ENDMDL
MODEL 4
REMARK VINA RESULT:    -2.798     14.332     15.522
REMARK INTER + INTRA:          -4.687
REMARK INTER:                  -4.160
REMARK INTRA:                  -0.527
REMARK UNBOUND:                -0.417
REMARK SMILES O=C([O-])CCCCCCCCC(=O)[O-]
REMARK SMILES IDX 7 1 6 2 5 3 4 4 2 5 1 6 3 7 8 8 9 9 10 10 11 11 12 12 13 13
REMARK SMILES IDX 14 14
REMARK H PARENT
REMARK Flexibility Score: inf
ROOT
ATOM      1  C   UNL     1     144.118 149.255 145.552  1.00  0.00     0.000 C 
ENDROOT
BRANCH   1   2
ATOM      2  C   UNL     1     144.493 150.715 145.864  1.00  0.00     0.000 C 
BRANCH   2   3
ATOM      3  C   UNL     1     144.475 151.019 147.371  1.00  0.00     0.006 C 
BRANCH   3   4
ATOM      4  C   UNL     1     144.757 149.777 148.226  1.00  0.00     0.053 C 
BRANCH   4   5
ATOM      5  C   UNL     1     145.774 150.089 149.278  1.00  0.00     0.041 C 
ATOM      6  O   UNL     1     146.271 149.164 149.974  1.00  0.00    -0.550 OA
ATOM      7  O   UNL     1     146.137 151.407 149.525  1.00  0.00    -0.550 OA
ENDBRANCH   4   5
ENDBRANCH   3   4
ENDBRANCH   2   3
ENDBRANCH   1   2
BRANCH   1   8
ATOM      8  C   UNL     1     144.717 148.762 144.226  1.00  0.00     0.000 C 
BRANCH   8   9
ATOM      9  C   UNL     1     145.340 149.899 143.401  1.00  0.00     0.000 C 
BRANCH   9  10
ATOM     10  C   UNL     1     146.765 149.536 142.957  1.00  0.00     0.006 C 
BRANCH  10  11
ATOM     11  C   UNL     1     146.997 148.019 142.930  1.00  0.00     0.053 C 
BRANCH  11  12
ATOM     12  C   UNL     1     146.986 147.481 141.532  1.00  0.00     0.041 C 
ATOM     13  O   UNL     1     146.595 148.203 140.577  1.00  0.00    -0.550 OA
ATOM     14  O   UNL     1     147.377 146.171 141.288  1.00  0.00    -0.550 OA
ENDBRANCH  11  12
ENDBRANCH  10  11
ENDBRANCH   9  10
ENDBRANCH   8   9
ENDBRANCH   1   8
TORSDOF 9
ENDMDL
MODEL 5
REMARK VINA RESULT:    -2.798     14.812     16.474
REMARK INTER + INTRA:          -4.687
REMARK INTER:                  -4.009
REMARK INTRA:                  -0.678
REMARK UNBOUND:                -0.417
REMARK SMILES O=C([O-])CCCCCCCCC(=O)[O-]
REMARK SMILES IDX 7 1 6 2 5 3 4 4 2 5 1 6 3 7 8 8 9 9 10 10 11 11 12 12 13 13
REMARK SMILES IDX 14 14
REMARK H PARENT
REMARK Flexibility Score: inf
ROOT
ATOM      1  C   UNL     1     143.945 152.263 146.363  1.00  0.00     0.000 C 
ENDROOT
BRANCH   1   2
ATOM      2  C   UNL     1     142.969 152.169 147.550  1.00  0.00     0.000 C 
BRANCH   2   3
ATOM      3  C   UNL     1     143.626 151.578 148.807  1.00  0.00     0.006 C 
BRANCH   3   4
ATOM      4  C   UNL     1     145.084 151.162 148.570  1.00  0.00     0.053 C 
BRANCH   4   5
ATOM      5  C   UNL     1     145.267 149.709 148.876  1.00  0.00     0.041 C 
ATOM      6  O   UNL     1     146.171 149.338 149.671  1.00  0.00    -0.550 OA
ATOM      7  O   UNL     1     144.472 148.759 148.247  1.00  0.00    -0.550 OA
ENDBRANCH   4   5
ENDBRANCH   3   4
ENDBRANCH   2   3
ENDBRANCH   1   2
BRANCH   1   8
ATOM      8  C   UNL     1     143.228 152.212 145.005  1.00  0.00     0.000 C 
BRANCH   8   9
ATOM      9  C   UNL     1     143.472 150.892 144.257  1.00  0.00     0.000 C 
BRANCH   9  10
ATOM     10  C   UNL     1     144.763 150.216 144.744  1.00  0.00     0.006 C 
BRANCH  10  11
ATOM     11  C   UNL     1     145.275 149.161 143.754  1.00  0.00     0.053 C 
BRANCH  11  12
ATOM     12  C   UNL     1     146.220 149.751 142.753  1.00  0.00     0.041 C 
ATOM     13  O   UNL     1     147.415 149.988 143.071  1.00  0.00    -0.550 OA
ATOM     14  O   UNL     1     145.771 150.070 141.478  1.00  0.00    -0.550 OA
ENDBRANCH  11  12
ENDBRANCH  10  11
ENDBRANCH   9  10
ENDBRANCH   8   9
ENDBRANCH   1   8
TORSDOF 9
ENDMDL
MODEL 6
REMARK VINA RESULT:    -2.761     15.508     18.280
REMARK INTER + INTRA:          -4.631
REMARK INTER:                  -3.633
REMARK INTRA:                  -0.998
REMARK UNBOUND:                -0.417
REMARK SMILES O=C([O-])CCCCCCCCC(=O)[O-]
REMARK SMILES IDX 7 1 6 2 5 3 4 4 2 5 1 6 3 7 8 8 9 9 10 10 11 11 12 12 13 13
REMARK SMILES IDX 14 14
REMARK H PARENT
REMARK Flexibility Score: inf
ROOT
ATOM      1  C   UNL     1     146.084 145.796 139.883  1.00  0.00     0.000 C 
ENDROOT
BRANCH   1   2
ATOM      2  C   UNL     1     144.814 146.560 139.466  1.00  0.00     0.000 C 
BRANCH   2   3
ATOM      3  C   UNL     1     145.036 148.079 139.394  1.00  0.00     0.006 C 
BRANCH   3   4
ATOM      4  C   UNL     1     143.917 148.871 140.083  1.00  0.00     0.053 C 
BRANCH   4   5
ATOM      5  C   UNL     1     143.947 150.302 139.647  1.00  0.00     0.041 C 
ATOM      6  O   UNL     1     144.290 151.205 140.456  1.00  0.00    -0.550 OA
ATOM      7  O   UNL     1     143.550 150.645 138.361  1.00  0.00    -0.550 OA
ENDBRANCH   4   5
ENDBRANCH   3   4
ENDBRANCH   2   3
ENDBRANCH   1   2
BRANCH   1   8
ATOM      8  C   UNL     1     147.152 146.718 140.491  1.00  0.00     0.000 C 
BRANCH   8   9
ATOM      9  C   UNL     1     147.640 146.232 141.865  1.00  0.00     0.000 C 
BRANCH   9  10
ATOM     10  C   UNL     1     147.560 147.359 142.905  1.00  0.00     0.006 C 
BRANCH  10  11
ATOM     11  C   UNL     1     146.147 147.948 143.017  1.00  0.00     0.053 C 
BRANCH  11  12
ATOM     12  C   UNL     1     146.166 149.446 142.985  1.00  0.00     0.041 C 
ATOM     13  O   UNL     1     145.400 150.106 143.735  1.00  0.00    -0.550 OA
ATOM     14  O   UNL     1     147.008 150.111 142.104  1.00  0.00    -0.550 OA
ENDBRANCH  11  12
ENDBRANCH  10  11
ENDBRANCH   9  10
ENDBRANCH   8   9
ENDBRANCH   1   8
TORSDOF 9
ENDMDL
MODEL 7
REMARK VINA RESULT:    -2.752     14.789     16.558
REMARK INTER + INTRA:          -4.618
REMARK INTER:                  -3.827
REMARK INTRA:                  -0.791
REMARK UNBOUND:                -0.417
REMARK SMILES O=C([O-])CCCCCCCCC(=O)[O-]
REMARK SMILES IDX 7 1 6 2 5 3 4 4 2 5 1 6 3 7 8 8 9 9 10 10 11 11 12 12 13 13
REMARK SMILES IDX 14 14
REMARK H PARENT
REMARK Flexibility Score: inf
ROOT
ATOM      1  C   UNL     1     145.110 150.997 154.165  1.00  0.00     0.000 C 
ENDROOT
BRANCH   1   2
ATOM      2  C   UNL     1     144.032 151.666 153.293  1.00  0.00     0.000 C 
BRANCH   2   3
ATOM      3  C   UNL     1     143.985 151.089 151.869  1.00  0.00     0.006 C 
BRANCH   3   4
ATOM      4  C   UNL     1     144.994 151.761 150.928  1.00  0.00     0.053 C 
BRANCH   4   5
ATOM      5  C   UNL     1     145.622 150.745 150.027  1.00  0.00     0.041 C 
ATOM      6  O   UNL     1     145.883 151.035 148.829  1.00  0.00    -0.550 OA
ATOM      7  O   UNL     1     145.877 149.463 150.496  1.00  0.00    -0.550 OA
ENDBRANCH   4   5
ENDBRANCH   3   4
ENDBRANCH   2   3
ENDBRANCH   1   2
BRANCH   1   8
ATOM      8  C   UNL     1     145.925 152.016 154.979  1.00  0.00     0.000 C 
BRANCH   8   9
ATOM      9  C   UNL     1     145.476 153.464 154.732  1.00  0.00     0.000 C 
BRANCH   9  10
ATOM     10  C   UNL     1     146.587 154.272 154.044  1.00  0.00     0.006 C 
BRANCH  10  11
ATOM     11  C   UNL     1     146.123 154.884 152.715  1.00  0.00     0.053 C 
BRANCH  11  12
ATOM     12  C   UNL     1     145.478 156.221 152.916  1.00  0.00     0.041 C 
ATOM     13  O   UNL     1     144.724 156.701 152.029  1.00  0.00    -0.550 OA
ATOM     14  O   UNL     1     145.734 156.950 154.069  1.00  0.00    -0.550 OA
ENDBRANCH  11  12
ENDBRANCH  10  11
ENDBRANCH   9  10
ENDBRANCH   8   9
ENDBRANCH   1   8
TORSDOF 9
ENDMDL
