MODEL 1
REMARK VINA RESULT:    -5.620      0.000      0.000
REMARK INTER + INTRA:          -9.529
REMARK INTER:                  -8.577
REMARK INTRA:                  -0.952
REMARK UNBOUND:                -0.952
REMARK SMILES CC(=O)CCC=C(C)CCC=C(C)CCC=C(C)C
REMARK SMILES IDX 10 1 11 2 12 3 13 4 14 5 15 6 16 7 18 8 17 9 19 10 9 11 7 12
REMARK SMILES IDX 6 13 8 14 5 15 4 16 2 17 3 18 1 19
REMARK H PARENT
REMARK Flexibility Score: inf
ROOT
ATOM      1  C   UNL     1      12.403  19.140  17.788  1.00  0.00     0.032 C 
ENDROOT
BRANCH   1   2
ATOM      2  C   UNL     1      13.254  18.177  16.999  1.00  0.00    -0.028 C 
ATOM      3  C   UNL     1      14.592  18.047  17.141  1.00  0.00    -0.077 C 
ATOM      4  C   UNL     1      15.369  18.841  18.166  1.00  0.00     0.039 C 
BRANCH   3   5
ATOM      5  C   UNL     1      15.334  17.060  16.261  1.00  0.00     0.034 C 
BRANCH   5   6
ATOM      6  C   UNL     1      14.385  16.031  15.628  1.00  0.00     0.032 C 
BRANCH   6   7
ATOM      7  C   UNL     1      14.666  14.633  16.122  1.00  0.00    -0.028 C 
ATOM      8  C   UNL     1      12.962  13.575  14.622  1.00  0.00     0.039 C 
ATOM      9  C   UNL     1      14.059  13.518  15.659  1.00  0.00    -0.080 C 
ATOM     10  C   UNL     1      14.484  12.184  16.217  1.00  0.00     0.039 C 
ENDBRANCH   6   7
ENDBRANCH   5   6
ENDBRANCH   3   5
ENDBRANCH   1   2
BRANCH   1  11
ATOM     11  C   UNL     1      11.126  19.495  17.019  1.00  0.00     0.034 C 
BRANCH  11  12
ATOM     12  C   UNL     1      11.347  20.698  16.129  1.00  0.00    -0.077 C 
ATOM     13  C   UNL     1      11.976  21.782  16.640  1.00  0.00    -0.028 C 
ATOM     14  C   UNL     1      10.859  20.659  14.700  1.00  0.00     0.039 C 
BRANCH  13  15
ATOM     15  C   UNL     1      12.318  23.026  15.855  1.00  0.00     0.035 C 
BRANCH  15  16
ATOM     16  C   UNL     1      11.752  24.287  16.521  1.00  0.00     0.079 C 
BRANCH  16  17
ATOM     17  C   UNL     1      12.430  25.534  16.011  1.00  0.00     0.130 C 
ATOM     18  O   UNL     1      11.893  26.198  15.137  1.00  0.00    -0.300 OA
ATOM     19  C   UNL     1      13.756  25.977  16.555  1.00  0.00     0.087 C 
ENDBRANCH  16  17
ENDBRANCH  15  16
ENDBRANCH  13  15
ENDBRANCH  11  12
ENDBRANCH   1  11
TORSDOF 9
ENDMDL
MODEL 2
REMARK VINA RESULT:    -5.618      3.636      5.140
REMARK INTER + INTRA:          -9.527
REMARK INTER:                  -8.261
REMARK INTRA:                  -1.265
REMARK UNBOUND:                -0.952
REMARK SMILES CC(=O)CCC=C(C)CCC=C(C)CCC=C(C)C
REMARK SMILES IDX 10 1 11 2 12 3 13 4 14 5 15 6 16 7 18 8 17 9 19 10 9 11 7 12
REMARK SMILES IDX 6 13 8 14 5 15 4 16 2 17 3 18 1 19
REMARK H PARENT
REMARK Flexibility Score: inf
ROOT
ATOM      1  C   UNL     1      12.318  18.876  17.815  1.00  0.00     0.032 C 
ENDROOT
BRANCH   1   2
ATOM      2  C   UNL     1      13.226  17.988  17.000  1.00  0.00    -0.028 C 
ATOM      3  C   UNL     1      14.571  17.940  17.137  1.00  0.00    -0.077 C 
ATOM      4  C   UNL     1      15.297  18.755  18.182  1.00  0.00     0.039 C 
BRANCH   3   5
ATOM      5  C   UNL     1      15.371  17.024  16.232  1.00  0.00     0.034 C 
BRANCH   5   6
ATOM      6  C   UNL     1      14.480  15.986  15.535  1.00  0.00     0.032 C 
BRANCH   6   7
ATOM      7  C   UNL     1      14.725  14.593  16.063  1.00  0.00    -0.028 C 
ATOM      8  C   UNL     1      12.868  13.573  14.727  1.00  0.00     0.039 C 
ATOM      9  C   UNL     1      14.032  13.496  15.688  1.00  0.00    -0.080 C 
ATOM     10  C   UNL     1      14.428  12.163  16.268  1.00  0.00     0.039 C 
ENDBRANCH   6   7
ENDBRANCH   5   6
ENDBRANCH   3   5
ENDBRANCH   1   2
BRANCH   1  11
ATOM     11  C   UNL     1      11.713  19.982  16.942  1.00  0.00     0.034 C 
BRANCH  11  12
ATOM     12  C   UNL     1      10.698  19.413  15.976  1.00  0.00    -0.077 C 
ATOM     13  C   UNL     1       9.497  19.011  16.452  1.00  0.00    -0.028 C 
ATOM     14  C   UNL     1      11.053  19.305  14.512  1.00  0.00     0.039 C 
BRANCH  13  15
ATOM     15  C   UNL     1       8.369  18.481  15.598  1.00  0.00     0.035 C 
BRANCH  15  16
ATOM     16  C   UNL     1       7.877  17.115  16.096  1.00  0.00     0.079 C 
BRANCH  16  17
ATOM     17  C   UNL     1       7.960  16.069  15.014  1.00  0.00     0.130 C 
ATOM     18  O   UNL     1       6.997  15.350  14.795  1.00  0.00    -0.300 OA
ATOM     19  C   UNL     1       9.206  15.890  14.197  1.00  0.00     0.087 C 
ENDBRANCH  16  17
ENDBRANCH  15  16
ENDBRANCH  13  15
ENDBRANCH  11  12
ENDBRANCH   1  11
TORSDOF 9
ENDMDL
MODEL 3
REMARK VINA RESULT:    -5.487      4.394      7.730
REMARK INTER + INTRA:          -9.327
REMARK INTER:                  -8.298
REMARK INTRA:                  -1.029
REMARK UNBOUND:                -0.952
REMARK SMILES CC(=O)CCC=C(C)CCC=C(C)CCC=C(C)C
REMARK SMILES IDX 10 1 11 2 12 3 13 4 14 5 15 6 16 7 18 8 17 9 19 10 9 11 7 12
REMARK SMILES IDX 6 13 8 14 5 15 4 16 2 17 3 18 1 19
REMARK H PARENT
REMARK Flexibility Score: inf
ROOT
ATOM      1  C   UNL     1      12.276  19.845  16.713  1.00  0.00     0.032 C 
ENDROOT
BRANCH   1   2
ATOM      2  C   UNL     1      10.777  19.681  16.724  1.00  0.00    -0.028 C 
ATOM      3  C   UNL     1      10.091  18.882  15.876  1.00  0.00    -0.077 C 
ATOM      4  C   UNL     1      10.789  18.020  14.848  1.00  0.00     0.039 C 
BRANCH   3   5
ATOM      5  C   UNL     1       8.579  18.830  15.972  1.00  0.00     0.034 C 
BRANCH   5   6
ATOM      6  C   UNL     1       8.044  17.398  15.824  1.00  0.00     0.032 C 
BRANCH   6   7
ATOM      7  C   UNL     1       6.539  17.373  15.705  1.00  0.00    -0.028 C 
ATOM      8  C   UNL     1       6.510  15.275  14.335  1.00  0.00     0.039 C 
ATOM      9  C   UNL     1       5.835  16.412  15.067  1.00  0.00    -0.080 C 
ATOM     10  C   UNL     1       4.330  16.498  15.078  1.00  0.00     0.039 C 
ENDBRANCH   6   7
ENDBRANCH   5   6
ENDBRANCH   3   5
ENDBRANCH   1   2
BRANCH   1  11
ATOM     11  C   UNL     1      12.902  19.215  17.963  1.00  0.00     0.034 C 
BRANCH  11  12
ATOM     12  C   UNL     1      14.096  18.362  17.597  1.00  0.00    -0.077 C 
ATOM     13  C   UNL     1      13.926  17.334  16.734  1.00  0.00    -0.028 C 
ATOM     14  C   UNL     1      15.442  18.677  18.206  1.00  0.00     0.039 C 
BRANCH  13  15
ATOM     15  C   UNL     1      15.036  16.439  16.234  1.00  0.00     0.035 C 
BRANCH  15  16
ATOM     16  C   UNL     1      14.612  15.657  14.984  1.00  0.00     0.079 C 
BRANCH  16  17
ATOM     17  C   UNL     1      14.161  14.261  15.332  1.00  0.00     0.130 C 
ATOM     18  O   UNL     1      13.137  13.816  14.835  1.00  0.00    -0.300 OA
ATOM     19  C   UNL     1      14.945  13.402  16.280  1.00  0.00     0.087 C 
ENDBRANCH  16  17
ENDBRANCH  15  16
ENDBRANCH  13  15
ENDBRANCH  11  12
ENDBRANCH   1  11
TORSDOF 9
ENDMDL
MODEL 4
REMARK VINA RESULT:    -5.458      2.244      4.769
REMARK INTER + INTRA:          -9.282
REMARK INTER:                  -8.285
REMARK INTRA:                  -0.997
REMARK UNBOUND:                -0.952
REMARK SMILES CC(=O)CCC=C(C)CCC=C(C)CCC=C(C)C
REMARK SMILES IDX 10 1 11 2 12 3 13 4 14 5 15 6 16 7 18 8 17 9 19 10 9 11 7 12
REMARK SMILES IDX 6 13 8 14 5 15 4 16 2 17 3 18 1 19
REMARK H PARENT
REMARK Flexibility Score: inf
ROOT
ATOM      1  C   UNL     1      12.453  23.007  15.976  1.00  0.00     0.032 C 
ENDROOT
BRANCH   1   2
ATOM      2  C   UNL     1      12.068  21.725  16.672  1.00  0.00    -0.028 C 
ATOM      3  C   UNL     1      11.364  20.725  16.095  1.00  0.00    -0.077 C 
ATOM      4  C   UNL     1      10.933  20.783  14.647  1.00  0.00     0.039 C 
BRANCH   3   5
ATOM      5  C   UNL     1      11.014  19.500  16.916  1.00  0.00     0.034 C 
BRANCH   5   6
ATOM      6  C   UNL     1      12.208  19.010  17.749  1.00  0.00     0.032 C 
BRANCH   6   7
ATOM      7  C   UNL     1      13.125  18.121  16.944  1.00  0.00    -0.028 C 
ATOM      8  C   UNL     1      15.180  18.813  18.198  1.00  0.00     0.039 C 
ATOM      9  C   UNL     1      14.454  17.999  17.152  1.00  0.00    -0.080 C 
ATOM     10  C   UNL     1      15.229  17.030  16.296  1.00  0.00     0.039 C 
ENDBRANCH   6   7
ENDBRANCH   5   6
ENDBRANCH   3   5
ENDBRANCH   1   2
BRANCH   1  11
ATOM     11  C   UNL     1      11.700  24.200  16.576  1.00  0.00     0.034 C 
BRANCH  11  12
ATOM     12  C   UNL     1      12.120  25.492  15.912  1.00  0.00    -0.077 C 
ATOM     13  C   UNL     1      13.216  26.137  16.373  1.00  0.00    -0.028 C 
ATOM     14  C   UNL     1      11.304  26.029  14.760  1.00  0.00     0.039 C 
BRANCH  13  15
ATOM     15  C   UNL     1      13.785  27.401  15.772  1.00  0.00     0.035 C 
BRANCH  15  16
ATOM     16  C   UNL     1      14.895  27.095  14.758  1.00  0.00     0.079 C 
BRANCH  16  17
ATOM     17  C   UNL     1      16.261  27.184  15.390  1.00  0.00     0.130 C 
ATOM     18  O   UNL     1      16.824  28.265  15.461  1.00  0.00    -0.300 OA
ATOM     19  C   UNL     1      16.948  25.966  15.934  1.00  0.00     0.087 C 
ENDBRANCH  16  17
ENDBRANCH  15  16
ENDBRANCH  13  15
ENDBRANCH  11  12
ENDBRANCH   1  11
TORSDOF 9
ENDMDL
MODEL 5
REMARK VINA RESULT:    -5.433      4.344      6.423
REMARK INTER + INTRA:          -9.243
REMARK INTER:                  -7.689
REMARK INTRA:                  -1.554
REMARK UNBOUND:                -0.952
REMARK SMILES CC(=O)CCC=C(C)CCC=C(C)CCC=C(C)C
REMARK SMILES IDX 10 1 11 2 12 3 13 4 14 5 15 6 16 7 18 8 17 9 19 10 9 11 7 12
REMARK SMILES IDX 6 13 8 14 5 15 4 16 2 17 3 18 1 19
REMARK H PARENT
REMARK Flexibility Score: inf
ROOT
ATOM      1  C   UNL     1      10.344  19.486  16.597  1.00  0.00     0.032 C 
ENDROOT
BRANCH   1   2
ATOM      2  C   UNL     1      11.623  19.213  17.349  1.00  0.00    -0.028 C 
ATOM      3  C   UNL     1      12.748  19.956  17.238  1.00  0.00    -0.077 C 
ATOM      4  C   UNL     1      12.808  21.189  16.365  1.00  0.00     0.039 C 
BRANCH   3   5
ATOM      5  C   UNL     1      13.978  19.555  18.028  1.00  0.00     0.034 C 
BRANCH   5   6
ATOM      6  C   UNL     1      15.054  18.925  17.132  1.00  0.00     0.032 C 
BRANCH   6   7
ATOM      7  C   UNL     1      14.891  17.427  17.032  1.00  0.00    -0.028 C 
ATOM      8  C   UNL     1      13.888  17.515  14.739  1.00  0.00     0.039 C 
ATOM      9  C   UNL     1      14.399  16.777  15.954  1.00  0.00    -0.080 C 
ATOM     10  C   UNL     1      14.346  15.271  15.986  1.00  0.00     0.039 C 
ENDBRANCH   6   7
ENDBRANCH   5   6
ENDBRANCH   3   5
ENDBRANCH   1   2
BRANCH   1  11
ATOM     11  C   UNL     1      10.364  18.801  15.225  1.00  0.00     0.034 C 
BRANCH  11  12
ATOM     12  C   UNL     1       9.338  17.692  15.161  1.00  0.00    -0.077 C 
ATOM     13  C   UNL     1       8.344  17.667  16.079  1.00  0.00    -0.028 C 
ATOM     14  C   UNL     1       9.452  16.643  14.080  1.00  0.00     0.039 C 
BRANCH  13  15
ATOM     15  C   UNL     1       7.220  16.657  16.101  1.00  0.00     0.035 C 
BRANCH  15  16
ATOM     16  C   UNL     1       5.922  17.244  15.530  1.00  0.00     0.079 C 
BRANCH  16  17
ATOM     17  C   UNL     1       5.457  16.481  14.316  1.00  0.00     0.130 C 
ATOM     18  O   UNL     1       5.930  16.745  13.221  1.00  0.00    -0.300 OA
ATOM     19  C   UNL     1       4.421  15.402  14.424  1.00  0.00     0.087 C 
ENDBRANCH  16  17
ENDBRANCH  15  16
ENDBRANCH  13  15
ENDBRANCH  11  12
ENDBRANCH   1  11
TORSDOF 9
ENDMDL
MODEL 6
REMARK VINA RESULT:    -5.417      1.748      3.411
REMARK INTER + INTRA:          -9.219
REMARK INTER:                  -7.945
REMARK INTRA:                  -1.274
REMARK UNBOUND:                -0.952
REMARK SMILES CC(=O)CCC=C(C)CCC=C(C)CCC=C(C)C
REMARK SMILES IDX 10 1 11 2 12 3 13 4 14 5 15 6 16 7 18 8 17 9 19 10 9 11 7 12
REMARK SMILES IDX 6 13 8 14 5 15 4 16 2 17 3 18 1 19
REMARK H PARENT
REMARK Flexibility Score: inf
ROOT
ATOM      1  C   UNL     1      11.925  21.509  16.049  1.00  0.00     0.032 C 
ENDROOT
BRANCH   1   2
ATOM      2  C   UNL     1      13.211  20.884  16.527  1.00  0.00    -0.028 C 
ATOM      3  C   UNL     1      13.285  19.908  17.461  1.00  0.00    -0.077 C 
ATOM      4  C   UNL     1      12.048  19.306  18.088  1.00  0.00     0.039 C 
BRANCH   3   5
ATOM      5  C   UNL     1      14.647  19.386  17.875  1.00  0.00     0.034 C 
BRANCH   5   6
ATOM      6  C   UNL     1      15.372  18.691  16.713  1.00  0.00     0.032 C 
BRANCH   6   7
ATOM      7  C   UNL     1      15.166  17.196  16.739  1.00  0.00    -0.028 C 
ATOM      8  C   UNL     1      13.503  17.218  14.865  1.00  0.00     0.039 C 
ATOM      9  C   UNL     1      14.355  16.517  15.897  1.00  0.00    -0.080 C 
ATOM     10  C   UNL     1      14.293  15.016  16.015  1.00  0.00     0.039 C 
ENDBRANCH   6   7
ENDBRANCH   5   6
ENDBRANCH   3   5
ENDBRANCH   1   2
BRANCH   1  11
ATOM     11  C   UNL     1      12.207  22.644  15.058  1.00  0.00     0.034 C 
BRANCH  11  12
ATOM     12  C   UNL     1      12.563  23.921  15.786  1.00  0.00    -0.077 C 
ATOM     13  C   UNL     1      13.772  24.487  15.561  1.00  0.00    -0.028 C 
ATOM     14  C   UNL     1      11.566  24.526  16.746  1.00  0.00     0.039 C 
BRANCH  13  15
ATOM     15  C   UNL     1      14.238  25.788  16.170  1.00  0.00     0.035 C 
BRANCH  15  16
ATOM     16  C   UNL     1      15.239  26.511  15.259  1.00  0.00     0.079 C 
BRANCH  16  17
ATOM     17  C   UNL     1      14.937  27.985  15.165  1.00  0.00     0.130 C 
ATOM     18  O   UNL     1      15.855  28.791  15.166  1.00  0.00    -0.300 OA
ATOM     19  C   UNL     1      13.526  28.487  15.070  1.00  0.00     0.087 C 
ENDBRANCH  16  17
ENDBRANCH  15  16
ENDBRANCH  13  15
ENDBRANCH  11  12
ENDBRANCH   1  11
TORSDOF 9
ENDMDL
MODEL 7
REMARK VINA RESULT:    -5.410      2.809      5.090
REMARK INTER + INTRA:          -9.208
REMARK INTER:                  -7.689
REMARK INTRA:                  -1.520
REMARK UNBOUND:                -0.952
REMARK SMILES CC(=O)CCC=C(C)CCC=C(C)CCC=C(C)C
REMARK SMILES IDX 10 1 11 2 12 3 13 4 14 5 15 6 16 7 18 8 17 9 19 10 9 11 7 12
REMARK SMILES IDX 6 13 8 14 5 15 4 16 2 17 3 18 1 19
REMARK H PARENT
REMARK Flexibility Score: inf
ROOT
ATOM      1  C   UNL     1      15.297  15.971  15.966  1.00  0.00     0.032 C 
ENDROOT
BRANCH   1   2
ATOM      2  C   UNL     1      14.126  15.117  15.548  1.00  0.00    -0.028 C 
ATOM      3  C   UNL     1      14.045  13.782  15.746  1.00  0.00    -0.077 C 
ATOM      4  C   UNL     1      15.128  13.014  16.469  1.00  0.00     0.039 C 
BRANCH   3   5
ATOM      5  C   UNL     1      12.823  13.035  15.250  1.00  0.00     0.034 C 
BRANCH   5   6
ATOM      6  C   UNL     1      12.285  13.626  13.938  1.00  0.00     0.032 C 
BRANCH   6   7
ATOM      7  C   UNL     1      10.821  13.977  14.042  1.00  0.00    -0.028 C 
ATOM      8  C   UNL     1      11.218  16.440  13.814  1.00  0.00     0.039 C 
ATOM      9  C   UNL     1      10.323  15.231  13.957  1.00  0.00    -0.080 C 
ATOM     10  C   UNL     1       8.830  15.417  14.029  1.00  0.00     0.039 C 
ENDBRANCH   6   7
ENDBRANCH   5   6
ENDBRANCH   3   5
ENDBRANCH   1   2
BRANCH   1  11
ATOM     11  C   UNL     1      15.044  17.445  15.627  1.00  0.00     0.034 C 
BRANCH  11  12
ATOM     12  C   UNL     1      14.403  18.164  16.794  1.00  0.00    -0.077 C 
ATOM     13  C   UNL     1      13.068  18.388  16.770  1.00  0.00    -0.028 C 
ATOM     14  C   UNL     1      15.267  18.615  17.947  1.00  0.00     0.039 C 
BRANCH  13  15
ATOM     15  C   UNL     1      12.287  19.038  17.888  1.00  0.00     0.035 C 
BRANCH  15  16
ATOM     16  C   UNL     1      11.415  20.190  17.371  1.00  0.00     0.079 C 
BRANCH  16  17
ATOM     17  C   UNL     1      10.581  19.766  16.189  1.00  0.00     0.130 C 
ATOM     18  O   UNL     1      10.805  20.248  15.089  1.00  0.00    -0.300 OA
ATOM     19  C   UNL     1       9.476  18.761  16.335  1.00  0.00     0.087 C 
ENDBRANCH  16  17
ENDBRANCH  15  16
ENDBRANCH  13  15
ENDBRANCH  11  12
ENDBRANCH   1  11
TORSDOF 9
ENDMDL
MODEL 8
REMARK VINA RESULT:    -5.275      3.391      5.536
REMARK INTER + INTRA:          -9.003
REMARK INTER:                  -7.101
REMARK INTRA:                  -1.902
REMARK UNBOUND:                -0.952
REMARK SMILES CC(=O)CCC=C(C)CCC=C(C)CCC=C(C)C
REMARK SMILES IDX 10 1 11 2 12 3 13 4 14 5 15 6 16 7 18 8 17 9 19 10 9 11 7 12
REMARK SMILES IDX 6 13 8 14 5 15 4 16 2 17 3 18 1 19
REMARK H PARENT
REMARK Flexibility Score: inf
ROOT
ATOM      1  C   UNL     1      11.771  21.326  16.071  1.00  0.00     0.032 C 
ENDROOT
BRANCH   1   2
ATOM      2  C   UNL     1      13.102  20.748  16.482  1.00  0.00    -0.028 C 
ATOM      3  C   UNL     1      13.282  19.918  17.534  1.00  0.00    -0.077 C 
ATOM      4  C   UNL     1      12.126  19.441  18.383  1.00  0.00     0.039 C 
BRANCH   3   5
ATOM      5  C   UNL     1      14.681  19.432  17.858  1.00  0.00     0.034 C 
BRANCH   5   6
ATOM      6  C   UNL     1      15.287  18.619  16.705  1.00  0.00     0.032 C 
BRANCH   6   7
ATOM      7  C   UNL     1      14.862  17.171  16.758  1.00  0.00    -0.028 C 
ATOM      8  C   UNL     1      14.891  16.893  14.268  1.00  0.00     0.039 C 
ATOM      9  C   UNL     1      14.709  16.375  15.676  1.00  0.00    -0.080 C 
ATOM     10  C   UNL     1      14.328  14.934  15.894  1.00  0.00     0.039 C 
ENDBRANCH   6   7
ENDBRANCH   5   6
ENDBRANCH   3   5
ENDBRANCH   1   2
BRANCH   1  11
ATOM     11  C   UNL     1      11.240  20.627  14.813  1.00  0.00     0.034 C 
BRANCH  11  12
ATOM     12  C   UNL     1      10.616  19.293  15.159  1.00  0.00    -0.077 C 
ATOM     13  C   UNL     1       9.474  19.275  15.885  1.00  0.00    -0.028 C 
ATOM     14  C   UNL     1      11.284  18.023  14.691  1.00  0.00     0.039 C 
BRANCH  13  15
ATOM     15  C   UNL     1       8.710  18.024  16.253  1.00  0.00     0.035 C 
BRANCH  15  16
ATOM     16  C   UNL     1       7.441  17.868  15.405  1.00  0.00     0.079 C 
BRANCH  16  17
ATOM     17  C   UNL     1       7.582  16.756  14.396  1.00  0.00     0.130 C 
ATOM     18  O   UNL     1       8.156  16.969  13.340  1.00  0.00    -0.300 OA
ATOM     19  C   UNL     1       7.028  15.387  14.664  1.00  0.00     0.087 C 
ENDBRANCH  16  17
ENDBRANCH  15  16
ENDBRANCH  13  15
ENDBRANCH  11  12
ENDBRANCH   1  11
TORSDOF 9
ENDMDL
MODEL 9
REMARK VINA RESULT:    -5.265      2.950      8.698
REMARK INTER + INTRA:          -8.987
REMARK INTER:                  -7.599
REMARK INTRA:                  -1.388
REMARK UNBOUND:                -0.952
REMARK SMILES CC(=O)CCC=C(C)CCC=C(C)CCC=C(C)C
REMARK SMILES IDX 10 1 11 2 12 3 13 4 14 5 15 6 16 7 18 8 17 9 19 10 9 11 7 12
REMARK SMILES IDX 6 13 8 14 5 15 4 16 2 17 3 18 1 19
REMARK H PARENT
REMARK Flexibility Score: inf
ROOT
ATOM      1  C   UNL     1      11.376  19.697  16.913  1.00  0.00     0.032 C 
ENDROOT
BRANCH   1   2
ATOM      2  C   UNL     1      11.770  21.112  16.574  1.00  0.00    -0.028 C 
ATOM      3  C   UNL     1      12.497  21.463  15.488  1.00  0.00    -0.077 C 
ATOM      4  C   UNL     1      12.947  20.446  14.465  1.00  0.00     0.039 C 
BRANCH   3   5
ATOM      5  C   UNL     1      12.852  22.922  15.279  1.00  0.00     0.034 C 
BRANCH   5   6
ATOM      6  C   UNL     1      12.107  23.839  16.261  1.00  0.00     0.032 C 
BRANCH   6   7
ATOM      7  C   UNL     1      11.837  25.198  15.661  1.00  0.00    -0.028 C 
ATOM      8  C   UNL     1      13.897  26.232  16.642  1.00  0.00     0.039 C 
ATOM      9  C   UNL     1      12.645  26.273  15.797  1.00  0.00    -0.080 C 
ATOM     10  C   UNL     1      12.264  27.551  15.095  1.00  0.00     0.039 C 
ENDBRANCH   6   7
ENDBRANCH   5   6
ENDBRANCH   3   5
ENDBRANCH   1   2
BRANCH   1  11
ATOM     11  C   UNL     1      12.204  19.169  18.091  1.00  0.00     0.034 C 
BRANCH  11  12
ATOM     12  C   UNL     1      13.559  18.686  17.625  1.00  0.00    -0.077 C 
ATOM     13  C   UNL     1      13.625  17.603  16.816  1.00  0.00    -0.028 C 
ATOM     14  C   UNL     1      14.800  19.421  18.075  1.00  0.00     0.039 C 
BRANCH  13  15
ATOM     15  C   UNL     1      14.900  17.047  16.227  1.00  0.00     0.035 C 
BRANCH  15  16
ATOM     16  C   UNL     1      14.655  16.401  14.857  1.00  0.00     0.079 C 
BRANCH  16  17
ATOM     17  C   UNL     1      14.426  14.916  14.978  1.00  0.00     0.130 C 
ATOM     18  O   UNL     1      13.740  14.341  14.147  1.00  0.00    -0.300 OA
ATOM     19  C   UNL     1      15.025  14.125  16.103  1.00  0.00     0.087 C 
ENDBRANCH  16  17
ENDBRANCH  15  16
ENDBRANCH  13  15
ENDBRANCH  11  12
ENDBRANCH   1  11
TORSDOF 9
ENDMDL
