MODEL 1
REMARK VINA RESULT:    -4.006      0.000      0.000
REMARK INTER + INTRA:         -10.581
REMARK INTER:                  -7.752
REMARK INTRA:                  -2.829
REMARK UNBOUND:                -2.829
REMARK SMILES CCCCCCCCCCCCCCCCCC(=O)[O-]
REMARK SMILES IDX 10 1 11 2 12 3 13 4 14 5 15 6 16 7 17 8 18 9 19 10 20 11
REMARK SMILES IDX 9 12 8 13 7 14 6 15 5 16 4 17 3 18 2 19 1 20
REMARK H PARENT
REMARK Flexibility Score: inf
ROOT
ATOM      1  C   UNL     1      51.927  23.325  35.459  1.00  0.00     0.000 C 
ENDROOT
BRANCH   1   2
ATOM      2  C   UNL     1      53.121  23.228  34.492  1.00  0.00     0.000 C 
BRANCH   2   3
ATOM      3  C   UNL     1      53.173  24.386  33.485  1.00  0.00     0.000 C 
BRANCH   3   4
ATOM      4  C   UNL     1      54.584  24.992  33.411  1.00  0.00     0.000 C 
BRANCH   4   5
ATOM      5  C   UNL     1      54.650  26.393  34.057  1.00  0.00     0.000 C 
BRANCH   5   6
ATOM      6  C   UNL     1      53.321  27.165  33.992  1.00  0.00     0.000 C 
BRANCH   6   7
ATOM      7  C   UNL     1      53.495  28.676  34.219  1.00  0.00     0.006 C 
BRANCH   7   8
ATOM      8  C   UNL     1      52.666  29.184  35.405  1.00  0.00     0.053 C 
BRANCH   8   9
ATOM      9  C   UNL     1      53.533  29.629  36.543  1.00  0.00     0.041 C 
ATOM     10  O   UNL     1      53.404  30.787  37.021  1.00  0.00    -0.550 OA
ATOM     11  O   UNL     1      54.497  28.773  37.061  1.00  0.00    -0.550 OA
ENDBRANCH   8   9
ENDBRANCH   7   8
ENDBRANCH   6   7
ENDBRANCH   5   6
ENDBRANCH   4   5
ENDBRANCH   3   4
ENDBRANCH   2   3
ENDBRANCH   1   2
BRANCH   1  12
ATOM     12  C   UNL     1      51.795  24.666  36.206  1.00  0.00     0.000 C 
BRANCH  12  13
ATOM     13  C   UNL     1      50.337  25.139  36.330  1.00  0.00    -0.000 C 
BRANCH  13  14
ATOM     14  C   UNL     1      50.110  26.540  35.733  1.00  0.00    -0.000 C 
BRANCH  14  15
ATOM     15  C   UNL     1      49.218  26.586  34.475  1.00  0.00    -0.000 C 
BRANCH  15  16
ATOM     16  C   UNL     1      49.884  26.078  33.183  1.00  0.00    -0.000 C 
BRANCH  16  17
ATOM     17  C   UNL     1      49.575  24.602  32.893  1.00  0.00    -0.000 C 
BRANCH  17  18
ATOM     18  C   UNL     1      48.214  24.202  33.478  1.00  0.00    -0.000 C 
BRANCH  18  19
ATOM     19  C   UNL     1      48.298  22.955  34.371  1.00  0.00    -0.003 C 
ATOM     20  C   UNL     1      49.065  21.807  33.714  1.00  0.00     0.004 C 
ENDBRANCH  18  19
ENDBRANCH  17  18
ENDBRANCH  16  17
ENDBRANCH  15  16
ENDBRANCH  14  15
ENDBRANCH  13  14
ENDBRANCH  12  13
ENDBRANCH   1  12
TORSDOF 16
ENDMDL
MODEL 2
REMARK VINA RESULT:    -3.984      2.356      4.091
REMARK INTER + INTRA:         -10.540
REMARK INTER:                  -8.080
REMARK INTRA:                  -2.459
REMARK UNBOUND:                -2.829
REMARK SMILES CCCCCCCCCCCCCCCCCC(=O)[O-]
REMARK SMILES IDX 10 1 11 2 12 3 13 4 14 5 15 6 16 7 17 8 18 9 19 10 20 11
REMARK SMILES IDX 9 12 8 13 7 14 6 15 5 16 4 17 3 18 2 19 1 20
REMARK H PARENT
REMARK Flexibility Score: inf
ROOT
ATOM      1  C   UNL     1      51.773  26.601  33.723  1.00  0.00     0.000 C 
ENDROOT
BRANCH   1   2
ATOM      2  C   UNL     1      51.692  27.688  34.811  1.00  0.00     0.000 C 
BRANCH   2   3
ATOM      3  C   UNL     1      53.054  28.321  35.130  1.00  0.00     0.000 C 
BRANCH   3   4
ATOM      4  C   UNL     1      54.043  28.120  33.971  1.00  0.00     0.000 C 
BRANCH   4   5
ATOM      5  C   UNL     1      55.488  27.902  34.470  1.00  0.00     0.000 C 
BRANCH   5   6
ATOM      6  C   UNL     1      55.691  28.267  35.950  1.00  0.00     0.000 C 
BRANCH   6   7
ATOM      7  C   UNL     1      56.729  29.383  36.154  1.00  0.00     0.006 C 
BRANCH   7   8
ATOM      8  C   UNL     1      56.316  30.366  37.257  1.00  0.00     0.053 C 
BRANCH   8   9
ATOM      9  C   UNL     1      57.323  31.459  37.438  1.00  0.00     0.041 C 
ATOM     10  O   UNL     1      58.351  31.499  36.711  1.00  0.00    -0.550 OA
ATOM     11  O   UNL     1      57.139  32.422  38.422  1.00  0.00    -0.550 OA
ENDBRANCH   8   9
ENDBRANCH   7   8
ENDBRANCH   6   7
ENDBRANCH   5   6
ENDBRANCH   4   5
ENDBRANCH   3   4
ENDBRANCH   2   3
ENDBRANCH   1   2
BRANCH   1  12
ATOM     12  C   UNL     1      50.433  26.238  33.057  1.00  0.00     0.000 C 
BRANCH  12  13
ATOM     13  C   UNL     1      49.235  26.377  34.012  1.00  0.00    -0.000 C 
BRANCH  13  14
ATOM     14  C   UNL     1      48.667  25.018  34.460  1.00  0.00    -0.000 C 
BRANCH  14  15
ATOM     15  C   UNL     1      49.411  24.343  35.630  1.00  0.00    -0.000 C 
BRANCH  15  16
ATOM     16  C   UNL     1      50.273  23.128  35.242  1.00  0.00    -0.000 C 
BRANCH  16  17
ATOM     17  C   UNL     1      51.757  23.314  35.587  1.00  0.00    -0.000 C 
BRANCH  17  18
ATOM     18  C   UNL     1      51.938  24.383  36.675  1.00  0.00    -0.000 C 
BRANCH  18  19
ATOM     19  C   UNL     1      53.364  24.951  36.715  1.00  0.00    -0.003 C 
ATOM     20  C   UNL     1      54.220  24.485  35.538  1.00  0.00     0.004 C 
ENDBRANCH  18  19
ENDBRANCH  17  18
ENDBRANCH  16  17
ENDBRANCH  15  16
ENDBRANCH  14  15
ENDBRANCH  13  14
ENDBRANCH  12  13
ENDBRANCH   1  12
TORSDOF 16
ENDMDL
MODEL 3
REMARK VINA RESULT:    -3.975      2.110      3.581
REMARK INTER + INTRA:         -10.521
REMARK INTER:                  -8.507
REMARK INTRA:                  -2.014
REMARK UNBOUND:                -2.829
REMARK SMILES CCCCCCCCCCCCCCCCCC(=O)[O-]
REMARK SMILES IDX 10 1 11 2 12 3 13 4 14 5 15 6 16 7 17 8 18 9 19 10 20 11
REMARK SMILES IDX 9 12 8 13 7 14 6 15 5 16 4 17 3 18 2 19 1 20
REMARK H PARENT
REMARK Flexibility Score: inf
ROOT
ATOM      1  C   UNL     1      52.629  26.278  34.879  1.00  0.00     0.000 C 
ENDROOT
BRANCH   1   2
ATOM      2  C   UNL     1      53.939  27.084  34.821  1.00  0.00     0.000 C 
BRANCH   2   3
ATOM      3  C   UNL     1      53.726  28.546  34.398  1.00  0.00     0.000 C 
BRANCH   3   4
ATOM      4  C   UNL     1      52.562  29.181  35.174  1.00  0.00     0.000 C 
BRANCH   4   5
ATOM      5  C   UNL     1      53.016  30.393  36.016  1.00  0.00     0.000 C 
BRANCH   5   6
ATOM      6  C   UNL     1      53.632  30.006  37.372  1.00  0.00     0.000 C 
BRANCH   6   7
ATOM      7  C   UNL     1      54.705  31.000  37.847  1.00  0.00     0.006 C 
BRANCH   7   8
ATOM      8  C   UNL     1      56.108  30.616  37.358  1.00  0.00     0.053 C 
BRANCH   8   9
ATOM      9  C   UNL     1      57.056  31.773  37.418  1.00  0.00     0.041 C 
ATOM     10  O   UNL     1      56.799  32.765  38.150  1.00  0.00    -0.550 OA
ATOM     11  O   UNL     1      58.214  31.767  36.649  1.00  0.00    -0.550 OA
ENDBRANCH   8   9
ENDBRANCH   7   8
ENDBRANCH   6   7
ENDBRANCH   5   6
ENDBRANCH   4   5
ENDBRANCH   3   4
ENDBRANCH   2   3
ENDBRANCH   1   2
BRANCH   1  12
ATOM     12  C   UNL     1      52.185  25.652  33.543  1.00  0.00     0.000 C 
BRANCH  12  13
ATOM     13  C   UNL     1      50.848  26.218  33.034  1.00  0.00    -0.000 C 
BRANCH  13  14
ATOM     14  C   UNL     1      49.942  26.725  34.170  1.00  0.00    -0.000 C 
BRANCH  14  15
ATOM     15  C   UNL     1      48.771  25.794  34.548  1.00  0.00    -0.000 C 
BRANCH  15  16
ATOM     16  C   UNL     1      48.465  24.683  33.528  1.00  0.00    -0.000 C 
BRANCH  16  17
ATOM     17  C   UNL     1      48.813  23.281  34.050  1.00  0.00    -0.000 C 
BRANCH  17  18
ATOM     18  C   UNL     1      49.419  23.356  35.459  1.00  0.00    -0.000 C 
BRANCH  18  19
ATOM     19  C   UNL     1      50.886  22.902  35.496  1.00  0.00    -0.003 C 
ATOM     20  C   UNL     1      51.259  22.007  34.316  1.00  0.00     0.004 C 
ENDBRANCH  18  19
ENDBRANCH  17  18
ENDBRANCH  16  17
ENDBRANCH  15  16
ENDBRANCH  14  15
ENDBRANCH  13  14
ENDBRANCH  12  13
ENDBRANCH   1  12
TORSDOF 16
ENDMDL
MODEL 4
REMARK VINA RESULT:    -3.970      2.439      4.888
REMARK INTER + INTRA:         -10.512
REMARK INTER:                  -8.268
REMARK INTRA:                  -2.244
REMARK UNBOUND:                -2.829
REMARK SMILES CCCCCCCCCCCCCCCCCC(=O)[O-]
REMARK SMILES IDX 10 1 11 2 12 3 13 4 14 5 15 6 16 7 17 8 18 9 19 10 20 11
REMARK SMILES IDX 9 12 8 13 7 14 6 15 5 16 4 17 3 18 2 19 1 20
REMARK H PARENT
REMARK Flexibility Score: inf
ROOT
ATOM      1  C   UNL     1      52.645  28.382  34.497  1.00  0.00     0.000 C 
ENDROOT
BRANCH   1   2
ATOM      2  C   UNL     1      52.380  29.010  35.878  1.00  0.00     0.000 C 
BRANCH   2   3
ATOM      3  C   UNL     1      53.307  30.195  36.186  1.00  0.00     0.000 C 
BRANCH   3   4
ATOM      4  C   UNL     1      53.936  30.057  37.581  1.00  0.00     0.000 C 
BRANCH   4   5
ATOM      5  C   UNL     1      54.800  28.783  37.707  1.00  0.00     0.000 C 
BRANCH   5   6
ATOM      6  C   UNL     1      56.312  29.065  37.739  1.00  0.00     0.000 C 
BRANCH   6   7
ATOM      7  C   UNL     1      56.721  30.006  38.884  1.00  0.00     0.006 C 
BRANCH   7   8
ATOM      8  C   UNL     1      57.854  30.957  38.476  1.00  0.00     0.053 C 
BRANCH   8   9
ATOM      9  C   UNL     1      57.458  31.841  37.333  1.00  0.00     0.041 C 
ATOM     10  O   UNL     1      58.131  31.839  36.269  1.00  0.00    -0.550 OA
ATOM     11  O   UNL     1      56.358  32.682  37.451  1.00  0.00    -0.550 OA
ENDBRANCH   8   9
ENDBRANCH   7   8
ENDBRANCH   6   7
ENDBRANCH   5   6
ENDBRANCH   4   5
ENDBRANCH   3   4
ENDBRANCH   2   3
ENDBRANCH   1   2
BRANCH   1  12
ATOM     12  C   UNL     1      54.125  28.093  34.181  1.00  0.00     0.000 C 
BRANCH  12  13
ATOM     13  C   UNL     1      54.463  26.594  34.227  1.00  0.00    -0.000 C 
BRANCH  13  14
ATOM     14  C   UNL     1      53.259  25.698  33.888  1.00  0.00    -0.000 C 
BRANCH  14  15
ATOM     15  C   UNL     1      52.920  24.619  34.937  1.00  0.00    -0.000 C 
BRANCH  15  16
ATOM     16  C   UNL     1      52.123  25.120  36.154  1.00  0.00    -0.000 C 
BRANCH  16  17
ATOM     17  C   UNL     1      50.611  24.890  36.014  1.00  0.00    -0.000 C 
BRANCH  17  18
ATOM     18  C   UNL     1      49.866  26.222  35.852  1.00  0.00    -0.000 C 
BRANCH  18  19
ATOM     19  C   UNL     1      48.920  26.227  34.642  1.00  0.00    -0.003 C 
ATOM     20  C   UNL     1      49.659  26.390  33.314  1.00  0.00     0.004 C 
ENDBRANCH  18  19
ENDBRANCH  17  18
ENDBRANCH  16  17
ENDBRANCH  15  16
ENDBRANCH  14  15
ENDBRANCH  13  14
ENDBRANCH  12  13
ENDBRANCH   1  12
TORSDOF 16
ENDMDL
MODEL 5
REMARK VINA RESULT:    -3.964      1.415      2.009
REMARK INTER + INTRA:         -10.501
REMARK INTER:                  -7.521
REMARK INTRA:                  -2.980
REMARK UNBOUND:                -2.829
REMARK SMILES CCCCCCCCCCCCCCCCCC(=O)[O-]
REMARK SMILES IDX 10 1 11 2 12 3 13 4 14 5 15 6 16 7 17 8 18 9 19 10 20 11
REMARK SMILES IDX 9 12 8 13 7 14 6 15 5 16 4 17 3 18 2 19 1 20
REMARK H PARENT
REMARK Flexibility Score: inf
ROOT
ATOM      1  C   UNL     1      51.664  24.315  36.571  1.00  0.00     0.000 C 
ENDROOT
BRANCH   1   2
ATOM      2  C   UNL     1      52.743  25.230  35.963  1.00  0.00     0.000 C 
BRANCH   2   3
ATOM      3  C   UNL     1      54.128  24.569  35.908  1.00  0.00     0.000 C 
BRANCH   3   4
ATOM      4  C   UNL     1      54.602  24.399  34.456  1.00  0.00     0.000 C 
BRANCH   4   5
ATOM      5  C   UNL     1      54.370  25.672  33.614  1.00  0.00     0.000 C 
BRANCH   5   6
ATOM      6  C   UNL     1      55.421  26.770  33.853  1.00  0.00     0.000 C 
BRANCH   6   7
ATOM      7  C   UNL     1      54.805  28.174  33.966  1.00  0.00     0.006 C 
BRANCH   7   8
ATOM      8  C   UNL     1      54.506  28.561  35.421  1.00  0.00     0.053 C 
BRANCH   8   9
ATOM      9  C   UNL     1      53.096  29.035  35.594  1.00  0.00     0.041 C 
ATOM     10  O   UNL     1      52.207  28.693  34.770  1.00  0.00    -0.550 OA
ATOM     11  O   UNL     1      52.767  29.873  36.653  1.00  0.00    -0.550 OA
ENDBRANCH   8   9
ENDBRANCH   7   8
ENDBRANCH   6   7
ENDBRANCH   5   6
ENDBRANCH   4   5
ENDBRANCH   3   4
ENDBRANCH   2   3
ENDBRANCH   1   2
BRANCH   1  12
ATOM     12  C   UNL     1      50.211  24.698  36.230  1.00  0.00     0.000 C 
BRANCH  12  13
ATOM     13  C   UNL     1      50.090  26.110  35.634  1.00  0.00    -0.000 C 
BRANCH  13  14
ATOM     14  C   UNL     1      48.943  26.233  34.615  1.00  0.00    -0.000 C 
BRANCH  14  15
ATOM     15  C   UNL     1      49.254  25.698  33.202  1.00  0.00    -0.000 C 
BRANCH  15  16
ATOM     16  C   UNL     1      50.742  25.712  32.810  1.00  0.00    -0.000 C 
BRANCH  16  17
ATOM     17  C   UNL     1      51.293  24.310  32.509  1.00  0.00    -0.000 C 
BRANCH  17  18
ATOM     18  C   UNL     1      50.231  23.234  32.779  1.00  0.00    -0.000 C 
BRANCH  18  19
ATOM     19  C   UNL     1      50.743  22.116  33.699  1.00  0.00    -0.003 C 
ATOM     20  C   UNL     1      52.233  21.833  33.514  1.00  0.00     0.004 C 
ENDBRANCH  18  19
ENDBRANCH  17  18
ENDBRANCH  16  17
ENDBRANCH  15  16
ENDBRANCH  14  15
ENDBRANCH  13  14
ENDBRANCH  12  13
ENDBRANCH   1  12
TORSDOF 16
ENDMDL
MODEL 6
REMARK VINA RESULT:    -3.953      3.565      7.497
REMARK INTER + INTRA:         -10.479
REMARK INTER:                  -8.319
REMARK INTRA:                  -2.160
REMARK UNBOUND:                -2.829
REMARK SMILES CCCCCCCCCCCCCCCCCC(=O)[O-]
REMARK SMILES IDX 10 1 11 2 12 3 13 4 14 5 15 6 16 7 17 8 18 9 19 10 20 11
REMARK SMILES IDX 9 12 8 13 7 14 6 15 5 16 4 17 3 18 2 19 1 20
REMARK H PARENT
REMARK Flexibility Score: inf
ROOT
ATOM      1  C   UNL     1      55.705  27.900  36.149  1.00  0.00     0.000 C 
ENDROOT
BRANCH   1   2
ATOM      2  C   UNL     1      55.794  28.051  34.619  1.00  0.00     0.000 C 
BRANCH   2   3
ATOM      3  C   UNL     1      54.428  28.292  33.959  1.00  0.00     0.000 C 
BRANCH   3   4
ATOM      4  C   UNL     1      53.431  28.897  34.959  1.00  0.00     0.000 C 
BRANCH   4   5
ATOM      5  C   UNL     1      52.111  28.097  35.022  1.00  0.00     0.000 C 
BRANCH   5   6
ATOM      6  C   UNL     1      52.251  26.640  34.551  1.00  0.00     0.000 C 
BRANCH   6   7
ATOM      7  C   UNL     1      51.217  26.256  33.480  1.00  0.00     0.006 C 
BRANCH   7   8
ATOM      8  C   UNL     1      49.792  26.665  33.876  1.00  0.00     0.053 C 
BRANCH   8   9
ATOM      9  C   UNL     1      49.287  25.873  35.042  1.00  0.00     0.041 C 
ATOM     10  O   UNL     1      49.186  26.410  36.176  1.00  0.00    -0.550 OA
ATOM     11  O   UNL     1      48.949  24.535  34.882  1.00  0.00    -0.550 OA
ENDBRANCH   8   9
ENDBRANCH   7   8
ENDBRANCH   6   7
ENDBRANCH   5   6
ENDBRANCH   4   5
ENDBRANCH   3   4
ENDBRANCH   2   3
ENDBRANCH   1   2
BRANCH   1  12
ATOM     12  C   UNL     1      56.962  27.319  36.824  1.00  0.00     0.000 C 
BRANCH  12  13
ATOM     13  C   UNL     1      58.255  28.030  36.391  1.00  0.00    -0.000 C 
BRANCH  13  14
ATOM     14  C   UNL     1      58.697  29.123  37.381  1.00  0.00    -0.000 C 
BRANCH  14  15
ATOM     15  C   UNL     1      58.178  30.542  37.075  1.00  0.00    -0.000 C 
BRANCH  15  16
ATOM     16  C   UNL     1      57.209  31.124  38.120  1.00  0.00    -0.000 C 
BRANCH  16  17
ATOM     17  C   UNL     1      55.816  31.418  37.544  1.00  0.00    -0.000 C 
BRANCH  17  18
ATOM     18  C   UNL     1      54.731  30.655  38.318  1.00  0.00    -0.000 C 
BRANCH  18  19
ATOM     19  C   UNL     1      55.232  30.123  39.669  1.00  0.00    -0.003 C 
ATOM     20  C   UNL     1      55.009  28.620  39.832  1.00  0.00     0.004 C 
ENDBRANCH  18  19
ENDBRANCH  17  18
ENDBRANCH  16  17
ENDBRANCH  15  16
ENDBRANCH  14  15
ENDBRANCH  13  14
ENDBRANCH  12  13
ENDBRANCH   1  12
TORSDOF 16
ENDMDL
MODEL 7
REMARK VINA RESULT:    -3.919      1.658      3.477
REMARK INTER + INTRA:         -10.412
REMARK INTER:                  -7.995
REMARK INTRA:                  -2.418
REMARK UNBOUND:                -2.829
REMARK SMILES CCCCCCCCCCCCCCCCCC(=O)[O-]
REMARK SMILES IDX 10 1 11 2 12 3 13 4 14 5 15 6 16 7 17 8 18 9 19 10 20 11
REMARK SMILES IDX 9 12 8 13 7 14 6 15 5 16 4 17 3 18 2 19 1 20
REMARK H PARENT
REMARK Flexibility Score: inf
ROOT
ATOM      1  C   UNL     1      53.105  24.999  33.457  1.00  0.00     0.000 C 
ENDROOT
BRANCH   1   2
ATOM      2  C   UNL     1      53.746  25.387  34.802  1.00  0.00     0.000 C 
BRANCH   2   3
ATOM      3  C   UNL     1      54.072  26.884  34.901  1.00  0.00     0.000 C 
BRANCH   3   4
ATOM      4  C   UNL     1      52.957  27.735  34.274  1.00  0.00     0.000 C 
BRANCH   4   5
ATOM      5  C   UNL     1      52.677  29.019  35.087  1.00  0.00     0.000 C 
BRANCH   5   6
ATOM      6  C   UNL     1      53.684  29.260  36.224  1.00  0.00     0.000 C 
BRANCH   6   7
ATOM      7  C   UNL     1      53.374  30.527  37.039  1.00  0.00     0.006 C 
BRANCH   7   8
ATOM      8  C   UNL     1      54.060  30.516  38.411  1.00  0.00     0.053 C 
BRANCH   8   9
ATOM      9  C   UNL     1      55.405  31.173  38.369  1.00  0.00     0.041 C 
ATOM     10  O   UNL     1      55.682  31.987  37.449  1.00  0.00    -0.550 OA
ATOM     11  O   UNL     1      56.359  30.872  39.332  1.00  0.00    -0.550 OA
ENDBRANCH   8   9
ENDBRANCH   7   8
ENDBRANCH   6   7
ENDBRANCH   5   6
ENDBRANCH   4   5
ENDBRANCH   3   4
ENDBRANCH   2   3
ENDBRANCH   1   2
BRANCH   1  12
ATOM     12  C   UNL     1      52.558  23.560  33.382  1.00  0.00     0.000 C 
BRANCH  12  13
ATOM     13  C   UNL     1      51.349  23.429  32.441  1.00  0.00    -0.000 C 
BRANCH  13  14
ATOM     14  C   UNL     1      50.128  22.785  33.122  1.00  0.00    -0.000 C 
BRANCH  14  15
ATOM     15  C   UNL     1      50.240  22.608  34.650  1.00  0.00    -0.000 C 
BRANCH  15  16
ATOM     16  C   UNL     1      49.458  23.637  35.486  1.00  0.00    -0.000 C 
BRANCH  16  17
ATOM     17  C   UNL     1      50.367  24.692  36.134  1.00  0.00    -0.000 C 
BRANCH  17  18
ATOM     18  C   UNL     1      49.938  26.109  35.726  1.00  0.00    -0.000 C 
BRANCH  18  19
ATOM     19  C   UNL     1      48.921  26.111  34.575  1.00  0.00    -0.003 C 
ATOM     20  C   UNL     1      49.541  26.517  33.239  1.00  0.00     0.004 C 
ENDBRANCH  18  19
ENDBRANCH  17  18
ENDBRANCH  16  17
ENDBRANCH  15  16
ENDBRANCH  14  15
ENDBRANCH  13  14
ENDBRANCH  12  13
ENDBRANCH   1  12
TORSDOF 16
ENDMDL
MODEL 8
REMARK VINA RESULT:    -3.905      2.898      5.175
REMARK INTER + INTRA:         -10.387
REMARK INTER:                  -7.969
REMARK INTRA:                  -2.418
REMARK UNBOUND:                -2.829
REMARK SMILES CCCCCCCCCCCCCCCCCC(=O)[O-]
REMARK SMILES IDX 10 1 11 2 12 3 13 4 14 5 15 6 16 7 17 8 18 9 19 10 20 11
REMARK SMILES IDX 9 12 8 13 7 14 6 15 5 16 4 17 3 18 2 19 1 20
REMARK H PARENT
REMARK Flexibility Score: inf
ROOT
ATOM      1  C   UNL     1      53.195  30.281  37.462  1.00  0.00     0.000 C 
ENDROOT
BRANCH   1   2
ATOM      2  C   UNL     1      54.607  30.435  38.056  1.00  0.00     0.000 C 
BRANCH   2   3
ATOM      3  C   UNL     1      55.022  29.246  38.935  1.00  0.00     0.000 C 
BRANCH   3   4
ATOM      4  C   UNL     1      54.976  27.930  38.142  1.00  0.00     0.000 C 
BRANCH   4   5
ATOM      5  C   UNL     1      56.364  27.261  38.042  1.00  0.00     0.000 C 
BRANCH   5   6
ATOM      6  C   UNL     1      56.966  27.300  36.628  1.00  0.00     0.000 C 
BRANCH   6   7
ATOM      7  C   UNL     1      57.358  28.719  36.183  1.00  0.00     0.006 C 
BRANCH   7   8
ATOM      8  C   UNL     1      58.578  29.250  36.947  1.00  0.00     0.053 C 
BRANCH   8   9
ATOM      9  C   UNL     1      58.331  30.613  37.516  1.00  0.00     0.041 C 
ATOM     10  O   UNL     1      58.286  30.780  38.764  1.00  0.00    -0.550 OA
ATOM     11  O   UNL     1      58.128  31.696  36.670  1.00  0.00    -0.550 OA
ENDBRANCH   8   9
ENDBRANCH   7   8
ENDBRANCH   6   7
ENDBRANCH   5   6
ENDBRANCH   4   5
ENDBRANCH   3   4
ENDBRANCH   2   3
ENDBRANCH   1   2
BRANCH   1  12
ATOM     12  C   UNL     1      53.123  30.318  35.924  1.00  0.00     0.000 C 
BRANCH  12  13
ATOM     13  C   UNL     1      52.593  29.008  35.319  1.00  0.00    -0.000 C 
BRANCH  13  14
ATOM     14  C   UNL     1      53.691  28.179  34.629  1.00  0.00    -0.000 C 
BRANCH  14  15
ATOM     15  C   UNL     1      53.611  26.656  34.854  1.00  0.00    -0.000 C 
BRANCH  15  16
ATOM     16  C   UNL     1      53.066  25.846  33.664  1.00  0.00    -0.000 C 
BRANCH  16  17
ATOM     17  C   UNL     1      51.678  25.248  33.934  1.00  0.00    -0.000 C 
BRANCH  17  18
ATOM     18  C   UNL     1      50.570  26.247  33.572  1.00  0.00    -0.000 C 
BRANCH  18  19
ATOM     19  C   UNL     1      49.373  26.176  34.533  1.00  0.00    -0.003 C 
ATOM     20  C   UNL     1      49.725  26.626  35.950  1.00  0.00     0.004 C 
ENDBRANCH  18  19
ENDBRANCH  17  18
ENDBRANCH  16  17
ENDBRANCH  15  16
ENDBRANCH  14  15
ENDBRANCH  13  14
ENDBRANCH  12  13
ENDBRANCH   1  12
TORSDOF 16
ENDMDL
MODEL 9
REMARK VINA RESULT:    -3.901      1.422      2.177
REMARK INTER + INTRA:         -10.379
REMARK INTER:                  -7.608
REMARK INTRA:                  -2.771
REMARK UNBOUND:                -2.829
REMARK SMILES CCCCCCCCCCCCCCCCCC(=O)[O-]
REMARK SMILES IDX 10 1 11 2 12 3 13 4 14 5 15 6 16 7 17 8 18 9 19 10 20 11
REMARK SMILES IDX 9 12 8 13 7 14 6 15 5 16 4 17 3 18 2 19 1 20
REMARK H PARENT
REMARK Flexibility Score: inf
ROOT
ATOM      1  C   UNL     1      54.118  24.838  35.761  1.00  0.00     0.000 C 
ENDROOT
BRANCH   1   2
ATOM      2  C   UNL     1      55.232  24.620  34.721  1.00  0.00     0.000 C 
BRANCH   2   3
ATOM      3  C   UNL     1      56.281  25.741  34.722  1.00  0.00     0.000 C 
BRANCH   3   4
ATOM      4  C   UNL     1      56.149  26.623  33.471  1.00  0.00     0.000 C 
BRANCH   4   5
ATOM      5  C   UNL     1      55.703  28.060  33.816  1.00  0.00     0.000 C 
BRANCH   5   6
ATOM      6  C   UNL     1      54.176  28.243  33.837  1.00  0.00     0.000 C 
BRANCH   6   7
ATOM      7  C   UNL     1      53.649  28.714  35.203  1.00  0.00     0.006 C 
BRANCH   7   8
ATOM      8  C   UNL     1      54.754  28.760  36.267  1.00  0.00     0.053 C 
BRANCH   8   9
ATOM      9  C   UNL     1      54.662  29.992  37.115  1.00  0.00     0.041 C 
ATOM     10  O   UNL     1      55.538  30.225  37.989  1.00  0.00    -0.550 OA
ATOM     11  O   UNL     1      53.599  30.870  36.955  1.00  0.00    -0.550 OA
ENDBRANCH   8   9
ENDBRANCH   7   8
ENDBRANCH   6   7
ENDBRANCH   5   6
ENDBRANCH   4   5
ENDBRANCH   3   4
ENDBRANCH   2   3
ENDBRANCH   1   2
BRANCH   1  12
ATOM     12  C   UNL     1      52.696  24.965  35.183  1.00  0.00     0.000 C 
BRANCH  12  13
ATOM     13  C   UNL     1      52.668  24.894  33.647  1.00  0.00    -0.000 C 
BRANCH  13  14
ATOM     14  C   UNL     1      51.502  25.690  33.033  1.00  0.00    -0.000 C 
BRANCH  14  15
ATOM     15  C   UNL     1      50.775  26.650  33.997  1.00  0.00    -0.000 C 
BRANCH  15  16
ATOM     16  C   UNL     1      49.239  26.555  33.978  1.00  0.00    -0.000 C 
BRANCH  16  17
ATOM     17  C   UNL     1      48.698  25.437  34.881  1.00  0.00    -0.000 C 
BRANCH  17  18
ATOM     18  C   UNL     1      48.114  24.290  34.044  1.00  0.00    -0.000 C 
BRANCH  18  19
ATOM     19  C   UNL     1      49.111  23.140  33.839  1.00  0.00    -0.003 C 
ATOM     20  C   UNL     1      49.591  22.531  35.157  1.00  0.00     0.004 C 
ENDBRANCH  18  19
ENDBRANCH  17  18
ENDBRANCH  16  17
ENDBRANCH  15  16
ENDBRANCH  14  15
ENDBRANCH  13  14
ENDBRANCH  12  13
ENDBRANCH   1  12
TORSDOF 16
ENDMDL
