MODEL 1
REMARK VINA RESULT:    -3.791      0.000      0.000
REMARK INTER + INTRA:          -4.153
REMARK INTER:                  -4.123
REMARK INTRA:                  -0.030
REMARK UNBOUND:                -0.030
REMARK SMILES O=C([O-])c1ccc(O)cc1
REMARK SMILES IDX 7 1 6 2 9 3 5 4 10 5 4 6 8 7 2 9 1 10 3 11
REMARK H PARENT 8 8
REMARK Flexibility Score: inf
ROOT
ATOM      1  C   UNL     1      28.814 173.686 154.117  1.00  0.00     0.115 A 
ATOM      2  C   UNL     1      28.492 172.413 154.596  1.00  0.00     0.047 A 
ATOM      3  C   UNL     1      30.154 174.018 153.875  1.00  0.00     0.047 A 
ATOM      4  C   UNL     1      29.500 171.474 154.834  1.00  0.00     0.014 A 
ATOM      5  C   UNL     1      31.165 173.081 154.112  1.00  0.00     0.014 A 
ATOM      6  C   UNL     1      30.848 171.798 154.595  1.00  0.00    -0.003 A 
ENDROOT
BRANCH   1   7
ATOM      7  O   UNL     1      27.799 174.612 153.884  1.00  0.00    -0.508 OA
ATOM      8  H   UNL     1      27.495 174.838 152.945  1.00  0.00     0.293 HD
ENDBRANCH   1   7
BRANCH   6   9
ATOM      9  C   UNL     1      31.919 170.809 154.844  1.00  0.00     0.071 C 
ATOM     10  O   UNL     1      31.973 170.186 155.938  1.00  0.00    -0.545 OA
ATOM     11  O   UNL     1      32.883 170.554 153.875  1.00  0.00    -0.545 OA
ENDBRANCH   6   9
TORSDOF 2
ENDMDL
MODEL 2
REMARK VINA RESULT:    -3.762     23.160     23.817
REMARK INTER + INTRA:          -4.123
REMARK INTER:                  -4.096
REMARK INTRA:                  -0.027
REMARK UNBOUND:                -0.030
REMARK SMILES O=C([O-])c1ccc(O)cc1
REMARK SMILES IDX 7 1 6 2 9 3 5 4 10 5 4 6 8 7 2 9 1 10 3 11
REMARK H PARENT 8 8
REMARK Flexibility Score: inf
ROOT
ATOM      1  C   UNL     1      41.622 185.313 172.891  1.00  0.00     0.115 A 
ATOM      2  C   UNL     1      40.506 186.120 173.133  1.00  0.00     0.047 A 
ATOM      3  C   UNL     1      41.573 184.350 171.875  1.00  0.00     0.047 A 
ATOM      4  C   UNL     1      39.347 185.969 172.367  1.00  0.00     0.014 A 
ATOM      5  C   UNL     1      40.416 184.195 171.106  1.00  0.00     0.014 A 
ATOM      6  C   UNL     1      39.289 185.004 171.345  1.00  0.00    -0.003 A 
ENDROOT
BRANCH   1   7
ATOM      7  O   UNL     1      42.770 185.476 173.663  1.00  0.00    -0.508 OA
ATOM      8  H   UNL     1      42.729 185.877 174.593  1.00  0.00     0.293 HD
ENDBRANCH   1   7
BRANCH   6   9
ATOM      9  C   UNL     1      38.066 184.838 170.530  1.00  0.00     0.071 C 
ATOM     10  O   UNL     1      37.059 184.245 171.000  1.00  0.00    -0.545 OA
ATOM     11  O   UNL     1      38.010 185.335 169.232  1.00  0.00    -0.545 OA
ENDBRANCH   6   9
TORSDOF 2
ENDMDL
MODEL 3
REMARK VINA RESULT:    -3.758     23.645     24.398
REMARK INTER + INTRA:          -4.118
REMARK INTER:                  -4.088
REMARK INTRA:                  -0.030
REMARK UNBOUND:                -0.030
REMARK SMILES O=C([O-])c1ccc(O)cc1
REMARK SMILES IDX 7 1 6 2 9 3 5 4 10 5 4 6 8 7 2 9 1 10 3 11
REMARK H PARENT 8 8
REMARK Flexibility Score: inf
ROOT
ATOM      1  C   UNL     1      43.057 183.523 173.432  1.00  0.00     0.115 A 
ATOM      2  C   UNL     1      42.434 184.756 173.646  1.00  0.00     0.047 A 
ATOM      3  C   UNL     1      42.501 182.612 172.524  1.00  0.00     0.047 A 
ATOM      4  C   UNL     1      41.261 185.081 172.958  1.00  0.00     0.014 A 
ATOM      5  C   UNL     1      41.327 182.934 171.835  1.00  0.00     0.014 A 
ATOM      6  C   UNL     1      40.695 184.173 172.045  1.00  0.00    -0.003 A 
ENDROOT
BRANCH   1   7
ATOM      7  O   UNL     1      44.225 183.213 174.125  1.00  0.00    -0.508 OA
ATOM      8  H   UNL     1      45.130 183.229 173.670  1.00  0.00     0.293 HD
ENDBRANCH   1   7
BRANCH   6   9
ATOM      9  C   UNL     1      39.453 184.510 171.314  1.00  0.00     0.071 C 
ATOM     10  O   UNL     1      38.418 184.862 171.939  1.00  0.00    -0.545 OA
ATOM     11  O   UNL     1      39.412 184.443 169.926  1.00  0.00    -0.545 OA
ENDBRANCH   6   9
TORSDOF 2
ENDMDL
MODEL 4
REMARK VINA RESULT:    -3.637     24.155     24.912
REMARK INTER + INTRA:          -3.986
REMARK INTER:                  -3.951
REMARK INTRA:                  -0.035
REMARK UNBOUND:                -0.030
REMARK SMILES O=C([O-])c1ccc(O)cc1
REMARK SMILES IDX 7 1 6 2 9 3 5 4 10 5 4 6 8 7 2 9 1 10 3 11
REMARK H PARENT 8 8
REMARK Flexibility Score: inf
ROOT
ATOM      1  C   UNL     1      42.773 182.532 172.934  1.00  0.00     0.115 A 
ATOM      2  C   UNL     1      41.659 182.512 172.089  1.00  0.00     0.047 A 
ATOM      3  C   UNL     1      43.072 183.693 173.660  1.00  0.00     0.047 A 
ATOM      4  C   UNL     1      40.848 183.644 171.966  1.00  0.00     0.014 A 
ATOM      5  C   UNL     1      42.263 184.826 173.539  1.00  0.00     0.014 A 
ATOM      6  C   UNL     1      41.141 184.813 172.691  1.00  0.00    -0.003 A 
ENDROOT
BRANCH   1   7
ATOM      7  O   UNL     1      43.573 181.397 173.046  1.00  0.00    -0.508 OA
ATOM      8  H   UNL     1      43.181 180.465 172.975  1.00  0.00     0.293 HD
ENDBRANCH   1   7
BRANCH   6   9
ATOM      9  C   UNL     1      40.286 186.014 172.566  1.00  0.00     0.071 C 
ATOM     10  O   UNL     1      40.724 187.149 172.893  1.00  0.00    -0.545 OA
ATOM     11  O   UNL     1      38.986 185.907 172.085  1.00  0.00    -0.545 OA
ENDBRANCH   6   9
TORSDOF 2
ENDMDL
MODEL 5
REMARK VINA RESULT:    -3.598     24.071     24.561
REMARK INTER + INTRA:          -3.944
REMARK INTER:                  -3.916
REMARK INTRA:                  -0.028
REMARK UNBOUND:                -0.030
REMARK SMILES O=C([O-])c1ccc(O)cc1
REMARK SMILES IDX 7 1 6 2 9 3 5 4 10 5 4 6 8 7 2 9 1 10 3 11
REMARK H PARENT 8 8
REMARK Flexibility Score: inf
ROOT
ATOM      1  C   UNL     1      40.186 185.513 172.280  1.00  0.00     0.115 A 
ATOM      2  C   UNL     1      40.178 184.248 171.684  1.00  0.00     0.047 A 
ATOM      3  C   UNL     1      41.274 185.897 173.075  1.00  0.00     0.047 A 
ATOM      4  C   UNL     1      41.247 183.369 171.879  1.00  0.00     0.014 A 
ATOM      5  C   UNL     1      42.345 185.021 173.273  1.00  0.00     0.014 A 
ATOM      6  C   UNL     1      42.343 183.747 172.677  1.00  0.00    -0.003 A 
ENDROOT
BRANCH   1   7
ATOM      7  O   UNL     1      39.113 186.377 172.076  1.00  0.00    -0.508 OA
ATOM      8  H   UNL     1      39.158 187.124 171.393  1.00  0.00     0.293 HD
ENDBRANCH   1   7
BRANCH   6   9
ATOM      9  C   UNL     1      43.478 182.822 172.888  1.00  0.00     0.071 C 
ATOM     10  O   UNL     1      44.283 182.572 171.951  1.00  0.00    -0.545 OA
ATOM     11  O   UNL     1      43.673 182.215 174.123  1.00  0.00    -0.545 OA
ENDBRANCH   6   9
TORSDOF 2
ENDMDL
MODEL 6
REMARK VINA RESULT:    -3.559      2.707      5.504
REMARK INTER + INTRA:          -3.902
REMARK INTER:                  -3.873
REMARK INTRA:                  -0.029
REMARK UNBOUND:                -0.030
REMARK SMILES O=C([O-])c1ccc(O)cc1
REMARK SMILES IDX 7 1 6 2 9 3 5 4 10 5 4 6 8 7 2 9 1 10 3 11
REMARK H PARENT 8 8
REMARK Flexibility Score: inf
ROOT
ATOM      1  C   UNL     1      34.347 169.474 157.102  1.00  0.00     0.115 A 
ATOM      2  C   UNL     1      34.759 170.026 155.885  1.00  0.00     0.047 A 
ATOM      3  C   UNL     1      32.987 169.474 157.439  1.00  0.00     0.047 A 
ATOM      4  C   UNL     1      33.821 170.577 155.008  1.00  0.00     0.014 A 
ATOM      5  C   UNL     1      32.046 170.024 156.564  1.00  0.00     0.014 A 
ATOM      6  C   UNL     1      32.453 170.581 155.338  1.00  0.00    -0.003 A 
ENDROOT
BRANCH   1   7
ATOM      7  O   UNL     1      35.294 168.930 157.967  1.00  0.00    -0.508 OA
ATOM      8  H   UNL     1      35.573 169.409 158.814  1.00  0.00     0.293 HD
ENDBRANCH   1   7
BRANCH   6   9
ATOM      9  C   UNL     1      31.454 171.162 154.414  1.00  0.00     0.071 C 
ATOM     10  O   UNL     1      30.525 170.452 153.947  1.00  0.00    -0.545 OA
ATOM     11  O   UNL     1      31.528 172.501 154.047  1.00  0.00    -0.545 OA
ENDBRANCH   6   9
TORSDOF 2
ENDMDL
MODEL 7
REMARK VINA RESULT:    -3.543      2.669      5.292
REMARK INTER + INTRA:          -3.884
REMARK INTER:                  -3.856
REMARK INTRA:                  -0.028
REMARK UNBOUND:                -0.030
REMARK SMILES O=C([O-])c1ccc(O)cc1
REMARK SMILES IDX 7 1 6 2 9 3 5 4 10 5 4 6 8 7 2 9 1 10 3 11
REMARK H PARENT 8 8
REMARK Flexibility Score: inf
ROOT
ATOM      1  C   UNL     1      34.324 169.541 157.108  1.00  0.00     0.115 A 
ATOM      2  C   UNL     1      32.971 169.570 157.460  1.00  0.00     0.047 A 
ATOM      3  C   UNL     1      34.731 170.058 155.871  1.00  0.00     0.047 A 
ATOM      4  C   UNL     1      32.027 170.112 156.583  1.00  0.00     0.014 A 
ATOM      5  C   UNL     1      33.789 170.601 154.992  1.00  0.00     0.014 A 
ATOM      6  C   UNL     1      32.426 170.634 155.339  1.00  0.00    -0.003 A 
ENDROOT
BRANCH   1   7
ATOM      7  O   UNL     1      35.254 168.997 157.991  1.00  0.00    -0.508 OA
ATOM      8  H   UNL     1      35.021 168.821 158.962  1.00  0.00     0.293 HD
ENDBRANCH   1   7
BRANCH   6   9
ATOM      9  C   UNL     1      31.432 171.210 154.407  1.00  0.00     0.071 C 
ATOM     10  O   UNL     1      30.555 170.478 153.875  1.00  0.00    -0.545 OA
ATOM     11  O   UNL     1      31.452 172.566 154.104  1.00  0.00    -0.545 OA
ENDBRANCH   6   9
TORSDOF 2
ENDMDL
MODEL 8
REMARK VINA RESULT:    -3.340     23.183     23.636
REMARK INTER + INTRA:          -3.664
REMARK INTER:                  -3.634
REMARK INTRA:                  -0.030
REMARK UNBOUND:                -0.030
REMARK SMILES O=C([O-])c1ccc(O)cc1
REMARK SMILES IDX 7 1 6 2 9 3 5 4 10 5 4 6 8 7 2 9 1 10 3 11
REMARK H PARENT 8 8
REMARK Flexibility Score: inf
ROOT
ATOM      1  C   UNL     1      38.429 184.338 171.417  1.00  0.00     0.115 A 
ATOM      2  C   UNL     1      38.619 184.198 172.795  1.00  0.00     0.047 A 
ATOM      3  C   UNL     1      39.539 184.346 170.562  1.00  0.00     0.047 A 
ATOM      4  C   UNL     1      39.908 184.067 173.320  1.00  0.00     0.014 A 
ATOM      5  C   UNL     1      40.830 184.216 171.083  1.00  0.00     0.014 A 
ATOM      6  C   UNL     1      41.028 184.074 172.468  1.00  0.00    -0.003 A 
ENDROOT
BRANCH   1   7
ATOM      7  O   UNL     1      37.139 184.468 170.909  1.00  0.00    -0.508 OA
ATOM      8  H   UNL     1      36.326 184.432 171.514  1.00  0.00     0.293 HD
ENDBRANCH   1   7
BRANCH   6   9
ATOM      9  C   UNL     1      42.395 183.936 173.017  1.00  0.00     0.071 C 
ATOM     10  O   UNL     1      42.803 184.711 173.922  1.00  0.00    -0.545 OA
ATOM     11  O   UNL     1      43.249 182.948 172.540  1.00  0.00    -0.545 OA
ENDBRANCH   6   9
TORSDOF 2
ENDMDL
MODEL 9
REMARK VINA RESULT:    -3.284     19.969     20.395
REMARK INTER + INTRA:          -3.602
REMARK INTER:                  -3.571
REMARK INTRA:                  -0.031
REMARK UNBOUND:                -0.030
REMARK SMILES O=C([O-])c1ccc(O)cc1
REMARK SMILES IDX 7 1 6 2 9 3 5 4 10 5 4 6 8 7 2 9 1 10 3 11
REMARK H PARENT 8 8
REMARK Flexibility Score: inf
ROOT
ATOM      1  C   UNL     1      33.625 180.930 170.752  1.00  0.00     0.115 A 
ATOM      2  C   UNL     1      33.970 181.827 169.737  1.00  0.00     0.047 A 
ATOM      3  C   UNL     1      34.187 181.075 172.027  1.00  0.00     0.047 A 
ATOM      4  C   UNL     1      34.872 182.864 169.990  1.00  0.00     0.014 A 
ATOM      5  C   UNL     1      35.090 182.111 172.284  1.00  0.00     0.014 A 
ATOM      6  C   UNL     1      35.442 183.017 171.267  1.00  0.00    -0.003 A 
ENDROOT
BRANCH   1   7
ATOM      7  O   UNL     1      32.724 179.901 170.484  1.00  0.00    -0.508 OA
ATOM      8  H   UNL     1      32.367 179.306 171.222  1.00  0.00     0.293 HD
ENDBRANCH   1   7
BRANCH   6   9
ATOM      9  C   UNL     1      36.397 184.113 171.542  1.00  0.00     0.071 C 
ATOM     10  O   UNL     1      37.316 184.382 170.723  1.00  0.00    -0.545 OA
ATOM     11  O   UNL     1      36.295 184.862 172.709  1.00  0.00    -0.545 OA
ENDBRANCH   6   9
TORSDOF 2
ENDMDL
