MODEL 1
REMARK VINA RESULT:    -3.701      0.000      0.000
REMARK INTER + INTRA:          -8.143
REMARK INTER:                  -6.731
REMARK INTRA:                  -1.412
REMARK UNBOUND:                -1.412
REMARK SMILES CCCCCCCCCCCCCCCC(=O)[O-]
REMARK SMILES IDX 9 1 10 2 11 3 12 4 13 5 14 6 15 7 16 8 17 9 18 10 8 11 7 12
REMARK SMILES IDX 6 13 5 14 4 15 3 16 2 17 1 18
REMARK H PARENT
REMARK Flexibility Score: inf
ROOT
ATOM      1  C   UNL     1     482.061  40.562 460.880  1.00  0.00     0.000 C 
ENDROOT
BRANCH   1   2
ATOM      2  C   UNL     1     483.578  40.666 461.118  1.00  0.00     0.000 C 
BRANCH   2   3
ATOM      3  C   UNL     1     484.246  39.291 461.309  1.00  0.00     0.000 C 
BRANCH   3   4
ATOM      4  C   UNL     1     485.258  38.893 460.215  1.00  0.00     0.000 C 
BRANCH   4   5
ATOM      5  C   UNL     1     484.704  37.973 459.113  1.00  0.00     0.000 C 
BRANCH   5   6
ATOM      6  C   UNL     1     484.416  38.718 457.800  1.00  0.00     0.006 C 
BRANCH   6   7
ATOM      7  C   UNL     1     483.498  37.916 456.867  1.00  0.00     0.053 C 
BRANCH   7   8
ATOM      8  C   UNL     1     482.982  38.754 455.737  1.00  0.00     0.041 C 
ATOM      9  O   UNL     1     483.651  38.869 454.677  1.00  0.00    -0.550 OA
ATOM     10  O   UNL     1     481.777  39.432 455.866  1.00  0.00    -0.550 OA
ENDBRANCH   7   8
ENDBRANCH   6   7
ENDBRANCH   5   6
ENDBRANCH   4   5
ENDBRANCH   3   4
ENDBRANCH   2   3
ENDBRANCH   1   2
BRANCH   1  11
ATOM     11  C   UNL     1     481.599  39.114 460.649  1.00  0.00     0.000 C 
BRANCH  11  12
ATOM     12  C   UNL     1     480.428  39.015 459.661  1.00  0.00    -0.000 C 
BRANCH  12  13
ATOM     13  C   UNL     1     480.417  37.651 458.958  1.00  0.00    -0.000 C 
BRANCH  13  14
ATOM     14  C   UNL     1     479.542  36.646 459.717  1.00  0.00    -0.000 C 
BRANCH  14  15
ATOM     15  C   UNL     1     478.447  37.366 460.519  1.00  0.00    -0.000 C 
BRANCH  15  16
ATOM     16  C   UNL     1     477.943  36.542 461.718  1.00  0.00    -0.000 C 
BRANCH  16  17
ATOM     17  C   UNL     1     477.967  35.017 461.513  1.00  0.00    -0.003 C 
ATOM     18  C   UNL     1     476.897  34.287 462.324  1.00  0.00     0.004 C 
ENDBRANCH  16  17
ENDBRANCH  15  16
ENDBRANCH  14  15
ENDBRANCH  13  14
ENDBRANCH  12  13
ENDBRANCH  11  12
ENDBRANCH   1  11
TORSDOF 14
ENDMDL
MODEL 2
REMARK VINA RESULT:    -3.689      2.161      3.651
REMARK INTER + INTRA:          -8.121
REMARK INTER:                  -7.007
REMARK INTRA:                  -1.114
REMARK UNBOUND:                -1.412
REMARK SMILES CCCCCCCCCCCCCCCC(=O)[O-]
REMARK SMILES IDX 9 1 10 2 11 3 12 4 13 5 14 6 15 7 16 8 17 9 18 10 8 11 7 12
REMARK SMILES IDX 6 13 5 14 4 15 3 16 2 17 1 18
REMARK H PARENT
REMARK Flexibility Score: inf
ROOT
ATOM      1  C   UNL     1     480.313  39.141 458.768  1.00  0.00     0.000 C 
ENDROOT
BRANCH   1   2
ATOM      2  C   UNL     1     479.953  38.469 457.432  1.00  0.00     0.000 C 
BRANCH   2   3
ATOM      3  C   UNL     1     481.102  37.611 456.869  1.00  0.00     0.000 C 
BRANCH   3   4
ATOM      4  C   UNL     1     482.046  38.336 455.887  1.00  0.00     0.000 C 
BRANCH   4   5
ATOM      5  C   UNL     1     483.386  38.796 456.487  1.00  0.00     0.000 C 
BRANCH   5   6
ATOM      6  C   UNL     1     483.733  38.075 457.799  1.00  0.00     0.006 C 
BRANCH   6   7
ATOM      7  C   UNL     1     484.963  38.682 458.488  1.00  0.00     0.053 C 
BRANCH   7   8
ATOM      8  C   UNL     1     484.664  39.100 459.895  1.00  0.00     0.041 C 
ATOM      9  O   UNL     1     485.471  38.826 460.822  1.00  0.00    -0.550 OA
ATOM     10  O   UNL     1     483.481  39.766 460.188  1.00  0.00    -0.550 OA
ENDBRANCH   7   8
ENDBRANCH   6   7
ENDBRANCH   5   6
ENDBRANCH   4   5
ENDBRANCH   3   4
ENDBRANCH   2   3
ENDBRANCH   1   2
BRANCH   1  11
ATOM     11  C   UNL     1     480.294  38.153 459.947  1.00  0.00     0.000 C 
BRANCH  11  12
ATOM     12  C   UNL     1     479.008  37.315 460.000  1.00  0.00    -0.000 C 
BRANCH  12  13
ATOM     13  C   UNL     1     479.308  35.835 459.729  1.00  0.00    -0.000 C 
BRANCH  13  14
ATOM     14  C   UNL     1     478.580  34.933 460.732  1.00  0.00    -0.000 C 
BRANCH  14  15
ATOM     15  C   UNL     1     477.670  35.757 461.654  1.00  0.00    -0.000 C 
BRANCH  15  16
ATOM     16  C   UNL     1     477.145  34.950 462.856  1.00  0.00    -0.000 C 
BRANCH  16  17
ATOM     17  C   UNL     1     476.056  33.917 462.516  1.00  0.00    -0.003 C 
ATOM     18  C   UNL     1     475.053  33.710 463.651  1.00  0.00     0.004 C 
ENDBRANCH  16  17
ENDBRANCH  15  16
ENDBRANCH  14  15
ENDBRANCH  13  14
ENDBRANCH  12  13
ENDBRANCH  11  12
ENDBRANCH   1  11
TORSDOF 14
ENDMDL
MODEL 3
REMARK VINA RESULT:    -3.672      3.130      4.467
REMARK INTER + INTRA:          -8.090
REMARK INTER:                  -7.288
REMARK INTRA:                  -0.801
REMARK UNBOUND:                -1.412
REMARK SMILES CCCCCCCCCCCCCCCC(=O)[O-]
REMARK SMILES IDX 9 1 10 2 11 3 12 4 13 5 14 6 15 7 16 8 17 9 18 10 8 11 7 12
REMARK SMILES IDX 6 13 5 14 4 15 3 16 2 17 1 18
REMARK H PARENT
REMARK Flexibility Score: inf
ROOT
ATOM      1  C   UNL     1     479.953  39.326 461.066  1.00  0.00     0.000 C 
ENDROOT
BRANCH   1   2
ATOM      2  C   UNL     1     481.444  39.583 460.790  1.00  0.00     0.000 C 
BRANCH   2   3
ATOM      3  C   UNL     1     482.028  38.625 459.734  1.00  0.00     0.000 C 
BRANCH   3   4
ATOM      4  C   UNL     1     483.377  39.059 459.126  1.00  0.00     0.000 C 
BRANCH   4   5
ATOM      5  C   UNL     1     484.614  38.341 459.694  1.00  0.00     0.000 C 
BRANCH   5   6
ATOM      6  C   UNL     1     485.549  39.283 460.469  1.00  0.00     0.006 C 
BRANCH   6   7
ATOM      7  C   UNL     1     484.968  39.688 461.831  1.00  0.00     0.053 C 
BRANCH   7   8
ATOM      8  C   UNL     1     485.822  40.707 462.521  1.00  0.00     0.041 C 
ATOM      9  O   UNL     1     485.544  41.078 463.692  1.00  0.00    -0.550 OA
ATOM     10  O   UNL     1     486.906  41.271 461.860  1.00  0.00    -0.550 OA
ENDBRANCH   7   8
ENDBRANCH   6   7
ENDBRANCH   5   6
ENDBRANCH   4   5
ENDBRANCH   3   4
ENDBRANCH   2   3
ENDBRANCH   1   2
BRANCH   1  11
ATOM     11  C   UNL     1     479.349  38.281 460.113  1.00  0.00     0.000 C 
BRANCH  11  12
ATOM     12  C   UNL     1     478.845  37.030 460.847  1.00  0.00    -0.000 C 
BRANCH  12  13
ATOM     13  C   UNL     1     477.864  37.407 461.964  1.00  0.00    -0.000 C 
BRANCH  13  14
ATOM     14  C   UNL     1     476.844  36.287 462.203  1.00  0.00    -0.000 C 
BRANCH  14  15
ATOM     15  C   UNL     1     477.517  34.908 462.149  1.00  0.00    -0.000 C 
BRANCH  15  16
ATOM     16  C   UNL     1     476.959  33.927 463.196  1.00  0.00    -0.000 C 
BRANCH  16  17
ATOM     17  C   UNL     1     475.515  33.459 462.941  1.00  0.00    -0.003 C 
ATOM     18  C   UNL     1     474.630  33.545 464.184  1.00  0.00     0.004 C 
ENDBRANCH  16  17
ENDBRANCH  15  16
ENDBRANCH  14  15
ENDBRANCH  13  14
ENDBRANCH  12  13
ENDBRANCH  11  12
ENDBRANCH   1  11
TORSDOF 14
ENDMDL
MODEL 4
REMARK VINA RESULT:    -3.638      1.858      2.818
REMARK INTER + INTRA:          -8.028
REMARK INTER:                  -7.207
REMARK INTRA:                  -0.821
REMARK UNBOUND:                -1.412
REMARK SMILES CCCCCCCCCCCCCCCC(=O)[O-]
REMARK SMILES IDX 9 1 10 2 11 3 12 4 13 5 14 6 15 7 16 8 17 9 18 10 8 11 7 12
REMARK SMILES IDX 6 13 5 14 4 15 3 16 2 17 1 18
REMARK H PARENT
REMARK Flexibility Score: inf
ROOT
ATOM      1  C   UNL     1     480.494  38.800 462.977  1.00  0.00     0.000 C 
ENDROOT
BRANCH   1   2
ATOM      2  C   UNL     1     481.321  40.076 463.210  1.00  0.00     0.000 C 
BRANCH   2   3
ATOM      3  C   UNL     1     482.833  39.798 463.299  1.00  0.00     0.000 C 
BRANCH   3   4
ATOM      4  C   UNL     1     483.461  39.163 462.041  1.00  0.00     0.000 C 
BRANCH   4   5
ATOM      5  C   UNL     1     484.783  39.799 461.577  1.00  0.00     0.000 C 
BRANCH   5   6
ATOM      6  C   UNL     1     485.434  39.041 460.408  1.00  0.00     0.006 C 
BRANCH   6   7
ATOM      7  C   UNL     1     484.399  38.301 459.549  1.00  0.00     0.053 C 
BRANCH   7   8
ATOM      8  C   UNL     1     484.426  38.761 458.124  1.00  0.00     0.041 C 
ATOM      9  O   UNL     1     484.117  37.967 457.196  1.00  0.00    -0.550 OA
ATOM     10  O   UNL     1     484.821  40.057 457.817  1.00  0.00    -0.550 OA
ENDBRANCH   7   8
ENDBRANCH   6   7
ENDBRANCH   5   6
ENDBRANCH   4   5
ENDBRANCH   3   4
ENDBRANCH   2   3
ENDBRANCH   1   2
BRANCH   1  11
ATOM     11  C   UNL     1     479.441  38.974 461.870  1.00  0.00     0.000 C 
BRANCH  11  12
ATOM     12  C   UNL     1     478.011  38.712 462.363  1.00  0.00    -0.000 C 
BRANCH  12  13
ATOM     13  C   UNL     1     477.269  37.762 461.414  1.00  0.00    -0.000 C 
BRANCH  13  14
ATOM     14  C   UNL     1     478.231  36.745 460.789  1.00  0.00    -0.000 C 
BRANCH  14  15
ATOM     15  C   UNL     1     478.058  35.359 461.428  1.00  0.00    -0.000 C 
BRANCH  15  16
ATOM     16  C   UNL     1     476.908  35.311 462.451  1.00  0.00    -0.000 C 
BRANCH  16  17
ATOM     17  C   UNL     1     476.744  33.964 463.178  1.00  0.00    -0.003 C 
ATOM     18  C   UNL     1     475.294  33.661 463.556  1.00  0.00     0.004 C 
ENDBRANCH  16  17
ENDBRANCH  15  16
ENDBRANCH  14  15
ENDBRANCH  13  14
ENDBRANCH  12  13
ENDBRANCH  11  12
ENDBRANCH   1  11
TORSDOF 14
ENDMDL
MODEL 5
REMARK VINA RESULT:    -3.630      2.281      4.823
REMARK INTER + INTRA:          -8.013
REMARK INTER:                  -6.115
REMARK INTRA:                  -1.898
REMARK UNBOUND:                -1.412
REMARK SMILES CCCCCCCCCCCCCCCC(=O)[O-]
REMARK SMILES IDX 9 1 10 2 11 3 12 4 13 5 14 6 15 7 16 8 17 9 18 10 8 11 7 12
REMARK SMILES IDX 6 13 5 14 4 15 3 16 2 17 1 18
REMARK H PARENT
REMARK Flexibility Score: inf
ROOT
ATOM      1  C   UNL     1     478.051  35.041 461.221  1.00  0.00     0.000 C 
ENDROOT
BRANCH   1   2
ATOM      2  C   UNL     1     479.030  35.336 460.071  1.00  0.00     0.000 C 
BRANCH   2   3
ATOM      3  C   UNL     1     479.370  36.833 459.947  1.00  0.00     0.000 C 
BRANCH   3   4
ATOM      4  C   UNL     1     480.105  37.236 458.653  1.00  0.00     0.000 C 
BRANCH   4   5
ATOM      5  C   UNL     1     480.844  38.585 458.712  1.00  0.00     0.000 C 
BRANCH   5   6
ATOM      6  C   UNL     1     482.211  38.488 459.408  1.00  0.00     0.006 C 
BRANCH   6   7
ATOM      7  C   UNL     1     483.141  39.647 459.027  1.00  0.00     0.053 C 
BRANCH   7   8
ATOM      8  C   UNL     1     484.332  39.175 458.250  1.00  0.00     0.041 C 
ATOM      9  O   UNL     1     484.181  38.410 457.262  1.00  0.00    -0.550 OA
ATOM     10  O   UNL     1     485.611  39.556 458.636  1.00  0.00    -0.550 OA
ENDBRANCH   7   8
ENDBRANCH   6   7
ENDBRANCH   5   6
ENDBRANCH   4   5
ENDBRANCH   3   4
ENDBRANCH   2   3
ENDBRANCH   1   2
BRANCH   1  11
ATOM     11  C   UNL     1     477.880  36.239 462.170  1.00  0.00     0.000 C 
BRANCH  11  12
ATOM     12  C   UNL     1     476.429  36.735 462.244  1.00  0.00    -0.000 C 
BRANCH  12  13
ATOM     13  C   UNL     1     476.311  38.169 461.712  1.00  0.00    -0.000 C 
BRANCH  13  14
ATOM     14  C   UNL     1     476.162  39.174 462.860  1.00  0.00    -0.000 C 
BRANCH  14  15
ATOM     15  C   UNL     1     477.408  40.064 462.977  1.00  0.00    -0.000 C 
BRANCH  15  16
ATOM     16  C   UNL     1     478.330  39.968 461.748  1.00  0.00    -0.000 C 
BRANCH  16  17
ATOM     17  C   UNL     1     479.832  39.880 462.070  1.00  0.00    -0.003 C 
ATOM     18  C   UNL     1     480.166  38.775 463.071  1.00  0.00     0.004 C 
ENDBRANCH  16  17
ENDBRANCH  15  16
ENDBRANCH  14  15
ENDBRANCH  13  14
ENDBRANCH  12  13
ENDBRANCH  11  12
ENDBRANCH   1  11
TORSDOF 14
ENDMDL
MODEL 6
REMARK VINA RESULT:    -3.602      3.197      6.946
REMARK INTER + INTRA:          -7.961
REMARK INTER:                  -6.229
REMARK INTRA:                  -1.732
REMARK UNBOUND:                -1.412
REMARK SMILES CCCCCCCCCCCCCCCC(=O)[O-]
REMARK SMILES IDX 9 1 10 2 11 3 12 4 13 5 14 6 15 7 16 8 17 9 18 10 8 11 7 12
REMARK SMILES IDX 6 13 5 14 4 15 3 16 2 17 1 18
REMARK H PARENT
REMARK Flexibility Score: inf
ROOT
ATOM      1  C   UNL     1     480.146  37.319 458.859  1.00  0.00     0.000 C 
ENDROOT
BRANCH   1   2
ATOM      2  C   UNL     1     480.503  38.567 459.684  1.00  0.00     0.000 C 
BRANCH   2   3
ATOM      3  C   UNL     1     479.261  39.282 460.250  1.00  0.00     0.000 C 
BRANCH   3   4
ATOM      4  C   UNL     1     479.085  39.185 461.779  1.00  0.00     0.000 C 
BRANCH   4   5
ATOM      5  C   UNL     1     478.644  37.807 462.302  1.00  0.00     0.000 C 
BRANCH   5   6
ATOM      6  C   UNL     1     477.412  37.254 461.566  1.00  0.00     0.006 C 
BRANCH   6   7
ATOM      7  C   UNL     1     476.806  36.039 462.280  1.00  0.00     0.053 C 
BRANCH   7   8
ATOM      8  C   UNL     1     477.566  34.782 461.985  1.00  0.00     0.041 C 
ATOM      9  O   UNL     1     477.412  33.764 462.710  1.00  0.00    -0.550 OA
ATOM     10  O   UNL     1     478.466  34.744 460.928  1.00  0.00    -0.550 OA
ENDBRANCH   7   8
ENDBRANCH   6   7
ENDBRANCH   5   6
ENDBRANCH   4   5
ENDBRANCH   3   4
ENDBRANCH   2   3
ENDBRANCH   1   2
BRANCH   1  11
ATOM     11  C   UNL     1     480.561  37.450 457.384  1.00  0.00     0.000 C 
BRANCH  11  12
ATOM     12  C   UNL     1     480.825  38.905 456.968  1.00  0.00    -0.000 C 
BRANCH  12  13
ATOM     13  C   UNL     1     482.121  39.016 456.155  1.00  0.00    -0.000 C 
BRANCH  13  14
ATOM     14  C   UNL     1     483.123  37.928 456.561  1.00  0.00    -0.000 C 
BRANCH  14  15
ATOM     15  C   UNL     1     484.274  38.521 457.386  1.00  0.00    -0.000 C 
BRANCH  15  16
ATOM     16  C   UNL     1     484.302  38.001 458.836  1.00  0.00    -0.000 C 
BRANCH  16  17
ATOM     17  C   UNL     1     484.189  39.091 459.917  1.00  0.00    -0.003 C 
ATOM     18  C   UNL     1     483.694  40.429 459.368  1.00  0.00     0.004 C 
ENDBRANCH  16  17
ENDBRANCH  15  16
ENDBRANCH  14  15
ENDBRANCH  13  14
ENDBRANCH  12  13
ENDBRANCH  11  12
ENDBRANCH   1  11
TORSDOF 14
ENDMDL
MODEL 7
REMARK VINA RESULT:    -3.573      2.898      6.360
REMARK INTER + INTRA:          -7.910
REMARK INTER:                  -5.991
REMARK INTRA:                  -1.919
REMARK UNBOUND:                -1.412
REMARK SMILES CCCCCCCCCCCCCCCC(=O)[O-]
REMARK SMILES IDX 9 1 10 2 11 3 12 4 13 5 14 6 15 7 16 8 17 9 18 10 8 11 7 12
REMARK SMILES IDX 6 13 5 14 4 15 3 16 2 17 1 18
REMARK H PARENT
REMARK Flexibility Score: inf
ROOT
ATOM      1  C   UNL     1     481.430  39.482 461.309  1.00  0.00     0.000 C 
ENDROOT
BRANCH   1   2
ATOM      2  C   UNL     1     481.282  40.172 462.676  1.00  0.00     0.000 C 
BRANCH   2   3
ATOM      3  C   UNL     1     480.058  39.673 463.466  1.00  0.00     0.000 C 
BRANCH   3   4
ATOM      4  C   UNL     1     479.393  38.395 462.913  1.00  0.00     0.000 C 
BRANCH   4   5
ATOM      5  C   UNL     1     478.055  38.616 462.186  1.00  0.00     0.000 C 
BRANCH   5   6
ATOM      6  C   UNL     1     477.615  37.396 461.360  1.00  0.00     0.006 C 
BRANCH   6   7
ATOM      7  C   UNL     1     478.740  36.866 460.461  1.00  0.00     0.053 C 
BRANCH   7   8
ATOM      8  C   UNL     1     478.827  35.371 460.499  1.00  0.00     0.041 C 
ATOM      9  O   UNL     1     479.538  34.756 459.661  1.00  0.00    -0.550 OA
ATOM     10  O   UNL     1     478.099  34.654 461.440  1.00  0.00    -0.550 OA
ENDBRANCH   7   8
ENDBRANCH   6   7
ENDBRANCH   5   6
ENDBRANCH   4   5
ENDBRANCH   3   4
ENDBRANCH   2   3
ENDBRANCH   1   2
BRANCH   1  11
ATOM     11  C   UNL     1     481.045  40.404 460.140  1.00  0.00     0.000 C 
BRANCH  11  12
ATOM     12  C   UNL     1     481.542  39.883 458.783  1.00  0.00    -0.000 C 
BRANCH  12  13
ATOM     13  C   UNL     1     482.150  38.481 458.924  1.00  0.00    -0.000 C 
BRANCH  13  14
ATOM     14  C   UNL     1     483.531  38.410 458.261  1.00  0.00    -0.000 C 
BRANCH  14  15
ATOM     15  C   UNL     1     484.613  38.031 459.283  1.00  0.00    -0.000 C 
BRANCH  15  16
ATOM     16  C   UNL     1     485.524  39.215 459.657  1.00  0.00    -0.000 C 
BRANCH  16  17
ATOM     17  C   UNL     1     485.304  39.781 461.070  1.00  0.00    -0.003 C 
ATOM     18  C   UNL     1     484.686  41.179 461.065  1.00  0.00     0.004 C 
ENDBRANCH  16  17
ENDBRANCH  15  16
ENDBRANCH  14  15
ENDBRANCH  13  14
ENDBRANCH  12  13
ENDBRANCH  11  12
ENDBRANCH   1  11
TORSDOF 14
ENDMDL
MODEL 8
REMARK VINA RESULT:    -3.544      2.011      3.284
REMARK INTER + INTRA:          -7.857
REMARK INTER:                  -6.439
REMARK INTRA:                  -1.419
REMARK UNBOUND:                -1.412
REMARK SMILES CCCCCCCCCCCCCCCC(=O)[O-]
REMARK SMILES IDX 9 1 10 2 11 3 12 4 13 5 14 6 15 7 16 8 17 9 18 10 8 11 7 12
REMARK SMILES IDX 6 13 5 14 4 15 3 16 2 17 1 18
REMARK H PARENT
REMARK Flexibility Score: inf
ROOT
ATOM      1  C   UNL     1     480.995  39.379 459.717  1.00  0.00     0.000 C 
ENDROOT
BRANCH   1   2
ATOM      2  C   UNL     1     480.811  37.919 459.267  1.00  0.00     0.000 C 
BRANCH   2   3
ATOM      3  C   UNL     1     480.494  37.794 457.765  1.00  0.00     0.000 C 
BRANCH   3   4
ATOM      4  C   UNL     1     481.382  38.642 456.832  1.00  0.00     0.000 C 
BRANCH   4   5
ATOM      5  C   UNL     1     482.418  37.849 456.015  1.00  0.00     0.000 C 
BRANCH   5   6
ATOM      6  C   UNL     1     483.858  38.339 456.239  1.00  0.00     0.006 C 
BRANCH   6   7
ATOM      7  C   UNL     1     483.961  39.325 457.411  1.00  0.00     0.053 C 
BRANCH   7   8
ATOM      8  C   UNL     1     484.754  38.759 458.548  1.00  0.00     0.041 C 
ATOM      9  O   UNL     1     484.551  37.578 458.937  1.00  0.00    -0.550 OA
ATOM     10  O   UNL     1     485.697  39.544 459.199  1.00  0.00    -0.550 OA
ENDBRANCH   7   8
ENDBRANCH   6   7
ENDBRANCH   5   6
ENDBRANCH   4   5
ENDBRANCH   3   4
ENDBRANCH   2   3
ENDBRANCH   1   2
BRANCH   1  11
ATOM     11  C   UNL     1     481.975  39.513 460.894  1.00  0.00     0.000 C 
BRANCH  11  12
ATOM     12  C   UNL     1     481.263  39.702 462.241  1.00  0.00    -0.000 C 
BRANCH  12  13
ATOM     13  C   UNL     1     479.742  39.592 462.078  1.00  0.00    -0.000 C 
BRANCH  13  14
ATOM     14  C   UNL     1     479.225  38.253 462.618  1.00  0.00    -0.000 C 
BRANCH  14  15
ATOM     15  C   UNL     1     478.067  37.723 461.758  1.00  0.00    -0.000 C 
BRANCH  15  16
ATOM     16  C   UNL     1     478.017  36.185 461.703  1.00  0.00    -0.000 C 
BRANCH  16  17
ATOM     17  C   UNL     1     476.796  35.551 462.390  1.00  0.00    -0.003 C 
ATOM     18  C   UNL     1     477.010  34.083 462.756  1.00  0.00     0.004 C 
ENDBRANCH  16  17
ENDBRANCH  15  16
ENDBRANCH  14  15
ENDBRANCH  13  14
ENDBRANCH  12  13
ENDBRANCH  11  12
ENDBRANCH   1  11
TORSDOF 14
ENDMDL
MODEL 9
REMARK VINA RESULT:    -3.535      3.437      6.779
REMARK INTER + INTRA:          -7.841
REMARK INTER:                  -5.719
REMARK INTRA:                  -2.122
REMARK UNBOUND:                -1.412
REMARK SMILES CCCCCCCCCCCCCCCC(=O)[O-]
REMARK SMILES IDX 9 1 10 2 11 3 12 4 13 5 14 6 15 7 16 8 17 9 18 10 8 11 7 12
REMARK SMILES IDX 6 13 5 14 4 15 3 16 2 17 1 18
REMARK H PARENT
REMARK Flexibility Score: inf
ROOT
ATOM      1  C   UNL     1     481.119  40.889 458.756  1.00  0.00     0.000 C 
ENDROOT
BRANCH   1   2
ATOM      2  C   UNL     1     481.878  40.709 460.082  1.00  0.00     0.000 C 
BRANCH   2   3
ATOM      3  C   UNL     1     481.649  39.324 460.716  1.00  0.00     0.000 C 
BRANCH   3   4
ATOM      4  C   UNL     1     480.181  38.852 460.758  1.00  0.00     0.000 C 
BRANCH   4   5
ATOM      5  C   UNL     1     479.902  37.514 460.052  1.00  0.00     0.000 C 
BRANCH   5   6
ATOM      6  C   UNL     1     478.499  36.962 460.350  1.00  0.00     0.006 C 
BRANCH   6   7
ATOM      7  C   UNL     1     478.535  35.495 460.801  1.00  0.00     0.053 C 
BRANCH   7   8
ATOM      8  C   UNL     1     477.515  35.213 461.861  1.00  0.00     0.041 C 
ATOM      9  O   UNL     1     476.859  36.156 462.377  1.00  0.00    -0.550 OA
ATOM     10  O   UNL     1     477.311  33.911 462.302  1.00  0.00    -0.550 OA
ENDBRANCH   7   8
ENDBRANCH   6   7
ENDBRANCH   5   6
ENDBRANCH   4   5
ENDBRANCH   3   4
ENDBRANCH   2   3
ENDBRANCH   1   2
BRANCH   1  11
ATOM     11  C   UNL     1     481.976  40.520 457.533  1.00  0.00     0.000 C 
BRANCH  11  12
ATOM     12  C   UNL     1     481.514  39.223 456.853  1.00  0.00    -0.000 C 
BRANCH  12  13
ATOM     13  C   UNL     1     482.411  38.045 457.254  1.00  0.00    -0.000 C 
BRANCH  13  14
ATOM     14  C   UNL     1     483.866  38.494 457.429  1.00  0.00    -0.000 C 
BRANCH  14  15
ATOM     15  C   UNL     1     484.426  38.031 458.782  1.00  0.00    -0.000 C 
BRANCH  15  16
ATOM     16  C   UNL     1     485.353  39.072 459.435  1.00  0.00    -0.000 C 
BRANCH  16  17
ATOM     17  C   UNL     1     485.338  40.460 458.771  1.00  0.00    -0.003 C 
ATOM     18  C   UNL     1     485.423  41.607 459.778  1.00  0.00     0.004 C 
ENDBRANCH  16  17
ENDBRANCH  15  16
ENDBRANCH  14  15
ENDBRANCH  13  14
ENDBRANCH  12  13
ENDBRANCH  11  12
ENDBRANCH   1  11
TORSDOF 14
ENDMDL
