MODEL 1
REMARK VINA RESULT:    -4.572      0.000      0.000
REMARK INTER + INTRA:          -5.949
REMARK INTER:                  -5.641
REMARK INTRA:                  -0.308
REMARK UNBOUND:                -0.308
REMARK SMILES CCCCC=CC(C)=O
REMARK SMILES IDX 4 1 3 2 2 3 1 4 5 5 6 6 7 7 9 8 8 9
REMARK H PARENT
REMARK Flexibility Score: inf
ROOT
ATOM      1  C   UNL     1     -11.639  73.857  29.627  1.00  0.00     0.027 C 
ENDROOT
BRANCH   1   2
ATOM      2  C   UNL     1     -10.686  73.326  28.543  1.00  0.00     0.004 C 
BRANCH   2   3
ATOM      3  C   UNL     1      -9.877  74.446  27.871  1.00  0.00    -0.003 C 
ATOM      4  C   UNL     1     -10.574  75.019  26.636  1.00  0.00     0.004 C 
ENDBRANCH   2   3
ENDBRANCH   1   2
BRANCH   1   5
ATOM      5  C   UNL     1     -10.909  74.723  30.618  1.00  0.00    -0.023 C 
ATOM      6  C   UNL     1     -10.785  74.482  31.934  1.00  0.00     0.042 C 
BRANCH   6   7
ATOM      7  C   UNL     1     -11.367  73.342  32.681  1.00  0.00     0.152 C 
ATOM      8  O   UNL     1     -12.415  73.465  33.368  1.00  0.00    -0.295 OA
ATOM      9  C   UNL     1     -10.661  72.025  32.667  1.00  0.00     0.093 C 
ENDBRANCH   6   7
ENDBRANCH   1   5
TORSDOF 4
ENDMDL
MODEL 2
REMARK VINA RESULT:    -4.566      2.304      5.022
REMARK INTER + INTRA:          -5.941
REMARK INTER:                  -5.655
REMARK INTRA:                  -0.286
REMARK UNBOUND:                -0.308
REMARK SMILES CCCCC=CC(C)=O
REMARK SMILES IDX 4 1 3 2 2 3 1 4 5 5 6 6 7 7 9 8 8 9
REMARK H PARENT
REMARK Flexibility Score: inf
ROOT
ATOM      1  C   UNL     1     -10.573  74.582  30.399  1.00  0.00     0.027 C 
ENDROOT
BRANCH   1   2
ATOM      2  C   UNL     1     -10.763  74.328  31.904  1.00  0.00     0.004 C 
BRANCH   2   3
ATOM      3  C   UNL     1     -11.670  73.121  32.187  1.00  0.00    -0.003 C 
ATOM      4  C   UNL     1     -10.964  72.028  32.992  1.00  0.00     0.004 C 
ENDBRANCH   2   3
ENDBRANCH   1   2
BRANCH   1   5
ATOM      5  C   UNL     1     -11.625  73.873  29.589  1.00  0.00    -0.023 C 
ATOM      6  C   UNL     1     -11.539  73.559  28.286  1.00  0.00     0.042 C 
BRANCH   6   7
ATOM      7  C   UNL     1     -10.413  73.873  27.376  1.00  0.00     0.152 C 
ATOM      8  O   UNL     1      -9.344  73.208  27.389  1.00  0.00    -0.295 OA
ATOM      9  C   UNL     1     -10.523  75.048  26.458  1.00  0.00     0.093 C 
ENDBRANCH   6   7
ENDBRANCH   1   5
TORSDOF 4
ENDMDL
MODEL 3
REMARK VINA RESULT:    -4.494      1.251      1.833
REMARK INTER + INTRA:          -5.852
REMARK INTER:                  -5.375
REMARK INTRA:                  -0.477
REMARK UNBOUND:                -0.308
REMARK SMILES CCCCC=CC(C)=O
REMARK SMILES IDX 4 1 3 2 2 3 1 4 5 5 6 6 7 7 9 8 8 9
REMARK H PARENT
REMARK Flexibility Score: inf
ROOT
ATOM      1  C   UNL     1     -11.994  72.241  29.259  1.00  0.00     0.027 C 
ENDROOT
BRANCH   1   2
ATOM      2  C   UNL     1     -11.922  73.481  28.353  1.00  0.00     0.004 C 
BRANCH   2   3
ATOM      3  C   UNL     1     -10.629  73.530  27.525  1.00  0.00    -0.003 C 
ATOM      4  C   UNL     1     -10.027  74.933  27.451  1.00  0.00     0.004 C 
ENDBRANCH   2   3
ENDBRANCH   1   2
BRANCH   1   5
ATOM      5  C   UNL     1     -10.691  72.012  29.976  1.00  0.00    -0.023 C 
ATOM      6  C   UNL     1     -10.325  72.566  31.145  1.00  0.00     0.042 C 
BRANCH   6   7
ATOM      7  C   UNL     1     -11.110  73.535  31.944  1.00  0.00     0.152 C 
ATOM      8  O   UNL     1     -12.020  73.163  32.730  1.00  0.00    -0.295 OA
ATOM      9  C   UNL     1     -10.856  74.997  31.771  1.00  0.00     0.093 C 
ENDBRANCH   6   7
ENDBRANCH   1   5
TORSDOF 4
ENDMDL
MODEL 4
REMARK VINA RESULT:    -4.475      2.282      4.414
REMARK INTER + INTRA:          -5.830
REMARK INTER:                  -5.308
REMARK INTRA:                  -0.522
REMARK UNBOUND:                -0.308
REMARK SMILES CCCCC=CC(C)=O
REMARK SMILES IDX 4 1 3 2 2 3 1 4 5 5 6 6 7 7 9 8 8 9
REMARK H PARENT
REMARK Flexibility Score: inf
ROOT
ATOM      1  C   UNL     1     -10.836  75.021  31.090  1.00  0.00     0.027 C 
ENDROOT
BRANCH   1   2
ATOM      2  C   UNL     1     -10.933  74.446  32.513  1.00  0.00     0.004 C 
BRANCH   2   3
ATOM      3  C   UNL     1     -11.776  73.163  32.572  1.00  0.00    -0.003 C 
ATOM      4  C   UNL     1     -10.948  71.929  32.931  1.00  0.00     0.004 C 
ENDBRANCH   2   3
ENDBRANCH   1   2
BRANCH   1   5
ATOM      5  C   UNL     1      -9.735  74.358  30.307  1.00  0.00    -0.023 C 
ATOM      6  C   UNL     1      -9.891  73.626  29.191  1.00  0.00     0.042 C 
BRANCH   6   7
ATOM      7  C   UNL     1     -11.172  73.295  28.525  1.00  0.00     0.152 C 
ATOM      8  O   UNL     1     -11.619  73.981  27.568  1.00  0.00    -0.295 OA
ATOM      9  C   UNL     1     -11.988  72.154  29.041  1.00  0.00     0.093 C 
ENDBRANCH   6   7
ENDBRANCH   1   5
TORSDOF 4
ENDMDL
MODEL 5
REMARK VINA RESULT:    -4.434      1.502      2.101
REMARK INTER + INTRA:          -5.779
REMARK INTER:                  -5.222
REMARK INTRA:                  -0.558
REMARK UNBOUND:                -0.308
REMARK SMILES CCCCC=CC(C)=O
REMARK SMILES IDX 4 1 3 2 2 3 1 4 5 5 6 6 7 7 9 8 8 9
REMARK H PARENT
REMARK Flexibility Score: inf
ROOT
ATOM      1  C   UNL     1      -9.767  74.725  30.734  1.00  0.00     0.027 C 
ENDROOT
BRANCH   1   2
ATOM      2  C   UNL     1     -10.597  74.323  29.503  1.00  0.00     0.004 C 
BRANCH   2   3
ATOM      3  C   UNL     1     -10.345  72.870  29.073  1.00  0.00    -0.003 C 
ATOM      4  C   UNL     1      -9.341  72.153  29.976  1.00  0.00     0.004 C 
ENDBRANCH   2   3
ENDBRANCH   1   2
BRANCH   1   5
ATOM      5  C   UNL     1     -10.638  75.315  31.810  1.00  0.00    -0.023 C 
ATOM      6  C   UNL     1     -11.311  74.625  32.747  1.00  0.00     0.042 C 
BRANCH   6   7
ATOM      7  C   UNL     1     -11.361  73.151  32.891  1.00  0.00     0.152 C 
ATOM      8  O   UNL     1     -12.121  72.442  32.181  1.00  0.00    -0.295 OA
ATOM      9  C   UNL     1     -10.532  72.493  33.945  1.00  0.00     0.093 C 
ENDBRANCH   6   7
ENDBRANCH   1   5
TORSDOF 4
ENDMDL
MODEL 6
REMARK VINA RESULT:    -4.404      2.258      5.012
REMARK INTER + INTRA:          -5.742
REMARK INTER:                  -5.454
REMARK INTRA:                  -0.287
REMARK UNBOUND:                -0.308
REMARK SMILES CCCCC=CC(C)=O
REMARK SMILES IDX 4 1 3 2 2 3 1 4 5 5 6 6 7 7 9 8 8 9
REMARK H PARENT
REMARK Flexibility Score: inf
ROOT
ATOM      1  C   UNL     1     -10.573  72.566  31.735  1.00  0.00     0.027 C 
ENDROOT
BRANCH   1   2
ATOM      2  C   UNL     1     -11.100  72.058  33.088  1.00  0.00     0.004 C 
BRANCH   2   3
ATOM      3  C   UNL     1     -11.742  73.174  33.925  1.00  0.00    -0.003 C 
ATOM      4  C   UNL     1     -11.436  73.042  35.418  1.00  0.00     0.004 C 
ENDBRANCH   2   3
ENDBRANCH   1   2
BRANCH   1   5
ATOM      5  C   UNL     1     -10.827  74.040  31.570  1.00  0.00    -0.023 C 
ATOM      6  C   UNL     1     -10.943  74.694  30.401  1.00  0.00     0.042 C 
BRANCH   6   7
ATOM      7  C   UNL     1     -10.811  74.109  29.047  1.00  0.00     0.152 C 
ATOM      8  O   UNL     1      -9.705  74.071  28.446  1.00  0.00    -0.295 OA
ATOM      9  C   UNL     1     -12.032  73.605  28.348  1.00  0.00     0.093 C 
ENDBRANCH   6   7
ENDBRANCH   1   5
TORSDOF 4
ENDMDL
MODEL 7
REMARK VINA RESULT:    -4.354      1.140      1.286
REMARK INTER + INTRA:          -5.680
REMARK INTER:                  -5.430
REMARK INTRA:                  -0.250
REMARK UNBOUND:                -0.308
REMARK SMILES CCCCC=CC(C)=O
REMARK SMILES IDX 4 1 3 2 2 3 1 4 5 5 6 6 7 7 9 8 8 9
REMARK H PARENT
REMARK Flexibility Score: inf
ROOT
ATOM      1  C   UNL     1     -11.678  73.717  29.631  1.00  0.00     0.027 C 
ENDROOT
BRANCH   1   2
ATOM      2  C   UNL     1     -11.263  73.880  28.160  1.00  0.00     0.004 C 
BRANCH   2   3
ATOM      3  C   UNL     1      -9.751  74.097  27.996  1.00  0.00    -0.003 C 
ATOM      4  C   UNL     1      -9.318  74.155  26.530  1.00  0.00     0.004 C 
ENDBRANCH   2   3
ENDBRANCH   1   2
BRANCH   1   5
ATOM      5  C   UNL     1     -10.877  74.623  30.527  1.00  0.00    -0.023 C 
ATOM      6  C   UNL     1     -10.568  74.388  31.814  1.00  0.00     0.042 C 
BRANCH   6   7
ATOM      7  C   UNL     1     -10.979  73.215  32.619  1.00  0.00     0.152 C 
ATOM      8  O   UNL     1     -10.434  72.089  32.476  1.00  0.00    -0.295 OA
ATOM      9  C   UNL     1     -12.110  73.354  33.586  1.00  0.00     0.093 C 
ENDBRANCH   6   7
ENDBRANCH   1   5
TORSDOF 4
ENDMDL
MODEL 8
REMARK VINA RESULT:    -4.204      2.056      2.885
REMARK INTER + INTRA:          -5.495
REMARK INTER:                  -5.240
REMARK INTRA:                  -0.255
REMARK UNBOUND:                -0.308
REMARK SMILES CCCCC=CC(C)=O
REMARK SMILES IDX 4 1 3 2 2 3 1 4 5 5 6 6 7 7 9 8 8 9
REMARK H PARENT
REMARK Flexibility Score: inf
ROOT
ATOM      1  C   UNL     1     -10.669  73.633  27.407  1.00  0.00     0.027 C 
ENDROOT
BRANCH   1   2
ATOM      2  C   UNL     1     -10.560  74.863  26.491  1.00  0.00     0.004 C 
BRANCH   2   3
ATOM      3  C   UNL     1     -10.140  74.494  25.060  1.00  0.00    -0.003 C 
ATOM      4  C   UNL     1      -9.733  73.027  24.923  1.00  0.00     0.004 C 
ENDBRANCH   2   3
ENDBRANCH   1   2
BRANCH   1   5
ATOM      5  C   UNL     1     -11.697  73.846  28.485  1.00  0.00    -0.023 C 
ATOM      6  C   UNL     1     -11.453  73.918  29.805  1.00  0.00     0.042 C 
BRANCH   6   7
ATOM      7  C   UNL     1     -10.137  73.770  30.468  1.00  0.00     0.152 C 
ATOM      8  O   UNL     1      -9.614  72.640  30.659  1.00  0.00    -0.295 OA
ATOM      9  C   UNL     1      -9.436  74.987  30.977  1.00  0.00     0.093 C 
ENDBRANCH   6   7
ENDBRANCH   1   5
TORSDOF 4
ENDMDL
MODEL 9
REMARK VINA RESULT:    -4.168      3.219      5.666
REMARK INTER + INTRA:          -5.451
REMARK INTER:                  -5.184
REMARK INTRA:                  -0.267
REMARK UNBOUND:                -0.308
REMARK SMILES CCCCC=CC(C)=O
REMARK SMILES IDX 4 1 3 2 2 3 1 4 5 5 6 6 7 7 9 8 8 9
REMARK H PARENT
REMARK Flexibility Score: inf
ROOT
ATOM      1  C   UNL     1     -11.155  73.525  28.070  1.00  0.00     0.027 C 
ENDROOT
BRANCH   1   2
ATOM      2  C   UNL     1     -11.594  73.692  29.534  1.00  0.00     0.004 C 
BRANCH   2   3
ATOM      3  C   UNL     1     -10.666  74.628  30.323  1.00  0.00    -0.003 C 
ATOM      4  C   UNL     1     -10.885  74.541  31.834  1.00  0.00     0.004 C 
ENDBRANCH   2   3
ENDBRANCH   1   2
BRANCH   1   5
ATOM      5  C   UNL     1      -9.720  73.937  27.880  1.00  0.00    -0.023 C 
ATOM      6  C   UNL     1      -9.055  73.963  26.713  1.00  0.00     0.042 C 
BRANCH   6   7
ATOM      7  C   UNL     1      -9.583  73.562  25.388  1.00  0.00     0.152 C 
ATOM      8  O   UNL     1      -9.559  72.364  25.000  1.00  0.00    -0.295 OA
ATOM      9  C   UNL     1     -10.103  74.613  24.462  1.00  0.00     0.093 C 
ENDBRANCH   6   7
ENDBRANCH   1   5
TORSDOF 4
ENDMDL
