MODEL 1
REMARK VINA RESULT:    -6.023      0.000      0.000
REMARK INTER + INTRA:          -6.617
REMARK INTER:                  -6.551
REMARK INTRA:                  -0.066
REMARK UNBOUND:                -0.066
REMARK SMILES CC(=O)[C@@H]1CC[C@H]2[C@H]3CC=C4C[C@@H](O)CC[C@@]4(C)[C@H]3CC[C@@]12C
REMARK SMILES IDX 4 1 5 2 6 3 7 4 22 5 21 6 20 7 19 8 8 9 9 10 10 11 11 12
REMARK SMILES IDX 17 13 16 14 15 15 13 16 12 17 18 18 23 19 2 20 1 21 3 22
REMARK SMILES IDX 14 23
REMARK H PARENT 14 24
REMARK Flexibility Score: inf
ROOT
ATOM      1  C   UNL     1      18.001  22.735  32.602  1.00  0.00     0.062 C 
ATOM      2  C   UNL     1      18.365  22.249  33.999  1.00  0.00     0.012 C 
ATOM      3  C   UNL     1      18.317  23.499  34.862  1.00  0.00     0.005 C 
ATOM      4  C   UNL     1      17.245  24.408  34.228  1.00  0.00    -0.001 C 
ATOM      5  C   UNL     1      16.920  23.836  32.812  1.00  0.00    -0.020 C 
ATOM      6  C   UNL     1      17.015  24.907  31.694  1.00  0.00     0.008 C 
ATOM      7  C   UNL     1      16.311  26.232  32.037  1.00  0.00     0.005 C 
ATOM      8  C   UNL     1      16.475  26.722  33.515  1.00  0.00     0.003 C 
ATOM      9  C   UNL     1      17.574  25.929  34.270  1.00  0.00     0.000 C 
ATOM     10  C   UNL     1      19.010  26.326  33.813  1.00  0.00     0.031 C 
ATOM     11  C   UNL     1      19.123  27.672  33.124  1.00  0.00    -0.027 C 
ATOM     12  C   UNL     1      18.110  28.562  33.020  1.00  0.00    -0.065 C 
ATOM     13  C   UNL     1      16.746  28.266  33.632  1.00  0.00    -0.008 C 
ATOM     14  C   UNL     1      15.636  29.083  32.898  1.00  0.00     0.014 C 
ATOM     15  C   UNL     1      15.932  30.596  32.778  1.00  0.00     0.033 C 
ATOM     16  C   UNL     1      17.436  30.957  32.697  1.00  0.00     0.118 C 
ATOM     17  C   UNL     1      18.292  29.799  32.171  1.00  0.00     0.063 C 
ATOM     18  C   UNL     1      16.753  28.701  35.125  1.00  0.00     0.016 C 
ATOM     19  C   UNL     1      15.482  23.248  32.816  1.00  0.00     0.012 C 
ENDROOT
BRANCH   1  20
ATOM     20  C   UNL     1      17.628  21.606  31.660  1.00  0.00     0.133 C 
ATOM     21  C   UNL     1      17.678  20.186  32.135  1.00  0.00     0.088 C 
ATOM     22  O   UNL     1      17.255  21.846  30.520  1.00  0.00    -0.300 OA
ENDBRANCH   1  20
BRANCH  16  23
ATOM     23  O   UNL     1      17.620  32.074  31.868  1.00  0.00    -0.393 OA
ATOM     24  H   UNL     1      18.540  32.407  32.037  1.00  0.00     0.210 HD
ENDBRANCH  16  23
TORSDOF 2
ENDMDL
MODEL 2
REMARK VINA RESULT:    -5.461      1.663      6.923
REMARK INTER + INTRA:          -6.005
REMARK INTER:                  -5.817
REMARK INTRA:                  -0.188
REMARK UNBOUND:                -0.066
REMARK SMILES CC(=O)[C@@H]1CC[C@H]2[C@H]3CC=C4C[C@@H](O)CC[C@@]4(C)[C@H]3CC[C@@]12C
REMARK SMILES IDX 4 1 5 2 6 3 7 4 22 5 21 6 20 7 19 8 8 9 9 10 10 11 11 12
REMARK SMILES IDX 17 13 16 14 15 15 13 16 12 17 18 18 23 19 2 20 1 21 3 22
REMARK SMILES IDX 14 23
REMARK H PARENT 14 24
REMARK Flexibility Score: inf
ROOT
ATOM      1  C   UNL     1      17.022  29.564  30.410  1.00  0.00     0.062 C 
ATOM      2  C   UNL     1      15.573  30.011  30.554  1.00  0.00     0.012 C 
ATOM      3  C   UNL     1      14.873  28.831  31.206  1.00  0.00     0.005 C 
ATOM      4  C   UNL     1      15.935  28.147  32.091  1.00  0.00    -0.001 C 
ATOM      5  C   UNL     1      17.328  28.725  31.685  1.00  0.00    -0.020 C 
ATOM      6  C   UNL     1      18.369  27.618  31.368  1.00  0.00     0.008 C 
ATOM      7  C   UNL     1      18.413  26.486  32.409  1.00  0.00     0.005 C 
ATOM      8  C   UNL     1      17.024  26.024  32.966  1.00  0.00     0.003 C 
ATOM      9  C   UNL     1      15.847  26.593  32.131  1.00  0.00     0.000 C 
ATOM     10  C   UNL     1      15.705  25.885  30.750  1.00  0.00     0.031 C 
ATOM     11  C   UNL     1      16.362  24.523  30.648  1.00  0.00    -0.027 C 
ATOM     12  C   UNL     1      16.915  23.864  31.692  1.00  0.00    -0.065 C 
ATOM     13  C   UNL     1      16.892  24.463  33.093  1.00  0.00    -0.008 C 
ATOM     14  C   UNL     1      18.057  23.875  33.951  1.00  0.00     0.014 C 
ATOM     15  C   UNL     1      18.129  22.330  33.953  1.00  0.00     0.033 C 
ATOM     16  C   UNL     1      17.614  21.656  32.657  1.00  0.00     0.118 C 
ATOM     17  C   UNL     1      17.684  22.587  31.441  1.00  0.00     0.063 C 
ATOM     18  C   UNL     1      15.550  24.089  33.784  1.00  0.00     0.016 C 
ATOM     19  C   UNL     1      17.874  29.604  32.845  1.00  0.00     0.012 C 
ENDROOT
BRANCH   1  20
ATOM     20  C   UNL     1      17.971  30.712  30.124  1.00  0.00     0.133 C 
ATOM     21  C   UNL     1      17.536  32.124  30.373  1.00  0.00     0.088 C 
ATOM     22  O   UNL     1      19.105  30.495  29.720  1.00  0.00    -0.300 OA
ENDBRANCH   1  20
BRANCH  16  23
ATOM     23  O   UNL     1      18.358  20.497  32.388  1.00  0.00    -0.393 OA
ATOM     24  H   UNL     1      19.030  20.743  31.699  1.00  0.00     0.210 HD
ENDBRANCH  16  23
TORSDOF 2
ENDMDL
MODEL 3
REMARK VINA RESULT:    -5.455      5.539      7.772
REMARK INTER + INTRA:          -5.999
REMARK INTER:                  -5.845
REMARK INTRA:                  -0.155
REMARK UNBOUND:                -0.066
REMARK SMILES CC(=O)[C@@H]1CC[C@H]2[C@H]3CC=C4C[C@@H](O)CC[C@@]4(C)[C@H]3CC[C@@]12C
REMARK SMILES IDX 4 1 5 2 6 3 7 4 22 5 21 6 20 7 19 8 8 9 9 10 10 11 11 12
REMARK SMILES IDX 17 13 16 14 15 15 13 16 12 17 18 18 23 19 2 20 1 21 3 22
REMARK SMILES IDX 14 23
REMARK H PARENT 14 24
REMARK Flexibility Score: inf
ROOT
ATOM      1  C   UNL     1      11.941  27.647  31.936  1.00  0.00     0.062 C 
ATOM      2  C   UNL     1      10.622  28.301  31.548  1.00  0.00     0.012 C 
ATOM      3  C   UNL     1      10.673  28.395  30.032  1.00  0.00     0.005 C 
ATOM      4  C   UNL     1      11.515  27.191  29.564  1.00  0.00    -0.001 C 
ATOM      5  C   UNL     1      12.231  26.601  30.820  1.00  0.00    -0.020 C 
ATOM      6  C   UNL     1      13.762  26.436  30.618  1.00  0.00     0.008 C 
ATOM      7  C   UNL     1      14.147  25.779  29.282  1.00  0.00     0.005 C 
ATOM      8  C   UNL     1      13.305  26.226  28.039  1.00  0.00     0.003 C 
ATOM      9  C   UNL     1      12.441  27.477  28.346  1.00  0.00     0.000 C 
ATOM     10  C   UNL     1      13.294  28.778  28.433  1.00  0.00     0.031 C 
ATOM     11  C   UNL     1      14.652  28.710  27.761  1.00  0.00    -0.027 C 
ATOM     12  C   UNL     1      15.076  27.673  27.005  1.00  0.00    -0.065 C 
ATOM     13  C   UNL     1      14.174  26.471  26.753  1.00  0.00    -0.008 C 
ATOM     14  C   UNL     1      15.034  25.211  26.415  1.00  0.00     0.014 C 
ATOM     15  C   UNL     1      16.076  25.434  25.294  1.00  0.00     0.033 C 
ATOM     16  C   UNL     1      16.624  26.879  25.197  1.00  0.00     0.118 C 
ATOM     17  C   UNL     1      16.508  27.643  26.521  1.00  0.00     0.063 C 
ATOM     18  C   UNL     1      13.259  26.769  25.532  1.00  0.00     0.016 C 
ATOM     19  C   UNL     1      11.621  25.211  31.151  1.00  0.00     0.012 C 
ENDROOT
BRANCH   1  20
ATOM     20  C   UNL     1      11.948  27.123  33.359  1.00  0.00     0.133 C 
ATOM     21  C   UNL     1      13.246  26.936  34.083  1.00  0.00     0.088 C 
ATOM     22  O   UNL     1      10.897  26.880  33.937  1.00  0.00    -0.300 OA
ENDBRANCH   1  20
BRANCH  16  23
ATOM     23  O   UNL     1      17.970  26.858  24.799  1.00  0.00    -0.393 OA
ATOM     24  H   UNL     1      17.973  26.794  23.808  1.00  0.00     0.210 HD
ENDBRANCH  16  23
TORSDOF 2
ENDMDL
MODEL 4
REMARK VINA RESULT:    -5.433      3.616      4.591
REMARK INTER + INTRA:          -5.975
REMARK INTER:                  -5.849
REMARK INTRA:                  -0.126
REMARK UNBOUND:                -0.066
REMARK SMILES CC(=O)[C@@H]1CC[C@H]2[C@H]3CC=C4C[C@@H](O)CC[C@@]4(C)[C@H]3CC[C@@]12C
REMARK SMILES IDX 4 1 5 2 6 3 7 4 22 5 21 6 20 7 19 8 8 9 9 10 10 11 11 12
REMARK SMILES IDX 17 13 16 14 15 15 13 16 12 17 18 18 23 19 2 20 1 21 3 22
REMARK SMILES IDX 14 23
REMARK H PARENT 14 24
REMARK Flexibility Score: inf
ROOT
ATOM      1  C   UNL     1      18.019  24.575  33.232  1.00  0.00     0.062 C 
ATOM      2  C   UNL     1      18.332  25.710  34.198  1.00  0.00     0.012 C 
ATOM      3  C   UNL     1      17.940  26.971  33.445  1.00  0.00     0.005 C 
ATOM      4  C   UNL     1      16.773  26.565  32.523  1.00  0.00    -0.001 C 
ATOM      5  C   UNL     1      16.719  25.004  32.492  1.00  0.00    -0.020 C 
ATOM      6  C   UNL     1      16.703  24.431  31.050  1.00  0.00     0.008 C 
ATOM      7  C   UNL     1      15.708  25.135  30.110  1.00  0.00     0.005 C 
ATOM      8  C   UNL     1      15.616  26.691  30.264  1.00  0.00     0.003 C 
ATOM      9  C   UNL     1      16.773  27.256  31.129  1.00  0.00     0.000 C 
ATOM     10  C   UNL     1      18.135  27.254  30.370  1.00  0.00     0.031 C 
ATOM     11  C   UNL     1      18.036  27.179  28.859  1.00  0.00    -0.027 C 
ATOM     12  C   UNL     1      16.876  27.255  28.167  1.00  0.00    -0.065 C 
ATOM     13  C   UNL     1      15.548  27.449  28.889  1.00  0.00    -0.008 C 
ATOM     14  C   UNL     1      14.373  26.909  28.013  1.00  0.00     0.014 C 
ATOM     15  C   UNL     1      14.360  27.446  26.563  1.00  0.00     0.033 C 
ATOM     16  C   UNL     1      15.757  27.781  25.984  1.00  0.00     0.118 C 
ATOM     17  C   UNL     1      16.883  27.005  26.676  1.00  0.00     0.063 C 
ATOM     18  C   UNL     1      15.314  28.969  29.121  1.00  0.00     0.016 C 
ATOM     19  C   UNL     1      15.440  24.522  33.233  1.00  0.00     0.012 C 
ENDROOT
BRANCH   1  20
ATOM     20  C   UNL     1      17.986  23.217  33.905  1.00  0.00     0.133 C 
ATOM     21  C   UNL     1      17.992  21.969  33.075  1.00  0.00     0.088 C 
ATOM     22  O   UNL     1      17.986  23.126  35.125  1.00  0.00    -0.300 OA
ENDBRANCH   1  20
BRANCH  16  23
ATOM     23  O   UNL     1      15.789  27.503  24.609  1.00  0.00    -0.393 OA
ATOM     24  H   UNL     1      15.570  28.351  24.141  1.00  0.00     0.210 HD
ENDBRANCH  16  23
TORSDOF 2
ENDMDL
MODEL 5
REMARK VINA RESULT:    -5.421      7.303      9.492
REMARK INTER + INTRA:          -5.962
REMARK INTER:                  -5.845
REMARK INTRA:                  -0.117
REMARK UNBOUND:                -0.066
REMARK SMILES CC(=O)[C@@H]1CC[C@H]2[C@H]3CC=C4C[C@@H](O)CC[C@@]4(C)[C@H]3CC[C@@]12C
REMARK SMILES IDX 4 1 5 2 6 3 7 4 22 5 21 6 20 7 19 8 8 9 9 10 10 11 11 12
REMARK SMILES IDX 17 13 16 14 15 15 13 16 12 17 18 18 23 19 2 20 1 21 3 22
REMARK SMILES IDX 14 23
REMARK H PARENT 14 24
REMARK Flexibility Score: inf
ROOT
ATOM      1  C   UNL     1      13.197  29.187  23.213  1.00  0.00     0.062 C 
ATOM      2  C   UNL     1      12.373  28.002  22.728  1.00  0.00     0.012 C 
ATOM      3  C   UNL     1      12.660  26.899  23.734  1.00  0.00     0.005 C 
ATOM      4  C   UNL     1      12.930  27.612  25.074  1.00  0.00    -0.001 C 
ATOM      5  C   UNL     1      13.135  29.130  24.767  1.00  0.00    -0.020 C 
ATOM      6  C   UNL     1      14.442  29.697  25.382  1.00  0.00     0.008 C 
ATOM      7  C   UNL     1      14.667  29.295  26.850  1.00  0.00     0.005 C 
ATOM      8  C   UNL     1      14.285  27.820  27.214  1.00  0.00     0.003 C 
ATOM      9  C   UNL     1      14.038  26.957  25.949  1.00  0.00     0.000 C 
ATOM     10  C   UNL     1      15.363  26.598  25.210  1.00  0.00     0.031 C 
ATOM     11  C   UNL     1      16.623  26.709  26.046  1.00  0.00    -0.027 C 
ATOM     12  C   UNL     1      16.636  26.954  27.376  1.00  0.00    -0.065 C 
ATOM     13  C   UNL     1      15.334  27.119  28.151  1.00  0.00    -0.008 C 
ATOM     14  C   UNL     1      15.578  27.963  29.442  1.00  0.00     0.014 C 
ATOM     15  C   UNL     1      16.748  27.460  30.320  1.00  0.00     0.033 C 
ATOM     16  C   UNL     1      17.891  26.765  29.540  1.00  0.00     0.118 C 
ATOM     17  C   UNL     1      17.954  27.204  28.073  1.00  0.00     0.063 C 
ATOM     18  C   UNL     1      14.819  25.717  28.584  1.00  0.00     0.016 C 
ATOM     19  C   UNL     1      11.931  29.933  25.332  1.00  0.00     0.012 C 
ENDROOT
BRANCH   1  20
ATOM     20  C   UNL     1      12.781  30.499  22.576  1.00  0.00     0.133 C 
ATOM     21  C   UNL     1      13.799  31.571  22.334  1.00  0.00     0.088 C 
ATOM     22  O   UNL     1      11.622  30.681  22.228  1.00  0.00    -0.300 OA
ENDBRANCH   1  20
BRANCH  16  23
ATOM     23  O   UNL     1      19.125  27.036  30.150  1.00  0.00    -0.393 OA
ATOM     24  H   UNL     1      19.396  26.206  30.625  1.00  0.00     0.210 HD
ENDBRANCH  16  23
TORSDOF 2
ENDMDL
MODEL 6
REMARK VINA RESULT:    -5.390      8.034     10.206
REMARK INTER + INTRA:          -5.929
REMARK INTER:                  -5.769
REMARK INTRA:                  -0.160
REMARK UNBOUND:                -0.066
REMARK SMILES CC(=O)[C@@H]1CC[C@H]2[C@H]3CC=C4C[C@@H](O)CC[C@@]4(C)[C@H]3CC[C@@]12C
REMARK SMILES IDX 4 1 5 2 6 3 7 4 22 5 21 6 20 7 19 8 8 9 9 10 10 11 11 12
REMARK SMILES IDX 17 13 16 14 15 15 13 16 12 17 18 18 23 19 2 20 1 21 3 22
REMARK SMILES IDX 14 23
REMARK H PARENT 14 24
REMARK Flexibility Score: inf
ROOT
ATOM      1  C   UNL     1      11.463  29.293  30.097  1.00  0.00     0.062 C 
ATOM      2  C   UNL     1       9.976  29.513  30.336  1.00  0.00     0.012 C 
ATOM      3  C   UNL     1       9.383  29.662  28.945  1.00  0.00     0.005 C 
ATOM      4  C   UNL     1      10.260  28.796  28.019  1.00  0.00    -0.001 C 
ATOM      5  C   UNL     1      11.554  28.423  28.809  1.00  0.00    -0.020 C 
ATOM      6  C   UNL     1      12.854  28.750  28.026  1.00  0.00     0.008 C 
ATOM      7  C   UNL     1      12.832  28.286  26.559  1.00  0.00     0.005 C 
ATOM      8  C   UNL     1      11.472  28.483  25.807  1.00  0.00     0.003 C 
ATOM      9  C   UNL     1      10.498  29.393  26.601  1.00  0.00     0.000 C 
ATOM     10  C   UNL     1      10.921  30.893  26.557  1.00  0.00     0.031 C 
ATOM     11  C   UNL     1      11.853  31.272  25.424  1.00  0.00    -0.027 C 
ATOM     12  C   UNL     1      12.204  30.442  24.416  1.00  0.00    -0.065 C 
ATOM     13  C   UNL     1      11.645  29.026  24.341  1.00  0.00    -0.008 C 
ATOM     14  C   UNL     1      12.604  28.109  23.519  1.00  0.00     0.014 C 
ATOM     15  C   UNL     1      13.001  28.678  22.137  1.00  0.00     0.033 C 
ATOM     16  C   UNL     1      13.044  30.225  22.062  1.00  0.00     0.118 C 
ATOM     17  C   UNL     1      13.266  30.875  23.432  1.00  0.00     0.063 C 
ATOM     18  C   UNL     1      10.272  29.059  23.613  1.00  0.00     0.016 C 
ATOM     19  C   UNL     1      11.537  26.902  29.130  1.00  0.00     0.012 C 
ENDROOT
BRANCH   1  20
ATOM     20  C   UNL     1      12.187  28.756  31.317  1.00  0.00     0.133 C 
ATOM     21  C   UNL     1      11.425  28.020  32.377  1.00  0.00     0.088 C 
ATOM     22  O   UNL     1      13.398  28.889  31.430  1.00  0.00    -0.300 OA
ENDBRANCH   1  20
BRANCH  16  23
ATOM     23  O   UNL     1      14.063  30.637  21.190  1.00  0.00    -0.393 OA
ATOM     24  H   UNL     1      13.697  30.565  20.269  1.00  0.00     0.210 HD
ENDBRANCH  16  23
TORSDOF 2
ENDMDL
MODEL 7
REMARK VINA RESULT:    -5.329      5.901      7.452
REMARK INTER + INTRA:          -5.862
REMARK INTER:                  -5.713
REMARK INTRA:                  -0.149
REMARK UNBOUND:                -0.066
REMARK SMILES CC(=O)[C@@H]1CC[C@H]2[C@H]3CC=C4C[C@@H](O)CC[C@@]4(C)[C@H]3CC[C@@]12C
REMARK SMILES IDX 4 1 5 2 6 3 7 4 22 5 21 6 20 7 19 8 8 9 9 10 10 11 11 12
REMARK SMILES IDX 17 13 16 14 15 15 13 16 12 17 18 18 23 19 2 20 1 21 3 22
REMARK SMILES IDX 14 23
REMARK H PARENT 14 24
REMARK Flexibility Score: inf
ROOT
ATOM      1  C   UNL     1      14.267  25.367  31.255  1.00  0.00     0.062 C 
ATOM      2  C   UNL     1      15.758  25.441  31.552  1.00  0.00     0.012 C 
ATOM      3  C   UNL     1      16.365  26.069  30.308  1.00  0.00     0.005 C 
ATOM      4  C   UNL     1      15.281  27.005  29.738  1.00  0.00    -0.001 C 
ATOM      5  C   UNL     1      13.937  26.660  30.454  1.00  0.00    -0.020 C 
ATOM      6  C   UNL     1      12.775  26.399  29.459  1.00  0.00     0.008 C 
ATOM      7  C   UNL     1      12.664  27.448  28.339  1.00  0.00     0.005 C 
ATOM      8  C   UNL     1      14.023  27.945  27.740  1.00  0.00     0.003 C 
ATOM      9  C   UNL     1      15.212  27.053  28.184  1.00  0.00     0.000 C 
ATOM     10  C   UNL     1      15.217  25.671  27.462  1.00  0.00     0.031 C 
ATOM     11  C   UNL     1      14.421  25.609  26.173  1.00  0.00    -0.027 C 
ATOM     12  C   UNL     1      13.853  26.682  25.577  1.00  0.00    -0.065 C 
ATOM     13  C   UNL     1      14.002  28.076  26.173  1.00  0.00    -0.008 C 
ATOM     14  C   UNL     1      12.825  28.991  25.708  1.00  0.00     0.014 C 
ATOM     15  C   UNL     1      12.596  29.007  24.179  1.00  0.00     0.033 C 
ATOM     16  C   UNL     1      12.979  27.693  23.454  1.00  0.00     0.118 C 
ATOM     17  C   UNL     1      12.947  26.475  24.384  1.00  0.00     0.063 C 
ATOM     18  C   UNL     1      15.329  28.707  25.666  1.00  0.00     0.016 C 
ATOM     19  C   UNL     1      13.537  27.837  31.386  1.00  0.00     0.012 C 
ENDROOT
BRANCH   1  20
ATOM     20  C   UNL     1      13.427  25.117  32.492  1.00  0.00     0.133 C 
ATOM     21  C   UNL     1      12.015  24.634  32.356  1.00  0.00     0.088 C 
ATOM     22  O   UNL     1      13.902  25.275  33.609  1.00  0.00    -0.300 OA
ENDBRANCH   1  20
BRANCH  16  23
ATOM     23  O   UNL     1      12.110  27.467  22.376  1.00  0.00    -0.393 OA
ATOM     24  H   UNL     1      11.245  27.170  22.764  1.00  0.00     0.210 HD
ENDBRANCH  16  23
TORSDOF 2
ENDMDL
MODEL 8
REMARK VINA RESULT:    -5.191      5.848      7.330
REMARK INTER + INTRA:          -5.712
REMARK INTER:                  -5.524
REMARK INTRA:                  -0.188
REMARK UNBOUND:                -0.066
REMARK SMILES CC(=O)[C@@H]1CC[C@H]2[C@H]3CC=C4C[C@@H](O)CC[C@@]4(C)[C@H]3CC[C@@]12C
REMARK SMILES IDX 4 1 5 2 6 3 7 4 22 5 21 6 20 7 19 8 8 9 9 10 10 11 11 12
REMARK SMILES IDX 17 13 16 14 15 15 13 16 12 17 18 18 23 19 2 20 1 21 3 22
REMARK SMILES IDX 14 23
REMARK H PARENT 14 24
REMARK Flexibility Score: inf
ROOT
ATOM      1  C   UNL     1      16.910  25.779  30.260  1.00  0.00     0.062 C 
ATOM      2  C   UNL     1      18.251  26.494  30.184  1.00  0.00     0.012 C 
ATOM      3  C   UNL     1      18.125  27.417  28.984  1.00  0.00     0.005 C 
ATOM      4  C   UNL     1      16.634  27.804  28.906  1.00  0.00    -0.001 C 
ATOM      5  C   UNL     1      15.847  26.840  29.848  1.00  0.00    -0.020 C 
ATOM      6  C   UNL     1      14.646  26.156  29.143  1.00  0.00     0.008 C 
ATOM      7  C   UNL     1      13.771  27.122  28.325  1.00  0.00     0.005 C 
ATOM      8  C   UNL     1      14.545  28.220  27.519  1.00  0.00     0.003 C 
ATOM      9  C   UNL     1      16.068  27.929  27.461  1.00  0.00     0.000 C 
ATOM     10  C   UNL     1      16.409  26.755  26.495  1.00  0.00     0.031 C 
ATOM     11  C   UNL     1      15.348  26.435  25.461  1.00  0.00    -0.027 C 
ATOM     12  C   UNL     1      14.236  27.177  25.257  1.00  0.00    -0.065 C 
ATOM     13  C   UNL     1      13.981  28.441  26.069  1.00  0.00    -0.008 C 
ATOM     14  C   UNL     1      12.453  28.760  26.109  1.00  0.00     0.014 C 
ATOM     15  C   UNL     1      11.770  28.782  24.722  1.00  0.00     0.033 C 
ATOM     16  C   UNL     1      12.407  27.839  23.671  1.00  0.00     0.118 C 
ATOM     17  C   UNL     1      13.169  26.673  24.311  1.00  0.00     0.063 C 
ATOM     18  C   UNL     1      14.703  29.638  25.386  1.00  0.00     0.016 C 
ATOM     19  C   UNL     1      15.317  27.639  31.071  1.00  0.00     0.012 C 
ENDROOT
BRANCH   1  20
ATOM     20  C   UNL     1      16.680  25.087  31.590  1.00  0.00     0.133 C 
ATOM     21  C   UNL     1      17.553  25.413  32.765  1.00  0.00     0.088 C 
ATOM     22  O   UNL     1      15.767  24.285  31.725  1.00  0.00    -0.300 OA
ENDBRANCH   1  20
BRANCH  16  23
ATOM     23  O   UNL     1      11.416  27.324  22.822  1.00  0.00    -0.393 OA
ATOM     24  H   UNL     1      10.560  27.748  23.093  1.00  0.00     0.210 HD
ENDBRANCH  16  23
TORSDOF 2
ENDMDL
MODEL 9
REMARK VINA RESULT:    -5.148      4.374      6.513
REMARK INTER + INTRA:          -5.665
REMARK INTER:                  -5.493
REMARK INTRA:                  -0.172
REMARK UNBOUND:                -0.066
REMARK SMILES CC(=O)[C@@H]1CC[C@H]2[C@H]3CC=C4C[C@@H](O)CC[C@@]4(C)[C@H]3CC[C@@]12C
REMARK SMILES IDX 4 1 5 2 6 3 7 4 22 5 21 6 20 7 19 8 8 9 9 10 10 11 11 12
REMARK SMILES IDX 17 13 16 14 15 15 13 16 12 17 18 18 23 19 2 20 1 21 3 22
REMARK SMILES IDX 14 23
REMARK H PARENT 14 24
REMARK Flexibility Score: inf
ROOT
ATOM      1  C   UNL     1      17.311  27.090  32.642  1.00  0.00     0.062 C 
ATOM      2  C   UNL     1      17.532  25.640  33.052  1.00  0.00     0.012 C 
ATOM      3  C   UNL     1      17.010  24.828  31.879  1.00  0.00     0.005 C 
ATOM      4  C   UNL     1      17.250  25.694  30.626  1.00  0.00    -0.001 C 
ATOM      5  C   UNL     1      17.593  27.138  31.112  1.00  0.00    -0.020 C 
ATOM      6  C   UNL     1      16.717  28.226  30.434  1.00  0.00     0.008 C 
ATOM      7  C   UNL     1      16.593  28.066  28.909  1.00  0.00     0.005 C 
ATOM      8  C   UNL     1      16.436  26.595  28.393  1.00  0.00     0.003 C 
ATOM      9  C   UNL     1      16.130  25.606  29.549  1.00  0.00     0.000 C 
ATOM     10  C   UNL     1      14.669  25.744  30.074  1.00  0.00     0.031 C 
ATOM     11  C   UNL     1      13.697  26.413  29.122  1.00  0.00    -0.027 C 
ATOM     12  C   UNL     1      13.991  26.749  27.846  1.00  0.00    -0.065 C 
ATOM     13  C   UNL     1      15.362  26.446  27.255  1.00  0.00    -0.008 C 
ATOM     14  C   UNL     1      15.668  27.417  26.071  1.00  0.00     0.014 C 
ATOM     15  C   UNL     1      14.551  27.493  25.005  1.00  0.00     0.033 C 
ATOM     16  C   UNL     1      13.121  27.249  25.546  1.00  0.00     0.118 C 
ATOM     17  C   UNL     1      12.997  27.557  27.043  1.00  0.00     0.063 C 
ATOM     18  C   UNL     1      15.365  24.994  26.697  1.00  0.00     0.016 C 
ATOM     19  C   UNL     1      19.086  27.440  30.803  1.00  0.00     0.012 C 
ENDROOT
BRANCH   1  20
ATOM     20  C   UNL     1      18.089  28.073  33.495  1.00  0.00     0.133 C 
ATOM     21  C   UNL     1      19.125  27.575  34.456  1.00  0.00     0.088 C 
ATOM     22  O   UNL     1      17.902  29.277  33.384  1.00  0.00    -0.300 OA
ENDBRANCH   1  20
BRANCH  16  23
ATOM     23  O   UNL     1      12.197  28.035  24.841  1.00  0.00    -0.393 OA
ATOM     24  H   UNL     1      11.477  27.423  24.533  1.00  0.00     0.210 HD
ENDBRANCH  16  23
TORSDOF 2
ENDMDL
