MODEL 1
REMARK VINA RESULT:    -6.109      0.000      0.000
REMARK INTER + INTRA:         -10.257
REMARK INTER:                  -9.323
REMARK INTRA:                  -0.934
REMARK UNBOUND:                -0.934
REMARK SMILES COc1cc(C=CC(=O)CC(=O)C=Cc2ccc(O)c(OC)c2)ccc1O
REMARK SMILES IDX 10 1 8 2 9 3 7 4 6 5 5 6 3 7 26 8 4 9 25 10 24 11 2 12 1 13
REMARK SMILES IDX 27 14 11 16 12 17 13 18 14 19 15 20 23 21 16 22 20 23 17 24
REMARK SMILES IDX 18 25 21 26 22 27 19 28
REMARK H PARENT 27 15 19 29
REMARK Flexibility Score: inf
ROOT
ATOM      1  C   UNL     1       9.095  10.473  13.359  1.00  0.00     0.160 C 
ENDROOT
BRANCH   1   2
ATOM      2  C   UNL     1       9.613  10.290  11.965  1.00  0.00     0.163 C 
ATOM      3  O   UNL     1       8.875  10.603  10.992  1.00  0.00    -0.294 OA
BRANCH   2   4
ATOM      4  C   UNL     1      10.927   9.644  11.749  1.00  0.00     0.048 C 
ATOM      5  C   UNL     1      11.987  10.214  11.156  1.00  0.00     0.012 C 
BRANCH   5   6
ATOM      6  C   UNL     1      12.092  11.639  10.779  1.00  0.00    -0.022 A 
ATOM      7  C   UNL     1      11.535  13.443   9.230  1.00  0.00     0.161 A 
ATOM      8  C   UNL     1      12.349  14.316   9.965  1.00  0.00     0.157 A 
ATOM      9  C   UNL     1      11.420  12.099   9.637  1.00  0.00     0.058 A 
ATOM     10  C   UNL     1      13.046  13.850  11.089  1.00  0.00     0.051 A 
ATOM     11  C   UNL     1      12.928  12.518  11.487  1.00  0.00     0.012 A 
BRANCH   7  12
ATOM     12  O   UNL     1      10.862  13.944   8.105  1.00  0.00    -0.493 OA
ATOM     13  C   UNL     1       9.474  14.261   8.071  1.00  0.00     0.278 C 
ENDBRANCH   7  12
BRANCH   8  14
ATOM     14  O   UNL     1      12.464  15.648   9.571  1.00  0.00    -0.504 OA
ATOM     15  H   UNL     1      13.367  16.074   9.398  1.00  0.00     0.293 HD
ENDBRANCH   8  14
ENDBRANCH   5   6
ENDBRANCH   2   4
ENDBRANCH   1   2
BRANCH   1  16
ATOM     16  C   UNL     1       9.735  11.672  13.995  1.00  0.00     0.163 C 
ATOM     17  O   UNL     1       9.883  12.725  13.316  1.00  0.00    -0.294 OA
BRANCH  16  18
ATOM     18  C   UNL     1      10.220  11.597  15.388  1.00  0.00     0.048 C 
ATOM     19  C   UNL     1       9.451  11.941  16.431  1.00  0.00     0.012 C 
BRANCH  19  20
ATOM     20  C   UNL     1       9.910  11.898  17.841  1.00  0.00    -0.022 A 
ATOM     21  C   UNL     1      10.231  10.653  18.408  1.00  0.00     0.058 A 
ATOM     22  C   UNL     1      10.069  13.060  18.618  1.00  0.00     0.012 A 
ATOM     23  C   UNL     1      10.679  10.558  19.741  1.00  0.00     0.161 A 
ATOM     24  C   UNL     1      10.513  12.972  19.939  1.00  0.00     0.051 A 
ATOM     25  C   UNL     1      10.816  11.730  20.504  1.00  0.00     0.157 A 
BRANCH  23  26
ATOM     26  O   UNL     1      10.996   9.324  20.332  1.00  0.00    -0.493 OA
ATOM     27  C   UNL     1      10.050   8.456  20.947  1.00  0.00     0.278 C 
ENDBRANCH  23  26
BRANCH  25  28
ATOM     28  O   UNL     1      11.255  11.683  21.827  1.00  0.00    -0.504 OA
ATOM     29  H   UNL     1      10.796  12.198  22.567  1.00  0.00     0.293 HD
ENDBRANCH  25  28
ENDBRANCH  19  20
ENDBRANCH  16  18
ENDBRANCH   1  16
TORSDOF 10
ENDMDL
MODEL 2
REMARK VINA RESULT:    -6.061      1.115      1.984
REMARK INTER + INTRA:         -10.185
REMARK INTER:                  -9.382
REMARK INTRA:                  -0.803
REMARK UNBOUND:                -0.934
REMARK SMILES COc1cc(C=CC(=O)CC(=O)C=Cc2ccc(O)c(OC)c2)ccc1O
REMARK SMILES IDX 10 1 8 2 9 3 7 4 6 5 5 6 3 7 26 8 4 9 25 10 24 11 2 12 1 13
REMARK SMILES IDX 27 14 11 16 12 17 13 18 14 19 15 20 23 21 16 22 20 23 17 24
REMARK SMILES IDX 18 25 21 26 22 27 19 28
REMARK H PARENT 27 15 19 29
REMARK Flexibility Score: inf
ROOT
ATOM      1  C   UNL     1      10.667  11.637  13.955  1.00  0.00     0.160 C 
ENDROOT
BRANCH   1   2
ATOM      2  C   UNL     1      10.130  10.722  12.898  1.00  0.00     0.163 C 
ATOM      3  O   UNL     1       8.882  10.576  12.791  1.00  0.00    -0.294 OA
BRANCH   2   4
ATOM      4  C   UNL     1      11.063   9.922  12.074  1.00  0.00     0.048 C 
ATOM      5  C   UNL     1      11.802  10.390  11.056  1.00  0.00     0.012 C 
BRANCH   5   6
ATOM      6  C   UNL     1      11.952  11.815  10.693  1.00  0.00    -0.022 A 
ATOM      7  C   UNL     1      11.237  13.721   9.344  1.00  0.00     0.161 A 
ATOM      8  C   UNL     1      12.270  14.491   9.897  1.00  0.00     0.157 A 
ATOM      9  C   UNL     1      11.090  12.376   9.740  1.00  0.00     0.058 A 
ATOM     10  C   UNL     1      13.151  13.922  10.827  1.00  0.00     0.051 A 
ATOM     11  C   UNL     1      13.001  12.590  11.214  1.00  0.00     0.012 A 
BRANCH   7  12
ATOM     12  O   UNL     1      10.381  14.323   8.409  1.00  0.00    -0.493 OA
ATOM     13  C   UNL     1       8.987  14.053   8.301  1.00  0.00     0.278 C 
ENDBRANCH   7  12
BRANCH   8  14
ATOM     14  O   UNL     1      12.418  15.823   9.514  1.00  0.00    -0.504 OA
ATOM     15  H   UNL     1      12.399  16.575  10.192  1.00  0.00     0.293 HD
ENDBRANCH   8  14
ENDBRANCH   5   6
ENDBRANCH   2   4
ENDBRANCH   1   2
BRANCH   1  16
ATOM     16  C   UNL     1       9.600  11.946  14.963  1.00  0.00     0.163 C 
ATOM     17  O   UNL     1       8.875  12.966  14.799  1.00  0.00    -0.294 OA
BRANCH  16  18
ATOM     18  C   UNL     1       9.434  11.085  16.150  1.00  0.00     0.048 C 
ATOM     19  C   UNL     1       9.987  11.386  17.334  1.00  0.00     0.012 C 
BRANCH  19  20
ATOM     20  C   UNL     1       9.859  10.535  18.543  1.00  0.00    -0.022 A 
ATOM     21  C   UNL     1      10.335  11.031  19.769  1.00  0.00     0.058 A 
ATOM     22  C   UNL     1       9.248   9.268  18.512  1.00  0.00     0.012 A 
ATOM     23  C   UNL     1      10.230  10.266  20.948  1.00  0.00     0.161 A 
ATOM     24  C   UNL     1       9.142   8.507  19.678  1.00  0.00     0.051 A 
ATOM     25  C   UNL     1       9.631   8.996  20.892  1.00  0.00     0.157 A 
BRANCH  23  26
ATOM     26  O   UNL     1      10.707  10.735  22.183  1.00  0.00    -0.493 OA
ATOM     27  C   UNL     1      10.363  11.991  22.759  1.00  0.00     0.278 C 
ENDBRANCH  23  26
BRANCH  25  28
ATOM     28  O   UNL     1       9.507   8.205  22.034  1.00  0.00    -0.504 OA
ATOM     29  H   UNL     1       9.067   7.294  22.015  1.00  0.00     0.293 HD
ENDBRANCH  25  28
ENDBRANCH  19  20
ENDBRANCH  16  18
ENDBRANCH   1  16
TORSDOF 10
ENDMDL
MODEL 3
REMARK VINA RESULT:    -5.891      4.429      5.443
REMARK INTER + INTRA:          -9.925
REMARK INTER:                  -8.985
REMARK INTRA:                  -0.940
REMARK UNBOUND:                -0.934
REMARK SMILES COc1cc(C=CC(=O)CC(=O)C=Cc2ccc(O)c(OC)c2)ccc1O
REMARK SMILES IDX 10 1 8 2 9 3 7 4 6 5 5 6 3 7 26 8 4 9 25 10 24 11 2 12 1 13
REMARK SMILES IDX 27 14 11 16 12 17 13 18 14 19 15 20 23 21 16 22 20 23 17 24
REMARK SMILES IDX 18 25 21 26 22 27 19 28
REMARK H PARENT 27 15 19 29
REMARK Flexibility Score: inf
ROOT
ATOM      1  C   UNL     1      11.571  11.637  14.512  1.00  0.00     0.160 C 
ENDROOT
BRANCH   1   2
ATOM      2  C   UNL     1      10.206  11.580  13.898  1.00  0.00     0.163 C 
ATOM      3  O   UNL     1       9.780  10.481  13.452  1.00  0.00    -0.294 OA
BRANCH   2   4
ATOM      4  C   UNL     1       9.427  12.826  13.722  1.00  0.00     0.048 C 
ATOM      5  C   UNL     1       9.571  13.700  12.714  1.00  0.00     0.012 C 
BRANCH   5   6
ATOM      6  C   UNL     1      10.401  13.487  11.511  1.00  0.00    -0.022 A 
ATOM      7  C   UNL     1      10.783  12.298   9.412  1.00  0.00     0.161 A 
ATOM      8  C   UNL     1      12.002  12.974   9.259  1.00  0.00     0.157 A 
ATOM      9  C   UNL     1       9.991  12.552  10.550  1.00  0.00     0.058 A 
ATOM     10  C   UNL     1      12.428  13.887  10.234  1.00  0.00     0.051 A 
ATOM     11  C   UNL     1      11.639  14.134  11.358  1.00  0.00     0.012 A 
BRANCH   7  12
ATOM     12  O   UNL     1      10.396  11.385   8.419  1.00  0.00    -0.493 OA
ATOM     13  C   UNL     1       9.559  11.704   7.312  1.00  0.00     0.278 C 
ENDBRANCH   7  12
BRANCH   8  14
ATOM     14  O   UNL     1      12.788  12.732   8.134  1.00  0.00    -0.504 OA
ATOM     15  H   UNL     1      12.398  12.751   7.199  1.00  0.00     0.293 HD
ENDBRANCH   8  14
ENDBRANCH   5   6
ENDBRANCH   2   4
ENDBRANCH   1   2
BRANCH   1  16
ATOM     16  C   UNL     1      12.612  11.291  13.490  1.00  0.00     0.163 C 
ATOM     17  O   UNL     1      12.266  10.695  12.433  1.00  0.00    -0.294 OA
BRANCH  16  18
ATOM     18  C   UNL     1      14.031  11.614  13.744  1.00  0.00     0.048 C 
ATOM     19  C   UNL     1      14.574  11.529  14.966  1.00  0.00     0.012 C 
BRANCH  19  20
ATOM     20  C   UNL     1      15.989  11.865  15.263  1.00  0.00    -0.022 A 
ATOM     21  C   UNL     1      16.362  12.089  16.600  1.00  0.00     0.058 A 
ATOM     22  C   UNL     1      16.975  11.931  14.262  1.00  0.00     0.012 A 
ATOM     23  C   UNL     1      17.694  12.403  16.936  1.00  0.00     0.161 A 
ATOM     24  C   UNL     1      18.296  12.242  14.591  1.00  0.00     0.051 A 
ATOM     25  C   UNL     1      18.660  12.480  15.918  1.00  0.00     0.157 A 
BRANCH  23  26
ATOM     26  O   UNL     1      18.088  12.641  18.263  1.00  0.00    -0.493 OA
ATOM     27  C   UNL     1      17.333  12.268  19.411  1.00  0.00     0.278 C 
ENDBRANCH  23  26
BRANCH  25  28
ATOM     28  O   UNL     1      19.989  12.789  16.207  1.00  0.00    -0.504 OA
ATOM     29  H   UNL     1      20.310  12.963  17.150  1.00  0.00     0.293 HD
ENDBRANCH  25  28
ENDBRANCH  19  20
ENDBRANCH  16  18
ENDBRANCH   1  16
TORSDOF 10
ENDMDL
MODEL 4
REMARK VINA RESULT:    -5.818      4.387      5.355
REMARK INTER + INTRA:          -9.814
REMARK INTER:                  -9.149
REMARK INTRA:                  -0.666
REMARK UNBOUND:                -0.934
REMARK SMILES COc1cc(C=CC(=O)CC(=O)C=Cc2ccc(O)c(OC)c2)ccc1O
REMARK SMILES IDX 10 1 8 2 9 3 7 4 6 5 5 6 3 7 26 8 4 9 25 10 24 11 2 12 1 13
REMARK SMILES IDX 27 14 11 16 12 17 13 18 14 19 15 20 23 21 16 22 20 23 17 24
REMARK SMILES IDX 18 25 21 26 22 27 19 28
REMARK H PARENT 27 15 19 29
REMARK Flexibility Score: inf
ROOT
ATOM      1  C   UNL     1      12.219  10.161  12.733  1.00  0.00     0.160 C 
ENDROOT
BRANCH   1   2
ATOM      2  C   UNL     1      11.456  10.645  11.538  1.00  0.00     0.163 C 
ATOM      3  O   UNL     1      12.085  10.921  10.481  1.00  0.00    -0.294 OA
BRANCH   2   4
ATOM      4  C   UNL     1      10.002  10.899  11.647  1.00  0.00     0.048 C 
ATOM      5  C   UNL     1       9.397  12.076  11.423  1.00  0.00     0.012 C 
BRANCH   5   6
ATOM      6  C   UNL     1      10.046  13.276  10.854  1.00  0.00    -0.022 A 
ATOM      7  C   UNL     1      10.492  14.700   8.921  1.00  0.00     0.161 A 
ATOM      8  C   UNL     1      11.344  15.488   9.707  1.00  0.00     0.157 A 
ATOM      9  C   UNL     1       9.853  13.585   9.500  1.00  0.00     0.058 A 
ATOM     10  C   UNL     1      11.562  15.162  11.053  1.00  0.00     0.051 A 
ATOM     11  C   UNL     1      10.926  14.057  11.620  1.00  0.00     0.012 A 
BRANCH   7  12
ATOM     12  O   UNL     1      10.307  15.052   7.575  1.00  0.00    -0.493 OA
ATOM     13  C   UNL     1       9.209  15.814   7.084  1.00  0.00     0.278 C 
ENDBRANCH   7  12
BRANCH   8  14
ATOM     14  O   UNL     1      11.976  16.595   9.143  1.00  0.00    -0.504 OA
ATOM     15  H   UNL     1      12.027  16.722   8.139  1.00  0.00     0.293 HD
ENDBRANCH   8  14
ENDBRANCH   5   6
ENDBRANCH   2   4
ENDBRANCH   1   2
BRANCH   1  16
ATOM     16  C   UNL     1      12.541  11.310  13.642  1.00  0.00     0.163 C 
ATOM     17  O   UNL     1      11.598  11.944  14.192  1.00  0.00    -0.294 OA
BRANCH  16  18
ATOM     18  C   UNL     1      13.946  11.712  13.853  1.00  0.00     0.048 C 
ATOM     19  C   UNL     1      14.626  11.376  14.959  1.00  0.00     0.012 C 
BRANCH  19  20
ATOM     20  C   UNL     1      16.030  11.779  15.215  1.00  0.00    -0.022 A 
ATOM     21  C   UNL     1      16.433  12.014  16.541  1.00  0.00     0.058 A 
ATOM     22  C   UNL     1      16.981  11.899  14.185  1.00  0.00     0.012 A 
ATOM     23  C   UNL     1      17.757  12.390  16.840  1.00  0.00     0.161 A 
ATOM     24  C   UNL     1      18.295  12.272  14.476  1.00  0.00     0.051 A 
ATOM     25  C   UNL     1      18.687  12.521  15.794  1.00  0.00     0.157 A 
BRANCH  23  26
ATOM     26  O   UNL     1      18.180  12.640  18.156  1.00  0.00    -0.493 OA
ATOM     27  C   UNL     1      17.416  12.347  19.320  1.00  0.00     0.278 C 
ENDBRANCH  23  26
BRANCH  25  28
ATOM     28  O   UNL     1      20.007  12.892  16.044  1.00  0.00    -0.504 OA
ATOM     29  H   UNL     1      20.270  13.441  16.853  1.00  0.00     0.293 HD
ENDBRANCH  25  28
ENDBRANCH  19  20
ENDBRANCH  16  18
ENDBRANCH   1  16
TORSDOF 10
ENDMDL
MODEL 5
REMARK VINA RESULT:    -5.790      4.622      6.224
REMARK INTER + INTRA:          -9.771
REMARK INTER:                  -8.946
REMARK INTRA:                  -0.824
REMARK UNBOUND:                -0.934
REMARK SMILES COc1cc(C=CC(=O)CC(=O)C=Cc2ccc(O)c(OC)c2)ccc1O
REMARK SMILES IDX 10 1 8 2 9 3 7 4 6 5 5 6 3 7 26 8 4 9 25 10 24 11 2 12 1 13
REMARK SMILES IDX 27 14 11 16 12 17 13 18 14 19 15 20 23 21 16 22 20 23 17 24
REMARK SMILES IDX 18 25 21 26 22 27 19 28
REMARK H PARENT 27 15 19 29
REMARK Flexibility Score: inf
ROOT
ATOM      1  C   UNL     1      11.361  11.983  16.624  1.00  0.00     0.160 C 
ENDROOT
BRANCH   1   2
ATOM      2  C   UNL     1       9.917  11.592  16.700  1.00  0.00     0.163 C 
ATOM      3  O   UNL     1       9.595  10.562  17.352  1.00  0.00    -0.294 OA
BRANCH   2   4
ATOM      4  C   UNL     1       8.910  12.346  15.921  1.00  0.00     0.048 C 
ATOM      5  C   UNL     1       8.875  12.449  14.584  1.00  0.00     0.012 C 
BRANCH   5   6
ATOM      6  C   UNL     1       9.723  11.685  13.645  1.00  0.00    -0.022 A 
ATOM      7  C   UNL     1      11.608  11.630  12.093  1.00  0.00     0.161 A 
ATOM      8  C   UNL     1      11.298  10.300  11.775  1.00  0.00     0.157 A 
ATOM      9  C   UNL     1      10.807  12.322  13.023  1.00  0.00     0.058 A 
ATOM     10  C   UNL     1      10.196   9.672  12.373  1.00  0.00     0.051 A 
ATOM     11  C   UNL     1       9.407  10.363  13.293  1.00  0.00     0.012 A 
BRANCH   7  12
ATOM     12  O   UNL     1      12.712  12.227  11.466  1.00  0.00    -0.493 OA
ATOM     13  C   UNL     1      13.657  13.065  12.124  1.00  0.00     0.278 C 
ENDBRANCH   7  12
BRANCH   8  14
ATOM     14  O   UNL     1      12.088   9.607  10.859  1.00  0.00    -0.504 OA
ATOM     15  H   UNL     1      11.781   8.735  10.446  1.00  0.00     0.293 HD
ENDBRANCH   8  14
ENDBRANCH   5   6
ENDBRANCH   2   4
ENDBRANCH   1   2
BRANCH   1  16
ATOM     16  C   UNL     1      11.892  12.271  17.997  1.00  0.00     0.163 C 
ATOM     17  O   UNL     1      11.097  12.664  18.895  1.00  0.00    -0.294 OA
BRANCH  16  18
ATOM     18  C   UNL     1      13.335  12.132  18.275  1.00  0.00     0.048 C 
ATOM     19  C   UNL     1      14.266  12.332  17.331  1.00  0.00     0.012 C 
BRANCH  19  20
ATOM     20  C   UNL     1      15.723  12.181  17.567  1.00  0.00    -0.022 A 
ATOM     21  C   UNL     1      16.595  12.252  16.467  1.00  0.00     0.058 A 
ATOM     22  C   UNL     1      16.265  12.006  18.854  1.00  0.00     0.012 A 
ATOM     23  C   UNL     1      17.988  12.124  16.638  1.00  0.00     0.161 A 
ATOM     24  C   UNL     1      17.645  11.878  19.028  1.00  0.00     0.051 A 
ATOM     25  C   UNL     1      18.507  11.933  17.930  1.00  0.00     0.157 A 
BRANCH  23  26
ATOM     26  O   UNL     1      18.878  12.181  15.553  1.00  0.00    -0.493 OA
ATOM     27  C   UNL     1      18.521  11.921  14.199  1.00  0.00     0.278 C 
ENDBRANCH  23  26
BRANCH  25  28
ATOM     28  O   UNL     1      19.878  11.800  18.144  1.00  0.00    -0.504 OA
ATOM     29  H   UNL     1      20.278  10.987  18.594  1.00  0.00     0.293 HD
ENDBRANCH  25  28
ENDBRANCH  19  20
ENDBRANCH  16  18
ENDBRANCH   1  16
TORSDOF 10
ENDMDL
MODEL 6
REMARK VINA RESULT:    -5.698      4.476      5.162
REMARK INTER + INTRA:          -9.630
REMARK INTER:                  -8.799
REMARK INTRA:                  -0.832
REMARK UNBOUND:                -0.934
REMARK SMILES COc1cc(C=CC(=O)CC(=O)C=Cc2ccc(O)c(OC)c2)ccc1O
REMARK SMILES IDX 10 1 8 2 9 3 7 4 6 5 5 6 3 7 26 8 4 9 25 10 24 11 2 12 1 13
REMARK SMILES IDX 27 14 11 16 12 17 13 18 14 19 15 20 23 21 16 22 20 23 17 24
REMARK SMILES IDX 18 25 21 26 22 27 19 28
REMARK H PARENT 27 15 19 29
REMARK Flexibility Score: inf
ROOT
ATOM      1  C   UNL     1      11.840  10.770  13.253  1.00  0.00     0.160 C 
ENDROOT
BRANCH   1   2
ATOM      2  C   UNL     1      10.638  11.315  13.962  1.00  0.00     0.163 C 
ATOM      3  O   UNL     1      10.745  11.664  15.168  1.00  0.00    -0.294 OA
BRANCH   2   4
ATOM      4  C   UNL     1       9.326  11.330  13.278  1.00  0.00     0.048 C 
ATOM      5  C   UNL     1       8.976  12.158  12.282  1.00  0.00     0.012 C 
BRANCH   5   6
ATOM      6  C   UNL     1       9.891  13.075  11.570  1.00  0.00    -0.022 A 
ATOM      7  C   UNL     1      11.471  13.462   9.749  1.00  0.00     0.161 A 
ATOM      8  C   UNL     1      11.719  14.749  10.247  1.00  0.00     0.157 A 
ATOM      9  C   UNL     1      10.562  12.623  10.424  1.00  0.00     0.058 A 
ATOM     10  C   UNL     1      11.072  15.190  11.410  1.00  0.00     0.051 A 
ATOM     11  C   UNL     1      10.173  14.355  12.074  1.00  0.00     0.012 A 
BRANCH   7  12
ATOM     12  O   UNL     1      12.146  13.053   8.588  1.00  0.00    -0.493 OA
ATOM     13  C   UNL     1      11.990  11.778   7.972  1.00  0.00     0.278 C 
ENDBRANCH   7  12
BRANCH   8  14
ATOM     14  O   UNL     1      12.614  15.585   9.582  1.00  0.00    -0.504 OA
ATOM     15  H   UNL     1      12.723  15.553   8.576  1.00  0.00     0.293 HD
ENDBRANCH   8  14
ENDBRANCH   5   6
ENDBRANCH   2   4
ENDBRANCH   1   2
BRANCH   1  16
ATOM     16  C   UNL     1      13.011  11.689  13.436  1.00  0.00     0.163 C 
ATOM     17  O   UNL     1      13.380  12.416  12.474  1.00  0.00    -0.294 OA
BRANCH  16  18
ATOM     18  C   UNL     1      13.740  11.708  14.720  1.00  0.00     0.048 C 
ATOM     19  C   UNL     1      15.040  12.026  14.798  1.00  0.00     0.012 C 
BRANCH  19  20
ATOM     20  C   UNL     1      15.810  12.035  16.067  1.00  0.00    -0.022 A 
ATOM     21  C   UNL     1      17.214  12.045  16.002  1.00  0.00     0.058 A 
ATOM     22  C   UNL     1      15.187  12.071  17.327  1.00  0.00     0.012 A 
ATOM     23  C   UNL     1      17.993  12.063  17.176  1.00  0.00     0.161 A 
ATOM     24  C   UNL     1      15.954  12.089  18.494  1.00  0.00     0.051 A 
ATOM     25  C   UNL     1      17.350  12.083  18.426  1.00  0.00     0.157 A 
BRANCH  23  26
ATOM     26  O   UNL     1      19.396  12.063  17.137  1.00  0.00    -0.493 OA
ATOM     27  C   UNL     1      20.192  13.129  16.629  1.00  0.00     0.278 C 
ENDBRANCH  23  26
BRANCH  25  28
ATOM     28  O   UNL     1      18.081  12.099  19.613  1.00  0.00    -0.504 OA
ATOM     29  H   UNL     1      18.773  12.811  19.812  1.00  0.00     0.293 HD
ENDBRANCH  25  28
ENDBRANCH  19  20
ENDBRANCH  16  18
ENDBRANCH   1  16
TORSDOF 10
ENDMDL
MODEL 7
REMARK VINA RESULT:    -5.428      4.432      5.601
REMARK INTER + INTRA:          -9.218
REMARK INTER:                  -8.564
REMARK INTRA:                  -0.654
REMARK UNBOUND:                -0.934
REMARK SMILES COc1cc(C=CC(=O)CC(=O)C=Cc2ccc(O)c(OC)c2)ccc1O
REMARK SMILES IDX 10 1 8 2 9 3 7 4 6 5 5 6 3 7 26 8 4 9 25 10 24 11 2 12 1 13
REMARK SMILES IDX 27 14 11 16 12 17 13 18 14 19 15 20 23 21 16 22 20 23 17 24
REMARK SMILES IDX 18 25 21 26 22 27 19 28
REMARK H PARENT 27 15 19 29
REMARK Flexibility Score: inf
ROOT
ATOM      1  C   UNL     1      12.428  10.488  13.213  1.00  0.00     0.160 C 
ENDROOT
BRANCH   1   2
ATOM      2  C   UNL     1      11.661  10.159  11.968  1.00  0.00     0.163 C 
ATOM      3  O   UNL     1      12.273  10.106  10.867  1.00  0.00    -0.294 OA
BRANCH   2   4
ATOM      4  C   UNL     1      10.190  10.014  12.029  1.00  0.00     0.048 C 
ATOM      5  C   UNL     1       9.307  10.712  11.299  1.00  0.00     0.012 C 
BRANCH   5   6
ATOM      6  C   UNL     1       9.647  11.617  10.182  1.00  0.00    -0.022 A 
ATOM      7  C   UNL     1      10.223  13.859   9.401  1.00  0.00     0.161 A 
ATOM      8  C   UNL     1      10.196  13.396   8.078  1.00  0.00     0.157 A 
ATOM      9  C   UNL     1       9.935  12.963  10.451  1.00  0.00     0.058 A 
ATOM     10  C   UNL     1       9.878  12.059   7.805  1.00  0.00     0.051 A 
ATOM     11  C   UNL     1       9.594  11.177   8.850  1.00  0.00     0.012 A 
BRANCH   7  12
ATOM     12  O   UNL     1      10.535  15.207   9.633  1.00  0.00    -0.493 OA
ATOM     13  C   UNL     1      11.852  15.705   9.847  1.00  0.00     0.278 C 
ENDBRANCH   7  12
BRANCH   8  14
ATOM     14  O   UNL     1      10.484  14.275   7.035  1.00  0.00    -0.504 OA
ATOM     15  H   UNL     1      10.632  13.945   6.088  1.00  0.00     0.293 HD
ENDBRANCH   8  14
ENDBRANCH   5   6
ENDBRANCH   2   4
ENDBRANCH   1   2
BRANCH   1  16
ATOM     16  C   UNL     1      12.963  11.887  13.136  1.00  0.00     0.163 C 
ATOM     17  O   UNL     1      12.221  12.807  12.693  1.00  0.00    -0.294 OA
BRANCH  16  18
ATOM     18  C   UNL     1      14.354  12.168  13.542  1.00  0.00     0.048 C 
ATOM     19  C   UNL     1      14.888  11.662  14.662  1.00  0.00     0.012 C 
BRANCH  19  20
ATOM     20  C   UNL     1      16.274  11.938  15.112  1.00  0.00    -0.022 A 
ATOM     21  C   UNL     1      16.519  12.086  16.488  1.00  0.00     0.058 A 
ATOM     22  C   UNL     1      17.355  12.023  14.216  1.00  0.00     0.012 A 
ATOM     23  C   UNL     1      17.819  12.341  16.969  1.00  0.00     0.161 A 
ATOM     24  C   UNL     1      18.646  12.276  14.688  1.00  0.00     0.051 A 
ATOM     25  C   UNL     1      18.883  12.437  16.055  1.00  0.00     0.157 A 
BRANCH  23  26
ATOM     26  O   UNL     1      18.087  12.502  18.338  1.00  0.00    -0.493 OA
ATOM     27  C   UNL     1      17.177  12.178  19.384  1.00  0.00     0.278 C 
ENDBRANCH  23  26
BRANCH  25  28
ATOM     28  O   UNL     1      20.184  12.690  16.486  1.00  0.00    -0.504 OA
ATOM     29  H   UNL     1      20.588  13.618  16.472  1.00  0.00     0.293 HD
ENDBRANCH  25  28
ENDBRANCH  19  20
ENDBRANCH  16  18
ENDBRANCH   1  16
TORSDOF 10
ENDMDL
MODEL 8
REMARK VINA RESULT:    -5.111      4.415      5.204
REMARK INTER + INTRA:          -8.735
REMARK INTER:                  -8.323
REMARK INTRA:                  -0.412
REMARK UNBOUND:                -0.934
REMARK SMILES COc1cc(C=CC(=O)CC(=O)C=Cc2ccc(O)c(OC)c2)ccc1O
REMARK SMILES IDX 10 1 8 2 9 3 7 4 6 5 5 6 3 7 26 8 4 9 25 10 24 11 2 12 1 13
REMARK SMILES IDX 27 14 11 16 12 17 13 18 14 19 15 20 23 21 16 22 20 23 17 24
REMARK SMILES IDX 18 25 21 26 22 27 19 28
REMARK H PARENT 27 15 19 29
REMARK Flexibility Score: inf
ROOT
ATOM      1  C   UNL     1      12.298  10.460  12.813  1.00  0.00     0.160 C 
ENDROOT
BRANCH   1   2
ATOM      2  C   UNL     1      10.847  10.674  13.117  1.00  0.00     0.163 C 
ATOM      3  O   UNL     1      10.526  11.424  14.078  1.00  0.00    -0.294 OA
BRANCH   2   4
ATOM      4  C   UNL     1       9.820   9.920  12.364  1.00  0.00     0.048 C 
ATOM      5  C   UNL     1       9.270  10.301  11.200  1.00  0.00     0.012 C 
BRANCH   5   6
ATOM      6  C   UNL     1       9.718  11.443  10.376  1.00  0.00    -0.022 A 
ATOM      7  C   UNL     1      10.378  13.790  10.230  1.00  0.00     0.161 A 
ATOM      8  C   UNL     1      10.470  13.669   8.836  1.00  0.00     0.157 A 
ATOM      9  C   UNL     1       9.989  12.672  10.995  1.00  0.00     0.058 A 
ATOM     10  C   UNL     1      10.170  12.450   8.213  1.00  0.00     0.051 A 
ATOM     11  C   UNL     1       9.785  11.347   8.977  1.00  0.00     0.012 A 
BRANCH   7  12
ATOM     12  O   UNL     1      10.677  15.030  10.815  1.00  0.00    -0.493 OA
ATOM     13  C   UNL     1      10.599  15.302  12.211  1.00  0.00     0.278 C 
ENDBRANCH   7  12
BRANCH   8  14
ATOM     14  O   UNL     1      10.859  14.769   8.073  1.00  0.00    -0.504 OA
ATOM     15  H   UNL     1      10.796  15.714   8.433  1.00  0.00     0.293 HD
ENDBRANCH   8  14
ENDBRANCH   5   6
ENDBRANCH   2   4
ENDBRANCH   1   2
BRANCH   1  16
ATOM     16  C   UNL     1      13.094  11.668  13.212  1.00  0.00     0.163 C 
ATOM     17  O   UNL     1      13.211  12.625  12.398  1.00  0.00    -0.294 OA
BRANCH  16  18
ATOM     18  C   UNL     1      13.761  11.710  14.528  1.00  0.00     0.048 C 
ATOM     19  C   UNL     1      15.067  11.985  14.658  1.00  0.00     0.012 C 
BRANCH  19  20
ATOM     20  C   UNL     1      15.776  12.016  15.961  1.00  0.00    -0.022 A 
ATOM     21  C   UNL     1      17.182  12.024  15.963  1.00  0.00     0.058 A 
ATOM     22  C   UNL     1      15.094  12.074  17.190  1.00  0.00     0.012 A 
ATOM     23  C   UNL     1      17.903  12.062  17.172  1.00  0.00     0.161 A 
ATOM     24  C   UNL     1      15.805  12.112  18.391  1.00  0.00     0.051 A 
ATOM     25  C   UNL     1      17.202  12.103  18.390  1.00  0.00     0.157 A 
BRANCH  23  26
ATOM     26  O   UNL     1      19.308  12.060  17.200  1.00  0.00    -0.493 OA
ATOM     27  C   UNL     1      20.127  13.137  16.758  1.00  0.00     0.278 C 
ENDBRANCH  23  26
BRANCH  25  28
ATOM     28  O   UNL     1      17.876  12.141  19.610  1.00  0.00    -0.504 OA
ATOM     29  H   UNL     1      18.848  12.412  19.682  1.00  0.00     0.293 HD
ENDBRANCH  25  28
ENDBRANCH  19  20
ENDBRANCH  16  18
ENDBRANCH   1  16
TORSDOF 10
ENDMDL
MODEL 9
REMARK VINA RESULT:    -5.053      1.463      2.757
REMARK INTER + INTRA:          -8.645
REMARK INTER:                  -7.974
REMARK INTRA:                  -0.671
REMARK UNBOUND:                -0.934
REMARK SMILES COc1cc(C=CC(=O)CC(=O)C=Cc2ccc(O)c(OC)c2)ccc1O
REMARK SMILES IDX 10 1 8 2 9 3 7 4 6 5 5 6 3 7 26 8 4 9 25 10 24 11 2 12 1 13
REMARK SMILES IDX 27 14 11 16 12 17 13 18 14 19 15 20 23 21 16 22 20 23 17 24
REMARK SMILES IDX 18 25 21 26 22 27 19 28
REMARK H PARENT 27 15 19 29
REMARK Flexibility Score: inf
ROOT
ATOM      1  C   UNL     1      10.815  11.620  14.068  1.00  0.00     0.160 C 
ENDROOT
BRANCH   1   2
ATOM      2  C   UNL     1      10.373  10.806  12.890  1.00  0.00     0.163 C 
ATOM      3  O   UNL     1       9.140  10.643  12.686  1.00  0.00    -0.294 OA
BRANCH   2   4
ATOM      4  C   UNL     1      11.381  10.115  12.056  1.00  0.00     0.048 C 
ATOM      5  C   UNL     1      11.538  10.272  10.732  1.00  0.00     0.012 C 
BRANCH   5   6
ATOM      6  C   UNL     1      10.857  11.291   9.906  1.00  0.00    -0.022 A 
ATOM      7  C   UNL     1      10.648  13.621   9.204  1.00  0.00     0.161 A 
ATOM      8  C   UNL     1       9.528  13.280   8.433  1.00  0.00     0.157 A 
ATOM      9  C   UNL     1      11.303  12.620   9.950  1.00  0.00     0.058 A 
ATOM     10  C   UNL     1       9.062  11.958   8.413  1.00  0.00     0.051 A 
ATOM     11  C   UNL     1       9.716  10.972   9.154  1.00  0.00     0.012 A 
BRANCH   7  12
ATOM     12  O   UNL     1      11.077  14.957   9.206  1.00  0.00    -0.493 OA
ATOM     13  C   UNL     1      11.547  15.651  10.358  1.00  0.00     0.278 C 
ENDBRANCH   7  12
BRANCH   8  14
ATOM     14  O   UNL     1       8.877  14.264   7.690  1.00  0.00    -0.504 OA
ATOM     15  H   UNL     1       7.959  14.107   7.291  1.00  0.00     0.293 HD
ENDBRANCH   8  14
ENDBRANCH   5   6
ENDBRANCH   2   4
ENDBRANCH   1   2
BRANCH   1  16
ATOM     16  C   UNL     1       9.662  11.850  14.999  1.00  0.00     0.163 C 
ATOM     17  O   UNL     1       8.881  12.817  14.786  1.00  0.00    -0.294 OA
BRANCH  16  18
ATOM     18  C   UNL     1       9.475  10.972  16.172  1.00  0.00     0.048 C 
ATOM     19  C   UNL     1       9.908  11.312  17.394  1.00  0.00     0.012 C 
BRANCH  19  20
ATOM     20  C   UNL     1       9.756  10.448  18.591  1.00  0.00    -0.022 A 
ATOM     21  C   UNL     1      10.073  10.982  19.852  1.00  0.00     0.058 A 
ATOM     22  C   UNL     1       9.274   9.129  18.513  1.00  0.00     0.012 A 
ATOM     23  C   UNL     1       9.939  10.206  21.021  1.00  0.00     0.161 A 
ATOM     24  C   UNL     1       9.139   8.356  19.669  1.00  0.00     0.051 A 
ATOM     25  C   UNL     1       9.470   8.885  20.918  1.00  0.00     0.157 A 
BRANCH  23  26
ATOM     26  O   UNL     1      10.259  10.714  22.290  1.00  0.00    -0.493 OA
ATOM     27  C   UNL     1      10.453  12.094  22.585  1.00  0.00     0.278 C 
ENDBRANCH  23  26
BRANCH  25  28
ATOM     28  O   UNL     1       9.323   8.082  22.049  1.00  0.00    -0.504 OA
ATOM     29  H   UNL     1       8.474   7.564  22.237  1.00  0.00     0.293 HD
ENDBRANCH  25  28
ENDBRANCH  19  20
ENDBRANCH  16  18
ENDBRANCH   1  16
TORSDOF 10
ENDMDL
