MODEL 1
REMARK VINA RESULT:    -2.657      0.000      0.000
REMARK INTER + INTRA:          -4.074
REMARK INTER:                  -3.589
REMARK INTRA:                  -0.485
REMARK UNBOUND:                -0.485
REMARK SMILES CCCCCCCC(C)=O
REMARK SMILES IDX 5 1 4 2 3 3 2 4 1 5 6 6 7 7 8 8 10 9 9 10
REMARK H PARENT
REMARK Flexibility Score: inf
ROOT
ATOM      1  C   UNL     1     135.170 142.813 141.142  1.00  0.00     0.000 C 
ENDROOT
BRANCH   1   2
ATOM      2  C   UNL     1     136.140 142.111 142.103  1.00  0.00     0.000 C 
BRANCH   2   3
ATOM      3  C   UNL     1     135.572 141.965 143.528  1.00  0.00    -0.000 C 
BRANCH   3   4
ATOM      4  C   UNL     1     136.623 142.005 144.651  1.00  0.00    -0.003 C 
ATOM      5  C   UNL     1     137.998 142.468 144.167  1.00  0.00     0.004 C 
ENDBRANCH   3   4
ENDBRANCH   2   3
ENDBRANCH   1   2
BRANCH   1   6
ATOM      6  C   UNL     1     133.767 142.920 141.759  1.00  0.00     0.008 C 
BRANCH   6   7
ATOM      7  C   UNL     1     132.677 142.414 140.803  1.00  0.00     0.075 C 
BRANCH   7   8
ATOM      8  C   UNL     1     132.903 140.976 140.408  1.00  0.00     0.129 C 
ATOM      9  O   UNL     1     132.901 140.669 139.225  1.00  0.00    -0.300 OA
ATOM     10  C   UNL     1     133.140 139.912 141.438  1.00  0.00     0.087 C 
ENDBRANCH   7   8
ENDBRANCH   6   7
ENDBRANCH   1   6
TORSDOF 6
ENDMDL
MODEL 2
REMARK VINA RESULT:    -2.654     11.063     12.897
REMARK INTER + INTRA:          -4.069
REMARK INTER:                  -3.531
REMARK INTRA:                  -0.538
REMARK UNBOUND:                -0.485
REMARK SMILES CCCCCCCC(C)=O
REMARK SMILES IDX 5 1 4 2 3 3 2 4 1 5 6 6 7 7 8 8 10 9 9 10
REMARK H PARENT
REMARK Flexibility Score: inf
ROOT
ATOM      1  C   UNL     1     146.195 138.869 141.262  1.00  0.00     0.000 C 
ENDROOT
BRANCH   1   2
ATOM      2  C   UNL     1     145.333 139.529 142.348  1.00  0.00     0.000 C 
BRANCH   2   3
ATOM      3  C   UNL     1     146.143 139.928 143.596  1.00  0.00    -0.000 C 
BRANCH   3   4
ATOM      4  C   UNL     1     145.350 139.909 144.916  1.00  0.00    -0.003 C 
ATOM      5  C   UNL     1     144.245 138.853 144.934  1.00  0.00     0.004 C 
ENDBRANCH   3   4
ENDBRANCH   2   3
ENDBRANCH   1   2
BRANCH   1   6
ATOM      6  C   UNL     1     147.643 138.688 141.744  1.00  0.00     0.008 C 
BRANCH   6   7
ATOM      7  C   UNL     1     148.658 139.253 140.741  1.00  0.00     0.075 C 
BRANCH   7   8
ATOM      8  C   UNL     1     148.392 140.704 140.431  1.00  0.00     0.129 C 
ATOM      9  O   UNL     1     148.034 141.025 139.307  1.00  0.00    -0.300 OA
ATOM     10  C   UNL     1     148.549 141.767 141.479  1.00  0.00     0.087 C 
ENDBRANCH   7   8
ENDBRANCH   6   7
ENDBRANCH   1   6
TORSDOF 6
ENDMDL
MODEL 3
REMARK VINA RESULT:    -2.640      2.465      4.879
REMARK INTER + INTRA:          -4.050
REMARK INTER:                  -3.538
REMARK INTRA:                  -0.512
REMARK UNBOUND:                -0.485
REMARK SMILES CCCCCCCC(C)=O
REMARK SMILES IDX 5 1 4 2 3 3 2 4 1 5 6 6 7 7 8 8 10 9 9 10
REMARK H PARENT
REMARK Flexibility Score: inf
ROOT
ATOM      1  C   UNL     1     134.232 142.913 141.660  1.00  0.00     0.000 C 
ENDROOT
BRANCH   1   2
ATOM      2  C   UNL     1     132.881 142.455 141.089  1.00  0.00     0.000 C 
BRANCH   2   3
ATOM      3  C   UNL     1     132.817 140.935 140.848  1.00  0.00    -0.000 C 
BRANCH   3   4
ATOM      4  C   UNL     1     133.319 140.477 139.467  1.00  0.00    -0.003 C 
ATOM      5  C   UNL     1     134.657 139.740 139.532  1.00  0.00     0.004 C 
ENDBRANCH   3   4
ENDBRANCH   2   3
ENDBRANCH   1   2
BRANCH   1   6
ATOM      6  C   UNL     1     134.795 141.873 142.640  1.00  0.00     0.008 C 
BRANCH   6   7
ATOM      7  C   UNL     1     136.309 141.682 142.470  1.00  0.00     0.075 C 
BRANCH   7   8
ATOM      8  C   UNL     1     137.081 142.285 143.616  1.00  0.00     0.129 C 
ATOM      9  O   UNL     1     138.246 142.616 143.451  1.00  0.00    -0.300 OA
ATOM     10  C   UNL     1     136.446 142.497 144.958  1.00  0.00     0.087 C 
ENDBRANCH   7   8
ENDBRANCH   6   7
ENDBRANCH   1   6
TORSDOF 6
ENDMDL
MODEL 4
REMARK VINA RESULT:    -2.628      8.552      9.647
REMARK INTER + INTRA:          -4.035
REMARK INTER:                  -3.491
REMARK INTRA:                  -0.544
REMARK UNBOUND:                -0.485
REMARK SMILES CCCCCCCC(C)=O
REMARK SMILES IDX 5 1 4 2 3 3 2 4 1 5 6 6 7 7 8 8 10 9 9 10
REMARK H PARENT
REMARK Flexibility Score: inf
ROOT
ATOM      1  C   UNL     1     142.795 146.314 140.777  1.00  0.00     0.000 C 
ENDROOT
BRANCH   1   2
ATOM      2  C   UNL     1     142.957 147.604 141.594  1.00  0.00     0.000 C 
BRANCH   2   3
ATOM      3  C   UNL     1     142.323 148.830 140.909  1.00  0.00    -0.000 C 
BRANCH   3   4
ATOM      4  C   UNL     1     140.895 148.609 140.380  1.00  0.00    -0.003 C 
ATOM      5  C   UNL     1     139.865 148.435 141.495  1.00  0.00     0.004 C 
ENDBRANCH   3   4
ENDBRANCH   2   3
ENDBRANCH   1   2
BRANCH   1   6
ATOM      6  C   UNL     1     142.156 145.203 141.626  1.00  0.00     0.008 C 
BRANCH   6   7
ATOM      7  C   UNL     1     141.921 145.650 143.076  1.00  0.00     0.075 C 
BRANCH   7   8
ATOM      8  C   UNL     1     142.520 144.681 144.064  1.00  0.00     0.129 C 
ATOM      9  O   UNL     1     142.962 145.098 145.124  1.00  0.00    -0.300 OA
ATOM     10  C   UNL     1     142.579 143.210 143.776  1.00  0.00     0.087 C 
ENDBRANCH   7   8
ENDBRANCH   6   7
ENDBRANCH   1   6
TORSDOF 6
ENDMDL
MODEL 5
REMARK VINA RESULT:    -2.619      8.239      8.894
REMARK INTER + INTRA:          -4.023
REMARK INTER:                  -3.553
REMARK INTRA:                  -0.470
REMARK UNBOUND:                -0.485
REMARK SMILES CCCCCCCC(C)=O
REMARK SMILES IDX 5 1 4 2 3 3 2 4 1 5 6 6 7 7 8 8 10 9 9 10
REMARK H PARENT
REMARK Flexibility Score: inf
ROOT
ATOM      1  C   UNL     1     142.531 145.963 141.447  1.00  0.00     0.000 C 
ENDROOT
BRANCH   1   2
ATOM      2  C   UNL     1     142.007 145.044 142.560  1.00  0.00     0.000 C 
BRANCH   2   3
ATOM      3  C   UNL     1     141.759 145.789 143.885  1.00  0.00    -0.000 C 
BRANCH   3   4
ATOM      4  C   UNL     1     142.395 145.135 145.125  1.00  0.00    -0.003 C 
ATOM      5  C   UNL     1     142.810 143.683 144.888  1.00  0.00     0.004 C 
ENDBRANCH   3   4
ENDBRANCH   2   3
ENDBRANCH   1   2
BRANCH   1   6
ATOM      6  C   UNL     1     142.697 147.403 141.957  1.00  0.00     0.008 C 
BRANCH   6   7
ATOM      7  C   UNL     1     142.068 148.428 141.002  1.00  0.00     0.075 C 
BRANCH   7   8
ATOM      8  C   UNL     1     140.587 148.203 140.836  1.00  0.00     0.129 C 
ATOM      9  O   UNL     1     139.832 148.444 141.766  1.00  0.00    -0.300 OA
ATOM     10  C   UNL     1     140.016 147.693 139.545  1.00  0.00     0.087 C 
ENDBRANCH   7   8
ENDBRANCH   6   7
ENDBRANCH   1   6
TORSDOF 6
ENDMDL
MODEL 6
REMARK VINA RESULT:    -2.553      2.151      4.830
REMARK INTER + INTRA:          -3.933
REMARK INTER:                  -3.438
REMARK INTRA:                  -0.495
REMARK UNBOUND:                -0.485
REMARK SMILES CCCCCCCC(C)=O
REMARK SMILES IDX 5 1 4 2 3 3 2 4 1 5 6 6 7 7 8 8 10 9 9 10
REMARK H PARENT
REMARK Flexibility Score: inf
ROOT
ATOM      1  C   UNL     1     133.590 140.349 141.439  1.00  0.00     0.000 C 
ENDROOT
BRANCH   1   2
ATOM      2  C   UNL     1     132.799 140.802 140.202  1.00  0.00     0.000 C 
BRANCH   2   3
ATOM      3  C   UNL     1     131.564 141.651 140.559  1.00  0.00    -0.000 C 
BRANCH   3   4
ATOM      4  C   UNL     1     131.867 143.118 140.910  1.00  0.00    -0.003 C 
ATOM      5  C   UNL     1     132.796 143.795 139.901  1.00  0.00     0.004 C 
ENDBRANCH   3   4
ENDBRANCH   2   3
ENDBRANCH   1   2
BRANCH   1   6
ATOM      6  C   UNL     1     134.955 141.051 141.504  1.00  0.00     0.008 C 
BRANCH   6   7
ATOM      7  C   UNL     1     135.037 142.042 142.675  1.00  0.00     0.075 C 
BRANCH   7   8
ATOM      8  C   UNL     1     136.274 141.823 143.508  1.00  0.00     0.129 C 
ATOM      9  O   UNL     1     137.155 141.083 143.096  1.00  0.00    -0.300 OA
ATOM     10  C   UNL     1     136.452 142.503 144.833  1.00  0.00     0.087 C 
ENDBRANCH   7   8
ENDBRANCH   6   7
ENDBRANCH   1   6
TORSDOF 6
ENDMDL
MODEL 7
REMARK VINA RESULT:    -2.535      7.740      8.967
REMARK INTER + INTRA:          -3.909
REMARK INTER:                  -3.153
REMARK INTRA:                  -0.757
REMARK UNBOUND:                -0.485
REMARK SMILES CCCCCCCC(C)=O
REMARK SMILES IDX 5 1 4 2 3 3 2 4 1 5 6 6 7 7 8 8 10 9 9 10
REMARK H PARENT
REMARK Flexibility Score: inf
ROOT
ATOM      1  C   UNL     1     140.533 145.909 140.085  1.00  0.00     0.000 C 
ENDROOT
BRANCH   1   2
ATOM      2  C   UNL     1     140.560 145.133 141.410  1.00  0.00     0.000 C 
BRANCH   2   3
ATOM      3  C   UNL     1     141.959 144.590 141.758  1.00  0.00    -0.000 C 
BRANCH   3   4
ATOM      4  C   UNL     1     142.267 144.511 143.264  1.00  0.00    -0.003 C 
ATOM      5  C   UNL     1     141.671 145.674 144.057  1.00  0.00     0.004 C 
ENDBRANCH   3   4
ENDBRANCH   2   3
ENDBRANCH   1   2
BRANCH   1   6
ATOM      6  C   UNL     1     139.878 147.287 140.270  1.00  0.00     0.008 C 
BRANCH   6   7
ATOM      7  C   UNL     1     140.601 148.131 141.328  1.00  0.00     0.075 C 
BRANCH   7   8
ATOM      8  C   UNL     1     141.986 148.524 140.880  1.00  0.00     0.129 C 
ATOM      9  O   UNL     1     142.124 149.222 139.886  1.00  0.00    -0.300 OA
ATOM     10  C   UNL     1     143.205 148.080 141.635  1.00  0.00     0.087 C 
ENDBRANCH   7   8
ENDBRANCH   6   7
ENDBRANCH   1   6
TORSDOF 6
ENDMDL
MODEL 8
REMARK VINA RESULT:    -2.514      9.549     10.344
REMARK INTER + INTRA:          -3.880
REMARK INTER:                  -3.068
REMARK INTRA:                  -0.812
REMARK UNBOUND:                -0.485
REMARK SMILES CCCCCCCC(C)=O
REMARK SMILES IDX 5 1 4 2 3 3 2 4 1 5 6 6 7 7 8 8 10 9 9 10
REMARK H PARENT
REMARK Flexibility Score: inf
ROOT
ATOM      1  C   UNL     1     139.614 134.811 141.567  1.00  0.00     0.000 C 
ENDROOT
BRANCH   1   2
ATOM      2  C   UNL     1     140.878 134.136 142.119  1.00  0.00     0.000 C 
BRANCH   2   3
ATOM      3  C   UNL     1     141.754 133.512 141.017  1.00  0.00    -0.000 C 
BRANCH   3   4
ATOM      4  C   UNL     1     141.586 134.142 139.622  1.00  0.00    -0.003 C 
ATOM      5  C   UNL     1     141.234 133.119 138.543  1.00  0.00     0.004 C 
ENDBRANCH   3   4
ENDBRANCH   2   3
ENDBRANCH   1   2
BRANCH   1   6
ATOM      6  C   UNL     1     138.399 133.876 141.678  1.00  0.00     0.008 C 
BRANCH   6   7
ATOM      7  C   UNL     1     137.980 133.313 140.313  1.00  0.00     0.075 C 
BRANCH   7   8
ATOM      8  C   UNL     1     137.870 131.810 140.337  1.00  0.00     0.129 C 
ATOM      9  O   UNL     1     136.824 131.276 139.999  1.00  0.00    -0.300 OA
ATOM     10  C   UNL     1     139.025 130.951 140.760  1.00  0.00     0.087 C 
ENDBRANCH   7   8
ENDBRANCH   6   7
ENDBRANCH   1   6
TORSDOF 6
ENDMDL
