MODEL 1
REMARK VINA RESULT:    -3.787      0.000      0.000
REMARK INTER + INTRA:          -4.751
REMARK INTER:                  -4.673
REMARK INTRA:                  -0.079
REMARK UNBOUND:                -0.079
REMARK SMILES CCCCCC=O
REMARK SMILES IDX 4 1 3 2 2 3 1 4 5 5 6 6 7 7
REMARK H PARENT
REMARK Flexibility Score: inf
ROOT
ATOM      1  C   UNL     1      25.650  55.906  -8.408  1.00  0.00     0.008 C 
ENDROOT
BRANCH   1   2
ATOM      2  C   UNL     1      25.238  56.684  -9.666  1.00  0.00     0.000 C 
BRANCH   2   3
ATOM      3  C   UNL     1      25.628  58.163  -9.550  1.00  0.00    -0.003 C 
ATOM      4  C   UNL     1      26.876  58.471 -10.373  1.00  0.00     0.004 C 
ENDBRANCH   2   3
ENDBRANCH   1   2
BRANCH   1   5
ATOM      5  C   UNL     1      24.439  55.474  -7.570  1.00  0.00     0.072 C 
BRANCH   5   6
ATOM      6  C   UNL     1      23.268  55.076  -8.423  1.00  0.00     0.224 C 
ATOM      7  O   UNL     1      22.306  54.524  -7.914  1.00  0.00    -0.303 OA
ENDBRANCH   5   6
ENDBRANCH   1   5
TORSDOF 4
ENDMDL
MODEL 2
REMARK VINA RESULT:    -3.785      2.639      4.457
REMARK INTER + INTRA:          -4.749
REMARK INTER:                  -4.694
REMARK INTRA:                  -0.055
REMARK UNBOUND:                -0.079
REMARK SMILES CCCCCC=O
REMARK SMILES IDX 4 1 3 2 2 3 1 4 5 5 6 6 7 7
REMARK H PARENT
REMARK Flexibility Score: inf
ROOT
ATOM      1  C   UNL     1      25.662  56.353  -9.011  1.00  0.00     0.008 C 
ENDROOT
BRANCH   1   2
ATOM      2  C   UNL     1      24.750  55.669  -7.982  1.00  0.00     0.000 C 
BRANCH   2   3
ATOM      3  C   UNL     1      23.486  55.117  -8.650  1.00  0.00    -0.003 C 
ATOM      4  C   UNL     1      22.472  54.649  -7.610  1.00  0.00     0.004 C 
ENDBRANCH   2   3
ENDBRANCH   1   2
BRANCH   1   5
ATOM      5  C   UNL     1      25.167  57.757  -9.384  1.00  0.00     0.072 C 
BRANCH   5   6
ATOM      6  C   UNL     1      26.292  58.678  -9.763  1.00  0.00     0.224 C 
ATOM      7  O   UNL     1      26.933  58.466 -10.780  1.00  0.00    -0.303 OA
ENDBRANCH   5   6
ENDBRANCH   1   5
TORSDOF 4
ENDMDL
MODEL 3
REMARK VINA RESULT:    -3.621      3.317      4.973
REMARK INTER + INTRA:          -4.546
REMARK INTER:                  -4.513
REMARK INTRA:                  -0.033
REMARK UNBOUND:                -0.079
REMARK SMILES CCCCCC=O
REMARK SMILES IDX 4 1 3 2 2 3 1 4 5 5 6 6 7 7
REMARK H PARENT
REMARK Flexibility Score: inf
ROOT
ATOM      1  C   UNL     1      25.457  57.955  -9.380  1.00  0.00     0.008 C 
ENDROOT
BRANCH   1   2
ATOM      2  C   UNL     1      25.384  56.454  -9.064  1.00  0.00     0.000 C 
BRANCH   2   3
ATOM      3  C   UNL     1      24.015  55.878  -9.445  1.00  0.00    -0.003 C 
ATOM      4  C   UNL     1      23.379  55.142  -8.270  1.00  0.00     0.004 C 
ENDBRANCH   2   3
ENDBRANCH   1   2
BRANCH   1   5
ATOM      5  C   UNL     1      26.610  58.291 -10.336  1.00  0.00     0.072 C 
BRANCH   5   6
ATOM      6  C   UNL     1      27.093  59.705 -10.173  1.00  0.00     0.224 C 
ATOM      7  O   UNL     1      28.026  60.109 -10.847  1.00  0.00    -0.303 OA
ENDBRANCH   5   6
ENDBRANCH   1   5
TORSDOF 4
ENDMDL
MODEL 4
REMARK VINA RESULT:    -3.552      1.280      2.025
REMARK INTER + INTRA:          -4.461
REMARK INTER:                  -4.427
REMARK INTRA:                  -0.035
REMARK UNBOUND:                -0.079
REMARK SMILES CCCCCC=O
REMARK SMILES IDX 4 1 3 2 2 3 1 4 5 5 6 6 7 7
REMARK H PARENT
REMARK Flexibility Score: inf
ROOT
ATOM      1  C   UNL     1      25.502  57.962  -9.411  1.00  0.00     0.008 C 
ENDROOT
BRANCH   1   2
ATOM      2  C   UNL     1      26.608  58.223 -10.444  1.00  0.00     0.000 C 
BRANCH   2   3
ATOM      3  C   UNL     1      27.237  59.606 -10.238  1.00  0.00    -0.003 C 
ATOM      4  C   UNL     1      28.591  59.706 -10.936  1.00  0.00     0.004 C 
ENDBRANCH   2   3
ENDBRANCH   1   2
BRANCH   1   5
ATOM      5  C   UNL     1      25.385  56.475  -9.050  1.00  0.00     0.072 C 
BRANCH   5   6
ATOM      6  C   UNL     1      23.967  55.982  -9.114  1.00  0.00     0.224 C 
ATOM      7  O   UNL     1      23.706  54.838  -8.779  1.00  0.00    -0.303 OA
ENDBRANCH   5   6
ENDBRANCH   1   5
TORSDOF 4
ENDMDL
MODEL 5
REMARK VINA RESULT:    -3.457      3.511      5.007
REMARK INTER + INTRA:          -4.344
REMARK INTER:                  -4.277
REMARK INTRA:                  -0.067
REMARK UNBOUND:                -0.079
REMARK SMILES CCCCCC=O
REMARK SMILES IDX 4 1 3 2 2 3 1 4 5 5 6 6 7 7
REMARK H PARENT
REMARK Flexibility Score: inf
ROOT
ATOM      1  C   UNL     1      26.109  57.722  -9.752  1.00  0.00     0.008 C 
ENDROOT
BRANCH   1   2
ATOM      2  C   UNL     1      24.687  57.544  -9.200  1.00  0.00     0.000 C 
BRANCH   2   3
ATOM      3  C   UNL     1      24.367  56.062  -8.974  1.00  0.00    -0.003 C 
ATOM      4  C   UNL     1      25.516  55.351  -8.265  1.00  0.00     0.004 C 
ENDBRANCH   2   3
ENDBRANCH   1   2
BRANCH   1   5
ATOM      5  C   UNL     1      26.493  59.200  -9.901  1.00  0.00     0.072 C 
BRANCH   5   6
ATOM      6  C   UNL     1      27.711  59.390 -10.761  1.00  0.00     0.224 C 
ATOM      7  O   UNL     1      28.113  60.516 -11.003  1.00  0.00    -0.303 OA
ENDBRANCH   5   6
ENDBRANCH   1   5
TORSDOF 4
ENDMDL
MODEL 6
REMARK VINA RESULT:    -3.136     16.281     17.413
REMARK INTER + INTRA:          -3.948
REMARK INTER:                  -3.806
REMARK INTRA:                  -0.141
REMARK UNBOUND:                -0.079
REMARK SMILES CCCCCC=O
REMARK SMILES IDX 4 1 3 2 2 3 1 4 5 5 6 6 7 7
REMARK H PARENT
REMARK Flexibility Score: inf
ROOT
ATOM      1  C   UNL     1      18.839  44.376  -0.057  1.00  0.00     0.008 C 
ENDROOT
BRANCH   1   2
ATOM      2  C   UNL     1      17.371  43.927  -0.058  1.00  0.00     0.000 C 
BRANCH   2   3
ATOM      3  C   UNL     1      16.821  43.844   1.370  1.00  0.00    -0.003 C 
ATOM      4  C   UNL     1      15.466  44.538   1.481  1.00  0.00     0.004 C 
ENDBRANCH   2   3
ENDBRANCH   1   2
BRANCH   1   5
ATOM      5  C   UNL     1      19.562  43.993   1.241  1.00  0.00     0.072 C 
BRANCH   5   6
ATOM      6  C   UNL     1      20.538  42.868   1.041  1.00  0.00     0.224 C 
ATOM      7  O   UNL     1      20.721  42.415  -0.076  1.00  0.00    -0.303 OA
ENDBRANCH   5   6
ENDBRANCH   1   5
TORSDOF 4
ENDMDL
MODEL 7
REMARK VINA RESULT:    -3.104     16.850     17.849
REMARK INTER + INTRA:          -3.908
REMARK INTER:                  -3.733
REMARK INTRA:                  -0.175
REMARK UNBOUND:                -0.079
REMARK SMILES CCCCCC=O
REMARK SMILES IDX 4 1 3 2 2 3 1 4 5 5 6 6 7 7
REMARK H PARENT
REMARK Flexibility Score: inf
ROOT
ATOM      1  C   UNL     1      14.219  42.314 -14.947  1.00  0.00     0.008 C 
ENDROOT
BRANCH   1   2
ATOM      2  C   UNL     1      14.351  41.516 -13.642  1.00  0.00     0.000 C 
BRANCH   2   3
ATOM      3  C   UNL     1      15.296  42.219 -12.661  1.00  0.00    -0.003 C 
ATOM      4  C   UNL     1      16.523  41.362 -12.366  1.00  0.00     0.004 C 
ENDBRANCH   2   3
ENDBRANCH   1   2
BRANCH   1   5
ATOM      5  C   UNL     1      14.811  43.725 -14.826  1.00  0.00     0.072 C 
BRANCH   5   6
ATOM      6  C   UNL     1      16.003  43.923 -15.720  1.00  0.00     0.224 C 
ATOM      7  O   UNL     1      16.927  43.127 -15.683  1.00  0.00    -0.303 OA
ENDBRANCH   5   6
ENDBRANCH   1   5
TORSDOF 4
ENDMDL
MODEL 8
REMARK VINA RESULT:    -3.071     16.953     17.611
REMARK INTER + INTRA:          -3.868
REMARK INTER:                  -3.690
REMARK INTRA:                  -0.178
REMARK UNBOUND:                -0.079
REMARK SMILES CCCCCC=O
REMARK SMILES IDX 4 1 3 2 2 3 1 4 5 5 6 6 7 7
REMARK H PARENT
REMARK Flexibility Score: inf
ROOT
ATOM      1  C   UNL     1      14.551  43.003 -12.750  1.00  0.00     0.008 C 
ENDROOT
BRANCH   1   2
ATOM      2  C   UNL     1      14.329  43.882 -13.989  1.00  0.00     0.000 C 
BRANCH   2   3
ATOM      3  C   UNL     1      14.822  43.178 -15.258  1.00  0.00    -0.003 C 
ATOM      4  C   UNL     1      16.118  43.803 -15.768  1.00  0.00     0.004 C 
ENDBRANCH   2   3
ENDBRANCH   1   2
BRANCH   1   5
ATOM      5  C   UNL     1      14.686  41.517 -13.110  1.00  0.00     0.072 C 
BRANCH   5   6
ATOM      6  C   UNL     1      15.873  40.875 -12.448  1.00  0.00     0.224 C 
ATOM      7  O   UNL     1      16.994  41.073 -12.888  1.00  0.00    -0.303 OA
ENDBRANCH   5   6
ENDBRANCH   1   5
TORSDOF 4
ENDMDL
MODEL 9
REMARK VINA RESULT:    -3.020     16.203     17.290
REMARK INTER + INTRA:          -3.805
REMARK INTER:                  -3.701
REMARK INTRA:                  -0.105
REMARK UNBOUND:                -0.079
REMARK SMILES CCCCCC=O
REMARK SMILES IDX 4 1 3 2 2 3 1 4 5 5 6 6 7 7
REMARK H PARENT
REMARK Flexibility Score: inf
ROOT
ATOM      1  C   UNL     1      17.622  44.238  -0.172  1.00  0.00     0.008 C 
ENDROOT
BRANCH   1   2
ATOM      2  C   UNL     1      19.110  44.586  -0.019  1.00  0.00     0.000 C 
BRANCH   2   3
ATOM      3  C   UNL     1      19.730  43.835   1.165  1.00  0.00    -0.003 C 
ATOM      4  C   UNL     1      20.620  42.690   0.688  1.00  0.00     0.004 C 
ENDBRANCH   2   3
ENDBRANCH   1   2
BRANCH   1   5
ATOM      5  C   UNL     1      16.999  43.763   1.148  1.00  0.00     0.072 C 
BRANCH   5   6
ATOM      6  C   UNL     1      15.534  44.089   1.238  1.00  0.00     0.224 C 
ATOM      7  O   UNL     1      15.158  44.995   1.963  1.00  0.00    -0.303 OA
ENDBRANCH   5   6
ENDBRANCH   1   5
TORSDOF 4
ENDMDL
