MODEL 1
REMARK VINA RESULT:    -4.384      0.000      0.000
REMARK INTER + INTRA:          -4.512
REMARK INTER:                  -4.512
REMARK INTRA:                   0.000
REMARK UNBOUND:                 0.000
REMARK SMILES Nc1ncnc2nc[nH]c12
REMARK SMILES IDX 8 1 7 2 6 3 5 4 4 5 3 6 2 7 10 8 9 9 1 11
REMARK H PARENT 9 10 1 12 1 13
REMARK Flexibility Score: inf
ROOT
ATOM      1  C   UNL     1      12.606  -7.403  -7.433  1.00  0.00     0.199 A 
ATOM      2  N   UNL     1      13.152  -6.442  -6.639  1.00  0.00    -0.217 NA
ATOM      3  C   UNL     1      13.932  -5.768  -7.501  1.00  0.00     0.182 A 
ATOM      4  N   UNL     1      14.711  -4.697  -7.220  1.00  0.00    -0.215 NA
ATOM      5  C   UNL     1      15.438  -4.143  -8.235  1.00  0.00     0.226 A 
ATOM      6  N   UNL     1      15.376  -4.666  -9.503  1.00  0.00    -0.217 NA
ATOM      7  C   UNL     1      14.591  -5.747  -9.788  1.00  0.00     0.152 A 
ATOM      8  C   UNL     1      13.856  -6.300  -8.743  1.00  0.00     0.127 A 
ATOM      9  N   UNL     1      13.017  -7.342  -8.725  1.00  0.00    -0.340 N 
ATOM     10  H   UNL     1      12.737  -7.969  -9.511  1.00  0.00     0.168 HD
ENDROOT
BRANCH   7  11
ATOM     11  N   UNL     1      14.541  -6.274 -11.115  1.00  0.00    -0.382 N 
ATOM     12  H   UNL     1      13.737  -6.042 -11.740  1.00  0.00     0.158 HD
ATOM     13  H   UNL     1      15.298  -6.892 -11.483  1.00  0.00     0.158 HD
ENDBRANCH   7  11
TORSDOF 1
ENDMDL
MODEL 2
REMARK VINA RESULT:    -4.277     21.593     21.858
REMARK INTER + INTRA:          -4.402
REMARK INTER:                  -4.402
REMARK INTRA:                   0.000
REMARK UNBOUND:                 0.000
REMARK SMILES Nc1ncnc2nc[nH]c12
REMARK SMILES IDX 8 1 7 2 6 3 5 4 4 5 3 6 2 7 10 8 9 9 1 11
REMARK H PARENT 9 10 1 12 1 13
REMARK Flexibility Score: inf
ROOT
ATOM      1  C   UNL     1      -1.939   8.045 -16.439  1.00  0.00     0.199 A 
ATOM      2  N   UNL     1      -2.063   6.714 -16.184  1.00  0.00    -0.217 NA
ATOM      3  C   UNL     1      -2.026   6.676 -14.841  1.00  0.00     0.182 A 
ATOM      4  N   UNL     1      -2.111   5.573 -14.061  1.00  0.00    -0.215 NA
ATOM      5  C   UNL     1      -2.053   5.735 -12.705  1.00  0.00     0.226 A 
ATOM      6  N   UNL     1      -1.912   6.986 -12.159  1.00  0.00    -0.217 NA
ATOM      7  C   UNL     1      -1.825   8.100 -12.944  1.00  0.00     0.152 A 
ATOM      8  C   UNL     1      -1.886   7.918 -14.324  1.00  0.00     0.127 A 
ATOM      9  N   UNL     1      -1.829   8.808 -15.322  1.00  0.00    -0.340 N 
ATOM     10  H   UNL     1      -1.723   9.845 -15.268  1.00  0.00     0.168 HD
ENDROOT
BRANCH   7  11
ATOM     11  N   UNL     1      -1.679   9.392 -12.353  1.00  0.00    -0.382 N 
ATOM     12  H   UNL     1      -0.781   9.914 -12.455  1.00  0.00     0.158 HD
ATOM     13  H   UNL     1      -2.456   9.836 -11.815  1.00  0.00     0.158 HD
ENDBRANCH   7  11
TORSDOF 1
ENDMDL
MODEL 3
REMARK VINA RESULT:    -3.948     19.712     19.781
REMARK INTER + INTRA:          -4.063
REMARK INTER:                  -4.063
REMARK INTRA:                   0.000
REMARK UNBOUND:                 0.000
REMARK SMILES Nc1ncnc2nc[nH]c12
REMARK SMILES IDX 8 1 7 2 6 3 5 4 4 5 3 6 2 7 10 8 9 9 1 11
REMARK H PARENT 9 10 1 12 1 13
REMARK Flexibility Score: inf
ROOT
ATOM      1  C   UNL     1      -0.902   3.371 -12.632  1.00  0.00     0.199 A 
ATOM      2  N   UNL     1      -2.160   3.890 -12.683  1.00  0.00    -0.217 NA
ATOM      3  C   UNL     1      -1.924   5.180 -12.975  1.00  0.00     0.182 A 
ATOM      4  N   UNL     1      -2.851   6.153 -13.141  1.00  0.00    -0.215 NA
ATOM      5  C   UNL     1      -2.417   7.415 -13.436  1.00  0.00     0.226 A 
ATOM      6  N   UNL     1      -1.076   7.679 -13.558  1.00  0.00    -0.217 NA
ATOM      7  C   UNL     1      -0.139   6.698 -13.391  1.00  0.00     0.152 A 
ATOM      8  C   UNL     1      -0.598   5.418 -13.091  1.00  0.00     0.127 A 
ATOM      9  N   UNL     1       0.074   4.281 -12.877  1.00  0.00    -0.340 N 
ATOM     10  H   UNL     1       1.105   4.118 -12.892  1.00  0.00     0.168 HD
ENDROOT
BRANCH   7  11
ATOM     11  N   UNL     1       1.251   6.996 -13.524  1.00  0.00    -0.382 N 
ATOM     12  H   UNL     1       1.572   7.989 -13.560  1.00  0.00     0.158 HD
ATOM     13  H   UNL     1       1.967   6.238 -13.586  1.00  0.00     0.158 HD
ENDBRANCH   7  11
TORSDOF 1
ENDMDL
MODEL 4
REMARK VINA RESULT:    -3.900      5.420      7.389
REMARK INTER + INTRA:          -4.014
REMARK INTER:                  -4.014
REMARK INTRA:                   0.000
REMARK UNBOUND:                 0.000
REMARK SMILES Nc1ncnc2nc[nH]c12
REMARK SMILES IDX 8 1 7 2 6 3 5 4 4 5 3 6 2 7 10 8 9 9 1 11
REMARK H PARENT 9 10 1 12 1 13
REMARK Flexibility Score: inf
ROOT
ATOM      1  C   UNL     1      11.574  -8.677  -5.281  1.00  0.00     0.199 A 
ATOM      2  N   UNL     1      10.244  -8.815  -5.029  1.00  0.00    -0.217 NA
ATOM      3  C   UNL     1      10.140  -8.340  -3.776  1.00  0.00     0.182 A 
ATOM      4  N   UNL     1       9.010  -8.251  -3.036  1.00  0.00    -0.215 NA
ATOM      5  C   UNL     1       9.104  -7.737  -1.773  1.00  0.00     0.226 A 
ATOM      6  N   UNL     1      10.316  -7.326  -1.277  1.00  0.00    -0.217 NA
ATOM      7  C   UNL     1      11.457  -7.416  -2.022  1.00  0.00     0.152 A 
ATOM      8  C   UNL     1      11.345  -7.941  -3.307  1.00  0.00     0.127 A 
ATOM      9  N   UNL     1      12.274  -8.145  -4.248  1.00  0.00    -0.340 N 
ATOM     10  H   UNL     1      13.298  -7.948  -4.208  1.00  0.00     0.168 HD
ENDROOT
BRANCH   7  11
ATOM     11  N   UNL     1      12.707  -6.981  -1.485  1.00  0.00    -0.382 N 
ATOM     12  H   UNL     1      12.858  -5.973  -1.261  1.00  0.00     0.158 HD
ATOM     13  H   UNL     1      13.486  -7.654  -1.306  1.00  0.00     0.158 HD
ENDBRANCH   7  11
TORSDOF 1
ENDMDL
MODEL 5
REMARK VINA RESULT:    -3.841      6.571      8.400
REMARK INTER + INTRA:          -3.954
REMARK INTER:                  -3.954
REMARK INTRA:                   0.000
REMARK UNBOUND:                 0.000
REMARK SMILES Nc1ncnc2nc[nH]c12
REMARK SMILES IDX 8 1 7 2 6 3 5 4 4 5 3 6 2 7 10 8 9 9 1 11
REMARK H PARENT 9 10 1 12 1 13
REMARK Flexibility Score: inf
ROOT
ATOM      1  C   UNL     1       9.362  -8.865   0.326  1.00  0.00     0.199 A 
ATOM      2  N   UNL     1       8.575  -8.771  -0.780  1.00  0.00    -0.217 NA
ATOM      3  C   UNL     1       9.393  -8.173  -1.662  1.00  0.00     0.182 A 
ATOM      4  N   UNL     1       9.098  -7.842  -2.942  1.00  0.00    -0.215 NA
ATOM      5  C   UNL     1      10.067  -7.235  -3.691  1.00  0.00     0.226 A 
ATOM      6  N   UNL     1      11.302  -6.972  -3.152  1.00  0.00    -0.217 NA
ATOM      7  C   UNL     1      11.601  -7.306  -1.861  1.00  0.00     0.152 A 
ATOM      8  C   UNL     1      10.603  -7.924  -1.112  1.00  0.00     0.127 A 
ATOM      9  N   UNL     1      10.608  -8.356   0.155  1.00  0.00    -0.340 N 
ATOM     10  H   UNL     1      11.381  -8.316   0.856  1.00  0.00     0.168 HD
ENDROOT
BRANCH   7  11
ATOM     11  N   UNL     1      12.893  -7.023  -1.322  1.00  0.00    -0.382 N 
ATOM     12  H   UNL     1      12.992  -6.354  -0.527  1.00  0.00     0.158 HD
ATOM     13  H   UNL     1      13.753  -7.473  -1.706  1.00  0.00     0.158 HD
ENDBRANCH   7  11
TORSDOF 1
ENDMDL
MODEL 6
REMARK VINA RESULT:    -3.829      1.697      4.562
REMARK INTER + INTRA:          -3.941
REMARK INTER:                  -3.941
REMARK INTRA:                   0.000
REMARK UNBOUND:                 0.000
REMARK SMILES Nc1ncnc2nc[nH]c12
REMARK SMILES IDX 8 1 7 2 6 3 5 4 4 5 3 6 2 7 10 8 9 9 1 11
REMARK H PARENT 9 10 1 12 1 13
REMARK Flexibility Score: inf
ROOT
ATOM      1  C   UNL     1      13.956  -5.351  -7.909  1.00  0.00     0.199 A 
ATOM      2  N   UNL     1      13.709  -6.491  -8.610  1.00  0.00    -0.217 NA
ATOM      3  C   UNL     1      13.050  -7.242  -7.710  1.00  0.00     0.182 A 
ATOM      4  N   UNL     1      12.569  -8.493  -7.900  1.00  0.00    -0.215 NA
ATOM      5  C   UNL     1      11.923  -9.101  -6.860  1.00  0.00     0.226 A 
ATOM      6  N   UNL     1      11.772  -8.453  -5.660  1.00  0.00    -0.217 NA
ATOM      7  C   UNL     1      12.258  -7.190  -5.467  1.00  0.00     0.152 A 
ATOM      8  C   UNL     1      12.913  -6.585  -6.536  1.00  0.00     0.127 A 
ATOM      9  N   UNL     1      13.482  -5.378  -6.638  1.00  0.00    -0.340 N 
ATOM     10  H   UNL     1      13.551  -4.626  -5.917  1.00  0.00     0.168 HD
ENDROOT
BRANCH   7  11
ATOM     11  N   UNL     1      12.089  -6.535  -4.209  1.00  0.00    -0.382 N 
ATOM     12  H   UNL     1      11.130  -6.331  -3.851  1.00  0.00     0.158 HD
ATOM     13  H   UNL     1      12.909  -6.251  -3.629  1.00  0.00     0.158 HD
ENDBRANCH   7  11
TORSDOF 1
ENDMDL
MODEL 7
REMARK VINA RESULT:    -3.783     21.309     21.496
REMARK INTER + INTRA:          -3.893
REMARK INTER:                  -3.893
REMARK INTRA:                   0.000
REMARK UNBOUND:                 0.000
REMARK SMILES Nc1ncnc2nc[nH]c12
REMARK SMILES IDX 8 1 7 2 6 3 5 4 4 5 3 6 2 7 10 8 9 9 1 11
REMARK H PARENT 9 10 1 12 1 13
REMARK Flexibility Score: inf
ROOT
ATOM      1  C   UNL     1      -1.992   7.012 -16.850  1.00  0.00     0.199 A 
ATOM      2  N   UNL     1      -2.096   8.194 -16.182  1.00  0.00    -0.217 NA
ATOM      3  C   UNL     1      -1.975   7.809 -14.900  1.00  0.00     0.182 A 
ATOM      4  N   UNL     1      -2.008   8.611 -13.809  1.00  0.00    -0.215 NA
ATOM      5  C   UNL     1      -1.867   8.032 -12.579  1.00  0.00     0.226 A 
ATOM      6  N   UNL     1      -1.698   6.675 -12.463  1.00  0.00    -0.217 NA
ATOM      7  C   UNL     1      -1.664   5.865 -13.562  1.00  0.00     0.152 A 
ATOM      8  C   UNL     1      -1.809   6.470 -14.809  1.00  0.00     0.127 A 
ATOM      9  N   UNL     1      -1.817   5.940 -16.037  1.00  0.00    -0.340 N 
ATOM     10  H   UNL     1      -1.713   4.940 -16.318  1.00  0.00     0.168 HD
ENDROOT
BRANCH   7  11
ATOM     11  N   UNL     1      -1.487   4.455 -13.417  1.00  0.00    -0.382 N 
ATOM     12  H   UNL     1      -1.102   4.066 -12.528  1.00  0.00     0.158 HD
ATOM     13  H   UNL     1      -1.734   3.794 -14.186  1.00  0.00     0.158 HD
ENDBRANCH   7  11
TORSDOF 1
ENDMDL
MODEL 8
REMARK VINA RESULT:    -3.759      5.818      7.350
REMARK INTER + INTRA:          -3.869
REMARK INTER:                  -3.869
REMARK INTRA:                   0.000
REMARK UNBOUND:                 0.000
REMARK SMILES Nc1ncnc2nc[nH]c12
REMARK SMILES IDX 8 1 7 2 6 3 5 4 4 5 3 6 2 7 10 8 9 9 1 11
REMARK H PARENT 9 10 1 12 1 13
REMARK Flexibility Score: inf
ROOT
ATOM      1  C   UNL     1      11.559  -6.787  -0.791  1.00  0.00     0.199 A 
ATOM      2  N   UNL     1      10.212  -6.905  -0.947  1.00  0.00    -0.217 NA
ATOM      3  C   UNL     1      10.117  -7.531  -2.133  1.00  0.00     0.182 A 
ATOM      4  N   UNL     1       8.976  -7.894  -2.766  1.00  0.00    -0.215 NA
ATOM      5  C   UNL     1       9.081  -8.526  -3.973  1.00  0.00     0.226 A 
ATOM      6  N   UNL     1      10.313  -8.780  -4.522  1.00  0.00    -0.217 NA
ATOM      7  C   UNL     1      11.465  -8.415  -3.884  1.00  0.00     0.152 A 
ATOM      8  C   UNL     1      11.341  -7.772  -2.655  1.00  0.00     0.127 A 
ATOM      9  N   UNL     1      12.277  -7.308  -1.818  1.00  0.00    -0.340 N 
ATOM     10  H   UNL     1      13.315  -7.333  -1.920  1.00  0.00     0.168 HD
ENDROOT
BRANCH   7  11
ATOM     11  N   UNL     1      12.736  -8.691  -4.474  1.00  0.00    -0.382 N 
ATOM     12  H   UNL     1      12.950  -8.351  -5.438  1.00  0.00     0.158 HD
ATOM     13  H   UNL     1      13.469  -9.229  -3.961  1.00  0.00     0.158 HD
ENDBRANCH   7  11
TORSDOF 1
ENDMDL
MODEL 9
REMARK VINA RESULT:    -3.590     15.412     16.409
REMARK INTER + INTRA:          -3.695
REMARK INTER:                  -3.695
REMARK INTRA:                   0.000
REMARK UNBOUND:                 0.000
REMARK SMILES Nc1ncnc2nc[nH]c12
REMARK SMILES IDX 8 1 7 2 6 3 5 4 4 5 3 6 2 7 10 8 9 9 1 11
REMARK H PARENT 9 10 1 12 1 13
REMARK Flexibility Score: inf
ROOT
ATOM      1  C   UNL     1       0.933  -2.941 -15.374  1.00  0.00     0.199 A 
ATOM      2  N   UNL     1      -0.286  -2.360 -15.542  1.00  0.00    -0.217 NA
ATOM      3  C   UNL     1      -1.025  -2.968 -14.599  1.00  0.00     0.182 A 
ATOM      4  N   UNL     1      -2.336  -2.752 -14.335  1.00  0.00    -0.215 NA
ATOM      5  C   UNL     1      -2.919  -3.472 -13.330  1.00  0.00     0.226 A 
ATOM      6  N   UNL     1      -2.188  -4.387 -12.614  1.00  0.00    -0.217 NA
ATOM      7  C   UNL     1      -0.866  -4.607 -12.879  1.00  0.00     0.152 A 
ATOM      8  C   UNL     1      -0.287  -3.865 -13.906  1.00  0.00     0.127 A 
ATOM      9  N   UNL     1       0.965  -3.866 -14.381  1.00  0.00    -0.340 N 
ATOM     10  H   UNL     1       1.781  -4.438 -14.071  1.00  0.00     0.168 HD
ENDROOT
BRANCH   7  11
ATOM     11  N   UNL     1      -0.126  -5.564 -12.121  1.00  0.00    -0.382 N 
ATOM     12  H   UNL     1      -0.611  -6.389 -11.704  1.00  0.00     0.158 HD
ATOM     13  H   UNL     1       0.903  -5.461 -11.970  1.00  0.00     0.158 HD
ENDBRANCH   7  11
TORSDOF 1
ENDMDL
