MODEL 1
REMARK VINA RESULT:    -4.268      0.000      0.000
REMARK INTER + INTRA:          -7.877
REMARK INTER:                  -7.263
REMARK INTRA:                  -0.614
REMARK UNBOUND:                -0.614
REMARK SMILES CCCCCCCCCCCCCC(=O)[O-]
REMARK SMILES IDX 8 1 9 2 10 3 11 4 12 5 13 6 14 7 15 8 16 9 7 10 6 11 5 12
REMARK SMILES IDX 4 13 3 14 2 15 1 16
REMARK H PARENT
REMARK Flexibility Score: inf
ROOT
ATOM      1  C   UNL     1      14.065  21.509 -18.590  1.00  0.00     0.000 C 
ENDROOT
BRANCH   1   2
ATOM      2  C   UNL     1      12.557  21.556 -18.896  1.00  0.00     0.000 C 
BRANCH   2   3
ATOM      3  C   UNL     1      12.182  22.667 -19.888  1.00  0.00     0.000 C 
BRANCH   3   4
ATOM      4  C   UNL     1      11.994  22.101 -21.300  1.00  0.00     0.000 C 
BRANCH   4   5
ATOM      5  C   UNL     1      13.191  22.453 -22.198  1.00  0.00     0.006 C 
BRANCH   5   6
ATOM      6  C   UNL     1      12.753  23.057 -23.539  1.00  0.00     0.053 C 
BRANCH   6   7
ATOM      7  C   UNL     1      13.491  22.449 -24.692  1.00  0.00     0.041 C 
ATOM      8  O   UNL     1      14.395  23.098 -25.279  1.00  0.00    -0.550 OA
ATOM      9  O   UNL     1      13.204  21.150 -25.095  1.00  0.00    -0.550 OA
ENDBRANCH   6   7
ENDBRANCH   5   6
ENDBRANCH   4   5
ENDBRANCH   3   4
ENDBRANCH   2   3
ENDBRANCH   1   2
BRANCH   1  10
ATOM     10  C   UNL     1      14.786  20.237 -19.074  1.00  0.00     0.000 C 
BRANCH  10  11
ATOM     11  C   UNL     1      16.005  19.874 -18.211  1.00  0.00    -0.000 C 
BRANCH  11  12
ATOM     12  C   UNL     1      16.823  21.126 -17.862  1.00  0.00    -0.000 C 
BRANCH  12  13
ATOM     13  C   UNL     1      18.237  20.793 -17.354  1.00  0.00    -0.000 C 
BRANCH  13  14
ATOM     14  C   UNL     1      18.323  19.577 -16.410  1.00  0.00    -0.000 C 
BRANCH  14  15
ATOM     15  C   UNL     1      19.738  19.007 -16.212  1.00  0.00    -0.003 C 
ATOM     16  C   UNL     1      19.992  17.745 -17.035  1.00  0.00     0.004 C 
ENDBRANCH  14  15
ENDBRANCH  13  14
ENDBRANCH  12  13
ENDBRANCH  11  12
ENDBRANCH  10  11
ENDBRANCH   1  10
TORSDOF 12
ENDMDL
MODEL 2
REMARK VINA RESULT:    -4.234     19.199     22.509
REMARK INTER + INTRA:          -7.818
REMARK INTER:                  -7.065
REMARK INTRA:                  -0.754
REMARK UNBOUND:                -0.614
REMARK SMILES CCCCCCCCCCCCCC(=O)[O-]
REMARK SMILES IDX 8 1 9 2 10 3 11 4 12 5 13 6 14 7 15 8 16 9 7 10 6 11 5 12
REMARK SMILES IDX 4 13 3 14 2 15 1 16
REMARK H PARENT
REMARK Flexibility Score: inf
ROOT
ATOM      1  C   UNL     1      30.462   5.596 -21.991  1.00  0.00     0.000 C 
ENDROOT
BRANCH   1   2
ATOM      2  C   UNL     1      30.364   5.467 -20.460  1.00  0.00     0.000 C 
BRANCH   2   3
ATOM      3  C   UNL     1      28.965   5.052 -19.982  1.00  0.00     0.000 C 
BRANCH   3   4
ATOM      4  C   UNL     1      27.880   5.899 -20.658  1.00  0.00     0.000 C 
BRANCH   4   5
ATOM      5  C   UNL     1      27.503   7.107 -19.786  1.00  0.00     0.006 C 
BRANCH   5   6
ATOM      6  C   UNL     1      27.752   6.846 -18.295  1.00  0.00     0.053 C 
BRANCH   6   7
ATOM      7  C   UNL     1      28.687   7.856 -17.702  1.00  0.00     0.041 C 
ATOM      8  O   UNL     1      28.245   8.952 -17.270  1.00  0.00    -0.550 OA
ATOM      9  O   UNL     1      30.043   7.570 -17.594  1.00  0.00    -0.550 OA
ENDBRANCH   6   7
ENDBRANCH   5   6
ENDBRANCH   4   5
ENDBRANCH   3   4
ENDBRANCH   2   3
ENDBRANCH   1   2
BRANCH   1  10
ATOM     10  C   UNL     1      30.531   4.260 -22.753  1.00  0.00     0.000 C 
BRANCH  10  11
ATOM     11  C   UNL     1      31.373   4.342 -24.035  1.00  0.00    -0.000 C 
BRANCH  11  12
ATOM     12  C   UNL     1      31.189   5.701 -24.725  1.00  0.00    -0.000 C 
BRANCH  12  13
ATOM     13  C   UNL     1      31.697   5.708 -26.178  1.00  0.00    -0.000 C 
BRANCH  13  14
ATOM     14  C   UNL     1      31.693   4.334 -26.878  1.00  0.00    -0.000 C 
BRANCH  14  15
ATOM     15  C   UNL     1      30.562   4.128 -27.900  1.00  0.00    -0.003 C 
ATOM     16  C   UNL     1      31.002   4.400 -29.338  1.00  0.00     0.004 C 
ENDBRANCH  14  15
ENDBRANCH  13  14
ENDBRANCH  12  13
ENDBRANCH  11  12
ENDBRANCH  10  11
ENDBRANCH   1  10
TORSDOF 12
ENDMDL
MODEL 3
REMARK VINA RESULT:    -4.213      4.688      8.621
REMARK INTER + INTRA:          -7.783
REMARK INTER:                  -7.141
REMARK INTRA:                  -0.642
REMARK UNBOUND:                -0.614
REMARK SMILES CCCCCCCCCCCCCC(=O)[O-]
REMARK SMILES IDX 8 1 9 2 10 3 11 4 12 5 13 6 14 7 15 8 16 9 7 10 6 11 5 12
REMARK SMILES IDX 4 13 3 14 2 15 1 16
REMARK H PARENT
REMARK Flexibility Score: inf
ROOT
ATOM      1  C   UNL     1      15.190  20.978 -18.245  1.00  0.00     0.000 C 
ENDROOT
BRANCH   1   2
ATOM      2  C   UNL     1      16.595  21.596 -18.139  1.00  0.00     0.000 C 
BRANCH   2   3
ATOM      3  C   UNL     1      17.613  20.660 -17.472  1.00  0.00     0.000 C 
BRANCH   3   4
ATOM      4  C   UNL     1      16.919  19.425 -16.886  1.00  0.00     0.000 C 
BRANCH   4   5
ATOM      5  C   UNL     1      17.838  18.698 -15.891  1.00  0.00     0.006 C 
BRANCH   5   6
ATOM      6  C   UNL     1      19.197  19.395 -15.740  1.00  0.00     0.053 C 
BRANCH   6   7
ATOM      7  C   UNL     1      19.410  19.902 -14.347  1.00  0.00     0.041 C 
ATOM      8  O   UNL     1      18.807  19.370 -13.379  1.00  0.00    -0.550 OA
ATOM      9  O   UNL     1      20.303  20.942 -14.114  1.00  0.00    -0.550 OA
ENDBRANCH   6   7
ENDBRANCH   5   6
ENDBRANCH   4   5
ENDBRANCH   3   4
ENDBRANCH   2   3
ENDBRANCH   1   2
BRANCH   1  10
ATOM     10  C   UNL     1      14.290  21.591 -19.334  1.00  0.00     0.000 C 
BRANCH  10  11
ATOM     11  C   UNL     1      12.843  21.806 -18.866  1.00  0.00    -0.000 C 
BRANCH  11  12
ATOM     12  C   UNL     1      12.059  22.653 -19.880  1.00  0.00    -0.000 C 
BRANCH  12  13
ATOM     13  C   UNL     1      12.945  23.204 -21.011  1.00  0.00    -0.000 C 
BRANCH  13  14
ATOM     14  C   UNL     1      12.511  22.804 -22.435  1.00  0.00    -0.000 C 
BRANCH  14  15
ATOM     15  C   UNL     1      13.608  22.146 -23.289  1.00  0.00    -0.003 C 
ATOM     16  C   UNL     1      13.584  22.603 -24.747  1.00  0.00     0.004 C 
ENDBRANCH  14  15
ENDBRANCH  13  14
ENDBRANCH  12  13
ENDBRANCH  11  12
ENDBRANCH  10  11
ENDBRANCH   1  10
TORSDOF 12
ENDMDL
MODEL 4
REMARK VINA RESULT:    -4.193      3.786      8.214
REMARK INTER + INTRA:          -7.748
REMARK INTER:                  -7.136
REMARK INTRA:                  -0.613
REMARK UNBOUND:                -0.614
REMARK SMILES CCCCCCCCCCCCCC(=O)[O-]
REMARK SMILES IDX 8 1 9 2 10 3 11 4 12 5 13 6 14 7 15 8 16 9 7 10 6 11 5 12
REMARK SMILES IDX 4 13 3 14 2 15 1 16
REMARK H PARENT
REMARK Flexibility Score: inf
ROOT
ATOM      1  C   UNL     1      13.513  22.826 -20.148  1.00  0.00     0.000 C 
ENDROOT
BRANCH   1   2
ATOM      2  C   UNL     1      12.936  21.810 -19.145  1.00  0.00     0.000 C 
BRANCH   2   3
ATOM      3  C   UNL     1      14.019  21.110 -18.312  1.00  0.00     0.000 C 
BRANCH   3   4
ATOM      4  C   UNL     1      15.417  21.603 -18.704  1.00  0.00     0.000 C 
BRANCH   4   5
ATOM      5  C   UNL     1      16.508  20.756 -18.031  1.00  0.00     0.006 C 
BRANCH   5   6
ATOM      6  C   UNL     1      16.191  19.256 -18.080  1.00  0.00     0.053 C 
BRANCH   6   7
ATOM      7  C   UNL     1      17.033  18.477 -17.116  1.00  0.00     0.041 C 
ATOM      8  O   UNL     1      17.127  18.844 -15.916  1.00  0.00    -0.550 OA
ATOM      9  O   UNL     1      17.686  17.324 -17.537  1.00  0.00    -0.550 OA
ENDBRANCH   6   7
ENDBRANCH   5   6
ENDBRANCH   4   5
ENDBRANCH   3   4
ENDBRANCH   2   3
ENDBRANCH   1   2
BRANCH   1  10
ATOM     10  C   UNL     1      12.673  23.031 -21.422  1.00  0.00     0.000 C 
BRANCH  10  11
ATOM     11  C   UNL     1      12.892  21.929 -22.469  1.00  0.00    -0.000 C 
BRANCH  11  12
ATOM     12  C   UNL     1      13.624  22.481 -23.702  1.00  0.00    -0.000 C 
BRANCH  12  13
ATOM     13  C   UNL     1      12.751  23.435 -24.537  1.00  0.00    -0.000 C 
BRANCH  13  14
ATOM     14  C   UNL     1      12.098  22.801 -25.782  1.00  0.00    -0.000 C 
BRANCH  14  15
ATOM     15  C   UNL     1      13.083  22.339 -26.869  1.00  0.00    -0.003 C 
ATOM     16  C   UNL     1      12.580  21.127 -27.653  1.00  0.00     0.004 C 
ENDBRANCH  14  15
ENDBRANCH  13  14
ENDBRANCH  12  13
ENDBRANCH  11  12
ENDBRANCH  10  11
ENDBRANCH   1  10
TORSDOF 12
ENDMDL
MODEL 5
REMARK VINA RESULT:    -4.192      1.625      3.031
REMARK INTER + INTRA:          -7.747
REMARK INTER:                  -7.287
REMARK INTRA:                  -0.460
REMARK UNBOUND:                -0.614
REMARK SMILES CCCCCCCCCCCCCC(=O)[O-]
REMARK SMILES IDX 8 1 9 2 10 3 11 4 12 5 13 6 14 7 15 8 16 9 7 10 6 11 5 12
REMARK SMILES IDX 4 13 3 14 2 15 1 16
REMARK H PARENT
REMARK Flexibility Score: inf
ROOT
ATOM      1  C   UNL     1      11.915  22.392 -20.721  1.00  0.00     0.000 C 
ENDROOT
BRANCH   1   2
ATOM      2  C   UNL     1      12.912  22.595 -21.876  1.00  0.00     0.000 C 
BRANCH   2   3
ATOM      3  C   UNL     1      12.261  22.457 -23.260  1.00  0.00     0.000 C 
BRANCH   3   4
ATOM      4  C   UNL     1      12.923  23.398 -24.274  1.00  0.00     0.000 C 
BRANCH   4   5
ATOM      5  C   UNL     1      13.670  22.603 -25.356  1.00  0.00     0.006 C 
BRANCH   5   6
ATOM      6  C   UNL     1      12.909  22.580 -26.689  1.00  0.00     0.053 C 
BRANCH   6   7
ATOM      7  C   UNL     1      12.661  21.181 -27.165  1.00  0.00     0.041 C 
ATOM      8  O   UNL     1      12.935  20.857 -28.350  1.00  0.00    -0.550 OA
ATOM      9  O   UNL     1      12.159  20.226 -26.289  1.00  0.00    -0.550 OA
ENDBRANCH   6   7
ENDBRANCH   5   6
ENDBRANCH   4   5
ENDBRANCH   3   4
ENDBRANCH   2   3
ENDBRANCH   1   2
BRANCH   1  10
ATOM     10  C   UNL     1      12.271  21.253 -19.748  1.00  0.00     0.000 C 
BRANCH  10  11
ATOM     11  C   UNL     1      13.301  21.670 -18.687  1.00  0.00    -0.000 C 
BRANCH  11  12
ATOM     12  C   UNL     1      14.615  20.894 -18.864  1.00  0.00    -0.000 C 
BRANCH  12  13
ATOM     13  C   UNL     1      15.703  21.325 -17.865  1.00  0.00    -0.000 C 
BRANCH  13  14
ATOM     14  C   UNL     1      16.950  20.419 -17.826  1.00  0.00    -0.000 C 
BRANCH  14  15
ATOM     15  C   UNL     1      16.704  18.998 -17.291  1.00  0.00    -0.003 C 
ATOM     16  C   UNL     1      17.390  18.739 -15.950  1.00  0.00     0.004 C 
ENDBRANCH  14  15
ENDBRANCH  13  14
ENDBRANCH  12  13
ENDBRANCH  11  12
ENDBRANCH  10  11
ENDBRANCH   1  10
TORSDOF 12
ENDMDL
MODEL 6
REMARK VINA RESULT:    -4.165     19.056     22.341
REMARK INTER + INTRA:          -7.702
REMARK INTER:                  -6.610
REMARK INTRA:                  -1.091
REMARK UNBOUND:                -0.614
REMARK SMILES CCCCCCCCCCCCCC(=O)[O-]
REMARK SMILES IDX 8 1 9 2 10 3 11 4 12 5 13 6 14 7 15 8 16 9 7 10 6 11 5 12
REMARK SMILES IDX 4 13 3 14 2 15 1 16
REMARK H PARENT
REMARK Flexibility Score: inf
ROOT
ATOM      1  C   UNL     1      30.335   5.835 -22.495  1.00  0.00     0.000 C 
ENDROOT
BRANCH   1   2
ATOM      2  C   UNL     1      29.988   4.410 -22.027  1.00  0.00     0.000 C 
BRANCH   2   3
ATOM      3  C   UNL     1      29.470   4.364 -20.583  1.00  0.00     0.000 C 
BRANCH   3   4
ATOM      4  C   UNL     1      30.324   5.248 -19.665  1.00  0.00     0.000 C 
BRANCH   4   5
ATOM      5  C   UNL     1      29.490   5.796 -18.497  1.00  0.00     0.006 C 
BRANCH   5   6
ATOM      6  C   UNL     1      28.000   5.905 -18.848  1.00  0.00     0.053 C 
BRANCH   6   7
ATOM      7  C   UNL     1      27.608   7.312 -19.183  1.00  0.00     0.041 C 
ATOM      8  O   UNL     1      27.217   7.602 -20.344  1.00  0.00    -0.550 OA
ATOM      9  O   UNL     1      27.642   8.296 -18.202  1.00  0.00    -0.550 OA
ENDBRANCH   6   7
ENDBRANCH   5   6
ENDBRANCH   4   5
ENDBRANCH   3   4
ENDBRANCH   2   3
ENDBRANCH   1   2
BRANCH   1  10
ATOM     10  C   UNL     1      31.683   5.969 -23.229  1.00  0.00     0.000 C 
BRANCH  10  11
ATOM     11  C   UNL     1      31.773   7.235 -24.094  1.00  0.00    -0.000 C 
BRANCH  11  12
ATOM     12  C   UNL     1      31.719   6.882 -25.588  1.00  0.00    -0.000 C 
BRANCH  12  13
ATOM     13  C   UNL     1      31.760   5.366 -25.846  1.00  0.00    -0.000 C 
BRANCH  13  14
ATOM     14  C   UNL     1      30.901   4.882 -27.032  1.00  0.00    -0.000 C 
BRANCH  14  15
ATOM     15  C   UNL     1      29.784   3.891 -26.664  1.00  0.00    -0.003 C 
ATOM     16  C   UNL     1      28.523   4.581 -26.146  1.00  0.00     0.004 C 
ENDBRANCH  14  15
ENDBRANCH  13  14
ENDBRANCH  12  13
ENDBRANCH  11  12
ENDBRANCH  10  11
ENDBRANCH   1  10
TORSDOF 12
ENDMDL
MODEL 7
REMARK VINA RESULT:    -4.164     18.640     22.091
REMARK INTER + INTRA:          -7.699
REMARK INTER:                  -6.674
REMARK INTRA:                  -1.025
REMARK UNBOUND:                -0.614
REMARK SMILES CCCCCCCCCCCCCC(=O)[O-]
REMARK SMILES IDX 8 1 9 2 10 3 11 4 12 5 13 6 14 7 15 8 16 9 7 10 6 11 5 12
REMARK SMILES IDX 4 13 3 14 2 15 1 16
REMARK H PARENT
REMARK Flexibility Score: inf
ROOT
ATOM      1  C   UNL     1      31.796   5.594 -21.165  1.00  0.00     0.000 C 
ENDROOT
BRANCH   1   2
ATOM      2  C   UNL     1      30.305   5.881 -20.909  1.00  0.00     0.000 C 
BRANCH   2   3
ATOM      3  C   UNL     1      29.871   5.553 -19.474  1.00  0.00     0.000 C 
BRANCH   3   4
ATOM      4  C   UNL     1      30.216   6.702 -18.519  1.00  0.00     0.000 C 
BRANCH   4   5
ATOM      5  C   UNL     1      28.943   7.367 -17.974  1.00  0.00     0.006 C 
BRANCH   5   6
ATOM      6  C   UNL     1      27.705   6.476 -18.143  1.00  0.00     0.053 C 
BRANCH   6   7
ATOM      7  C   UNL     1      26.498   7.068 -17.481  1.00  0.00     0.041 C 
ATOM      8  O   UNL     1      26.114   8.227 -17.785  1.00  0.00    -0.550 OA
ATOM      9  O   UNL     1      25.778   6.324 -16.554  1.00  0.00    -0.550 OA
ENDBRANCH   6   7
ENDBRANCH   5   6
ENDBRANCH   4   5
ENDBRANCH   3   4
ENDBRANCH   2   3
ENDBRANCH   1   2
BRANCH   1  10
ATOM     10  C   UNL     1      32.077   4.408 -22.107  1.00  0.00     0.000 C 
BRANCH  10  11
ATOM     11  C   UNL     1      30.900   4.091 -23.040  1.00  0.00    -0.000 C 
BRANCH  11  12
ATOM     12  C   UNL     1      31.312   4.238 -24.512  1.00  0.00    -0.000 C 
BRANCH  12  13
ATOM     13  C   UNL     1      30.223   4.901 -25.375  1.00  0.00    -0.000 C 
BRANCH  13  14
ATOM     14  C   UNL     1      30.547   6.332 -25.849  1.00  0.00    -0.000 C 
BRANCH  14  15
ATOM     15  C   UNL     1      31.940   6.850 -25.452  1.00  0.00    -0.003 C 
ATOM     16  C   UNL     1      31.905   7.792 -24.249  1.00  0.00     0.004 C 
ENDBRANCH  14  15
ENDBRANCH  13  14
ENDBRANCH  12  13
ENDBRANCH  11  12
ENDBRANCH  10  11
ENDBRANCH   1  10
TORSDOF 12
ENDMDL
MODEL 8
REMARK VINA RESULT:    -4.149     19.179     21.770
REMARK INTER + INTRA:          -7.674
REMARK INTER:                  -6.685
REMARK INTRA:                  -0.989
REMARK UNBOUND:                -0.614
REMARK SMILES CCCCCCCCCCCCCC(=O)[O-]
REMARK SMILES IDX 8 1 9 2 10 3 11 4 12 5 13 6 14 7 15 8 16 9 7 10 6 11 5 12
REMARK SMILES IDX 4 13 3 14 2 15 1 16
REMARK H PARENT
REMARK Flexibility Score: inf
ROOT
ATOM      1  C   UNL     1      27.611   5.831 -20.552  1.00  0.00     0.000 C 
ENDROOT
BRANCH   1   2
ATOM      2  C   UNL     1      27.725   7.268 -20.011  1.00  0.00     0.000 C 
BRANCH   2   3
ATOM      3  C   UNL     1      27.391   7.373 -18.516  1.00  0.00     0.000 C 
BRANCH   3   4
ATOM      4  C   UNL     1      28.647   7.180 -17.658  1.00  0.00     0.000 C 
BRANCH   4   5
ATOM      5  C   UNL     1      28.566   5.877 -16.849  1.00  0.00     0.006 C 
BRANCH   5   6
ATOM      6  C   UNL     1      27.958   6.095 -15.457  1.00  0.00     0.053 C 
BRANCH   6   7
ATOM      7  C   UNL     1      26.728   5.264 -15.250  1.00  0.00     0.041 C 
ATOM      8  O   UNL     1      26.744   4.301 -14.439  1.00  0.00    -0.550 OA
ATOM      9  O   UNL     1      25.555   5.576 -15.926  1.00  0.00    -0.550 OA
ENDBRANCH   6   7
ENDBRANCH   5   6
ENDBRANCH   4   5
ENDBRANCH   3   4
ENDBRANCH   2   3
ENDBRANCH   1   2
BRANCH   1  10
ATOM     10  C   UNL     1      28.786   5.374 -21.436  1.00  0.00     0.000 C 
BRANCH  10  11
ATOM     11  C   UNL     1      30.156   5.762 -20.860  1.00  0.00    -0.000 C 
BRANCH  11  12
ATOM     12  C   UNL     1      31.201   5.897 -21.978  1.00  0.00    -0.000 C 
BRANCH  12  13
ATOM     13  C   UNL     1      31.691   4.537 -22.506  1.00  0.00    -0.000 C 
BRANCH  13  14
ATOM     14  C   UNL     1      31.354   4.251 -23.984  1.00  0.00    -0.000 C 
BRANCH  14  15
ATOM     15  C   UNL     1      30.759   5.440 -24.757  1.00  0.00    -0.003 C 
ATOM     16  C   UNL     1      31.734   6.043 -25.767  1.00  0.00     0.004 C 
ENDBRANCH  14  15
ENDBRANCH  13  14
ENDBRANCH  12  13
ENDBRANCH  11  12
ENDBRANCH  10  11
ENDBRANCH   1  10
TORSDOF 12
ENDMDL
MODEL 9
REMARK VINA RESULT:    -4.124      1.999      3.462
REMARK INTER + INTRA:          -7.632
REMARK INTER:                  -6.332
REMARK INTRA:                  -1.300
REMARK UNBOUND:                -0.614
REMARK SMILES CCCCCCCCCCCCCC(=O)[O-]
REMARK SMILES IDX 8 1 9 2 10 3 11 4 12 5 13 6 14 7 15 8 16 9 7 10 6 11 5 12
REMARK SMILES IDX 4 13 3 14 2 15 1 16
REMARK H PARENT
REMARK Flexibility Score: inf
ROOT
ATOM      1  C   UNL     1      14.127  21.254 -18.738  1.00  0.00     0.000 C 
ENDROOT
BRANCH   1   2
ATOM      2  C   UNL     1      14.270  22.384 -19.774  1.00  0.00     0.000 C 
BRANCH   2   3
ATOM      3  C   UNL     1      12.928  23.031 -20.144  1.00  0.00     0.000 C 
BRANCH   3   4
ATOM      4  C   UNL     1      12.268  22.295 -21.316  1.00  0.00     0.000 C 
BRANCH   4   5
ATOM      5  C   UNL     1      12.565  23.002 -22.647  1.00  0.00     0.006 C 
BRANCH   5   6
ATOM      6  C   UNL     1      11.954  22.263 -23.845  1.00  0.00     0.053 C 
BRANCH   6   7
ATOM      7  C   UNL     1      12.988  21.918 -24.873  1.00  0.00     0.041 C 
ATOM      8  O   UNL     1      13.970  22.682 -25.065  1.00  0.00    -0.550 OA
ATOM      9  O   UNL     1      12.885  20.736 -25.595  1.00  0.00    -0.550 OA
ENDBRANCH   6   7
ENDBRANCH   5   6
ENDBRANCH   4   5
ENDBRANCH   3   4
ENDBRANCH   2   3
ENDBRANCH   1   2
BRANCH   1  10
ATOM     10  C   UNL     1      15.391  20.971 -17.906  1.00  0.00     0.000 C 
BRANCH  10  11
ATOM     11  C   UNL     1      16.331  19.953 -18.570  1.00  0.00    -0.000 C 
BRANCH  11  12
ATOM     12  C   UNL     1      15.713  18.546 -18.555  1.00  0.00    -0.000 C 
BRANCH  12  13
ATOM     13  C   UNL     1      16.269  17.639 -19.667  1.00  0.00    -0.000 C 
BRANCH  13  14
ATOM     14  C   UNL     1      15.771  17.968 -21.089  1.00  0.00    -0.000 C 
BRANCH  14  15
ATOM     15  C   UNL     1      14.307  18.434 -21.174  1.00  0.00    -0.003 C 
ATOM     16  C   UNL     1      14.013  19.248 -22.433  1.00  0.00     0.004 C 
ENDBRANCH  14  15
ENDBRANCH  13  14
ENDBRANCH  12  13
ENDBRANCH  11  12
ENDBRANCH  10  11
ENDBRANCH   1  10
TORSDOF 12
ENDMDL
