MODEL 1
REMARK VINA RESULT:    -3.898      0.000      0.000
REMARK INTER + INTRA:          -4.602
REMARK INTER:                  -4.468
REMARK INTRA:                  -0.134
REMARK UNBOUND:                -0.134
REMARK SMILES O=C([O-])C=Cc1ccc(O)cc1
REMARK SMILES IDX 6 1 7 2 12 3 8 4 11 5 9 6 5 7 4 8 2 9 1 10 3 11 10 12
REMARK H PARENT 10 13
REMARK Flexibility Score: inf
ROOT
ATOM      1  C   UNL     1      71.954  40.712  21.840  1.00  0.00    -0.025 A 
ATOM      2  C   UNL     1      71.613  41.105  20.534  1.00  0.00     0.012 A 
ATOM      3  C   UNL     1      70.932  40.394  22.749  1.00  0.00     0.012 A 
ATOM      4  C   UNL     1      70.275  41.125  20.130  1.00  0.00     0.047 A 
ATOM      5  C   UNL     1      69.595  40.416  22.343  1.00  0.00     0.047 A 
ATOM      6  C   UNL     1      69.262  40.776  21.034  1.00  0.00     0.115 A 
ENDROOT
BRANCH   1   7
ATOM      7  C   UNL     1      73.355  40.736  22.306  1.00  0.00     0.010 C 
ATOM      8  C   UNL     1      74.335  39.936  21.860  1.00  0.00     0.025 C 
BRANCH   8   9
ATOM      9  C   UNL     1      74.152  38.773  20.970  1.00  0.00     0.064 C 
ATOM     10  O   UNL     1      74.804  38.712  19.896  1.00  0.00    -0.545 OA
ATOM     11  O   UNL     1      73.331  37.709  21.325  1.00  0.00    -0.545 OA
ENDBRANCH   8   9
ENDBRANCH   1   7
BRANCH   6  12
ATOM     12  O   UNL     1      67.925  40.792  20.643  1.00  0.00    -0.508 OA
ATOM     13  H   UNL     1      67.604  40.270  19.835  1.00  0.00     0.293 HD
ENDBRANCH   6  12
TORSDOF 3
ENDMDL
MODEL 2
REMARK VINA RESULT:    -3.892      2.994      4.424
REMARK INTER + INTRA:          -4.596
REMARK INTER:                  -4.319
REMARK INTRA:                  -0.277
REMARK UNBOUND:                -0.134
REMARK SMILES O=C([O-])C=Cc1ccc(O)cc1
REMARK SMILES IDX 6 1 7 2 12 3 8 4 11 5 9 6 5 7 4 8 2 9 1 10 3 11 10 12
REMARK H PARENT 10 13
REMARK Flexibility Score: inf
ROOT
ATOM      1  C   UNL     1      73.168  39.273  19.874  1.00  0.00    -0.025 A 
ATOM      2  C   UNL     1      72.313  39.383  20.985  1.00  0.00     0.012 A 
ATOM      3  C   UNL     1      74.550  39.434  20.054  1.00  0.00     0.012 A 
ATOM      4  C   UNL     1      72.841  39.598  22.262  1.00  0.00     0.047 A 
ATOM      5  C   UNL     1      75.076  39.649  21.331  1.00  0.00     0.047 A 
ATOM      6  C   UNL     1      74.226  39.728  22.438  1.00  0.00     0.115 A 
ENDROOT
BRANCH   1   7
ATOM      7  C   UNL     1      72.631  39.101  18.509  1.00  0.00     0.010 C 
ATOM      8  C   UNL     1      72.481  37.927  17.875  1.00  0.00     0.025 C 
BRANCH   8   9
ATOM      9  C   UNL     1      72.996  36.628  18.348  1.00  0.00     0.064 C 
ATOM     10  O   UNL     1      74.120  36.229  17.946  1.00  0.00    -0.545 OA
ATOM     11  O   UNL     1      72.302  35.867  19.281  1.00  0.00    -0.545 OA
ENDBRANCH   8   9
ENDBRANCH   1   7
BRANCH   6  12
ATOM     12  O   UNL     1      74.763  39.941  23.705  1.00  0.00    -0.508 OA
ATOM     13  H   UNL     1      74.172  40.017  24.525  1.00  0.00     0.293 HD
ENDBRANCH   6  12
TORSDOF 3
ENDMDL
MODEL 3
REMARK VINA RESULT:    -3.848      0.229      1.685
REMARK INTER + INTRA:          -4.545
REMARK INTER:                  -4.413
REMARK INTRA:                  -0.131
REMARK UNBOUND:                -0.134
REMARK SMILES O=C([O-])C=Cc1ccc(O)cc1
REMARK SMILES IDX 6 1 7 2 12 3 8 4 11 5 9 6 5 7 4 8 2 9 1 10 3 11 10 12
REMARK H PARENT 10 13
REMARK Flexibility Score: inf
ROOT
ATOM      1  C   UNL     1      71.944  40.768  21.841  1.00  0.00    -0.025 A 
ATOM      2  C   UNL     1      70.942  40.400  22.756  1.00  0.00     0.012 A 
ATOM      3  C   UNL     1      71.582  41.104  20.527  1.00  0.00     0.012 A 
ATOM      4  C   UNL     1      69.597  40.421  22.375  1.00  0.00     0.047 A 
ATOM      5  C   UNL     1      70.237  41.125  20.148  1.00  0.00     0.047 A 
ATOM      6  C   UNL     1      69.241  40.788  21.070  1.00  0.00     0.115 A 
ENDROOT
BRANCH   1   7
ATOM      7  C   UNL     1      73.374  40.700  22.203  1.00  0.00     0.010 C 
ATOM      8  C   UNL     1      74.263  39.834  21.694  1.00  0.00     0.025 C 
BRANCH   8   9
ATOM      9  C   UNL     1      73.938  38.680  20.833  1.00  0.00     0.064 C 
ATOM     10  O   UNL     1      73.313  37.704  21.323  1.00  0.00    -0.545 OA
ATOM     11  O   UNL     1      74.243  38.676  19.477  1.00  0.00    -0.545 OA
ENDBRANCH   8   9
ENDBRANCH   1   7
BRANCH   6  12
ATOM     12  O   UNL     1      67.904  40.814  20.680  1.00  0.00    -0.508 OA
ATOM     13  H   UNL     1      67.200  41.290  21.233  1.00  0.00     0.293 HD
ENDBRANCH   6  12
TORSDOF 3
ENDMDL
MODEL 4
REMARK VINA RESULT:    -3.845      2.937      4.277
REMARK INTER + INTRA:          -4.541
REMARK INTER:                  -4.274
REMARK INTRA:                  -0.267
REMARK UNBOUND:                -0.134
REMARK SMILES O=C([O-])C=Cc1ccc(O)cc1
REMARK SMILES IDX 6 1 7 2 12 3 8 4 11 5 9 6 5 7 4 8 2 9 1 10 3 11 10 12
REMARK H PARENT 10 13
REMARK Flexibility Score: inf
ROOT
ATOM      1  C   UNL     1      73.376  39.518  19.881  1.00  0.00    -0.025 A 
ATOM      2  C   UNL     1      74.758  39.545  20.134  1.00  0.00     0.012 A 
ATOM      3  C   UNL     1      72.481  39.560  20.961  1.00  0.00     0.012 A 
ATOM      4  C   UNL     1      75.234  39.667  21.443  1.00  0.00     0.047 A 
ATOM      5  C   UNL     1      72.958  39.682  22.269  1.00  0.00     0.047 A 
ATOM      6  C   UNL     1      74.333  39.740  22.515  1.00  0.00     0.115 A 
ENDROOT
BRANCH   1   7
ATOM      7  C   UNL     1      72.850  39.335  18.513  1.00  0.00     0.010 C 
ATOM      8  C   UNL     1      72.644  38.152  17.913  1.00  0.00     0.025 C 
BRANCH   8   9
ATOM      9  C   UNL     1      73.078  36.841  18.432  1.00  0.00     0.064 C 
ATOM     10  O   UNL     1      74.129  36.317  17.978  1.00  0.00    -0.545 OA
ATOM     11  O   UNL     1      72.395  36.205  19.462  1.00  0.00    -0.545 OA
ENDBRANCH   8   9
ENDBRANCH   1   7
BRANCH   6  12
ATOM     12  O   UNL     1      74.795  39.863  23.823  1.00  0.00    -0.508 OA
ATOM     13  H   UNL     1      74.204  40.228  24.561  1.00  0.00     0.293 HD
ENDBRANCH   6  12
TORSDOF 3
ENDMDL
MODEL 5
REMARK VINA RESULT:    -3.749      2.386      5.270
REMARK INTER + INTRA:          -4.431
REMARK INTER:                  -4.191
REMARK INTRA:                  -0.240
REMARK UNBOUND:                -0.134
REMARK SMILES O=C([O-])C=Cc1ccc(O)cc1
REMARK SMILES IDX 6 1 7 2 12 3 8 4 11 5 9 6 5 7 4 8 2 9 1 10 3 11 10 12
REMARK H PARENT 10 13
REMARK Flexibility Score: inf
ROOT
ATOM      1  C   UNL     1      74.217  38.579  20.320  1.00  0.00    -0.025 A 
ATOM      2  C   UNL     1      74.655  38.771  18.998  1.00  0.00     0.012 A 
ATOM      3  C   UNL     1      74.936  39.164  21.372  1.00  0.00     0.012 A 
ATOM      4  C   UNL     1      75.764  39.582  18.733  1.00  0.00     0.047 A 
ATOM      5  C   UNL     1      76.044  39.974  21.106  1.00  0.00     0.047 A 
ATOM      6  C   UNL     1      76.459  40.188  19.788  1.00  0.00     0.115 A 
ENDROOT
BRANCH   1   7
ATOM      7  C   UNL     1      73.083  37.684  20.628  1.00  0.00     0.010 C 
ATOM      8  C   UNL     1      71.825  38.081  20.873  1.00  0.00     0.025 C 
BRANCH   8   9
ATOM      9  C   UNL     1      71.391  39.479  21.067  1.00  0.00     0.064 C 
ATOM     10  O   UNL     1      70.749  40.055  20.152  1.00  0.00    -0.545 OA
ATOM     11  O   UNL     1      71.613  40.148  22.264  1.00  0.00    -0.545 OA
ENDBRANCH   8   9
ENDBRANCH   1   7
BRANCH   6  12
ATOM     12  O   UNL     1      77.564  40.998  19.537  1.00  0.00    -0.508 OA
ATOM     13  H   UNL     1      77.506  41.795  18.913  1.00  0.00     0.293 HD
ENDBRANCH   6  12
TORSDOF 3
ENDMDL
MODEL 6
REMARK VINA RESULT:    -3.629      2.874      4.835
REMARK INTER + INTRA:          -4.294
REMARK INTER:                  -4.052
REMARK INTRA:                  -0.242
REMARK UNBOUND:                -0.134
REMARK SMILES O=C([O-])C=Cc1ccc(O)cc1
REMARK SMILES IDX 6 1 7 2 12 3 8 4 11 5 9 6 5 7 4 8 2 9 1 10 3 11 10 12
REMARK H PARENT 10 13
REMARK Flexibility Score: inf
ROOT
ATOM      1  C   UNL     1      74.059  38.759  20.719  1.00  0.00    -0.025 A 
ATOM      2  C   UNL     1      75.426  39.039  20.552  1.00  0.00     0.012 A 
ATOM      3  C   UNL     1      73.402  39.213  21.873  1.00  0.00     0.012 A 
ATOM      4  C   UNL     1      76.110  39.807  21.500  1.00  0.00     0.047 A 
ATOM      5  C   UNL     1      74.087  39.979  22.820  1.00  0.00     0.047 A 
ATOM      6  C   UNL     1      75.440  40.282  22.636  1.00  0.00     0.115 A 
ENDROOT
BRANCH   1   7
ATOM      7  C   UNL     1      73.329  37.905  19.759  1.00  0.00     0.010 C 
ATOM      8  C   UNL     1      72.526  38.349  18.780  1.00  0.00     0.025 C 
BRANCH   8   9
ATOM      9  C   UNL     1      72.080  39.745  18.605  1.00  0.00     0.064 C 
ATOM     10  O   UNL     1      72.753  40.518  17.876  1.00  0.00    -0.545 OA
ATOM     11  O   UNL     1      70.896  40.204  19.168  1.00  0.00    -0.545 OA
ENDBRANCH   8   9
ENDBRANCH   1   7
BRANCH   6  12
ATOM     12  O   UNL     1      76.109  41.049  23.586  1.00  0.00    -0.508 OA
ATOM     13  H   UNL     1      75.626  41.441  24.387  1.00  0.00     0.293 HD
ENDBRANCH   6  12
TORSDOF 3
ENDMDL
MODEL 7
REMARK VINA RESULT:    -3.499      2.254      3.289
REMARK INTER + INTRA:          -4.145
REMARK INTER:                  -3.994
REMARK INTRA:                  -0.151
REMARK UNBOUND:                -0.134
REMARK SMILES O=C([O-])C=Cc1ccc(O)cc1
REMARK SMILES IDX 6 1 7 2 12 3 8 4 11 5 9 6 5 7 4 8 2 9 1 10 3 11 10 12
REMARK H PARENT 10 13
REMARK Flexibility Score: inf
ROOT
ATOM      1  C   UNL     1      73.198  38.819  20.470  1.00  0.00    -0.025 A 
ATOM      2  C   UNL     1      73.741  39.275  21.684  1.00  0.00     0.012 A 
ATOM      3  C   UNL     1      71.817  38.935  20.250  1.00  0.00     0.012 A 
ATOM      4  C   UNL     1      72.921  39.888  22.637  1.00  0.00     0.047 A 
ATOM      5  C   UNL     1      70.999  39.547  21.205  1.00  0.00     0.047 A 
ATOM      6  C   UNL     1      71.548  40.028  22.398  1.00  0.00     0.115 A 
ENDROOT
BRANCH   1   7
ATOM      7  C   UNL     1      74.033  38.120  19.472  1.00  0.00     0.010 C 
ATOM      8  C   UNL     1      75.085  38.651  18.832  1.00  0.00     0.025 C 
BRANCH   8   9
ATOM      9  C   UNL     1      75.479  40.073  18.866  1.00  0.00     0.064 C 
ATOM     10  O   UNL     1      74.853  40.902  18.156  1.00  0.00    -0.545 OA
ATOM     11  O   UNL     1      76.478  40.530  19.717  1.00  0.00    -0.545 OA
ENDBRANCH   8   9
ENDBRANCH   1   7
BRANCH   6  12
ATOM     12  O   UNL     1      70.722  40.637  23.339  1.00  0.00    -0.508 OA
ATOM     13  H   UNL     1      71.027  41.448  23.865  1.00  0.00     0.293 HD
ENDBRANCH   6  12
TORSDOF 3
ENDMDL
MODEL 8
REMARK VINA RESULT:    -3.437      3.484      4.220
REMARK INTER + INTRA:          -4.074
REMARK INTER:                  -3.794
REMARK INTRA:                  -0.280
REMARK UNBOUND:                -0.134
REMARK SMILES O=C([O-])C=Cc1ccc(O)cc1
REMARK SMILES IDX 6 1 7 2 12 3 8 4 11 5 9 6 5 7 4 8 2 9 1 10 3 11 10 12
REMARK H PARENT 10 13
REMARK Flexibility Score: inf
ROOT
ATOM      1  C   UNL     1      73.156  39.169  19.816  1.00  0.00    -0.025 A 
ATOM      2  C   UNL     1      73.309  38.927  18.439  1.00  0.00     0.012 A 
ATOM      3  C   UNL     1      72.727  38.126  20.652  1.00  0.00     0.012 A 
ATOM      4  C   UNL     1      73.087  37.648  17.919  1.00  0.00     0.047 A 
ATOM      5  C   UNL     1      72.506  36.849  20.130  1.00  0.00     0.047 A 
ATOM      6  C   UNL     1      72.688  36.604  18.765  1.00  0.00     0.115 A 
ENDROOT
BRANCH   1   7
ATOM      7  C   UNL     1      73.330  40.523  20.380  1.00  0.00     0.010 C 
ATOM      8  C   UNL     1      74.506  41.087  20.694  1.00  0.00     0.025 C 
BRANCH   8   9
ATOM      9  C   UNL     1      75.810  40.395  20.714  1.00  0.00     0.064 C 
ATOM     10  O   UNL     1      76.089  39.638  21.679  1.00  0.00    -0.545 OA
ATOM     11  O   UNL     1      76.705  40.504  19.657  1.00  0.00    -0.545 OA
ENDBRANCH   8   9
ENDBRANCH   1   7
BRANCH   6  12
ATOM     12  O   UNL     1      72.466  35.326  18.259  1.00  0.00    -0.508 OA
ATOM     13  H   UNL     1      73.219  34.653  18.169  1.00  0.00     0.293 HD
ENDBRANCH   6  12
TORSDOF 3
ENDMDL
MODEL 9
REMARK VINA RESULT:    -3.384      2.678      3.715
REMARK INTER + INTRA:          -4.013
REMARK INTER:                  -4.263
REMARK INTRA:                   0.250
REMARK UNBOUND:                -0.134
REMARK SMILES O=C([O-])C=Cc1ccc(O)cc1
REMARK SMILES IDX 6 1 7 2 12 3 8 4 11 5 9 6 5 7 4 8 2 9 1 10 3 11 10 12
REMARK H PARENT 10 13
REMARK Flexibility Score: inf
ROOT
ATOM      1  C   UNL     1      73.167  38.746  19.862  1.00  0.00    -0.025 A 
ATOM      2  C   UNL     1      73.732  38.730  21.149  1.00  0.00     0.012 A 
ATOM      3  C   UNL     1      71.873  39.260  19.688  1.00  0.00     0.012 A 
ATOM      4  C   UNL     1      73.033  39.270  22.233  1.00  0.00     0.047 A 
ATOM      5  C   UNL     1      71.175  39.798  20.772  1.00  0.00     0.047 A 
ATOM      6  C   UNL     1      71.753  39.810  22.046  1.00  0.00     0.115 A 
ENDROOT
BRANCH   1   7
ATOM      7  C   UNL     1      73.863  38.132  18.713  1.00  0.00     0.010 C 
ATOM      8  C   UNL     1      73.533  36.965  18.138  1.00  0.00     0.025 C 
BRANCH   8   9
ATOM      9  C   UNL     1      72.546  36.001  18.663  1.00  0.00     0.064 C 
ATOM     10  O   UNL     1      72.011  35.179  17.876  1.00  0.00    -0.545 OA
ATOM     11  O   UNL     1      72.248  35.933  20.019  1.00  0.00    -0.545 OA
ENDBRANCH   8   9
ENDBRANCH   1   7
BRANCH   6  12
ATOM     12  O   UNL     1      71.047  40.351  23.117  1.00  0.00    -0.508 OA
ATOM     13  H   UNL     1      71.115  41.335  23.354  1.00  0.00     0.293 HD
ENDBRANCH   6  12
TORSDOF 3
ENDMDL
