MODEL 1
REMARK VINA RESULT:    -5.789      0.000      0.000
REMARK INTER + INTRA:         -14.307
REMARK INTER:                 -12.558
REMARK INTRA:                  -1.749
REMARK UNBOUND:                -1.749
REMARK SMILES CCCCCCCCCCCCCCCCCCCCCC(=O)[O-]
REMARK SMILES IDX 12 1 11 2 10 3 9 4 8 5 7 6 6 7 5 8 4 9 3 10 2 11 1 12 13 13
REMARK SMILES IDX 14 14 15 15 16 16 17 17 18 18 19 19 20 20 21 21 22 22 23 23
REMARK SMILES IDX 24 24
REMARK H PARENT
REMARK Flexibility Score: inf
ROOT
ATOM      1  C   UNL     1      41.762  54.405  59.836  1.00  0.00     0.000 C 
ENDROOT
BRANCH   1   2
ATOM      2  C   UNL     1      40.611  53.976  60.759  1.00  0.00     0.000 C 
BRANCH   2   3
ATOM      3  C   UNL     1      39.257  54.534  60.289  1.00  0.00     0.000 C 
BRANCH   3   4
ATOM      4  C   UNL     1      39.178  56.067  60.387  1.00  0.00    -0.000 C 
BRANCH   4   5
ATOM      5  C   UNL     1      38.013  56.645  59.562  1.00  0.00    -0.000 C 
BRANCH   5   6
ATOM      6  C   UNL     1      36.659  56.015  59.920  1.00  0.00    -0.000 C 
BRANCH   6   7
ATOM      7  C   UNL     1      36.023  55.265  58.738  1.00  0.00    -0.000 C 
BRANCH   7   8
ATOM      8  C   UNL     1      35.790  53.773  59.038  1.00  0.00    -0.000 C 
BRANCH   8   9
ATOM      9  C   UNL     1      35.011  53.003  57.952  1.00  0.00    -0.000 C 
BRANCH   9  10
ATOM     10  C   UNL     1      34.917  51.480  58.174  1.00  0.00    -0.000 C 
BRANCH  10  11
ATOM     11  C   UNL     1      35.782  50.638  57.221  1.00  0.00    -0.003 C 
ATOM     12  C   UNL     1      35.159  49.278  56.900  1.00  0.00     0.004 C 
ENDBRANCH  10  11
ENDBRANCH   9  10
ENDBRANCH   8   9
ENDBRANCH   7   8
ENDBRANCH   6   7
ENDBRANCH   5   6
ENDBRANCH   4   5
ENDBRANCH   3   4
ENDBRANCH   2   3
ENDBRANCH   1   2
BRANCH   1  13
ATOM     13  C   UNL     1      42.991  54.868  60.629  1.00  0.00     0.000 C 
BRANCH  13  14
ATOM     14  C   UNL     1      43.483  56.234  60.145  1.00  0.00     0.000 C 
BRANCH  14  15
ATOM     15  C   UNL     1      42.595  56.761  59.006  1.00  0.00     0.000 C 
BRANCH  15  16
ATOM     16  C   UNL     1      41.803  58.017  59.405  1.00  0.00     0.000 C 
BRANCH  16  17
ATOM     17  C   UNL     1      41.106  58.702  58.206  1.00  0.00     0.000 C 
BRANCH  17  18
ATOM     18  C   UNL     1      41.953  59.831  57.575  1.00  0.00     0.000 C 
BRANCH  18  19
ATOM     19  C   UNL     1      42.777  60.625  58.604  1.00  0.00     0.000 C 
BRANCH  19  20
ATOM     20  C   UNL     1      44.262  60.234  58.612  1.00  0.00     0.006 C 
BRANCH  20  21
ATOM     21  C   UNL     1      44.718  59.732  59.997  1.00  0.00     0.053 C 
BRANCH  21  22
ATOM     22  C   UNL     1      46.168  59.336  60.061  1.00  0.00     0.041 C 
ATOM     23  O   UNL     1      46.530  58.140  59.905  1.00  0.00    -0.550 OA
ATOM     24  O   UNL     1      47.124  60.313  60.317  1.00  0.00    -0.550 OA
ENDBRANCH  21  22
ENDBRANCH  20  21
ENDBRANCH  19  20
ENDBRANCH  18  19
ENDBRANCH  17  18
ENDBRANCH  16  17
ENDBRANCH  15  16
ENDBRANCH  14  15
ENDBRANCH  13  14
ENDBRANCH   1  13
TORSDOF 20
ENDMDL
MODEL 2
REMARK VINA RESULT:    -5.633      4.126      9.078
REMARK INTER + INTRA:         -13.968
REMARK INTER:                 -11.553
REMARK INTRA:                  -2.415
REMARK UNBOUND:                -1.749
REMARK SMILES CCCCCCCCCCCCCCCCCCCCCC(=O)[O-]
REMARK SMILES IDX 12 1 11 2 10 3 9 4 8 5 7 6 6 7 5 8 4 9 3 10 2 11 1 12 13 13
REMARK SMILES IDX 14 14 15 15 16 16 17 17 18 18 19 19 20 20 21 21 22 22 23 23
REMARK SMILES IDX 24 24
REMARK H PARENT
REMARK Flexibility Score: inf
ROOT
ATOM      1  C   UNL     1      42.663  56.300  58.939  1.00  0.00     0.000 C 
ENDROOT
BRANCH   1   2
ATOM      2  C   UNL     1      42.375  57.221  60.135  1.00  0.00     0.000 C 
BRANCH   2   3
ATOM      3  C   UNL     1      43.656  57.871  60.684  1.00  0.00     0.000 C 
BRANCH   3   4
ATOM      4  C   UNL     1      44.923  57.403  59.949  1.00  0.00    -0.000 C 
BRANCH   4   5
ATOM      5  C   UNL     1      46.006  58.497  59.897  1.00  0.00    -0.000 C 
BRANCH   5   6
ATOM      6  C   UNL     1      45.419  59.916  59.918  1.00  0.00    -0.000 C 
BRANCH   6   7
ATOM      7  C   UNL     1      45.281  60.522  58.511  1.00  0.00    -0.000 C 
BRANCH   7   8
ATOM      8  C   UNL     1      44.069  61.462  58.385  1.00  0.00    -0.000 C 
BRANCH   8   9
ATOM      9  C   UNL     1      42.719  60.845  58.804  1.00  0.00    -0.000 C 
BRANCH   9  10
ATOM     10  C   UNL     1      42.058  59.943  57.742  1.00  0.00    -0.000 C 
BRANCH  10  11
ATOM     11  C   UNL     1      40.861  60.580  57.015  1.00  0.00    -0.003 C 
ATOM     12  C   UNL     1      40.661  62.052  57.380  1.00  0.00     0.004 C 
ENDBRANCH  10  11
ENDBRANCH   9  10
ENDBRANCH   8   9
ENDBRANCH   7   8
ENDBRANCH   6   7
ENDBRANCH   5   6
ENDBRANCH   4   5
ENDBRANCH   3   4
ENDBRANCH   2   3
ENDBRANCH   1   2
BRANCH   1  13
ATOM     13  C   UNL     1      42.240  54.852  59.215  1.00  0.00     0.000 C 
BRANCH  13  14
ATOM     14  C   UNL     1      41.518  54.730  60.559  1.00  0.00     0.000 C 
BRANCH  14  15
ATOM     15  C   UNL     1      40.162  54.024  60.388  1.00  0.00     0.000 C 
BRANCH  15  16
ATOM     16  C   UNL     1      39.009  54.783  61.064  1.00  0.00     0.000 C 
BRANCH  16  17
ATOM     17  C   UNL     1      38.909  56.260  60.615  1.00  0.00     0.000 C 
BRANCH  17  18
ATOM     18  C   UNL     1      37.875  56.483  59.487  1.00  0.00     0.000 C 
BRANCH  18  19
ATOM     19  C   UNL     1      36.468  55.966  59.836  1.00  0.00     0.000 C 
BRANCH  19  20
ATOM     20  C   UNL     1      35.865  55.080  58.735  1.00  0.00     0.006 C 
BRANCH  20  21
ATOM     21  C   UNL     1      36.185  53.589  58.956  1.00  0.00     0.053 C 
BRANCH  21  22
ATOM     22  C   UNL     1      35.311  52.650  58.170  1.00  0.00     0.041 C 
ATOM     23  O   UNL     1      34.090  52.895  57.975  1.00  0.00    -0.550 OA
ATOM     24  O   UNL     1      35.862  51.478  57.664  1.00  0.00    -0.550 OA
ENDBRANCH  21  22
ENDBRANCH  20  21
ENDBRANCH  19  20
ENDBRANCH  18  19
ENDBRANCH  17  18
ENDBRANCH  16  17
ENDBRANCH  15  16
ENDBRANCH  14  15
ENDBRANCH  13  14
ENDBRANCH   1  13
TORSDOF 20
ENDMDL
MODEL 3
REMARK VINA RESULT:    -5.597      2.685      3.637
REMARK INTER + INTRA:         -13.891
REMARK INTER:                 -12.092
REMARK INTRA:                  -1.798
REMARK UNBOUND:                -1.749
REMARK SMILES CCCCCCCCCCCCCCCCCCCCCC(=O)[O-]
REMARK SMILES IDX 12 1 11 2 10 3 9 4 8 5 7 6 6 7 5 8 4 9 3 10 2 11 1 12 13 13
REMARK SMILES IDX 14 14 15 15 16 16 17 17 18 18 19 19 20 20 21 21 22 22 23 23
REMARK SMILES IDX 24 24
REMARK H PARENT
REMARK Flexibility Score: inf
ROOT
ATOM      1  C   UNL     1      41.236  54.309  60.053  1.00  0.00     0.000 C 
ENDROOT
BRANCH   1   2
ATOM      2  C   UNL     1      40.231  55.466  59.932  1.00  0.00     0.000 C 
BRANCH   2   3
ATOM      3  C   UNL     1      39.007  55.264  60.841  1.00  0.00     0.000 C 
BRANCH   3   4
ATOM      4  C   UNL     1      38.695  53.780  61.099  1.00  0.00    -0.000 C 
BRANCH   4   5
ATOM      5  C   UNL     1      37.352  53.350  60.479  1.00  0.00    -0.000 C 
BRANCH   5   6
ATOM      6  C   UNL     1      36.834  54.347  59.431  1.00  0.00    -0.000 C 
BRANCH   6   7
ATOM      7  C   UNL     1      35.591  53.832  58.687  1.00  0.00    -0.000 C 
BRANCH   7   8
ATOM      8  C   UNL     1      35.870  52.552  57.880  1.00  0.00    -0.000 C 
BRANCH   8   9
ATOM      9  C   UNL     1      34.786  51.461  57.991  1.00  0.00    -0.000 C 
BRANCH   9  10
ATOM     10  C   UNL     1      33.409  51.959  58.476  1.00  0.00    -0.000 C 
BRANCH  10  11
ATOM     11  C   UNL     1      32.226  51.059  58.079  1.00  0.00    -0.003 C 
ATOM     12  C   UNL     1      31.306  50.735  59.257  1.00  0.00     0.004 C 
ENDBRANCH  10  11
ENDBRANCH   9  10
ENDBRANCH   8   9
ENDBRANCH   7   8
ENDBRANCH   6   7
ENDBRANCH   5   6
ENDBRANCH   4   5
ENDBRANCH   3   4
ENDBRANCH   2   3
ENDBRANCH   1   2
BRANCH   1  13
ATOM     13  C   UNL     1      42.608  54.790  60.540  1.00  0.00     0.000 C 
BRANCH  13  14
ATOM     14  C   UNL     1      43.207  55.824  59.583  1.00  0.00     0.000 C 
BRANCH  14  15
ATOM     15  C   UNL     1      43.857  56.978  60.365  1.00  0.00     0.000 C 
BRANCH  15  16
ATOM     16  C   UNL     1      45.088  57.558  59.652  1.00  0.00     0.000 C 
BRANCH  16  17
ATOM     17  C   UNL     1      44.724  58.476  58.461  1.00  0.00     0.000 C 
BRANCH  17  18
ATOM     18  C   UNL     1      44.500  59.948  58.876  1.00  0.00     0.000 C 
BRANCH  18  19
ATOM     19  C   UNL     1      43.100  60.479  58.519  1.00  0.00     0.000 C 
BRANCH  19  20
ATOM     20  C   UNL     1      42.302  59.515  57.629  1.00  0.00     0.006 C 
BRANCH  20  21
ATOM     21  C   UNL     1      41.121  58.876  58.385  1.00  0.00     0.053 C 
BRANCH  21  22
ATOM     22  C   UNL     1      39.802  58.986  57.670  1.00  0.00     0.041 C 
ATOM     23  O   UNL     1      39.532  59.975  56.937  1.00  0.00    -0.550 OA
ATOM     24  O   UNL     1      38.856  57.981  57.840  1.00  0.00    -0.550 OA
ENDBRANCH  21  22
ENDBRANCH  20  21
ENDBRANCH  19  20
ENDBRANCH  18  19
ENDBRANCH  17  18
ENDBRANCH  16  17
ENDBRANCH  15  16
ENDBRANCH  14  15
ENDBRANCH  13  14
ENDBRANCH   1  13
TORSDOF 20
ENDMDL
MODEL 4
REMARK VINA RESULT:    -5.553      5.058      9.941
REMARK INTER + INTRA:         -13.796
REMARK INTER:                 -11.806
REMARK INTRA:                  -1.990
REMARK UNBOUND:                -1.749
REMARK SMILES CCCCCCCCCCCCCCCCCCCCCC(=O)[O-]
REMARK SMILES IDX 12 1 11 2 10 3 9 4 8 5 7 6 6 7 5 8 4 9 3 10 2 11 1 12 13 13
REMARK SMILES IDX 14 14 15 15 16 16 17 17 18 18 19 19 20 20 21 21 22 22 23 23
REMARK SMILES IDX 24 24
REMARK H PARENT
REMARK Flexibility Score: inf
ROOT
ATOM      1  C   UNL     1      39.854  53.779  60.441  1.00  0.00     0.000 C 
ENDROOT
BRANCH   1   2
ATOM      2  C   UNL     1      41.239  54.429  60.589  1.00  0.00     0.000 C 
BRANCH   2   3
ATOM      3  C   UNL     1      41.975  54.529  59.243  1.00  0.00     0.000 C 
BRANCH   3   4
ATOM      4  C   UNL     1      42.989  55.684  59.203  1.00  0.00    -0.000 C 
BRANCH   4   5
ATOM      5  C   UNL     1      42.840  56.633  60.407  1.00  0.00    -0.000 C 
BRANCH   5   6
ATOM      6  C   UNL     1      41.949  57.846  60.102  1.00  0.00    -0.000 C 
BRANCH   6   7
ATOM      7  C   UNL     1      41.574  57.947  58.614  1.00  0.00    -0.000 C 
BRANCH   7   8
ATOM      8  C   UNL     1      42.390  59.018  57.868  1.00  0.00    -0.000 C 
BRANCH   8   9
ATOM      9  C   UNL     1      43.095  60.048  58.773  1.00  0.00    -0.000 C 
BRANCH   9  10
ATOM     10  C   UNL     1      44.636  60.018  58.717  1.00  0.00    -0.000 C 
BRANCH  10  11
ATOM     11  C   UNL     1      45.241  58.629  58.452  1.00  0.00    -0.003 C 
ATOM     12  C   UNL     1      46.574  58.416  59.170  1.00  0.00     0.004 C 
ENDBRANCH  10  11
ENDBRANCH   9  10
ENDBRANCH   8   9
ENDBRANCH   7   8
ENDBRANCH   6   7
ENDBRANCH   5   6
ENDBRANCH   4   5
ENDBRANCH   3   4
ENDBRANCH   2   3
ENDBRANCH   1   2
BRANCH   1  13
ATOM     13  C   UNL     1      38.757  54.607  61.121  1.00  0.00     0.000 C 
BRANCH  13  14
ATOM     14  C   UNL     1      38.992  56.107  60.929  1.00  0.00     0.000 C 
BRANCH  14  15
ATOM     15  C   UNL     1      37.718  56.798  60.414  1.00  0.00     0.000 C 
BRANCH  15  16
ATOM     16  C   UNL     1      37.096  56.072  59.210  1.00  0.00     0.000 C 
BRANCH  16  17
ATOM     17  C   UNL     1      35.914  55.153  59.599  1.00  0.00     0.000 C 
BRANCH  17  18
ATOM     18  C   UNL     1      35.515  54.169  58.476  1.00  0.00     0.000 C 
BRANCH  18  19
ATOM     19  C   UNL     1      35.877  52.706  58.787  1.00  0.00     0.000 C 
BRANCH  19  20
ATOM     20  C   UNL     1      34.969  51.698  58.066  1.00  0.00     0.006 C 
BRANCH  20  21
ATOM     21  C   UNL     1      33.491  52.133  58.093  1.00  0.00     0.053 C 
BRANCH  21  22
ATOM     22  C   UNL     1      32.528  51.018  58.401  1.00  0.00     0.041 C 
ATOM     23  O   UNL     1      31.502  51.212  59.106  1.00  0.00    -0.550 OA
ATOM     24  O   UNL     1      32.790  49.745  57.910  1.00  0.00    -0.550 OA
ENDBRANCH  21  22
ENDBRANCH  20  21
ENDBRANCH  19  20
ENDBRANCH  18  19
ENDBRANCH  17  18
ENDBRANCH  16  17
ENDBRANCH  15  16
ENDBRANCH  14  15
ENDBRANCH  13  14
ENDBRANCH   1  13
TORSDOF 20
ENDMDL
MODEL 5
REMARK VINA RESULT:    -5.543      2.644      3.400
REMARK INTER + INTRA:         -13.773
REMARK INTER:                 -12.668
REMARK INTRA:                  -1.105
REMARK UNBOUND:                -1.749
REMARK SMILES CCCCCCCCCCCCCCCCCCCCCC(=O)[O-]
REMARK SMILES IDX 12 1 11 2 10 3 9 4 8 5 7 6 6 7 5 8 4 9 3 10 2 11 1 12 13 13
REMARK SMILES IDX 14 14 15 15 16 16 17 17 18 18 19 19 20 20 21 21 22 22 23 23
REMARK SMILES IDX 24 24
REMARK H PARENT
REMARK Flexibility Score: inf
ROOT
ATOM      1  C   UNL     1      42.604  54.906  60.192  1.00  0.00     0.000 C 
ENDROOT
BRANCH   1   2
ATOM      2  C   UNL     1      41.097  55.123  60.403  1.00  0.00     0.000 C 
BRANCH   2   3
ATOM      3  C   UNL     1      40.412  53.876  60.986  1.00  0.00     0.000 C 
BRANCH   3   4
ATOM      4  C   UNL     1      38.890  54.043  61.124  1.00  0.00    -0.000 C 
BRANCH   4   5
ATOM      5  C   UNL     1      38.395  55.384  60.551  1.00  0.00    -0.000 C 
BRANCH   5   6
ATOM      6  C   UNL     1      37.088  55.246  59.756  1.00  0.00    -0.000 C 
BRANCH   6   7
ATOM      7  C   UNL     1      36.639  53.783  59.602  1.00  0.00    -0.000 C 
BRANCH   7   8
ATOM      8  C   UNL     1      35.427  53.630  58.667  1.00  0.00    -0.000 C 
BRANCH   8   9
ATOM      9  C   UNL     1      35.583  52.561  57.567  1.00  0.00    -0.000 C 
BRANCH   9  10
ATOM     10  C   UNL     1      35.102  51.149  57.958  1.00  0.00    -0.000 C 
BRANCH  10  11
ATOM     11  C   UNL     1      35.774  50.005  57.180  1.00  0.00    -0.003 C 
ATOM     12  C   UNL     1      34.802  48.879  56.824  1.00  0.00     0.004 C 
ENDBRANCH  10  11
ENDBRANCH   9  10
ENDBRANCH   8   9
ENDBRANCH   7   8
ENDBRANCH   6   7
ENDBRANCH   5   6
ENDBRANCH   4   5
ENDBRANCH   3   4
ENDBRANCH   2   3
ENDBRANCH   1   2
BRANCH   1  13
ATOM     13  C   UNL     1      43.375  56.232  60.158  1.00  0.00     0.000 C 
BRANCH  13  14
ATOM     14  C   UNL     1      43.610  56.702  58.721  1.00  0.00     0.000 C 
BRANCH  14  15
ATOM     15  C   UNL     1      44.370  58.039  58.701  1.00  0.00     0.000 C 
BRANCH  15  16
ATOM     16  C   UNL     1      43.910  58.998  59.811  1.00  0.00     0.000 C 
BRANCH  16  17
ATOM     17  C   UNL     1      42.922  60.078  59.309  1.00  0.00     0.000 C 
BRANCH  17  18
ATOM     18  C   UNL     1      43.277  61.500  59.800  1.00  0.00     0.000 C 
BRANCH  18  19
ATOM     19  C   UNL     1      42.430  62.604  59.143  1.00  0.00     0.000 C 
BRANCH  19  20
ATOM     20  C   UNL     1      42.342  62.463  57.615  1.00  0.00     0.006 C 
BRANCH  20  21
ATOM     21  C   UNL     1      40.885  62.517  57.115  1.00  0.00     0.053 C 
BRANCH  21  22
ATOM     22  C   UNL     1      40.477  61.333  56.281  1.00  0.00     0.041 C 
ATOM     23  O   UNL     1      40.771  61.258  55.058  1.00  0.00    -0.550 OA
ATOM     24  O   UNL     1      39.745  60.311  56.873  1.00  0.00    -0.550 OA
ENDBRANCH  21  22
ENDBRANCH  20  21
ENDBRANCH  19  20
ENDBRANCH  18  19
ENDBRANCH  17  18
ENDBRANCH  16  17
ENDBRANCH  15  16
ENDBRANCH  14  15
ENDBRANCH  13  14
ENDBRANCH   1  13
TORSDOF 20
ENDMDL
MODEL 6
REMARK VINA RESULT:    -5.542      2.509      3.827
REMARK INTER + INTRA:         -13.771
REMARK INTER:                 -11.782
REMARK INTRA:                  -1.989
REMARK UNBOUND:                -1.749
REMARK SMILES CCCCCCCCCCCCCCCCCCCCCC(=O)[O-]
REMARK SMILES IDX 12 1 11 2 10 3 9 4 8 5 7 6 6 7 5 8 4 9 3 10 2 11 1 12 13 13
REMARK SMILES IDX 14 14 15 15 16 16 17 17 18 18 19 19 20 20 21 21 22 22 23 23
REMARK SMILES IDX 24 24
REMARK H PARENT
REMARK Flexibility Score: inf
ROOT
ATOM      1  C   UNL     1      43.679  56.766  58.873  1.00  0.00     0.000 C 
ENDROOT
BRANCH   1   2
ATOM      2  C   UNL     1      42.280  56.150  59.037  1.00  0.00     0.000 C 
BRANCH   2   3
ATOM      3  C   UNL     1      42.341  54.723  59.607  1.00  0.00     0.000 C 
BRANCH   3   4
ATOM      4  C   UNL     1      41.010  54.275  60.233  1.00  0.00    -0.000 C 
BRANCH   4   5
ATOM      5  C   UNL     1      40.052  55.455  60.475  1.00  0.00    -0.000 C 
BRANCH   5   6
ATOM      6  C   UNL     1      38.589  55.012  60.629  1.00  0.00    -0.000 C 
BRANCH   6   7
ATOM      7  C   UNL     1      37.592  56.088  60.165  1.00  0.00    -0.000 C 
BRANCH   7   8
ATOM      8  C   UNL     1      36.554  55.543  59.167  1.00  0.00    -0.000 C 
BRANCH   8   9
ATOM      9  C   UNL     1      36.125  54.081  59.406  1.00  0.00    -0.000 C 
BRANCH   9  10
ATOM     10  C   UNL     1      35.140  53.512  58.364  1.00  0.00    -0.000 C 
BRANCH  10  11
ATOM     11  C   UNL     1      35.200  51.985  58.192  1.00  0.00    -0.003 C 
ATOM     12  C   UNL     1      33.818  51.354  58.017  1.00  0.00     0.004 C 
ENDBRANCH  10  11
ENDBRANCH   9  10
ENDBRANCH   8   9
ENDBRANCH   7   8
ENDBRANCH   6   7
ENDBRANCH   5   6
ENDBRANCH   4   5
ENDBRANCH   3   4
ENDBRANCH   2   3
ENDBRANCH   1   2
BRANCH   1  13
ATOM     13  C   UNL     1      44.328  57.085  60.225  1.00  0.00     0.000 C 
BRANCH  13  14
ATOM     14  C   UNL     1      45.546  57.995  60.057  1.00  0.00     0.000 C 
BRANCH  14  15
ATOM     15  C   UNL     1      45.822  58.267  58.568  1.00  0.00     0.000 C 
BRANCH  15  16
ATOM     16  C   UNL     1      45.789  59.764  58.223  1.00  0.00     0.000 C 
BRANCH  16  17
ATOM     17  C   UNL     1      45.725  60.674  59.472  1.00  0.00     0.000 C 
BRANCH  17  18
ATOM     18  C   UNL     1      44.493  61.607  59.480  1.00  0.00     0.000 C 
BRANCH  18  19
ATOM     19  C   UNL     1      43.152  60.851  59.516  1.00  0.00     0.000 C 
BRANCH  19  20
ATOM     20  C   UNL     1      42.413  60.877  58.170  1.00  0.00     0.006 C 
BRANCH  20  21
ATOM     21  C   UNL     1      41.794  59.508  57.826  1.00  0.00     0.053 C 
BRANCH  21  22
ATOM     22  C   UNL     1      40.337  59.568  57.455  1.00  0.00     0.041 C 
ATOM     23  O   UNL     1      39.821  60.618  56.986  1.00  0.00    -0.550 OA
ATOM     24  O   UNL     1      39.544  58.444  57.653  1.00  0.00    -0.550 OA
ENDBRANCH  21  22
ENDBRANCH  20  21
ENDBRANCH  19  20
ENDBRANCH  18  19
ENDBRANCH  17  18
ENDBRANCH  16  17
ENDBRANCH  15  16
ENDBRANCH  14  15
ENDBRANCH  13  14
ENDBRANCH   1  13
TORSDOF 20
ENDMDL
MODEL 7
REMARK VINA RESULT:    -5.467      3.379      7.800
REMARK INTER + INTRA:         -13.608
REMARK INTER:                 -10.673
REMARK INTRA:                  -2.935
REMARK UNBOUND:                -1.749
REMARK SMILES CCCCCCCCCCCCCCCCCCCCCC(=O)[O-]
REMARK SMILES IDX 12 1 11 2 10 3 9 4 8 5 7 6 6 7 5 8 4 9 3 10 2 11 1 12 13 13
REMARK SMILES IDX 14 14 15 15 16 16 17 17 18 18 19 19 20 20 21 21 22 22 23 23
REMARK SMILES IDX 24 24
REMARK H PARENT
REMARK Flexibility Score: inf
ROOT
ATOM      1  C   UNL     1      41.120  54.119  60.077  1.00  0.00     0.000 C 
ENDROOT
BRANCH   1   2
ATOM      2  C   UNL     1      42.491  54.553  60.619  1.00  0.00     0.000 C 
BRANCH   2   3
ATOM      3  C   UNL     1      43.162  55.602  59.718  1.00  0.00     0.000 C 
BRANCH   3   4
ATOM      4  C   UNL     1      43.618  56.849  60.493  1.00  0.00    -0.000 C 
BRANCH   4   5
ATOM      5  C   UNL     1      44.949  57.413  59.960  1.00  0.00    -0.000 C 
BRANCH   5   6
ATOM      6  C   UNL     1      44.859  57.870  58.497  1.00  0.00    -0.000 C 
BRANCH   6   7
ATOM      7  C   UNL     1      46.132  58.589  58.021  1.00  0.00    -0.000 C 
BRANCH   7   8
ATOM      8  C   UNL     1      46.266  60.007  58.604  1.00  0.00    -0.000 C 
BRANCH   8   9
ATOM      9  C   UNL     1      44.993  60.872  58.514  1.00  0.00    -0.000 C 
BRANCH   9  10
ATOM     10  C   UNL     1      44.541  61.509  59.845  1.00  0.00    -0.000 C 
BRANCH  10  11
ATOM     11  C   UNL     1      43.102  61.164  60.264  1.00  0.00    -0.003 C 
ATOM     12  C   UNL     1      43.044  60.286  61.515  1.00  0.00     0.004 C 
ENDBRANCH  10  11
ENDBRANCH   9  10
ENDBRANCH   8   9
ENDBRANCH   7   8
ENDBRANCH   6   7
ENDBRANCH   5   6
ENDBRANCH   4   5
ENDBRANCH   3   4
ENDBRANCH   2   3
ENDBRANCH   1   2
BRANCH   1  13
ATOM     13  C   UNL     1      40.035  54.160  61.159  1.00  0.00     0.000 C 
BRANCH  13  14
ATOM     14  C   UNL     1      38.634  54.173  60.543  1.00  0.00     0.000 C 
BRANCH  14  15
ATOM     15  C   UNL     1      38.329  55.542  59.910  1.00  0.00     0.000 C 
BRANCH  15  16
ATOM     16  C   UNL     1      38.765  56.717  60.801  1.00  0.00     0.000 C 
BRANCH  16  17
ATOM     17  C   UNL     1      40.019  57.450  60.269  1.00  0.00     0.000 C 
BRANCH  17  18
ATOM     18  C   UNL     1      39.885  57.888  58.792  1.00  0.00     0.000 C 
BRANCH  18  19
ATOM     19  C   UNL     1      41.233  57.965  58.052  1.00  0.00     0.000 C 
BRANCH  19  20
ATOM     20  C   UNL     1      41.634  59.403  57.688  1.00  0.00     0.006 C 
BRANCH  20  21
ATOM     21  C   UNL     1      40.414  60.260  57.299  1.00  0.00     0.053 C 
BRANCH  21  22
ATOM     22  C   UNL     1      40.736  61.406  56.379  1.00  0.00     0.041 C 
ATOM     23  O   UNL     1      40.475  61.354  55.147  1.00  0.00    -0.550 OA
ATOM     24  O   UNL     1      41.351  62.538  56.901  1.00  0.00    -0.550 OA
ENDBRANCH  21  22
ENDBRANCH  20  21
ENDBRANCH  19  20
ENDBRANCH  18  19
ENDBRANCH  17  18
ENDBRANCH  16  17
ENDBRANCH  15  16
ENDBRANCH  14  15
ENDBRANCH  13  14
ENDBRANCH   1  13
TORSDOF 20
ENDMDL
MODEL 8
REMARK VINA RESULT:    -5.380      4.142      8.791
REMARK INTER + INTRA:         -13.419
REMARK INTER:                 -10.228
REMARK INTRA:                  -3.192
REMARK UNBOUND:                -1.749
REMARK SMILES CCCCCCCCCCCCCCCCCCCCCC(=O)[O-]
REMARK SMILES IDX 12 1 11 2 10 3 9 4 8 5 7 6 6 7 5 8 4 9 3 10 2 11 1 12 13 13
REMARK SMILES IDX 14 14 15 15 16 16 17 17 18 18 19 19 20 20 21 21 22 22 23 23
REMARK SMILES IDX 24 24
REMARK H PARENT
REMARK Flexibility Score: inf
ROOT
ATOM      1  C   UNL     1      42.136  59.554  57.747  1.00  0.00     0.000 C 
ENDROOT
BRANCH   1   2
ATOM      2  C   UNL     1      41.340  60.775  57.260  1.00  0.00     0.000 C 
BRANCH   2   3
ATOM      3  C   UNL     1      41.896  62.090  57.830  1.00  0.00     0.000 C 
BRANCH   3   4
ATOM      4  C   UNL     1      43.080  61.872  58.786  1.00  0.00    -0.000 C 
BRANCH   4   5
ATOM      5  C   UNL     1      42.816  62.458  60.185  1.00  0.00    -0.000 C 
BRANCH   5   6
ATOM      6  C   UNL     1      43.496  61.656  61.304  1.00  0.00    -0.000 C 
BRANCH   6   7
ATOM      7  C   UNL     1      42.846  60.280  61.527  1.00  0.00    -0.000 C 
BRANCH   7   8
ATOM      8  C   UNL     1      43.879  59.143  61.617  1.00  0.00    -0.000 C 
BRANCH   8   9
ATOM      9  C   UNL     1      45.171  59.371  60.806  1.00  0.00    -0.000 C 
BRANCH   9  10
ATOM     10  C   UNL     1      45.847  58.087  60.282  1.00  0.00    -0.000 C 
BRANCH  10  11
ATOM     11  C   UNL     1      46.420  58.200  58.859  1.00  0.00    -0.003 C 
ATOM     12  C   UNL     1      45.663  59.209  57.994  1.00  0.00     0.004 C 
ENDBRANCH  10  11
ENDBRANCH   9  10
ENDBRANCH   8   9
ENDBRANCH   7   8
ENDBRANCH   6   7
ENDBRANCH   5   6
ENDBRANCH   4   5
ENDBRANCH   3   4
ENDBRANCH   2   3
ENDBRANCH   1   2
BRANCH   1  13
ATOM     13  C   UNL     1      41.219  58.378  58.109  1.00  0.00     0.000 C 
BRANCH  13  14
ATOM     14  C   UNL     1      41.792  57.563  59.270  1.00  0.00     0.000 C 
BRANCH  14  15
ATOM     15  C   UNL     1      42.876  56.592  58.772  1.00  0.00     0.000 C 
BRANCH  15  16
ATOM     16  C   UNL     1      42.915  55.283  59.577  1.00  0.00     0.000 C 
BRANCH  16  17
ATOM     17  C   UNL     1      41.771  55.174  60.614  1.00  0.00     0.000 C 
BRANCH  17  18
ATOM     18  C   UNL     1      40.688  54.145  60.217  1.00  0.00     0.000 C 
BRANCH  18  19
ATOM     19  C   UNL     1      39.278  54.522  60.706  1.00  0.00     0.000 C 
BRANCH  19  20
ATOM     20  C   UNL     1      39.021  56.036  60.686  1.00  0.00     0.006 C 
BRANCH  20  21
ATOM     21  C   UNL     1      38.080  56.445  59.535  1.00  0.00     0.053 C 
BRANCH  21  22
ATOM     22  C   UNL     1      36.640  56.070  59.756  1.00  0.00     0.041 C 
ATOM     23  O   UNL     1      35.854  56.825  60.390  1.00  0.00    -0.550 OA
ATOM     24  O   UNL     1      36.175  54.855  59.265  1.00  0.00    -0.550 OA
ENDBRANCH  21  22
ENDBRANCH  20  21
ENDBRANCH  19  20
ENDBRANCH  18  19
ENDBRANCH  17  18
ENDBRANCH  16  17
ENDBRANCH  15  16
ENDBRANCH  14  15
ENDBRANCH  13  14
ENDBRANCH   1  13
TORSDOF 20
ENDMDL
MODEL 9
REMARK VINA RESULT:    -5.372      3.892      8.329
REMARK INTER + INTRA:         -13.402
REMARK INTER:                 -10.729
REMARK INTRA:                  -2.673
REMARK UNBOUND:                -1.749
REMARK SMILES CCCCCCCCCCCCCCCCCCCCCC(=O)[O-]
REMARK SMILES IDX 12 1 11 2 10 3 9 4 8 5 7 6 6 7 5 8 4 9 3 10 2 11 1 12 13 13
REMARK SMILES IDX 14 14 15 15 16 16 17 17 18 18 19 19 20 20 21 21 22 22 23 23
REMARK SMILES IDX 24 24
REMARK H PARENT
REMARK Flexibility Score: inf
ROOT
ATOM      1  C   UNL     1      45.341  57.804  59.154  1.00  0.00     0.000 C 
ENDROOT
BRANCH   1   2
ATOM      2  C   UNL     1      45.493  58.841  58.031  1.00  0.00     0.000 C 
BRANCH   2   3
ATOM      3  C   UNL     1      46.170  60.130  58.524  1.00  0.00     0.000 C 
BRANCH   3   4
ATOM      4  C   UNL     1      45.319  61.385  58.268  1.00  0.00    -0.000 C 
BRANCH   4   5
ATOM      5  C   UNL     1      44.491  61.790  59.501  1.00  0.00    -0.000 C 
BRANCH   5   6
ATOM      6  C   UNL     1      43.387  62.804  59.170  1.00  0.00    -0.000 C 
BRANCH   6   7
ATOM      7  C   UNL     1      42.817  62.618  57.753  1.00  0.00    -0.000 C 
BRANCH   7   8
ATOM      8  C   UNL     1      41.334  62.203  57.760  1.00  0.00    -0.000 C 
BRANCH   8   9
ATOM      9  C   UNL     1      41.041  60.822  57.139  1.00  0.00    -0.000 C 
BRANCH   9  10
ATOM     10  C   UNL     1      41.878  59.659  57.712  1.00  0.00    -0.000 C 
BRANCH  10  11
ATOM     11  C   UNL     1      41.058  58.429  58.138  1.00  0.00    -0.003 C 
ATOM     12  C   UNL     1      39.591  58.519  57.714  1.00  0.00     0.004 C 
ENDBRANCH  10  11
ENDBRANCH   9  10
ENDBRANCH   8   9
ENDBRANCH   7   8
ENDBRANCH   6   7
ENDBRANCH   5   6
ENDBRANCH   4   5
ENDBRANCH   3   4
ENDBRANCH   2   3
ENDBRANCH   1   2
BRANCH   1  13
ATOM     13  C   UNL     1      44.492  58.337  60.316  1.00  0.00     0.000 C 
BRANCH  13  14
ATOM     14  C   UNL     1      43.347  57.380  60.654  1.00  0.00     0.000 C 
BRANCH  14  15
ATOM     15  C   UNL     1      43.449  56.091  59.820  1.00  0.00     0.000 C 
BRANCH  15  16
ATOM     16  C   UNL     1      42.798  54.884  60.512  1.00  0.00     0.000 C 
BRANCH  16  17
ATOM     17  C   UNL     1      41.574  54.330  59.743  1.00  0.00     0.000 C 
BRANCH  17  18
ATOM     18  C   UNL     1      40.244  54.514  60.507  1.00  0.00     0.000 C 
BRANCH  18  19
ATOM     19  C   UNL     1      39.625  55.913  60.332  1.00  0.00     0.000 C 
BRANCH  19  20
ATOM     20  C   UNL     1      38.182  56.000  60.851  1.00  0.00     0.006 C 
BRANCH  20  21
ATOM     21  C   UNL     1      37.155  55.971  59.702  1.00  0.00     0.053 C 
BRANCH  21  22
ATOM     22  C   UNL     1      36.499  54.632  59.497  1.00  0.00     0.041 C 
ATOM     23  O   UNL     1      35.551  54.483  58.681  1.00  0.00    -0.550 OA
ATOM     24  O   UNL     1      36.941  53.543  60.240  1.00  0.00    -0.550 OA
ENDBRANCH  21  22
ENDBRANCH  20  21
ENDBRANCH  19  20
ENDBRANCH  18  19
ENDBRANCH  17  18
ENDBRANCH  16  17
ENDBRANCH  15  16
ENDBRANCH  14  15
ENDBRANCH  13  14
ENDBRANCH   1  13
TORSDOF 20
ENDMDL
