MODEL 1
REMARK VINA RESULT:    -4.878      0.000      0.000
REMARK INTER + INTRA:         -11.444
REMARK INTER:                  -9.156
REMARK INTRA:                  -2.288
REMARK UNBOUND:                -2.288
REMARK SMILES CCCCCCCCC=CCCCCCCCC(=O)[O-]
REMARK SMILES IDX 10 1 9 2 11 3 12 4 13 5 14 6 15 7 16 8 17 9 18 10 19 11
REMARK SMILES IDX 20 12 8 13 7 14 6 15 5 16 4 17 3 18 2 19 1 20
REMARK H PARENT
REMARK Flexibility Score: inf
ROOT
ATOM      1  C   UNL     1      -5.884 -18.332  -9.216  1.00  0.00    -0.031 C 
ATOM      2  C   UNL     1      -6.357 -17.441  -8.326  1.00  0.00    -0.031 C 
ENDROOT
BRANCH   1   3
ATOM      3  C   UNL     1      -6.745 -19.283 -10.007  1.00  0.00     0.027 C 
BRANCH   3   4
ATOM      4  C   UNL     1      -6.914 -20.616  -9.262  1.00  0.00     0.004 C 
BRANCH   4   5
ATOM      5  C   UNL     1      -7.977 -21.519  -9.906  1.00  0.00     0.000 C 
BRANCH   5   6
ATOM      6  C   UNL     1      -7.374 -22.776 -10.549  1.00  0.00     0.000 C 
BRANCH   6   7
ATOM      7  C   UNL     1      -6.710 -22.440 -11.890  1.00  0.00     0.000 C 
BRANCH   7   8
ATOM      8  C   UNL     1      -5.294 -23.027 -11.967  1.00  0.00     0.006 C 
BRANCH   8   9
ATOM      9  C   UNL     1      -4.291 -21.979 -12.457  1.00  0.00     0.053 C 
BRANCH   9  10
ATOM     10  C   UNL     1      -3.273 -21.693 -11.399  1.00  0.00     0.041 C 
ATOM     11  O   UNL     1      -2.106 -22.155 -11.502  1.00  0.00    -0.550 OA
ATOM     12  O   UNL     1      -3.598 -20.878 -10.321  1.00  0.00    -0.550 OA
ENDBRANCH   9  10
ENDBRANCH   8   9
ENDBRANCH   7   8
ENDBRANCH   6   7
ENDBRANCH   5   6
ENDBRANCH   4   5
ENDBRANCH   3   4
ENDBRANCH   1   3
BRANCH   2  13
ATOM     13  C   UNL     1      -7.828 -17.252  -8.033  1.00  0.00     0.027 C 
BRANCH  13  14
ATOM     14  C   UNL     1      -8.440 -16.093  -8.838  1.00  0.00     0.004 C 
BRANCH  14  15
ATOM     15  C   UNL     1      -9.041 -16.520 -10.191  1.00  0.00     0.000 C 
BRANCH  15  16
ATOM     16  C   UNL     1      -8.654 -15.574 -11.338  1.00  0.00     0.000 C 
BRANCH  16  17
ATOM     17  C   UNL     1      -7.832 -16.311 -12.404  1.00  0.00    -0.000 C 
BRANCH  17  18
ATOM     18  C   UNL     1      -6.314 -16.234 -12.153  1.00  0.00    -0.000 C 
BRANCH  18  19
ATOM     19  C   UNL     1      -5.771 -14.816 -11.902  1.00  0.00    -0.003 C 
ATOM     20  C   UNL     1      -5.308 -14.597 -10.462  1.00  0.00     0.004 C 
ENDBRANCH  18  19
ENDBRANCH  17  18
ENDBRANCH  16  17
ENDBRANCH  15  16
ENDBRANCH  14  15
ENDBRANCH  13  14
ENDBRANCH   2  13
TORSDOF 15
ENDMDL
MODEL 2
REMARK VINA RESULT:    -4.758     12.466     14.494
REMARK INTER + INTRA:         -11.219
REMARK INTER:                  -9.268
REMARK INTRA:                  -1.951
REMARK UNBOUND:                -2.288
REMARK SMILES CCCCCCCCC=CCCCCCCCC(=O)[O-]
REMARK SMILES IDX 10 1 9 2 11 3 12 4 13 5 14 6 15 7 16 8 17 9 18 10 19 11
REMARK SMILES IDX 20 12 8 13 7 14 6 15 5 16 4 17 3 18 2 19 1 20
REMARK H PARENT
REMARK Flexibility Score: inf
ROOT
ATOM      1  C   UNL     1      -0.630 -10.333 -18.414  1.00  0.00    -0.031 C 
ATOM      2  C   UNL     1       0.335 -10.003 -17.536  1.00  0.00    -0.031 C 
ENDROOT
BRANCH   1   3
ATOM      3  C   UNL     1      -1.771 -11.269 -18.112  1.00  0.00     0.027 C 
BRANCH   3   4
ATOM      4  C   UNL     1      -2.840 -11.201 -19.213  1.00  0.00     0.004 C 
BRANCH   4   5
ATOM      5  C   UNL     1      -2.761  -9.904 -20.031  1.00  0.00     0.000 C 
BRANCH   5   6
ATOM      6  C   UNL     1      -4.081  -9.120 -20.026  1.00  0.00     0.000 C 
BRANCH   6   7
ATOM      7  C   UNL     1      -4.278  -8.386 -18.694  1.00  0.00     0.000 C 
BRANCH   7   8
ATOM      8  C   UNL     1      -3.285  -7.227 -18.550  1.00  0.00     0.006 C 
BRANCH   8   9
ATOM      9  C   UNL     1      -2.463  -7.364 -17.266  1.00  0.00     0.053 C 
BRANCH   9  10
ATOM     10  C   UNL     1      -1.191  -6.583 -17.371  1.00  0.00     0.041 C 
ATOM     11  O   UNL     1      -0.386  -6.549 -16.403  1.00  0.00    -0.550 OA
ATOM     12  O   UNL     1      -0.872  -5.930 -18.555  1.00  0.00    -0.550 OA
ENDBRANCH   9  10
ENDBRANCH   8   9
ENDBRANCH   7   8
ENDBRANCH   6   7
ENDBRANCH   5   6
ENDBRANCH   4   5
ENDBRANCH   3   4
ENDBRANCH   1   3
BRANCH   2  13
ATOM     13  C   UNL     1       0.374 -10.505 -16.111  1.00  0.00     0.027 C 
BRANCH  13  14
ATOM     14  C   UNL     1       1.567 -11.442 -15.853  1.00  0.00     0.004 C 
BRANCH  14  15
ATOM     15  C   UNL     1       2.935 -10.821 -16.193  1.00  0.00     0.000 C 
BRANCH  15  16
ATOM     16  C   UNL     1       3.794 -11.728 -17.087  1.00  0.00     0.000 C 
BRANCH  16  17
ATOM     17  C   UNL     1       2.937 -12.408 -18.165  1.00  0.00    -0.000 C 
BRANCH  17  18
ATOM     18  C   UNL     1       2.907 -13.942 -18.031  1.00  0.00    -0.000 C 
BRANCH  18  19
ATOM     19  C   UNL     1       4.219 -14.574 -17.532  1.00  0.00    -0.003 C 
ATOM     20  C   UNL     1       4.086 -15.225 -16.156  1.00  0.00     0.004 C 
ENDBRANCH  18  19
ENDBRANCH  17  18
ENDBRANCH  16  17
ENDBRANCH  15  16
ENDBRANCH  14  15
ENDBRANCH  13  14
ENDBRANCH   2  13
TORSDOF 15
ENDMDL
MODEL 3
REMARK VINA RESULT:    -4.719      2.214      6.116
REMARK INTER + INTRA:         -11.146
REMARK INTER:                  -9.251
REMARK INTRA:                  -1.895
REMARK UNBOUND:                -2.288
REMARK SMILES CCCCCCCCC=CCCCCCCCC(=O)[O-]
REMARK SMILES IDX 10 1 9 2 11 3 12 4 13 5 14 6 15 7 16 8 17 9 18 10 19 11
REMARK SMILES IDX 20 12 8 13 7 14 6 15 5 16 4 17 3 18 2 19 1 20
REMARK H PARENT
REMARK Flexibility Score: inf
ROOT
ATOM      1  C   UNL     1      -7.399 -19.485  -9.981  1.00  0.00    -0.031 C 
ATOM      2  C   UNL     1      -7.954 -20.603 -10.483  1.00  0.00    -0.031 C 
ENDROOT
BRANCH   1   3
ATOM      3  C   UNL     1      -6.689 -19.409  -8.653  1.00  0.00     0.027 C 
BRANCH   3   4
ATOM      4  C   UNL     1      -6.728 -17.979  -8.094  1.00  0.00     0.004 C 
BRANCH   4   5
ATOM      5  C   UNL     1      -8.111 -17.328  -8.237  1.00  0.00     0.000 C 
BRANCH   5   6
ATOM      6  C   UNL     1      -8.103 -16.125  -9.191  1.00  0.00     0.000 C 
BRANCH   6   7
ATOM      7  C   UNL     1      -6.675 -15.792  -9.642  1.00  0.00     0.000 C 
BRANCH   7   8
ATOM      8  C   UNL     1      -6.661 -14.578 -10.579  1.00  0.00     0.006 C 
BRANCH   8   9
ATOM      9  C   UNL     1      -5.537 -14.695 -11.612  1.00  0.00     0.053 C 
BRANCH   9  10
ATOM     10  C   UNL     1      -5.894 -15.696 -12.665  1.00  0.00     0.041 C 
ATOM     11  O   UNL     1      -4.990 -16.354 -13.245  1.00  0.00    -0.550 OA
ATOM     12  O   UNL     1      -7.227 -15.936 -12.973  1.00  0.00    -0.550 OA
ENDBRANCH   9  10
ENDBRANCH   8   9
ENDBRANCH   7   8
ENDBRANCH   6   7
ENDBRANCH   5   6
ENDBRANCH   4   5
ENDBRANCH   3   4
ENDBRANCH   1   3
BRANCH   2  13
ATOM     13  C   UNL     1      -7.901 -21.945  -9.790  1.00  0.00     0.027 C 
BRANCH  13  14
ATOM     14  C   UNL     1      -7.430 -23.070 -10.728  1.00  0.00     0.004 C 
BRANCH  14  15
ATOM     15  C   UNL     1      -6.646 -22.572 -11.957  1.00  0.00     0.000 C 
BRANCH  15  16
ATOM     16  C   UNL     1      -5.151 -22.920 -11.888  1.00  0.00     0.000 C 
BRANCH  16  17
ATOM     17  C   UNL     1      -4.318 -21.930 -12.715  1.00  0.00    -0.000 C 
BRANCH  17  18
ATOM     18  C   UNL     1      -4.421 -20.482 -12.201  1.00  0.00    -0.000 C 
BRANCH  18  19
ATOM     19  C   UNL     1      -3.784 -20.237 -10.821  1.00  0.00    -0.003 C 
ATOM     20  C   UNL     1      -2.297 -20.585 -10.776  1.00  0.00     0.004 C 
ENDBRANCH  18  19
ENDBRANCH  17  18
ENDBRANCH  16  17
ENDBRANCH  15  16
ENDBRANCH  14  15
ENDBRANCH  13  14
ENDBRANCH   2  13
TORSDOF 15
ENDMDL
MODEL 4
REMARK VINA RESULT:    -4.672     13.956     16.964
REMARK INTER + INTRA:         -11.057
REMARK INTER:                  -8.863
REMARK INTRA:                  -2.194
REMARK UNBOUND:                -2.288
REMARK SMILES CCCCCCCCC=CCCCCCCCC(=O)[O-]
REMARK SMILES IDX 10 1 9 2 11 3 12 4 13 5 14 6 15 7 16 8 17 9 18 10 19 11
REMARK SMILES IDX 20 12 8 13 7 14 6 15 5 16 4 17 3 18 2 19 1 20
REMARK H PARENT
REMARK Flexibility Score: inf
ROOT
ATOM      1  C   UNL     1      -0.583 -10.070 -18.999  1.00  0.00    -0.031 C 
ATOM      2  C   UNL     1      -1.632 -10.852 -18.691  1.00  0.00    -0.031 C 
ENDROOT
BRANCH   1   3
ATOM      3  C   UNL     1      -0.434  -9.316 -20.296  1.00  0.00     0.027 C 
BRANCH   3   4
ATOM      4  C   UNL     1       0.902  -9.654 -20.974  1.00  0.00     0.004 C 
BRANCH   4   5
ATOM      5  C   UNL     1       1.970  -8.574 -20.743  1.00  0.00     0.000 C 
BRANCH   5   6
ATOM      6  C   UNL     1       1.364  -7.178 -20.539  1.00  0.00     0.000 C 
BRANCH   6   7
ATOM      7  C   UNL     1       2.249  -6.098 -21.175  1.00  0.00     0.000 C 
BRANCH   7   8
ATOM      8  C   UNL     1       2.495  -6.392 -22.660  1.00  0.00     0.006 C 
BRANCH   8   9
ATOM      9  C   UNL     1       3.990  -6.337 -22.989  1.00  0.00     0.053 C 
BRANCH   9  10
ATOM     10  C   UNL     1       4.439  -4.920 -23.155  1.00  0.00     0.041 C 
ATOM     11  O   UNL     1       5.178  -4.384 -22.287  1.00  0.00    -0.550 OA
ATOM     12  O   UNL     1       4.080  -4.204 -24.291  1.00  0.00    -0.550 OA
ENDBRANCH   9  10
ENDBRANCH   8   9
ENDBRANCH   7   8
ENDBRANCH   6   7
ENDBRANCH   5   6
ENDBRANCH   4   5
ENDBRANCH   3   4
ENDBRANCH   1   3
BRANCH   2  13
ATOM     13  C   UNL     1      -2.825 -11.045 -19.600  1.00  0.00     0.027 C 
BRANCH  13  14
ATOM     14  C   UNL     1      -4.024 -10.175 -19.184  1.00  0.00     0.004 C 
BRANCH  14  15
ATOM     15  C   UNL     1      -4.179  -8.886 -20.013  1.00  0.00     0.000 C 
BRANCH  15  16
ATOM     16  C   UNL     1      -4.345  -7.634 -19.138  1.00  0.00     0.000 C 
BRANCH  16  17
ATOM     17  C   UNL     1      -3.139  -7.450 -18.207  1.00  0.00    -0.000 C 
BRANCH  17  18
ATOM     18  C   UNL     1      -2.053  -6.534 -18.801  1.00  0.00    -0.000 C 
BRANCH  18  19
ATOM     19  C   UNL     1      -0.888  -6.208 -17.851  1.00  0.00    -0.003 C 
ATOM     20  C   UNL     1      -0.777  -7.185 -16.680  1.00  0.00     0.004 C 
ENDBRANCH  18  19
ENDBRANCH  17  18
ENDBRANCH  16  17
ENDBRANCH  15  16
ENDBRANCH  14  15
ENDBRANCH  13  14
ENDBRANCH   2  13
TORSDOF 15
ENDMDL
MODEL 5
REMARK VINA RESULT:    -4.659     11.554     12.840
REMARK INTER + INTRA:         -11.033
REMARK INTER:                  -9.096
REMARK INTRA:                  -1.937
REMARK UNBOUND:                -2.288
REMARK SMILES CCCCCCCCC=CCCCCCCCC(=O)[O-]
REMARK SMILES IDX 10 1 9 2 11 3 12 4 13 5 14 6 15 7 16 8 17 9 18 10 19 11
REMARK SMILES IDX 20 12 8 13 7 14 6 15 5 16 4 17 3 18 2 19 1 20
REMARK H PARENT
REMARK Flexibility Score: inf
ROOT
ATOM      1  C   UNL     1      -3.216 -11.658 -18.876  1.00  0.00    -0.031 C 
ATOM      2  C   UNL     1      -4.260 -11.011 -19.425  1.00  0.00    -0.031 C 
ENDROOT
BRANCH   1   3
ATOM      3  C   UNL     1      -1.855 -11.047 -18.661  1.00  0.00     0.027 C 
BRANCH   3   4
ATOM      4  C   UNL     1      -0.981 -11.956 -17.784  1.00  0.00     0.004 C 
BRANCH   4   5
ATOM      5  C   UNL     1       0.407 -11.355 -17.514  1.00  0.00     0.000 C 
BRANCH   5   6
ATOM      6  C   UNL     1       0.656 -11.088 -16.023  1.00  0.00     0.000 C 
BRANCH   6   7
ATOM      7  C   UNL     1       1.108 -12.365 -15.305  1.00  0.00     0.000 C 
BRANCH   7   8
ATOM      8  C   UNL     1       2.613 -12.599 -15.490  1.00  0.00     0.006 C 
BRANCH   8   9
ATOM      9  C   UNL     1       2.892 -14.027 -15.967  1.00  0.00     0.053 C 
BRANCH   9  10
ATOM     10  C   UNL     1       3.566 -14.012 -17.303  1.00  0.00     0.041 C 
ATOM     11  O   UNL     1       2.889 -13.846 -18.352  1.00  0.00    -0.550 OA
ATOM     12  O   UNL     1       4.947 -14.133 -17.386  1.00  0.00    -0.550 OA
ENDBRANCH   9  10
ENDBRANCH   8   9
ENDBRANCH   7   8
ENDBRANCH   6   7
ENDBRANCH   5   6
ENDBRANCH   4   5
ENDBRANCH   3   4
ENDBRANCH   1   3
BRANCH   2  13
ATOM     13  C   UNL     1      -4.212  -9.565 -19.862  1.00  0.00     0.027 C 
BRANCH  13  14
ATOM     14  C   UNL     1      -4.741  -8.608 -18.779  1.00  0.00     0.004 C 
BRANCH  14  15
ATOM     15  C   UNL     1      -4.110  -7.204 -18.823  1.00  0.00     0.000 C 
BRANCH  15  16
ATOM     16  C   UNL     1      -2.738  -7.190 -19.515  1.00  0.00     0.000 C 
BRANCH  16  17
ATOM     17  C   UNL     1      -1.676  -6.542 -18.616  1.00  0.00    -0.000 C 
BRANCH  17  18
ATOM     18  C   UNL     1      -0.776  -7.572 -17.909  1.00  0.00    -0.000 C 
BRANCH  18  19
ATOM     19  C   UNL     1      -1.265  -8.014 -16.518  1.00  0.00    -0.003 C 
ATOM     20  C   UNL     1      -1.819  -6.861 -15.682  1.00  0.00     0.004 C 
ENDBRANCH  18  19
ENDBRANCH  17  18
ENDBRANCH  16  17
ENDBRANCH  15  16
ENDBRANCH  14  15
ENDBRANCH  13  14
ENDBRANCH   2  13
TORSDOF 15
ENDMDL
MODEL 6
REMARK VINA RESULT:    -4.615     12.027     13.953
REMARK INTER + INTRA:         -10.949
REMARK INTER:                  -8.385
REMARK INTRA:                  -2.565
REMARK UNBOUND:                -2.288
REMARK SMILES CCCCCCCCC=CCCCCCCCC(=O)[O-]
REMARK SMILES IDX 10 1 9 2 11 3 12 4 13 5 14 6 15 7 16 8 17 9 18 10 19 11
REMARK SMILES IDX 20 12 8 13 7 14 6 15 5 16 4 17 3 18 2 19 1 20
REMARK H PARENT
REMARK Flexibility Score: inf
ROOT
ATOM      1  C   UNL     1      -4.083  -7.220 -18.717  1.00  0.00    -0.031 C 
ATOM      2  C   UNL     1      -4.743  -8.382 -18.872  1.00  0.00    -0.031 C 
ENDROOT
BRANCH   1   3
ATOM      3  C   UNL     1      -2.839  -6.839 -19.479  1.00  0.00     0.027 C 
BRANCH   3   4
ATOM      4  C   UNL     1      -1.579  -7.304 -18.736  1.00  0.00     0.004 C 
BRANCH   4   5
ATOM      5  C   UNL     1      -1.357  -6.545 -17.419  1.00  0.00     0.000 C 
BRANCH   5   6
ATOM      6  C   UNL     1      -1.417  -7.463 -16.189  1.00  0.00     0.000 C 
BRANCH   6   7
ATOM      7  C   UNL     1      -1.261  -8.934 -16.595  1.00  0.00     0.000 C 
BRANCH   7   8
ATOM      8  C   UNL     1       0.183  -9.410 -16.397  1.00  0.00     0.006 C 
BRANCH   8   9
ATOM      9  C   UNL     1       0.280 -10.934 -16.513  1.00  0.00     0.053 C 
BRANCH   9  10
ATOM     10  C   UNL     1       1.705 -11.358 -16.679  1.00  0.00     0.041 C 
ATOM     11  O   UNL     1       2.628 -10.704 -16.127  1.00  0.00    -0.550 OA
ATOM     12  O   UNL     1       2.010 -12.502 -17.406  1.00  0.00    -0.550 OA
ENDBRANCH   9  10
ENDBRANCH   8   9
ENDBRANCH   7   8
ENDBRANCH   6   7
ENDBRANCH   5   6
ENDBRANCH   4   5
ENDBRANCH   3   4
ENDBRANCH   1   3
BRANCH   2  13
ATOM     13  C   UNL     1      -4.339  -9.445 -19.868  1.00  0.00     0.027 C 
BRANCH  13  14
ATOM     14  C   UNL     1      -4.399 -10.861 -19.269  1.00  0.00     0.004 C 
BRANCH  14  15
ATOM     15  C   UNL     1      -3.042 -11.383 -18.760  1.00  0.00     0.000 C 
BRANCH  15  16
ATOM     16  C   UNL     1      -2.433 -12.450 -19.682  1.00  0.00     0.000 C 
BRANCH  16  17
ATOM     17  C   UNL     1      -1.248 -11.880 -20.475  1.00  0.00    -0.000 C 
BRANCH  17  18
ATOM     18  C   UNL     1      -0.811 -10.487 -19.985  1.00  0.00    -0.000 C 
BRANCH  18  19
ATOM     19  C   UNL     1       0.685 -10.177 -20.165  1.00  0.00    -0.003 C 
ATOM     20  C   UNL     1       0.941  -8.850 -20.880  1.00  0.00     0.004 C 
ENDBRANCH  18  19
ENDBRANCH  17  18
ENDBRANCH  16  17
ENDBRANCH  15  16
ENDBRANCH  14  15
ENDBRANCH  13  14
ENDBRANCH   2  13
TORSDOF 15
ENDMDL
MODEL 7
REMARK VINA RESULT:    -4.588      9.800     12.713
REMARK INTER + INTRA:         -10.900
REMARK INTER:                  -8.003
REMARK INTRA:                  -2.897
REMARK UNBOUND:                -2.288
REMARK SMILES CCCCCCCCC=CCCCCCCCC(=O)[O-]
REMARK SMILES IDX 10 1 9 2 11 3 12 4 13 5 14 6 15 7 16 8 17 9 18 10 19 11
REMARK SMILES IDX 20 12 8 13 7 14 6 15 5 16 4 17 3 18 2 19 1 20
REMARK H PARENT
REMARK Flexibility Score: inf
ROOT
ATOM      1  C   UNL     1       0.619 -12.698 -15.786  1.00  0.00    -0.031 C 
ATOM      2  C   UNL     1      -0.088 -13.828 -15.963  1.00  0.00    -0.031 C 
ENDROOT
BRANCH   1   3
ATOM      3  C   UNL     1       1.433 -12.388 -14.556  1.00  0.00     0.027 C 
BRANCH   3   4
ATOM      4  C   UNL     1       2.872 -12.006 -14.934  1.00  0.00     0.004 C 
BRANCH   4   5
ATOM      5  C   UNL     1       2.932 -10.803 -15.887  1.00  0.00     0.000 C 
BRANCH   5   6
ATOM      6  C   UNL     1       3.736 -11.097 -17.162  1.00  0.00     0.000 C 
BRANCH   6   7
ATOM      7  C   UNL     1       2.845 -10.998 -18.406  1.00  0.00     0.000 C 
BRANCH   7   8
ATOM      8  C   UNL     1       2.499 -12.391 -18.948  1.00  0.00     0.006 C 
BRANCH   8   9
ATOM      9  C   UNL     1       1.015 -12.484 -19.314  1.00  0.00     0.053 C 
BRANCH   9  10
ATOM     10  C   UNL     1       0.709 -13.812 -19.931  1.00  0.00     0.041 C 
ATOM     11  O   UNL     1      -0.453 -14.292 -19.857  1.00  0.00    -0.550 OA
ATOM     12  O   UNL     1       1.695 -14.499 -20.628  1.00  0.00    -0.550 OA
ENDBRANCH   9  10
ENDBRANCH   8   9
ENDBRANCH   7   8
ENDBRANCH   6   7
ENDBRANCH   5   6
ENDBRANCH   4   5
ENDBRANCH   3   4
ENDBRANCH   1   3
BRANCH   2  13
ATOM     13  C   UNL     1      -0.126 -14.957 -14.958  1.00  0.00     0.027 C 
BRANCH  13  14
ATOM     14  C   UNL     1      -0.479 -16.306 -15.607  1.00  0.00     0.004 C 
BRANCH  14  15
ATOM     15  C   UNL     1       0.117 -16.498 -17.014  1.00  0.00     0.000 C 
BRANCH  15  16
ATOM     16  C   UNL     1       1.009 -17.745 -17.117  1.00  0.00     0.000 C 
BRANCH  16  17
ATOM     17  C   UNL     1       2.487 -17.354 -17.252  1.00  0.00    -0.000 C 
BRANCH  17  18
ATOM     18  C   UNL     1       2.689 -15.849 -17.511  1.00  0.00    -0.000 C 
BRANCH  18  19
ATOM     19  C   UNL     1       3.608 -15.136 -16.503  1.00  0.00    -0.003 C 
ATOM     20  C   UNL     1       4.818 -14.471 -17.160  1.00  0.00     0.004 C 
ENDBRANCH  18  19
ENDBRANCH  17  18
ENDBRANCH  16  17
ENDBRANCH  15  16
ENDBRANCH  14  15
ENDBRANCH  13  14
ENDBRANCH   2  13
TORSDOF 15
ENDMDL
MODEL 8
REMARK VINA RESULT:    -4.559     10.726     12.246
REMARK INTER + INTRA:         -10.844
REMARK INTER:                  -8.781
REMARK INTRA:                  -2.063
REMARK UNBOUND:                -2.288
REMARK SMILES CCCCCCCCC=CCCCCCCCC(=O)[O-]
REMARK SMILES IDX 10 1 9 2 11 3 12 4 13 5 14 6 15 7 16 8 17 9 18 10 19 11
REMARK SMILES IDX 20 12 8 13 7 14 6 15 5 16 4 17 3 18 2 19 1 20
REMARK H PARENT
REMARK Flexibility Score: inf
ROOT
ATOM      1  C   UNL     1       0.049 -13.122 -16.871  1.00  0.00    -0.031 C 
ATOM      2  C   UNL     1       0.031 -12.914 -18.199  1.00  0.00    -0.031 C 
ENDROOT
BRANCH   1   3
ATOM      3  C   UNL     1       0.602 -12.145 -15.864  1.00  0.00     0.027 C 
BRANCH   3   4
ATOM      4  C   UNL     1       1.783 -12.759 -15.099  1.00  0.00     0.004 C 
BRANCH   4   5
ATOM      5  C   UNL     1       3.066 -12.817 -15.942  1.00  0.00     0.000 C 
BRANCH   5   6
ATOM      6  C   UNL     1       3.557 -14.253 -16.175  1.00  0.00     0.000 C 
BRANCH   6   7
ATOM      7  C   UNL     1       3.968 -14.461 -17.637  1.00  0.00     0.000 C 
BRANCH   7   8
ATOM      8  C   UNL     1       3.069 -15.499 -18.321  1.00  0.00     0.006 C 
BRANCH   8   9
ATOM      9  C   UNL     1       2.275 -16.303 -17.287  1.00  0.00     0.053 C 
BRANCH   9  10
ATOM     10  C   UNL     1       2.195 -17.741 -17.691  1.00  0.00     0.041 C 
ATOM     11  O   UNL     1       1.737 -18.599 -16.890  1.00  0.00    -0.550 OA
ATOM     12  O   UNL     1       2.581 -18.128 -18.968  1.00  0.00    -0.550 OA
ENDBRANCH   9  10
ENDBRANCH   8   9
ENDBRANCH   7   8
ENDBRANCH   6   7
ENDBRANCH   5   6
ENDBRANCH   4   5
ENDBRANCH   3   4
ENDBRANCH   1   3
BRANCH   2  13
ATOM     13  C   UNL     1       0.532 -11.646 -18.854  1.00  0.00     0.027 C 
BRANCH  13  14
ATOM     14  C   UNL     1      -0.617 -10.739 -19.327  1.00  0.00     0.004 C 
BRANCH  14  15
ATOM     15  C   UNL     1      -0.504  -9.282 -18.841  1.00  0.00     0.000 C 
BRANCH  15  16
ATOM     16  C   UNL     1      -0.954  -9.105 -17.383  1.00  0.00     0.000 C 
BRANCH  16  17
ATOM     17  C   UNL     1      -2.447  -8.755 -17.307  1.00  0.00    -0.000 C 
BRANCH  17  18
ATOM     18  C   UNL     1      -2.785  -7.413 -17.984  1.00  0.00    -0.000 C 
BRANCH  18  19
ATOM     19  C   UNL     1      -4.042  -7.434 -18.872  1.00  0.00    -0.003 C 
ATOM     20  C   UNL     1      -4.310  -8.800 -19.502  1.00  0.00     0.004 C 
ENDBRANCH  18  19
ENDBRANCH  17  18
ENDBRANCH  16  17
ENDBRANCH  15  16
ENDBRANCH  14  15
ENDBRANCH  13  14
ENDBRANCH   2  13
TORSDOF 15
ENDMDL
MODEL 9
REMARK VINA RESULT:    -4.544     11.656     13.430
REMARK INTER + INTRA:         -10.817
REMARK INTER:                  -8.149
REMARK INTRA:                  -2.668
REMARK UNBOUND:                -2.288
REMARK SMILES CCCCCCCCC=CCCCCCCCC(=O)[O-]
REMARK SMILES IDX 10 1 9 2 11 3 12 4 13 5 14 6 15 7 16 8 17 9 18 10 19 11
REMARK SMILES IDX 20 12 8 13 7 14 6 15 5 16 4 17 3 18 2 19 1 20
REMARK H PARENT
REMARK Flexibility Score: inf
ROOT
ATOM      1  C   UNL     1      -1.157 -10.744 -18.619  1.00  0.00    -0.031 C 
ATOM      2  C   UNL     1      -2.372 -11.056 -18.133  1.00  0.00    -0.031 C 
ENDROOT
BRANCH   1   3
ATOM      3  C   UNL     1      -0.769 -10.848 -20.072  1.00  0.00     0.027 C 
BRANCH   3   4
ATOM      4  C   UNL     1       0.034  -9.616 -20.513  1.00  0.00     0.004 C 
BRANCH   4   5
ATOM      5  C   UNL     1       1.325  -9.433 -19.701  1.00  0.00     0.000 C 
BRANCH   5   6
ATOM      6  C   UNL     1       2.287 -10.622 -19.843  1.00  0.00     0.000 C 
BRANCH   6   7
ATOM      7  C   UNL     1       2.894 -11.001 -18.487  1.00  0.00     0.000 C 
BRANCH   7   8
ATOM      8  C   UNL     1       2.717 -12.498 -18.203  1.00  0.00     0.006 C 
BRANCH   8   9
ATOM      9  C   UNL     1       2.582 -12.759 -16.699  1.00  0.00     0.053 C 
BRANCH   9  10
ATOM     10  C   UNL     1       1.186 -12.474 -16.241  1.00  0.00     0.041 C 
ATOM     11  O   UNL     1       0.244 -13.246 -16.564  1.00  0.00    -0.550 OA
ATOM     12  O   UNL     1       0.932 -11.383 -15.420  1.00  0.00    -0.550 OA
ENDBRANCH   9  10
ENDBRANCH   8   9
ENDBRANCH   7   8
ENDBRANCH   6   7
ENDBRANCH   5   6
ENDBRANCH   4   5
ENDBRANCH   3   4
ENDBRANCH   1   3
BRANCH   2  13
ATOM     13  C   UNL     1      -3.524 -11.518 -18.997  1.00  0.00     0.027 C 
BRANCH  13  14
ATOM     14  C   UNL     1      -4.624 -10.450 -19.125  1.00  0.00     0.004 C 
BRANCH  14  15
ATOM     15  C   UNL     1      -4.211  -9.225 -19.963  1.00  0.00     0.000 C 
BRANCH  15  16
ATOM     16  C   UNL     1      -4.283  -7.911 -19.169  1.00  0.00     0.000 C 
BRANCH  16  17
ATOM     17  C   UNL     1      -2.893  -7.273 -19.036  1.00  0.00    -0.000 C 
BRANCH  17  18
ATOM     18  C   UNL     1      -2.375  -7.257 -17.586  1.00  0.00    -0.000 C 
BRANCH  18  19
ATOM     19  C   UNL     1      -0.847  -7.377 -17.442  1.00  0.00    -0.003 C 
ATOM     20  C   UNL     1      -0.418  -8.045 -16.136  1.00  0.00     0.004 C 
ENDBRANCH  18  19
ENDBRANCH  17  18
ENDBRANCH  16  17
ENDBRANCH  15  16
ENDBRANCH  14  15
ENDBRANCH  13  14
ENDBRANCH   2  13
TORSDOF 15
ENDMDL
