MODEL 1
REMARK VINA RESULT:    -6.904      0.000      0.000
REMARK INTER + INTRA:          -8.638
REMARK INTER:                  -8.317
REMARK INTRA:                  -0.321
REMARK UNBOUND:                -0.321
REMARK SMILES O=c1c(O)c(-c2ccc(O)c(O)c2)oc2cc(O)cc(O)c12
REMARK SMILES IDX 5 1 3 2 2 3 1 4 22 5 20 6 19 7 17 8 16 9 15 10 14 11 6 12
REMARK SMILES IDX 7 13 8 14 9 15 13 16 11 17 10 18 12 20 4 22 21 24 18 26
REMARK H PARENT 10 19 12 21 4 23 21 25 18 27
REMARK Flexibility Score: inf
ROOT
ATOM      1  C   UNL     1      -0.103 -24.850  -9.300  1.00  0.00     0.180 A 
ATOM      2  C   UNL     1      -1.035 -24.943  -8.252  1.00  0.00     0.208 A 
ATOM      3  C   UNL     1      -1.325 -26.204  -7.706  1.00  0.00     0.238 A 
ATOM      4  O   UNL     1      -2.119 -26.273  -6.733  1.00  0.00    -0.285 OA
ATOM      5  C   UNL     1      -0.692 -27.357  -8.227  1.00  0.00     0.111 A 
ATOM      6  C   UNL     1      -0.940 -28.690  -7.778  1.00  0.00     0.134 A 
ATOM      7  C   UNL     1      -0.161 -29.743  -8.275  1.00  0.00     0.093 A 
ATOM      8  C   UNL     1       0.811 -29.521  -9.249  1.00  0.00     0.123 A 
ATOM      9  C   UNL     1       1.021 -28.231  -9.738  1.00  0.00     0.094 A 
ATOM     10  C   UNL     1       0.285 -27.156  -9.236  1.00  0.00     0.146 A 
ATOM     11  O   UNL     1       0.523 -25.942  -9.721  1.00  0.00    -0.452 OA
ENDROOT
BRANCH   1  12
ATOM     12  C   UNL     1       0.235 -23.559  -9.941  1.00  0.00     0.025 A 
ATOM     13  C   UNL     1      -0.507 -23.125 -11.051  1.00  0.00     0.016 A 
ATOM     14  C   UNL     1      -0.220 -21.900 -11.660  1.00  0.00     0.051 A 
ATOM     15  C   UNL     1       0.800 -21.084 -11.161  1.00  0.00     0.157 A 
ATOM     16  C   UNL     1       1.246 -22.727  -9.428  1.00  0.00     0.062 A 
ATOM     17  C   UNL     1       1.534 -21.497 -10.037  1.00  0.00     0.158 A 
BRANCH  15  18
ATOM     18  O   UNL     1       1.064 -19.869 -11.791  1.00  0.00    -0.504 OA
ATOM     19  H   UNL     1       0.663 -19.632 -12.690  1.00  0.00     0.293 HD
ENDBRANCH  15  18
BRANCH  17  20
ATOM     20  O   UNL     1       2.544 -20.682  -9.525  1.00  0.00    -0.504 OA
ATOM     21  H   UNL     1       3.412 -20.534 -10.027  1.00  0.00     0.293 HD
ENDBRANCH  17  20
ENDBRANCH   1  12
BRANCH   2  22
ATOM     22  O   UNL     1      -1.633 -23.788  -7.739  1.00  0.00    -0.502 OA
ATOM     23  H   UNL     1      -1.983 -23.047  -8.334  1.00  0.00     0.293 HD
ENDBRANCH   2  22
BRANCH   6  24
ATOM     24  O   UNL     1      -1.951 -29.033  -6.875  1.00  0.00    -0.507 OA
ATOM     25  H   UNL     1      -1.867 -29.738  -6.159  1.00  0.00     0.293 HD
ENDBRANCH   6  24
BRANCH   8  26
ATOM     26  O   UNL     1       1.557 -30.594  -9.731  1.00  0.00    -0.508 OA
ATOM     27  H   UNL     1       1.224 -31.548  -9.657  1.00  0.00     0.293 HD
ENDBRANCH   8  26
TORSDOF 6
ENDMDL
MODEL 2
REMARK VINA RESULT:    -6.688      1.564      7.019
REMARK INTER + INTRA:          -8.377
REMARK INTER:                  -8.073
REMARK INTRA:                  -0.304
REMARK UNBOUND:                -0.321
REMARK SMILES O=c1c(O)c(-c2ccc(O)c(O)c2)oc2cc(O)cc(O)c12
REMARK SMILES IDX 5 1 3 2 2 3 1 4 22 5 20 6 19 7 17 8 16 9 15 10 14 11 6 12
REMARK SMILES IDX 7 13 8 14 9 15 13 16 11 17 10 18 12 20 4 22 21 24 18 26
REMARK H PARENT 10 19 12 21 4 23 21 25 18 27
REMARK Flexibility Score: inf
ROOT
ATOM      1  C   UNL     1      -0.127 -24.915  -9.802  1.00  0.00     0.180 A 
ATOM      2  C   UNL     1      -1.072 -24.567 -10.784  1.00  0.00     0.208 A 
ATOM      3  C   UNL     1      -1.050 -23.271 -11.322  1.00  0.00     0.238 A 
ATOM      4  O   UNL     1      -1.863 -22.984 -12.239  1.00  0.00    -0.285 OA
ATOM      5  C   UNL     1      -0.096 -22.333 -10.860  1.00  0.00     0.111 A 
ATOM      6  C   UNL     1      -0.008 -20.980 -11.306  1.00  0.00     0.134 A 
ATOM      7  C   UNL     1       1.057 -20.179 -10.877  1.00  0.00     0.093 A 
ATOM      8  C   UNL     1       2.000 -20.660  -9.969  1.00  0.00     0.123 A 
ATOM      9  C   UNL     1       1.890 -21.963  -9.482  1.00  0.00     0.094 A 
ATOM     10  C   UNL     1       0.859 -22.798  -9.919  1.00  0.00     0.146 A 
ATOM     11  O   UNL     1       0.796 -24.034  -9.438  1.00  0.00    -0.452 OA
ENDROOT
BRANCH   1  12
ATOM     12  C   UNL     1      -0.104 -26.254  -9.171  1.00  0.00     0.025 A 
ATOM     13  C   UNL     1      -1.000 -26.541  -8.129  1.00  0.00     0.016 A 
ATOM     14  C   UNL     1      -1.010 -27.804  -7.532  1.00  0.00     0.051 A 
ATOM     15  C   UNL     1      -0.140 -28.804  -7.977  1.00  0.00     0.157 A 
ATOM     16  C   UNL     1       0.755 -27.267  -9.631  1.00  0.00     0.062 A 
ATOM     17  C   UNL     1       0.745 -28.537  -9.035  1.00  0.00     0.158 A 
BRANCH  15  18
ATOM     18  O   UNL     1      -0.173 -30.054  -7.360  1.00  0.00    -0.504 OA
ATOM     19  H   UNL     1      -0.535 -30.182  -6.423  1.00  0.00     0.293 HD
ENDBRANCH  15  18
BRANCH  17  20
ATOM     20  O   UNL     1       1.605 -29.533  -9.494  1.00  0.00    -0.504 OA
ATOM     21  H   UNL     1       2.589 -29.539  -9.250  1.00  0.00     0.293 HD
ENDBRANCH  17  20
ENDBRANCH   1  12
BRANCH   2  22
ATOM     22  O   UNL     1      -1.992 -25.516 -11.241  1.00  0.00    -0.502 OA
ATOM     23  H   UNL     1      -1.706 -26.374 -11.695  1.00  0.00     0.293 HD
ENDBRANCH   2  22
BRANCH   6  24
ATOM     24  O   UNL     1      -0.950 -20.371 -12.141  1.00  0.00    -0.507 OA
ATOM     25  H   UNL     1      -1.922 -20.235 -11.908  1.00  0.00     0.293 HD
ENDBRANCH   6  24
BRANCH   8  26
ATOM     26  O   UNL     1       3.038 -19.831  -9.553  1.00  0.00    -0.508 OA
ATOM     27  H   UNL     1       2.951 -18.821  -9.571  1.00  0.00     0.293 HD
ENDBRANCH   8  26
TORSDOF 6
ENDMDL
MODEL 3
REMARK VINA RESULT:    -6.526      1.112      1.278
REMARK INTER + INTRA:          -8.183
REMARK INTER:                  -7.884
REMARK INTRA:                  -0.299
REMARK UNBOUND:                -0.321
REMARK SMILES O=c1c(O)c(-c2ccc(O)c(O)c2)oc2cc(O)cc(O)c12
REMARK SMILES IDX 5 1 3 2 2 3 1 4 22 5 20 6 19 7 17 8 16 9 15 10 14 11 6 12
REMARK SMILES IDX 7 13 8 14 9 15 13 16 11 17 10 18 12 20 4 22 21 24 18 26
REMARK H PARENT 10 19 12 21 4 23 21 25 18 27
REMARK Flexibility Score: inf
ROOT
ATOM      1  C   UNL     1      -0.357 -26.035  -9.369  1.00  0.00     0.180 A 
ATOM      2  C   UNL     1      -1.154 -26.143  -8.215  1.00  0.00     0.208 A 
ATOM      3  C   UNL     1      -1.443 -27.418  -7.704  1.00  0.00     0.238 A 
ATOM      4  O   UNL     1      -2.110 -27.506  -6.641  1.00  0.00    -0.285 OA
ATOM      5  C   UNL     1      -0.947 -28.569  -8.362  1.00  0.00     0.111 A 
ATOM      6  C   UNL     1      -1.211 -29.912  -7.956  1.00  0.00     0.134 A 
ATOM      7  C   UNL     1      -0.561 -30.970  -8.603  1.00  0.00     0.093 A 
ATOM      8  C   UNL     1       0.290 -30.740  -9.683  1.00  0.00     0.123 A 
ATOM      9  C   UNL     1       0.510 -29.435 -10.126  1.00  0.00     0.094 A 
ATOM     10  C   UNL     1      -0.095 -28.356  -9.477  1.00  0.00     0.146 A 
ATOM     11  O   UNL     1       0.148 -27.129  -9.925  1.00  0.00    -0.452 OA
ENDROOT
BRANCH   1  12
ATOM     12  C   UNL     1      -0.031 -24.726  -9.980  1.00  0.00     0.025 A 
ATOM     13  C   UNL     1      -0.978 -24.092 -10.800  1.00  0.00     0.016 A 
ATOM     14  C   UNL     1      -0.701 -22.847 -11.371  1.00  0.00     0.051 A 
ATOM     15  C   UNL     1       0.518 -22.210 -11.119  1.00  0.00     0.157 A 
ATOM     16  C   UNL     1       1.185 -24.073  -9.711  1.00  0.00     0.062 A 
ATOM     17  C   UNL     1       1.465 -22.823 -10.281  1.00  0.00     0.158 A 
BRANCH  15  18
ATOM     18  O   UNL     1       0.767 -20.969 -11.704  1.00  0.00    -0.504 OA
ATOM     19  H   UNL     1       0.153 -20.176 -11.564  1.00  0.00     0.293 HD
ENDBRANCH  15  18
BRANCH  17  20
ATOM     20  O   UNL     1       2.677 -22.187 -10.015  1.00  0.00    -0.504 OA
ATOM     21  H   UNL     1       2.917 -21.871  -9.082  1.00  0.00     0.293 HD
ENDBRANCH  17  20
ENDBRANCH   1  12
BRANCH   2  22
ATOM     22  O   UNL     1      -1.615 -24.992  -7.569  1.00  0.00    -0.502 OA
ATOM     23  H   UNL     1      -2.348 -25.018  -6.871  1.00  0.00     0.293 HD
ENDBRANCH   2  22
BRANCH   6  24
ATOM     24  O   UNL     1      -2.117 -30.258  -6.948  1.00  0.00    -0.507 OA
ATOM     25  H   UNL     1      -2.862 -29.665  -6.617  1.00  0.00     0.293 HD
ENDBRANCH   6  24
BRANCH   8  26
ATOM     26  O   UNL     1       0.908 -31.817 -10.313  1.00  0.00    -0.508 OA
ATOM     27  H   UNL     1       0.374 -32.503 -10.835  1.00  0.00     0.293 HD
ENDBRANCH   8  26
TORSDOF 6
ENDMDL
MODEL 4
REMARK VINA RESULT:    -6.455      1.510      6.575
REMARK INTER + INTRA:          -8.096
REMARK INTER:                  -7.766
REMARK INTRA:                  -0.330
REMARK UNBOUND:                -0.321
REMARK SMILES O=c1c(O)c(-c2ccc(O)c(O)c2)oc2cc(O)cc(O)c12
REMARK SMILES IDX 5 1 3 2 2 3 1 4 22 5 20 6 19 7 17 8 16 9 15 10 14 11 6 12
REMARK SMILES IDX 7 13 8 14 9 15 13 16 11 17 10 18 12 20 4 22 21 24 18 26
REMARK H PARENT 10 19 12 21 4 23 21 25 18 27
REMARK Flexibility Score: inf
ROOT
ATOM      1  C   UNL     1      -0.089 -25.396  -9.309  1.00  0.00     0.180 A 
ATOM      2  C   UNL     1      -1.112 -24.836  -8.524  1.00  0.00     0.208 A 
ATOM      3  C   UNL     1      -1.175 -23.441  -8.381  1.00  0.00     0.238 A 
ATOM      4  O   UNL     1      -2.125 -22.944  -7.722  1.00  0.00    -0.285 OA
ATOM      5  C   UNL     1      -0.205 -22.625  -9.009  1.00  0.00     0.111 A 
ATOM      6  C   UNL     1      -0.148 -21.202  -8.899  1.00  0.00     0.134 A 
ATOM      7  C   UNL     1       0.777 -20.486  -9.669  1.00  0.00     0.093 A 
ATOM      8  C   UNL     1       1.689 -21.143 -10.494  1.00  0.00     0.123 A 
ATOM      9  C   UNL     1       1.681 -22.536 -10.565  1.00  0.00     0.094 A 
ATOM     10  C   UNL     1       0.747 -23.276  -9.836  1.00  0.00     0.146 A 
ATOM     11  O   UNL     1       0.767 -24.600  -9.939  1.00  0.00    -0.452 OA
ENDROOT
BRANCH   1  12
ATOM     12  C   UNL     1       0.057 -26.859  -9.485  1.00  0.00     0.025 A 
ATOM     13  C   UNL     1      -0.558 -27.486 -10.580  1.00  0.00     0.016 A 
ATOM     14  C   UNL     1      -0.418 -28.863 -10.779  1.00  0.00     0.051 A 
ATOM     15  C   UNL     1       0.351 -29.629  -9.898  1.00  0.00     0.157 A 
ATOM     16  C   UNL     1       0.847 -27.628  -8.613  1.00  0.00     0.062 A 
ATOM     17  C   UNL     1       0.991 -29.009  -8.812  1.00  0.00     0.158 A 
BRANCH  15  18
ATOM     18  O   UNL     1       0.471 -31.000 -10.121  1.00  0.00    -0.504 OA
ATOM     19  H   UNL     1       0.723 -31.645  -9.381  1.00  0.00     0.293 HD
ENDBRANCH  15  18
BRANCH  17  20
ATOM     20  O   UNL     1       1.772 -29.765  -7.938  1.00  0.00    -0.504 OA
ATOM     21  H   UNL     1       2.628 -30.214  -8.243  1.00  0.00     0.293 HD
ENDBRANCH  17  20
ENDBRANCH   1  12
BRANCH   2  22
ATOM     22  O   UNL     1      -2.073 -25.660  -7.930  1.00  0.00    -0.502 OA
ATOM     23  H   UNL     1      -1.876 -26.615  -7.657  1.00  0.00     0.293 HD
ENDBRANCH   2  22
BRANCH   6  24
ATOM     24  O   UNL     1      -0.952 -20.454  -8.033  1.00  0.00    -0.507 OA
ATOM     25  H   UNL     1      -1.926 -20.638  -7.851  1.00  0.00     0.293 HD
ENDBRANCH   6  24
BRANCH   8  26
ATOM     26  O   UNL     1       2.605 -20.399 -11.235  1.00  0.00    -0.508 OA
ATOM     27  H   UNL     1       2.598 -19.386 -11.224  1.00  0.00     0.293 HD
ENDBRANCH   8  26
TORSDOF 6
ENDMDL
MODEL 5
REMARK VINA RESULT:    -6.029      1.280      1.587
REMARK INTER + INTRA:          -7.584
REMARK INTER:                  -7.314
REMARK INTRA:                  -0.270
REMARK UNBOUND:                -0.321
REMARK SMILES O=c1c(O)c(-c2ccc(O)c(O)c2)oc2cc(O)cc(O)c12
REMARK SMILES IDX 5 1 3 2 2 3 1 4 22 5 20 6 19 7 17 8 16 9 15 10 14 11 6 12
REMARK SMILES IDX 7 13 8 14 9 15 13 16 11 17 10 18 12 20 4 22 21 24 18 26
REMARK H PARENT 10 19 12 21 4 23 21 25 18 27
REMARK Flexibility Score: inf
ROOT
ATOM      1  C   UNL     1      -0.303 -23.301  -9.373  1.00  0.00     0.180 A 
ATOM      2  C   UNL     1      -1.129 -23.422  -8.242  1.00  0.00     0.208 A 
ATOM      3  C   UNL     1      -1.430 -24.702  -7.750  1.00  0.00     0.238 A 
ATOM      4  O   UNL     1      -2.125 -24.801  -6.707  1.00  0.00    -0.285 OA
ATOM      5  C   UNL     1      -0.914 -25.846  -8.405  1.00  0.00     0.111 A 
ATOM      6  C   UNL     1      -1.187 -27.193  -8.019  1.00  0.00     0.134 A 
ATOM      7  C   UNL     1      -0.518 -28.244  -8.658  1.00  0.00     0.093 A 
ATOM      8  C   UNL     1       0.362 -28.002  -9.712  1.00  0.00     0.123 A 
ATOM      9  C   UNL     1       0.591 -26.693 -10.138  1.00  0.00     0.094 A 
ATOM     10  C   UNL     1      -0.034 -25.621  -9.496  1.00  0.00     0.146 A 
ATOM     11  O   UNL     1       0.219 -24.390  -9.925  1.00  0.00    -0.452 OA
ENDROOT
BRANCH   1  12
ATOM     12  C   UNL     1       0.037 -21.986  -9.963  1.00  0.00     0.025 A 
ATOM     13  C   UNL     1      -0.924 -21.302 -10.723  1.00  0.00     0.016 A 
ATOM     14  C   UNL     1      -0.633 -20.051 -11.272  1.00  0.00     0.051 A 
ATOM     15  C   UNL     1       0.615 -19.457 -11.058  1.00  0.00     0.157 A 
ATOM     16  C   UNL     1       1.284 -21.378  -9.731  1.00  0.00     0.062 A 
ATOM     17  C   UNL     1       1.577 -20.122 -10.280  1.00  0.00     0.158 A 
BRANCH  15  18
ATOM     18  O   UNL     1       0.876 -18.209 -11.621  1.00  0.00    -0.504 OA
ATOM     19  H   UNL     1       1.757 -17.998 -12.076  1.00  0.00     0.293 HD
ENDBRANCH  15  18
BRANCH  17  20
ATOM     20  O   UNL     1       2.819 -19.529 -10.050  1.00  0.00    -0.504 OA
ATOM     21  H   UNL     1       3.631 -20.080  -9.798  1.00  0.00     0.293 HD
ENDBRANCH  17  20
ENDBRANCH   1  12
BRANCH   2  22
ATOM     22  O   UNL     1      -1.610 -22.278  -7.598  1.00  0.00    -0.502 OA
ATOM     23  H   UNL     1      -1.025 -21.701  -7.007  1.00  0.00     0.293 HD
ENDBRANCH   2  22
BRANCH   6  24
ATOM     24  O   UNL     1      -2.119 -27.550  -7.039  1.00  0.00    -0.507 OA
ATOM     25  H   UNL     1      -1.899 -27.715  -6.069  1.00  0.00     0.293 HD
ENDBRANCH   6  24
BRANCH   8  26
ATOM     26  O   UNL     1       0.998 -29.073 -10.336  1.00  0.00    -0.508 OA
ATOM     27  H   UNL     1       1.045 -29.988  -9.902  1.00  0.00     0.293 HD
ENDBRANCH   8  26
TORSDOF 6
ENDMDL
MODEL 6
REMARK VINA RESULT:    -5.638      1.621      6.586
REMARK INTER + INTRA:          -7.112
REMARK INTER:                  -6.847
REMARK INTRA:                  -0.265
REMARK UNBOUND:                -0.321
REMARK SMILES O=c1c(O)c(-c2ccc(O)c(O)c2)oc2cc(O)cc(O)c12
REMARK SMILES IDX 5 1 3 2 2 3 1 4 22 5 20 6 19 7 17 8 16 9 15 10 14 11 6 12
REMARK SMILES IDX 7 13 8 14 9 15 13 16 11 17 10 18 12 20 4 22 21 24 18 26
REMARK H PARENT 10 19 12 21 4 23 21 25 18 27
REMARK Flexibility Score: inf
ROOT
ATOM      1  C   UNL     1      -0.848 -26.468  -9.417  1.00  0.00     0.180 A 
ATOM      2  C   UNL     1      -1.418 -26.140  -8.174  1.00  0.00     0.208 A 
ATOM      3  C   UNL     1      -1.565 -24.787  -7.827  1.00  0.00     0.238 A 
ATOM      4  O   UNL     1      -2.125 -24.501  -6.738  1.00  0.00    -0.285 OA
ATOM      5  C   UNL     1      -1.125 -23.781  -8.720  1.00  0.00     0.111 A 
ATOM      6  C   UNL     1      -1.187 -22.379  -8.454  1.00  0.00     0.134 A 
ATOM      7  C   UNL     1      -0.844 -21.469  -9.462  1.00  0.00     0.093 A 
ATOM      8  C   UNL     1      -0.379 -21.909 -10.701  1.00  0.00     0.123 A 
ATOM      9  C   UNL     1      -0.258 -23.276 -10.951  1.00  0.00     0.094 A 
ATOM     10  C   UNL     1      -0.627 -24.208  -9.978  1.00  0.00     0.146 A 
ATOM     11  O   UNL     1      -0.506 -25.501 -10.259  1.00  0.00    -0.452 OA
ENDROOT
BRANCH   1  12
ATOM     12  C   UNL     1      -0.639 -27.871  -9.841  1.00  0.00     0.025 A 
ATOM     13  C   UNL     1      -1.424 -28.405 -10.875  1.00  0.00     0.016 A 
ATOM     14  C   UNL     1      -1.231 -29.720 -11.305  1.00  0.00     0.051 A 
ATOM     15  C   UNL     1      -0.239 -30.515 -10.723  1.00  0.00     0.157 A 
ATOM     16  C   UNL     1       0.372 -28.666  -9.272  1.00  0.00     0.062 A 
ATOM     17  C   UNL     1       0.570 -29.985  -9.704  1.00  0.00     0.158 A 
BRANCH  15  18
ATOM     18  O   UNL     1      -0.071 -31.824 -11.173  1.00  0.00    -0.504 OA
ATOM     19  H   UNL     1      -0.134 -32.619 -10.548  1.00  0.00     0.293 HD
ENDBRANCH  15  18
BRANCH  17  20
ATOM     20  O   UNL     1       1.569 -30.769  -9.129  1.00  0.00    -0.504 OA
ATOM     21  H   UNL     1       2.547 -30.635  -9.358  1.00  0.00     0.293 HD
ENDBRANCH  17  20
ENDBRANCH   1  12
BRANCH   2  22
ATOM     22  O   UNL     1      -1.866 -27.150  -7.318  1.00  0.00    -0.502 OA
ATOM     23  H   UNL     1      -2.751 -27.624  -7.452  1.00  0.00     0.293 HD
ENDBRANCH   2  22
BRANCH   6  24
ATOM     24  O   UNL     1      -1.549 -21.835  -7.218  1.00  0.00    -0.507 OA
ATOM     25  H   UNL     1      -1.439 -20.866  -6.963  1.00  0.00     0.293 HD
ENDBRANCH   6  24
BRANCH   8  26
ATOM     26  O   UNL     1      -0.032 -20.976 -11.675  1.00  0.00    -0.508 OA
ATOM     27  H   UNL     1      -0.248 -21.125 -12.654  1.00  0.00     0.293 HD
ENDBRANCH   8  26
TORSDOF 6
ENDMDL
MODEL 7
REMARK VINA RESULT:    -5.430      2.096      2.819
REMARK INTER + INTRA:          -6.862
REMARK INTER:                  -6.544
REMARK INTRA:                  -0.319
REMARK UNBOUND:                -0.321
REMARK SMILES O=c1c(O)c(-c2ccc(O)c(O)c2)oc2cc(O)cc(O)c12
REMARK SMILES IDX 5 1 3 2 2 3 1 4 22 5 20 6 19 7 17 8 16 9 15 10 14 11 6 12
REMARK SMILES IDX 7 13 8 14 9 15 13 16 11 17 10 18 12 20 4 22 21 24 18 26
REMARK H PARENT 10 19 12 21 4 23 21 25 18 27
REMARK Flexibility Score: inf
ROOT
ATOM      1  C   UNL     1      -0.797 -25.182  -9.590  1.00  0.00     0.180 A 
ATOM      2  C   UNL     1      -1.315 -25.567 -10.839  1.00  0.00     0.208 A 
ATOM      3  C   UNL     1      -1.611 -26.920 -11.067  1.00  0.00     0.238 A 
ATOM      4  O   UNL     1      -2.125 -27.249 -12.167  1.00  0.00    -0.285 OA
ATOM      5  C   UNL     1      -1.371 -27.874 -10.049  1.00  0.00     0.111 A 
ATOM      6  C   UNL     1      -1.596 -29.277 -10.183  1.00  0.00     0.134 A 
ATOM      7  C   UNL     1      -1.447 -30.111  -9.068  1.00  0.00     0.093 A 
ATOM      8  C   UNL     1      -1.018 -29.604  -7.842  1.00  0.00     0.123 A 
ATOM      9  C   UNL     1      -0.738 -28.243  -7.715  1.00  0.00     0.094 A 
ATOM     10  C   UNL     1      -0.912 -27.380  -8.799  1.00  0.00     0.146 A 
ATOM     11  O   UNL     1      -0.644 -26.090  -8.634  1.00  0.00    -0.452 OA
ENDROOT
BRANCH   1  12
ATOM     12  C   UNL     1      -0.436 -23.778  -9.286  1.00  0.00     0.025 A 
ATOM     13  C   UNL     1      -1.316 -22.989  -8.529  1.00  0.00     0.016 A 
ATOM     14  C   UNL     1      -0.989 -21.668  -8.212  1.00  0.00     0.051 A 
ATOM     15  C   UNL     1       0.229 -21.122  -8.631  1.00  0.00     0.157 A 
ATOM     16  C   UNL     1       0.796 -23.234  -9.687  1.00  0.00     0.062 A 
ATOM     17  C   UNL     1       1.128 -21.909  -9.368  1.00  0.00     0.158 A 
BRANCH  15  18
ATOM     18  O   UNL     1       0.527 -19.800  -8.301  1.00  0.00    -0.504 OA
ATOM     19  H   UNL     1      -0.190 -19.140  -8.026  1.00  0.00     0.293 HD
ENDBRANCH  15  18
BRANCH  17  20
ATOM     20  O   UNL     1       2.350 -21.375  -9.777  1.00  0.00    -0.504 OA
ATOM     21  H   UNL     1       2.407 -20.688 -10.520  1.00  0.00     0.293 HD
ENDBRANCH  17  20
ENDBRANCH   1  12
BRANCH   2  22
ATOM     22  O   UNL     1      -1.564 -24.605 -11.823  1.00  0.00    -0.502 OA
ATOM     23  H   UNL     1      -2.350 -23.969 -11.773  1.00  0.00     0.293 HD
ENDBRANCH   2  22
BRANCH   6  24
ATOM     24  O   UNL     1      -1.937 -29.900 -11.388  1.00  0.00    -0.507 OA
ATOM     25  H   UNL     1      -1.407 -30.638 -11.824  1.00  0.00     0.293 HD
ENDBRANCH   6  24
BRANCH   8  26
ATOM     26  O   UNL     1      -0.866 -30.465  -6.758  1.00  0.00    -0.508 OA
ATOM     27  H   UNL     1      -1.159 -30.199  -5.824  1.00  0.00     0.293 HD
ENDBRANCH   8  26
TORSDOF 6
ENDMDL
MODEL 8
REMARK VINA RESULT:    -5.300      2.982      5.210
REMARK INTER + INTRA:          -6.705
REMARK INTER:                  -6.564
REMARK INTRA:                  -0.141
REMARK UNBOUND:                -0.321
REMARK SMILES O=c1c(O)c(-c2ccc(O)c(O)c2)oc2cc(O)cc(O)c12
REMARK SMILES IDX 5 1 3 2 2 3 1 4 22 5 20 6 19 7 17 8 16 9 15 10 14 11 6 12
REMARK SMILES IDX 7 13 8 14 9 15 13 16 11 17 10 18 12 20 4 22 21 24 18 26
REMARK H PARENT 10 19 12 21 4 23 21 25 18 27
REMARK Flexibility Score: inf
ROOT
ATOM      1  C   UNL     1      -0.550 -29.971  -9.063  1.00  0.00     0.180 A 
ATOM      2  C   UNL     1      -1.311 -30.412  -7.966  1.00  0.00     0.208 A 
ATOM      3  C   UNL     1      -1.342 -31.783  -7.664  1.00  0.00     0.238 A 
ATOM      4  O   UNL     1      -1.980 -32.163  -6.649  1.00  0.00    -0.285 OA
ATOM      5  C   UNL     1      -0.626 -32.697  -8.473  1.00  0.00     0.111 A 
ATOM      6  C   UNL     1      -0.619 -34.112  -8.284  1.00  0.00     0.134 A 
ATOM      7  C   UNL     1       0.229 -34.909  -9.063  1.00  0.00     0.093 A 
ATOM      8  C   UNL     1       1.020 -34.351 -10.067  1.00  0.00     0.123 A 
ATOM      9  C   UNL     1       0.977 -32.976 -10.299  1.00  0.00     0.094 A 
ATOM     10  C   UNL     1       0.169 -32.151  -9.514  1.00  0.00     0.146 A 
ATOM     11  O   UNL     1       0.164 -30.846  -9.762  1.00  0.00    -0.452 OA
ENDROOT
BRANCH   1  12
ATOM     12  C   UNL     1      -0.489 -28.545  -9.457  1.00  0.00     0.025 A 
ATOM     13  C   UNL     1      -1.663 -27.890  -9.859  1.00  0.00     0.016 A 
ATOM     14  C   UNL     1      -1.634 -26.539 -10.215  1.00  0.00     0.051 A 
ATOM     15  C   UNL     1      -0.437 -25.819 -10.160  1.00  0.00     0.157 A 
ATOM     16  C   UNL     1       0.710 -27.814  -9.382  1.00  0.00     0.062 A 
ATOM     17  C   UNL     1       0.741 -26.458  -9.737  1.00  0.00     0.158 A 
BRANCH  15  18
ATOM     18  O   UNL     1      -0.438 -24.473 -10.524  1.00  0.00    -0.504 OA
ATOM     19  H   UNL     1      -0.290 -24.175 -11.481  1.00  0.00     0.293 HD
ENDBRANCH  15  18
BRANCH  17  20
ATOM     20  O   UNL     1       1.936 -25.742  -9.667  1.00  0.00    -0.504 OA
ATOM     21  H   UNL     1       2.187 -25.207  -8.844  1.00  0.00     0.293 HD
ENDBRANCH  17  20
ENDBRANCH   1  12
BRANCH   2  22
ATOM     22  O   UNL     1      -1.993 -29.488  -7.168  1.00  0.00    -0.502 OA
ATOM     23  H   UNL     1      -1.657 -28.545  -7.021  1.00  0.00     0.293 HD
ENDBRANCH   2  22
BRANCH   6  24
ATOM     24  O   UNL     1      -1.440 -34.782  -7.371  1.00  0.00    -0.507 OA
ATOM     25  H   UNL     1      -2.446 -34.816  -7.421  1.00  0.00     0.293 HD
ENDBRANCH   6  24
BRANCH   8  26
ATOM     26  O   UNL     1       1.841 -35.175 -10.833  1.00  0.00    -0.508 OA
ATOM     27  H   UNL     1       2.541 -35.772 -10.406  1.00  0.00     0.293 HD
ENDBRANCH   8  26
TORSDOF 6
ENDMDL
MODEL 9
REMARK VINA RESULT:    -5.241      2.957      8.053
REMARK INTER + INTRA:          -6.634
REMARK INTER:                  -6.304
REMARK INTRA:                  -0.330
REMARK UNBOUND:                -0.321
REMARK SMILES O=c1c(O)c(-c2ccc(O)c(O)c2)oc2cc(O)cc(O)c12
REMARK SMILES IDX 5 1 3 2 2 3 1 4 22 5 20 6 19 7 17 8 16 9 15 10 14 11 6 12
REMARK SMILES IDX 7 13 8 14 9 15 13 16 11 17 10 18 12 20 4 22 21 24 18 26
REMARK H PARENT 10 19 12 21 4 23 21 25 18 27
REMARK Flexibility Score: inf
ROOT
ATOM      1  C   UNL     1      -0.183 -30.896  -9.407  1.00  0.00     0.180 A 
ATOM      2  C   UNL     1      -0.961 -30.969  -8.238  1.00  0.00     0.208 A 
ATOM      3  C   UNL     1      -1.384 -29.779  -7.625  1.00  0.00     0.238 A 
ATOM      4  O   UNL     1      -2.125 -29.852  -6.611  1.00  0.00    -0.285 OA
ATOM      5  C   UNL     1      -1.009 -28.531  -8.178  1.00  0.00     0.111 A 
ATOM      6  C   UNL     1      -1.347 -27.262  -7.617  1.00  0.00     0.134 A 
ATOM      7  C   UNL     1      -1.035 -26.091  -8.320  1.00  0.00     0.093 A 
ATOM      8  C   UNL     1      -0.341 -26.140  -9.528  1.00  0.00     0.123 A 
ATOM      9  C   UNL     1       0.047 -27.372 -10.056  1.00  0.00     0.094 A 
ATOM     10  C   UNL     1      -0.282 -28.559  -9.397  1.00  0.00     0.146 A 
ATOM     11  O   UNL     1       0.096 -29.712  -9.937  1.00  0.00    -0.452 OA
ENDROOT
BRANCH   1  12
ATOM     12  C   UNL     1       0.321 -32.107 -10.095  1.00  0.00     0.025 A 
ATOM     13  C   UNL     1      -0.384 -32.618 -11.195  1.00  0.00     0.016 A 
ATOM     14  C   UNL     1       0.082 -33.748 -11.873  1.00  0.00     0.051 A 
ATOM     15  C   UNL     1       1.268 -34.372 -11.472  1.00  0.00     0.157 A 
ATOM     16  C   UNL     1       1.523 -32.724  -9.707  1.00  0.00     0.062 A 
ATOM     17  C   UNL     1       1.995 -33.856 -10.387  1.00  0.00     0.158 A 
BRANCH  15  18
ATOM     18  O   UNL     1       1.707 -35.499 -12.167  1.00  0.00    -0.504 OA
ATOM     19  H   UNL     1       2.511 -35.471 -12.783  1.00  0.00     0.293 HD
ENDBRANCH  15  18
BRANCH  17  20
ATOM     20  O   UNL     1       3.185 -34.466  -9.991  1.00  0.00    -0.504 OA
ATOM     21  H   UNL     1       3.194 -35.383  -9.561  1.00  0.00     0.293 HD
ENDBRANCH  17  20
ENDBRANCH   1  12
BRANCH   2  22
ATOM     22  O   UNL     1      -1.338 -32.212  -7.721  1.00  0.00    -0.502 OA
ATOM     23  H   UNL     1      -1.936 -32.853  -8.228  1.00  0.00     0.293 HD
ENDBRANCH   2  22
BRANCH   6  24
ATOM     24  O   UNL     1      -1.959 -27.098  -6.371  1.00  0.00    -0.507 OA
ATOM     25  H   UNL     1      -2.599 -26.354  -6.138  1.00  0.00     0.293 HD
ENDBRANCH   6  24
BRANCH   8  26
ATOM     26  O   UNL     1      -0.033 -24.955 -10.192  1.00  0.00    -0.508 OA
ATOM     27  H   UNL     1       0.680 -24.920 -10.911  1.00  0.00     0.293 HD
ENDBRANCH   8  26
TORSDOF 6
ENDMDL
