MODEL 1
REMARK VINA RESULT:    -8.575      0.000      0.000
REMARK INTER + INTRA:         -10.107
REMARK INTER:                 -10.079
REMARK INTRA:                  -0.027
REMARK UNBOUND:                -0.027
REMARK SMILES O=c1c(O)c(-c2ccc(O)cc2)oc2cc(O)cc(O)c12
REMARK SMILES IDX 5 1 3 2 2 3 1 4 21 5 19 6 18 7 16 8 15 9 14 10 13 11 6 12
REMARK SMILES IDX 7 13 8 14 9 15 12 16 11 17 10 18 4 20 20 22 17 24
REMARK H PARENT 10 19 4 21 20 23 17 25
REMARK Flexibility Score: inf
ROOT
ATOM      1  C   UNL     1      16.956  25.293   0.067  1.00  0.00     0.180 A 
ATOM      2  C   UNL     1      18.255  25.245  -0.468  1.00  0.00     0.208 A 
ATOM      3  C   UNL     1      19.027  26.418  -0.488  1.00  0.00     0.238 A 
ATOM      4  O   UNL     1      20.159  26.386  -1.036  1.00  0.00    -0.285 OA
ATOM      5  C   UNL     1      18.514  27.610   0.079  1.00  0.00     0.111 A 
ATOM      6  C   UNL     1      19.226  28.846   0.154  1.00  0.00     0.134 A 
ATOM      7  C   UNL     1      18.577  29.987   0.641  1.00  0.00     0.093 A 
ATOM      8  C   UNL     1      17.264  29.924   1.113  1.00  0.00     0.123 A 
ATOM      9  C   UNL     1      16.581  28.712   1.095  1.00  0.00     0.094 A 
ATOM     10  C   UNL     1      17.186  27.564   0.581  1.00  0.00     0.146 A 
ATOM     11  O   UNL     1      16.490  26.434   0.562  1.00  0.00    -0.452 OA
ENDROOT
BRANCH   1  12
ATOM     12  C   UNL     1      16.076  24.103   0.110  1.00  0.00     0.021 A 
ATOM     13  C   UNL     1      16.510  22.947   0.779  1.00  0.00     0.016 A 
ATOM     14  C   UNL     1      15.686  21.819   0.852  1.00  0.00     0.047 A 
ATOM     15  C   UNL     1      14.413  21.839   0.268  1.00  0.00     0.115 A 
ATOM     16  C   UNL     1      14.789  24.123  -0.457  1.00  0.00     0.016 A 
ATOM     17  C   UNL     1      13.967  22.994  -0.382  1.00  0.00     0.047 A 
BRANCH  15  18
ATOM     18  O   UNL     1      13.584  20.722   0.333  1.00  0.00    -0.508 OA
ATOM     19  H   UNL     1      13.042  20.511   1.162  1.00  0.00     0.293 HD
ENDBRANCH  15  18
ENDBRANCH   1  12
BRANCH   2  20
ATOM     20  O   UNL     1      18.773  24.041  -0.953  1.00  0.00    -0.502 OA
ATOM     21  H   UNL     1      18.495  23.649  -1.844  1.00  0.00     0.293 HD
ENDBRANCH   2  20
BRANCH   6  22
ATOM     22  O   UNL     1      20.567  29.000  -0.208  1.00  0.00    -0.507 OA
ATOM     23  H   UNL     1      21.282  29.400   0.380  1.00  0.00     0.293 HD
ENDBRANCH   6  22
BRANCH   8  24
ATOM     24  O   UNL     1      16.632  31.062   1.612  1.00  0.00    -0.508 OA
ATOM     25  H   UNL     1      16.878  31.990   1.288  1.00  0.00     0.293 HD
ENDBRANCH   8  24
TORSDOF 5
ENDMDL
MODEL 2
REMARK VINA RESULT:    -8.318      1.740      7.022
REMARK INTER + INTRA:          -9.804
REMARK INTER:                  -9.782
REMARK INTRA:                  -0.023
REMARK UNBOUND:                -0.027
REMARK SMILES O=c1c(O)c(-c2ccc(O)cc2)oc2cc(O)cc(O)c12
REMARK SMILES IDX 5 1 3 2 2 3 1 4 21 5 19 6 18 7 16 8 15 9 14 10 13 11 6 12
REMARK SMILES IDX 7 13 8 14 9 15 12 16 11 17 10 18 4 20 20 22 17 24
REMARK H PARENT 10 19 4 21 20 23 17 25
REMARK Flexibility Score: inf
ROOT
ATOM      1  C   UNL     1      16.995  26.906   0.233  1.00  0.00     0.180 A 
ATOM      2  C   UNL     1      15.693  27.015  -0.283  1.00  0.00     0.208 A 
ATOM      3  C   UNL     1      14.932  25.849  -0.463  1.00  0.00     0.238 A 
ATOM      4  O   UNL     1      13.796  25.946  -0.996  1.00  0.00    -0.285 OA
ATOM      5  C   UNL     1      15.461  24.594  -0.073  1.00  0.00     0.111 A 
ATOM      6  C   UNL     1      14.762  23.352  -0.169  1.00  0.00     0.134 A 
ATOM      7  C   UNL     1      15.426  22.161   0.149  1.00  0.00     0.093 A 
ATOM      8  C   UNL     1      16.741  22.172   0.618  1.00  0.00     0.123 A 
ATOM      9  C   UNL     1      17.412  23.382   0.767  1.00  0.00     0.094 A 
ATOM     10  C   UNL     1      16.791  24.584   0.423  1.00  0.00     0.146 A 
ATOM     11  O   UNL     1      17.476  25.713   0.561  1.00  0.00    -0.452 OA
ENDROOT
BRANCH   1  12
ATOM     12  C   UNL     1      17.863  28.088   0.439  1.00  0.00     0.021 A 
ATOM     13  C   UNL     1      17.421  29.136   1.263  1.00  0.00     0.016 A 
ATOM     14  C   UNL     1      18.233  30.251   1.489  1.00  0.00     0.047 A 
ATOM     15  C   UNL     1      19.505  30.325   0.905  1.00  0.00     0.115 A 
ATOM     16  C   UNL     1      19.149  28.160  -0.128  1.00  0.00     0.016 A 
ATOM     17  C   UNL     1      19.960  29.277   0.101  1.00  0.00     0.047 A 
BRANCH  15  18
ATOM     18  O   UNL     1      20.322  31.432   1.123  1.00  0.00    -0.508 OA
ATOM     19  H   UNL     1      21.330  31.344   1.175  1.00  0.00     0.293 HD
ENDBRANCH  15  18
ENDBRANCH   1  12
BRANCH   2  20
ATOM     20  O   UNL     1      15.159  28.270  -0.591  1.00  0.00    -0.502 OA
ATOM     21  H   UNL     1      14.208  28.529  -0.359  1.00  0.00     0.293 HD
ENDBRANCH   2  20
BRANCH   6  22
ATOM     22  O   UNL     1      13.420  23.236  -0.542  1.00  0.00    -0.507 OA
ATOM     23  H   UNL     1      12.644  23.177   0.100  1.00  0.00     0.293 HD
ENDBRANCH   6  22
BRANCH   8  24
ATOM     24  O   UNL     1      17.387  20.982   0.949  1.00  0.00    -0.508 OA
ATOM     25  H   UNL     1      17.367  20.611   1.892  1.00  0.00     0.293 HD
ENDBRANCH   8  24
TORSDOF 5
ENDMDL
MODEL 3
REMARK VINA RESULT:    -7.259      1.510      3.148
REMARK INTER + INTRA:          -8.560
REMARK INTER:                  -8.267
REMARK INTRA:                  -0.292
REMARK UNBOUND:                -0.027
REMARK SMILES O=c1c(O)c(-c2ccc(O)cc2)oc2cc(O)cc(O)c12
REMARK SMILES IDX 5 1 3 2 2 3 1 4 21 5 19 6 18 7 16 8 15 9 14 10 13 11 6 12
REMARK SMILES IDX 7 13 8 14 9 15 12 16 11 17 10 18 4 20 20 22 17 24
REMARK H PARENT 10 19 4 21 20 23 17 25
REMARK Flexibility Score: inf
ROOT
ATOM      1  C   UNL     1      16.802  24.936   0.299  1.00  0.00     0.180 A 
ATOM      2  C   UNL     1      16.766  25.906   1.314  1.00  0.00     0.208 A 
ATOM      3  C   UNL     1      17.635  27.007   1.235  1.00  0.00     0.238 A 
ATOM      4  O   UNL     1      17.651  27.832   2.185  1.00  0.00    -0.285 OA
ATOM      5  C   UNL     1      18.488  27.153   0.115  1.00  0.00     0.111 A 
ATOM      6  C   UNL     1      19.377  28.252  -0.092  1.00  0.00     0.134 A 
ATOM      7  C   UNL     1      20.250  28.236  -1.187  1.00  0.00     0.093 A 
ATOM      8  C   UNL     1      20.223  27.194  -2.116  1.00  0.00     0.123 A 
ATOM      9  C   UNL     1      19.322  26.146  -1.953  1.00  0.00     0.094 A 
ATOM     10  C   UNL     1      18.464  26.113  -0.852  1.00  0.00     0.146 A 
ATOM     11  O   UNL     1      17.636  25.084  -0.724  1.00  0.00    -0.452 OA
ENDROOT
BRANCH   1  12
ATOM     12  C   UNL     1      15.928  23.740   0.319  1.00  0.00     0.021 A 
ATOM     13  C   UNL     1      14.659  23.802  -0.280  1.00  0.00     0.016 A 
ATOM     14  C   UNL     1      13.826  22.679  -0.293  1.00  0.00     0.047 A 
ATOM     15  C   UNL     1      14.259  21.476   0.280  1.00  0.00     0.115 A 
ATOM     16  C   UNL     1      16.363  22.524   0.875  1.00  0.00     0.016 A 
ATOM     17  C   UNL     1      15.529  21.401   0.860  1.00  0.00     0.047 A 
BRANCH  15  18
ATOM     18  O   UNL     1      13.437  20.351   0.275  1.00  0.00    -0.508 OA
ATOM     19  H   UNL     1      12.457  20.409   0.524  1.00  0.00     0.293 HD
ENDBRANCH  15  18
ENDBRANCH   1  12
BRANCH   2  20
ATOM     20  O   UNL     1      15.863  25.784   2.374  1.00  0.00    -0.502 OA
ATOM     21  H   UNL     1      15.181  26.499   2.593  1.00  0.00     0.293 HD
ENDBRANCH   2  20
BRANCH   6  22
ATOM     22  O   UNL     1      19.425  29.385   0.725  1.00  0.00    -0.507 OA
ATOM     23  H   UNL     1      19.466  29.370   1.732  1.00  0.00     0.293 HD
ENDBRANCH   6  22
BRANCH   8  24
ATOM     24  O   UNL     1      21.085  27.196  -3.211  1.00  0.00    -0.508 OA
ATOM     25  H   UNL     1      21.690  26.408  -3.412  1.00  0.00     0.293 HD
ENDBRANCH   8  24
TORSDOF 5
ENDMDL
MODEL 4
REMARK VINA RESULT:    -7.112      4.470      5.955
REMARK INTER + INTRA:          -8.387
REMARK INTER:                  -8.093
REMARK INTRA:                  -0.293
REMARK UNBOUND:                -0.027
REMARK SMILES O=c1c(O)c(-c2ccc(O)cc2)oc2cc(O)cc(O)c12
REMARK SMILES IDX 5 1 3 2 2 3 1 4 21 5 19 6 18 7 16 8 15 9 14 10 13 11 6 12
REMARK SMILES IDX 7 13 8 14 9 15 12 16 11 17 10 18 4 20 20 22 17 24
REMARK H PARENT 10 19 4 21 20 23 17 25
REMARK Flexibility Score: inf
ROOT
ATOM      1  C   UNL     1      17.229  26.598  -2.534  1.00  0.00     0.180 A 
ATOM      2  C   UNL     1      18.453  26.594  -3.222  1.00  0.00     0.208 A 
ATOM      3  C   UNL     1      18.445  26.621  -4.626  1.00  0.00     0.238 A 
ATOM      4  O   UNL     1      19.542  26.541  -5.238  1.00  0.00    -0.285 OA
ATOM      5  C   UNL     1      17.215  26.708  -5.323  1.00  0.00     0.111 A 
ATOM      6  C   UNL     1      17.088  26.787  -6.743  1.00  0.00     0.134 A 
ATOM      7  C   UNL     1      15.815  26.763  -7.325  1.00  0.00     0.093 A 
ATOM      8  C   UNL     1      14.663  26.726  -6.537  1.00  0.00     0.123 A 
ATOM      9  C   UNL     1      14.775  26.705  -5.150  1.00  0.00     0.094 A 
ATOM     10  C   UNL     1      16.030  26.690  -4.540  1.00  0.00     0.146 A 
ATOM     11  O   UNL     1      16.090  26.648  -3.215  1.00  0.00    -0.452 OA
ENDROOT
BRANCH   1  12
ATOM     12  C   UNL     1      17.155  26.556  -1.055  1.00  0.00     0.021 A 
ATOM     13  C   UNL     1      16.982  27.751  -0.337  1.00  0.00     0.016 A 
ATOM     14  C   UNL     1      16.887  27.733   1.058  1.00  0.00     0.047 A 
ATOM     15  C   UNL     1      16.950  26.517   1.751  1.00  0.00     0.115 A 
ATOM     16  C   UNL     1      17.198  25.337  -0.353  1.00  0.00     0.016 A 
ATOM     17  C   UNL     1      17.102  25.322   1.042  1.00  0.00     0.047 A 
BRANCH  15  18
ATOM     18  O   UNL     1      16.858  26.487   3.141  1.00  0.00    -0.508 OA
ATOM     19  H   UNL     1      15.971  26.349   3.610  1.00  0.00     0.293 HD
ENDBRANCH  15  18
ENDBRANCH   1  12
BRANCH   2  20
ATOM     20  O   UNL     1      19.659  26.585  -2.516  1.00  0.00    -0.502 OA
ATOM     21  H   UNL     1      20.158  25.730  -2.301  1.00  0.00     0.293 HD
ENDBRANCH   2  20
BRANCH   6  22
ATOM     22  O   UNL     1      18.171  26.916  -7.619  1.00  0.00    -0.507 OA
ATOM     23  H   UNL     1      19.090  27.238  -7.359  1.00  0.00     0.293 HD
ENDBRANCH   6  22
BRANCH   8  24
ATOM     24  O   UNL     1      13.400  26.720  -7.126  1.00  0.00    -0.508 OA
ATOM     25  H   UNL     1      12.952  27.576  -7.431  1.00  0.00     0.293 HD
ENDBRANCH   8  24
TORSDOF 5
ENDMDL
MODEL 5
REMARK VINA RESULT:    -6.991      4.371      6.141
REMARK INTER + INTRA:          -8.244
REMARK INTER:                  -7.958
REMARK INTRA:                  -0.286
REMARK UNBOUND:                -0.027
REMARK SMILES O=c1c(O)c(-c2ccc(O)cc2)oc2cc(O)cc(O)c12
REMARK SMILES IDX 5 1 3 2 2 3 1 4 21 5 19 6 18 7 16 8 15 9 14 10 13 11 6 12
REMARK SMILES IDX 7 13 8 14 9 15 12 16 11 17 10 18 4 20 20 22 17 24
REMARK H PARENT 10 19 4 21 20 23 17 25
REMARK Flexibility Score: inf
ROOT
ATOM      1  C   UNL     1      17.048  26.586  -2.540  1.00  0.00     0.180 A 
ATOM      2  C   UNL     1      15.877  26.576  -3.316  1.00  0.00     0.208 A 
ATOM      3  C   UNL     1      15.984  26.700  -4.711  1.00  0.00     0.238 A 
ATOM      4  O   UNL     1      14.928  26.766  -5.393  1.00  0.00    -0.285 OA
ATOM      5  C   UNL     1      17.261  26.775  -5.317  1.00  0.00     0.111 A 
ATOM      6  C   UNL     1      17.490  26.858  -6.724  1.00  0.00     0.134 A 
ATOM      7  C   UNL     1      18.794  27.034  -7.202  1.00  0.00     0.093 A 
ATOM      8  C   UNL     1      19.884  27.068  -6.329  1.00  0.00     0.123 A 
ATOM      9  C   UNL     1      19.676  26.933  -4.960  1.00  0.00     0.094 A 
ATOM     10  C   UNL     1      18.385  26.794  -4.448  1.00  0.00     0.146 A 
ATOM     11  O   UNL     1      18.232  26.690  -3.134  1.00  0.00    -0.452 OA
ENDROOT
BRANCH   1  12
ATOM     12  C   UNL     1      17.017  26.475  -1.064  1.00  0.00     0.021 A 
ATOM     13  C   UNL     1      16.831  27.631  -0.287  1.00  0.00     0.016 A 
ATOM     14  C   UNL     1      16.775  27.546   1.107  1.00  0.00     0.047 A 
ATOM     15  C   UNL     1      16.889  26.303   1.742  1.00  0.00     0.115 A 
ATOM     16  C   UNL     1      17.111  25.227  -0.420  1.00  0.00     0.016 A 
ATOM     17  C   UNL     1      17.054  25.146   0.975  1.00  0.00     0.047 A 
BRANCH  15  18
ATOM     18  O   UNL     1      16.836  26.207   3.131  1.00  0.00    -0.508 OA
ATOM     19  H   UNL     1      16.363  25.438   3.591  1.00  0.00     0.293 HD
ENDBRANCH  15  18
ENDBRANCH   1  12
BRANCH   2  20
ATOM     20  O   UNL     1      14.629  26.424  -2.706  1.00  0.00    -0.502 OA
ATOM     21  H   UNL     1      13.759  26.500  -3.220  1.00  0.00     0.293 HD
ENDBRANCH   2  20
BRANCH   6  22
ATOM     22  O   UNL     1      16.484  26.747  -7.689  1.00  0.00    -0.507 OA
ATOM     23  H   UNL     1      16.006  27.524  -8.118  1.00  0.00     0.293 HD
ENDBRANCH   6  22
BRANCH   8  24
ATOM     24  O   UNL     1      21.180  27.227  -6.816  1.00  0.00    -0.508 OA
ATOM     25  H   UNL     1      21.578  26.579  -7.487  1.00  0.00     0.293 HD
ENDBRANCH   8  24
TORSDOF 5
ENDMDL
MODEL 6
REMARK VINA RESULT:    -6.939      3.359      5.317
REMARK INTER + INTRA:          -8.183
REMARK INTER:                  -7.943
REMARK INTRA:                  -0.240
REMARK UNBOUND:                -0.027
REMARK SMILES O=c1c(O)c(-c2ccc(O)cc2)oc2cc(O)cc(O)c12
REMARK SMILES IDX 5 1 3 2 2 3 1 4 21 5 19 6 18 7 16 8 15 9 14 10 13 11 6 12
REMARK SMILES IDX 7 13 8 14 9 15 12 16 11 17 10 18 4 20 20 22 17 24
REMARK H PARENT 10 19 4 21 20 23 17 25
REMARK Flexibility Score: inf
ROOT
ATOM      1  C   UNL     1      18.031  26.163  -2.592  1.00  0.00     0.180 A 
ATOM      2  C   UNL     1      18.161  25.068  -1.722  1.00  0.00     0.208 A 
ATOM      3  C   UNL     1      17.734  25.202  -0.391  1.00  0.00     0.238 A 
ATOM      4  O   UNL     1      17.922  24.243   0.403  1.00  0.00    -0.285 OA
ATOM      5  C   UNL     1      17.131  26.409   0.039  1.00  0.00     0.111 A 
ATOM      6  C   UNL     1      16.620  26.640   1.353  1.00  0.00     0.134 A 
ATOM      7  C   UNL     1      16.141  27.911   1.693  1.00  0.00     0.093 A 
ATOM      8  C   UNL     1      16.096  28.940   0.751  1.00  0.00     0.123 A 
ATOM      9  C   UNL     1      16.540  28.709  -0.548  1.00  0.00     0.094 A 
ATOM     10  C   UNL     1      17.058  27.464  -0.908  1.00  0.00     0.146 A 
ATOM     11  O   UNL     1      17.491  27.294  -2.152  1.00  0.00    -0.452 OA
ENDROOT
BRANCH   1  12
ATOM     12  C   UNL     1      18.472  26.105  -4.005  1.00  0.00     0.021 A 
ATOM     13  C   UNL     1      17.669  25.447  -4.952  1.00  0.00     0.016 A 
ATOM     14  C   UNL     1      18.054  25.399  -6.295  1.00  0.00     0.047 A 
ATOM     15  C   UNL     1      19.239  26.021  -6.710  1.00  0.00     0.115 A 
ATOM     16  C   UNL     1      19.650  26.744  -4.432  1.00  0.00     0.016 A 
ATOM     17  C   UNL     1      20.032  26.695  -5.777  1.00  0.00     0.047 A 
BRANCH  15  18
ATOM     18  O   UNL     1      19.633  25.978  -8.046  1.00  0.00    -0.508 OA
ATOM     19  H   UNL     1      20.056  25.150  -8.447  1.00  0.00     0.293 HD
ENDBRANCH  15  18
ENDBRANCH   1  12
BRANCH   2  20
ATOM     20  O   UNL     1      18.688  23.859  -2.184  1.00  0.00    -0.502 OA
ATOM     21  H   UNL     1      18.979  23.118  -1.559  1.00  0.00     0.293 HD
ENDBRANCH   2  20
BRANCH   6  22
ATOM     22  O   UNL     1      16.537  25.658   2.345  1.00  0.00    -0.507 OA
ATOM     23  H   UNL     1      15.915  24.864   2.321  1.00  0.00     0.293 HD
ENDBRANCH   6  22
BRANCH   8  24
ATOM     24  O   UNL     1      15.601  30.197   1.095  1.00  0.00    -0.508 OA
ATOM     25  H   UNL     1      14.612  30.354   1.250  1.00  0.00     0.293 HD
ENDBRANCH   8  24
TORSDOF 5
ENDMDL
MODEL 7
REMARK VINA RESULT:    -6.620     10.280     11.737
REMARK INTER + INTRA:          -7.808
REMARK INTER:                  -7.551
REMARK INTRA:                  -0.257
REMARK UNBOUND:                -0.027
REMARK SMILES O=c1c(O)c(-c2ccc(O)cc2)oc2cc(O)cc(O)c12
REMARK SMILES IDX 5 1 3 2 2 3 1 4 21 5 19 6 18 7 16 8 15 9 14 10 13 11 6 12
REMARK SMILES IDX 7 13 8 14 9 15 12 16 11 17 10 18 4 20 20 22 17 24
REMARK H PARENT 10 19 4 21 20 23 17 25
REMARK Flexibility Score: inf
ROOT
ATOM      1  C   UNL     1      12.315  26.596  -8.581  1.00  0.00     0.180 A 
ATOM      2  C   UNL     1      11.225  25.710  -8.625  1.00  0.00     0.208 A 
ATOM      3  C   UNL     1      10.016  26.148  -9.187  1.00  0.00     0.238 A 
ATOM      4  O   UNL     1       9.021  25.377  -9.155  1.00  0.00    -0.285 OA
ATOM      5  C   UNL     1       9.927  27.444  -9.750  1.00  0.00     0.111 A 
ATOM      6  C   UNL     1       8.764  27.977 -10.386  1.00  0.00     0.134 A 
ATOM      7  C   UNL     1       8.760  29.310 -10.812  1.00  0.00     0.093 A 
ATOM      8  C   UNL     1       9.896  30.112 -10.681  1.00  0.00     0.123 A 
ATOM      9  C   UNL     1      11.052  29.586 -10.113  1.00  0.00     0.094 A 
ATOM     10  C   UNL     1      11.076  28.271  -9.644  1.00  0.00     0.146 A 
ATOM     11  O   UNL     1      12.193  27.817  -9.088  1.00  0.00    -0.452 OA
ENDROOT
BRANCH   1  12
ATOM     12  C   UNL     1      13.619  26.213  -7.991  1.00  0.00     0.021 A 
ATOM     13  C   UNL     1      14.522  25.448  -8.748  1.00  0.00     0.016 A 
ATOM     14  C   UNL     1      15.768  25.095  -8.219  1.00  0.00     0.047 A 
ATOM     15  C   UNL     1      16.131  25.515  -6.934  1.00  0.00     0.115 A 
ATOM     16  C   UNL     1      13.999  26.649  -6.709  1.00  0.00     0.016 A 
ATOM     17  C   UNL     1      15.246  26.294  -6.183  1.00  0.00     0.047 A 
BRANCH  15  18
ATOM     18  O   UNL     1      17.369  25.168  -6.397  1.00  0.00    -0.508 OA
ATOM     19  H   UNL     1      18.050  25.872  -6.137  1.00  0.00     0.293 HD
ENDBRANCH  15  18
ENDBRANCH   1  12
BRANCH   2  20
ATOM     20  O   UNL     1      11.355  24.409  -8.133  1.00  0.00    -0.502 OA
ATOM     21  H   UNL     1      10.555  23.822  -7.930  1.00  0.00     0.293 HD
ENDBRANCH   2  20
BRANCH   6  22
ATOM     22  O   UNL     1       7.606  27.237 -10.647  1.00  0.00    -0.507 OA
ATOM     23  H   UNL     1       6.664  27.576 -10.526  1.00  0.00     0.293 HD
ENDBRANCH   6  22
BRANCH   8  24
ATOM     24  O   UNL     1       9.888  31.434 -11.124  1.00  0.00    -0.508 OA
ATOM     25  H   UNL     1      10.641  32.073 -10.899  1.00  0.00     0.293 HD
ENDBRANCH   8  24
TORSDOF 5
ENDMDL
MODEL 8
REMARK VINA RESULT:    -6.603      6.972      8.192
REMARK INTER + INTRA:          -7.789
REMARK INTER:                  -7.504
REMARK INTRA:                  -0.285
REMARK UNBOUND:                -0.027
REMARK SMILES O=c1c(O)c(-c2ccc(O)cc2)oc2cc(O)cc(O)c12
REMARK SMILES IDX 5 1 3 2 2 3 1 4 21 5 19 6 18 7 16 8 15 9 14 10 13 11 6 12
REMARK SMILES IDX 7 13 8 14 9 15 12 16 11 17 10 18 4 20 20 22 17 24
REMARK H PARENT 10 19 4 21 20 23 17 25
REMARK Flexibility Score: inf
ROOT
ATOM      1  C   UNL     1      15.271  26.714  -6.619  1.00  0.00     0.180 A 
ATOM      2  C   UNL     1      15.221  26.703  -5.215  1.00  0.00     0.208 A 
ATOM      3  C   UNL     1      16.424  26.678  -4.491  1.00  0.00     0.238 A 
ATOM      4  O   UNL     1      16.372  26.591  -3.236  1.00  0.00    -0.285 OA
ATOM      5  C   UNL     1      17.661  26.721  -5.177  1.00  0.00     0.111 A 
ATOM      6  C   UNL     1      18.942  26.745  -4.545  1.00  0.00     0.134 A 
ATOM      7  C   UNL     1      20.100  26.681  -5.329  1.00  0.00     0.093 A 
ATOM      8  C   UNL     1      20.027  26.656  -6.723  1.00  0.00     0.123 A 
ATOM      9  C   UNL     1      18.785  26.688  -7.350  1.00  0.00     0.094 A 
ATOM     10  C   UNL     1      17.610  26.714  -6.596  1.00  0.00     0.146 A 
ATOM     11  O   UNL     1      16.447  26.722  -7.236  1.00  0.00    -0.452 OA
ENDROOT
BRANCH   1  12
ATOM     12  C   UNL     1      14.046  26.726  -7.451  1.00  0.00     0.021 A 
ATOM     13  C   UNL     1      13.439  27.952  -7.771  1.00  0.00     0.016 A 
ATOM     14  C   UNL     1      12.296  27.989  -8.574  1.00  0.00     0.047 A 
ATOM     15  C   UNL     1      11.753  26.800  -9.081  1.00  0.00     0.115 A 
ATOM     16  C   UNL     1      13.508  25.539  -7.980  1.00  0.00     0.016 A 
ATOM     17  C   UNL     1      12.364  25.578  -8.784  1.00  0.00     0.047 A 
BRANCH  15  18
ATOM     18  O   UNL     1      10.614  26.825  -9.881  1.00  0.00    -0.508 OA
ATOM     19  H   UNL     1      10.621  27.249 -10.801  1.00  0.00     0.293 HD
ENDBRANCH  15  18
ENDBRANCH   1  12
BRANCH   2  20
ATOM     20  O   UNL     1      13.990  26.737  -4.553  1.00  0.00    -0.502 OA
ATOM     21  H   UNL     1      13.118  26.920  -5.034  1.00  0.00     0.293 HD
ENDBRANCH   2  20
BRANCH   6  22
ATOM     22  O   UNL     1      19.131  26.857  -3.164  1.00  0.00    -0.507 OA
ATOM     23  H   UNL     1      18.570  27.425  -2.548  1.00  0.00     0.293 HD
ENDBRANCH   6  22
BRANCH   8  24
ATOM     24  O   UNL     1      21.186  26.609  -7.495  1.00  0.00    -0.508 OA
ATOM     25  H   UNL     1      21.457  27.382  -8.093  1.00  0.00     0.293 HD
ENDBRANCH   8  24
TORSDOF 5
ENDMDL
MODEL 9
REMARK VINA RESULT:    -6.562      6.937      9.246
REMARK INTER + INTRA:          -7.740
REMARK INTER:                  -7.462
REMARK INTRA:                  -0.279
REMARK UNBOUND:                -0.027
REMARK SMILES O=c1c(O)c(-c2ccc(O)cc2)oc2cc(O)cc(O)c12
REMARK SMILES IDX 5 1 3 2 2 3 1 4 21 5 19 6 18 7 16 8 15 9 14 10 13 11 6 12
REMARK SMILES IDX 7 13 8 14 9 15 12 16 11 17 10 18 4 20 20 22 17 24
REMARK H PARENT 10 19 4 21 20 23 17 25
REMARK Flexibility Score: inf
ROOT
ATOM      1  C   UNL     1      19.390  27.096  -6.686  1.00  0.00     0.180 A 
ATOM      2  C   UNL     1      19.342  26.811  -5.311  1.00  0.00     0.208 A 
ATOM      3  C   UNL     1      18.092  26.720  -4.679  1.00  0.00     0.238 A 
ATOM      4  O   UNL     1      18.057  26.539  -3.433  1.00  0.00    -0.285 OA
ATOM      5  C   UNL     1      16.904  26.859  -5.438  1.00  0.00     0.111 A 
ATOM      6  C   UNL     1      15.582  26.742  -4.909  1.00  0.00     0.134 A 
ATOM      7  C   UNL     1      14.483  27.005  -5.735  1.00  0.00     0.093 A 
ATOM      8  C   UNL     1      14.655  27.319  -7.085  1.00  0.00     0.123 A 
ATOM      9  C   UNL     1      15.937  27.382  -7.623  1.00  0.00     0.094 A 
ATOM     10  C   UNL     1      17.055  27.162  -6.817  1.00  0.00     0.146 A 
ATOM     11  O   UNL     1      18.260  27.254  -7.367  1.00  0.00    -0.452 OA
ENDROOT
BRANCH   1  12
ATOM     12  C   UNL     1      20.669  27.222  -7.421  1.00  0.00     0.021 A 
ATOM     13  C   UNL     1      21.302  26.067  -7.911  1.00  0.00     0.016 A 
ATOM     14  C   UNL     1      22.499  26.164  -8.627  1.00  0.00     0.047 A 
ATOM     15  C   UNL     1      23.070  27.419  -8.875  1.00  0.00     0.115 A 
ATOM     16  C   UNL     1      21.238  28.480  -7.692  1.00  0.00     0.016 A 
ATOM     17  C   UNL     1      22.436  28.574  -8.409  1.00  0.00     0.047 A 
BRANCH  15  18
ATOM     18  O   UNL     1      24.263  27.527  -9.587  1.00  0.00    -0.508 OA
ATOM     19  H   UNL     1      24.757  26.708  -9.920  1.00  0.00     0.293 HD
ENDBRANCH  15  18
ENDBRANCH   1  12
BRANCH   2  20
ATOM     20  O   UNL     1      20.522  26.600  -4.594  1.00  0.00    -0.502 OA
ATOM     21  H   UNL     1      20.609  26.826  -3.610  1.00  0.00     0.293 HD
ENDBRANCH   2  20
BRANCH   6  22
ATOM     22  O   UNL     1      15.296  26.348  -3.599  1.00  0.00    -0.507 OA
ATOM     23  H   UNL     1      15.737  25.580  -3.116  1.00  0.00     0.293 HD
ENDBRANCH   6  22
BRANCH   8  24
ATOM     24  O   UNL     1      13.553  27.562  -7.904  1.00  0.00    -0.508 OA
ATOM     25  H   UNL     1      12.684  27.925  -7.530  1.00  0.00     0.293 HD
ENDBRANCH   8  24
TORSDOF 5
ENDMDL
