MODEL 1
REMARK VINA RESULT:    -4.005      0.000      0.000
REMARK INTER + INTRA:          -5.689
REMARK INTER:                  -5.175
REMARK INTRA:                  -0.514
REMARK UNBOUND:                -0.514
REMARK SMILES C=CC(=O)CCCCC
REMARK SMILES IDX 6 1 7 2 8 3 9 4 5 5 3 6 4 7 2 8 1 9
REMARK H PARENT
REMARK Flexibility Score: inf
ROOT
ATOM      1  C   UNL     1      17.424  -9.876  67.537  1.00  0.00     0.008 C 
ENDROOT
BRANCH   1   2
ATOM      2  C   UNL     1      17.289 -10.339  66.079  1.00  0.00     0.000 C 
BRANCH   2   3
ATOM      3  C   UNL     1      16.954 -11.833  66.006  1.00  0.00    -0.003 C 
ATOM      4  C   UNL     1      18.219 -12.676  65.876  1.00  0.00     0.004 C 
ENDBRANCH   2   3
ENDBRANCH   1   2
BRANCH   1   5
ATOM      5  C   UNL     1      18.864  -9.482  67.893  1.00  0.00     0.080 C 
BRANCH   5   6
ATOM      6  C   UNL     1      19.324 -10.136  69.165  1.00  0.00     0.155 C 
ATOM      7  O   UNL     1      19.387  -9.450  70.221  1.00  0.00    -0.295 OA
BRANCH   6   8
ATOM      8  C   UNL     1      19.725 -11.557  69.169  1.00  0.00     0.039 C 
ATOM      9  C   UNL     1      18.910 -12.528  69.574  1.00  0.00     0.012 C 
ENDBRANCH   6   8
ENDBRANCH   5   6
ENDBRANCH   1   5
TORSDOF 5
ENDMDL
MODEL 2
REMARK VINA RESULT:    -3.855      1.051      1.454
REMARK INTER + INTRA:          -5.496
REMARK INTER:                  -5.158
REMARK INTRA:                  -0.338
REMARK UNBOUND:                -0.514
REMARK SMILES C=CC(=O)CCCCC
REMARK SMILES IDX 6 1 7 2 8 3 9 4 5 5 3 6 4 7 2 8 1 9
REMARK H PARENT
REMARK Flexibility Score: inf
ROOT
ATOM      1  C   UNL     1      17.428 -10.084  67.480  1.00  0.00     0.008 C 
ENDROOT
BRANCH   1   2
ATOM      2  C   UNL     1      17.309 -10.092  65.949  1.00  0.00     0.000 C 
BRANCH   2   3
ATOM      3  C   UNL     1      18.645 -10.467  65.297  1.00  0.00    -0.003 C 
ATOM      4  C   UNL     1      18.996  -9.503  64.167  1.00  0.00     0.004 C 
ENDBRANCH   2   3
ENDBRANCH   1   2
BRANCH   1   5
ATOM      5  C   UNL     1      18.742  -9.452  67.959  1.00  0.00     0.080 C 
BRANCH   5   6
ATOM      6  C   UNL     1      19.286 -10.149  69.175  1.00  0.00     0.155 C 
ATOM      7  O   UNL     1      19.354  -9.520  70.266  1.00  0.00    -0.295 OA
BRANCH   6   8
ATOM      8  C   UNL     1      19.762 -11.543  69.082  1.00  0.00     0.039 C 
ATOM      9  C   UNL     1      19.109 -12.560  69.642  1.00  0.00     0.012 C 
ENDBRANCH   6   8
ENDBRANCH   5   6
ENDBRANCH   1   5
TORSDOF 5
ENDMDL
MODEL 3
REMARK VINA RESULT:    -3.653      1.231      2.159
REMARK INTER + INTRA:          -5.234
REMARK INTER:                  -4.693
REMARK INTRA:                  -0.541
REMARK UNBOUND:                -0.514
REMARK SMILES C=CC(=O)CCCCC
REMARK SMILES IDX 6 1 7 2 8 3 9 4 5 5 3 6 4 7 2 8 1 9
REMARK H PARENT
REMARK Flexibility Score: inf
ROOT
ATOM      1  C   UNL     1      19.635 -11.193  66.872  1.00  0.00     0.008 C 
ENDROOT
BRANCH   1   2
ATOM      2  C   UNL     1      18.433 -12.059  66.468  1.00  0.00     0.000 C 
BRANCH   2   3
ATOM      3  C   UNL     1      17.113 -11.382  66.856  1.00  0.00    -0.003 C 
ATOM      4  C   UNL     1      17.342  -9.938  67.292  1.00  0.00     0.004 C 
ENDBRANCH   2   3
ENDBRANCH   1   2
BRANCH   1   5
ATOM      5  C   UNL     1      20.522 -11.878  67.919  1.00  0.00     0.080 C 
BRANCH   5   6
ATOM      6  C   UNL     1      19.862 -11.920  69.269  1.00  0.00     0.155 C 
ATOM      7  O   UNL     1      19.694 -10.845  69.906  1.00  0.00    -0.295 OA
BRANCH   6   8
ATOM      8  C   UNL     1      19.445 -13.210  69.853  1.00  0.00     0.039 C 
ATOM      9  C   UNL     1      18.223 -13.410  70.345  1.00  0.00     0.012 C 
ENDBRANCH   6   8
ENDBRANCH   5   6
ENDBRANCH   1   5
TORSDOF 5
ENDMDL
MODEL 4
REMARK VINA RESULT:    -3.639     15.692     17.380
REMARK INTER + INTRA:          -5.216
REMARK INTER:                  -4.630
REMARK INTRA:                  -0.586
REMARK UNBOUND:                -0.514
REMARK SMILES C=CC(=O)CCCCC
REMARK SMILES IDX 6 1 7 2 8 3 9 4 5 5 3 6 4 7 2 8 1 9
REMARK H PARENT
REMARK Flexibility Score: inf
ROOT
ATOM      1  C   UNL     1       6.824  -7.804  54.060  1.00  0.00     0.008 C 
ENDROOT
BRANCH   1   2
ATOM      2  C   UNL     1       7.001  -7.155  55.440  1.00  0.00     0.000 C 
BRANCH   2   3
ATOM      3  C   UNL     1       5.736  -7.319  56.290  1.00  0.00    -0.003 C 
ATOM      4  C   UNL     1       6.032  -8.085  57.576  1.00  0.00     0.004 C 
ENDBRANCH   2   3
ENDBRANCH   1   2
BRANCH   1   5
ATOM      5  C   UNL     1       7.723  -9.034  53.876  1.00  0.00     0.080 C 
BRANCH   5   6
ATOM      6  C   UNL     1       7.198 -10.228  54.623  1.00  0.00     0.155 C 
ATOM      7  O   UNL     1       6.086 -10.722  54.290  1.00  0.00    -0.295 OA
BRANCH   6   8
ATOM      8  C   UNL     1       7.963 -10.794  55.752  1.00  0.00     0.039 C 
ATOM      9  C   UNL     1       9.182 -10.367  56.074  1.00  0.00     0.012 C 
ENDBRANCH   6   8
ENDBRANCH   5   6
ENDBRANCH   1   5
TORSDOF 5
ENDMDL
MODEL 5
REMARK VINA RESULT:    -3.618     16.206     17.446
REMARK INTER + INTRA:          -5.189
REMARK INTER:                  -4.842
REMARK INTRA:                  -0.347
REMARK UNBOUND:                -0.514
REMARK SMILES C=CC(=O)CCCCC
REMARK SMILES IDX 6 1 7 2 8 3 9 4 5 5 3 6 4 7 2 8 1 9
REMARK H PARENT
REMARK Flexibility Score: inf
ROOT
ATOM      1  C   UNL     1       6.776  -7.129  55.592  1.00  0.00     0.008 C 
ENDROOT
BRANCH   1   2
ATOM      2  C   UNL     1       5.433  -7.249  56.328  1.00  0.00     0.000 C 
BRANCH   2   3
ATOM      3  C   UNL     1       5.642  -7.301  57.846  1.00  0.00    -0.003 C 
ATOM      4  C   UNL     1       6.344  -8.590  58.262  1.00  0.00     0.004 C 
ENDBRANCH   2   3
ENDBRANCH   1   2
BRANCH   1   5
ATOM      5  C   UNL     1       6.779  -7.884  54.256  1.00  0.00     0.080 C 
BRANCH   5   6
ATOM      6  C   UNL     1       7.194  -9.319  54.426  1.00  0.00     0.155 C 
ATOM      7  O   UNL     1       6.315 -10.222  54.390  1.00  0.00    -0.295 OA
BRANCH   6   8
ATOM      8  C   UNL     1       8.611  -9.660  54.663  1.00  0.00     0.039 C 
ATOM      9  C   UNL     1       9.608  -9.047  54.028  1.00  0.00     0.012 C 
ENDBRANCH   6   8
ENDBRANCH   5   6
ENDBRANCH   1   5
TORSDOF 5
ENDMDL
MODEL 6
REMARK VINA RESULT:    -3.573      1.934      2.370
REMARK INTER + INTRA:          -5.131
REMARK INTER:                  -4.675
REMARK INTRA:                  -0.456
REMARK UNBOUND:                -0.514
REMARK SMILES C=CC(=O)CCCCC
REMARK SMILES IDX 6 1 7 2 8 3 9 4 5 5 3 6 4 7 2 8 1 9
REMARK H PARENT
REMARK Flexibility Score: inf
ROOT
ATOM      1  C   UNL     1      18.938 -10.309  66.703  1.00  0.00     0.008 C 
ENDROOT
BRANCH   1   2
ATOM      2  C   UNL     1      19.955  -9.461  65.926  1.00  0.00     0.000 C 
BRANCH   2   3
ATOM      3  C   UNL     1      21.069 -10.338  65.342  1.00  0.00    -0.003 C 
ATOM      4  C   UNL     1      21.932 -10.941  66.447  1.00  0.00     0.004 C 
ENDBRANCH   2   3
ENDBRANCH   1   2
BRANCH   1   5
ATOM      5  C   UNL     1      18.474  -9.624  67.996  1.00  0.00     0.080 C 
BRANCH   5   6
ATOM      6  C   UNL     1      19.077 -10.263  69.215  1.00  0.00     0.155 C 
ATOM      7  O   UNL     1      19.506  -9.529  70.146  1.00  0.00    -0.295 OA
BRANCH   6   8
ATOM      8  C   UNL     1      19.192 -11.732  69.304  1.00  0.00     0.039 C 
ATOM      9  C   UNL     1      20.357 -12.347  69.500  1.00  0.00     0.012 C 
ENDBRANCH   6   8
ENDBRANCH   5   6
ENDBRANCH   1   5
TORSDOF 5
ENDMDL
MODEL 7
REMARK VINA RESULT:    -3.528      1.218      1.589
REMARK INTER + INTRA:          -5.073
REMARK INTER:                  -4.552
REMARK INTRA:                  -0.520
REMARK UNBOUND:                -0.514
REMARK SMILES C=CC(=O)CCCCC
REMARK SMILES IDX 6 1 7 2 8 3 9 4 5 5 3 6 4 7 2 8 1 9
REMARK H PARENT
REMARK Flexibility Score: inf
ROOT
ATOM      1  C   UNL     1      17.350 -10.594  67.328  1.00  0.00     0.008 C 
ENDROOT
BRANCH   1   2
ATOM      2  C   UNL     1      17.020 -10.232  65.872  1.00  0.00     0.000 C 
BRANCH   2   3
ATOM      3  C   UNL     1      17.157 -11.455  64.958  1.00  0.00    -0.003 C 
ATOM      4  C   UNL     1      17.892 -12.591  65.665  1.00  0.00     0.004 C 
ENDBRANCH   2   3
ENDBRANCH   1   2
BRANCH   1   5
ATOM      5  C   UNL     1      18.351  -9.617  67.959  1.00  0.00     0.080 C 
BRANCH   5   6
ATOM      6  C   UNL     1      19.480 -10.337  68.642  1.00  0.00     0.155 C 
ATOM      7  O   UNL     1      19.561 -10.299  69.900  1.00  0.00    -0.295 OA
BRANCH   6   8
ATOM      8  C   UNL     1      20.496 -11.053  67.846  1.00  0.00     0.039 C 
ATOM      9  C   UNL     1      21.043 -10.530  66.750  1.00  0.00     0.012 C 
ENDBRANCH   6   8
ENDBRANCH   5   6
ENDBRANCH   1   5
TORSDOF 5
ENDMDL
MODEL 8
REMARK VINA RESULT:    -3.469      3.147      4.797
REMARK INTER + INTRA:          -4.997
REMARK INTER:                  -4.400
REMARK INTRA:                  -0.597
REMARK UNBOUND:                -0.514
REMARK SMILES C=CC(=O)CCCCC
REMARK SMILES IDX 6 1 7 2 8 3 9 4 5 5 3 6 4 7 2 8 1 9
REMARK H PARENT
REMARK Flexibility Score: inf
ROOT
ATOM      1  C   UNL     1      16.156 -11.184  65.665  1.00  0.00     0.008 C 
ENDROOT
BRANCH   1   2
ATOM      2  C   UNL     1      17.225 -11.212  66.768  1.00  0.00     0.000 C 
BRANCH   2   3
ATOM      3  C   UNL     1      17.362  -9.839  67.434  1.00  0.00    -0.003 C 
ATOM      4  C   UNL     1      18.796  -9.591  67.895  1.00  0.00     0.004 C 
ENDBRANCH   2   3
ENDBRANCH   1   2
BRANCH   1   5
ATOM      5  C   UNL     1      16.437 -10.107  64.609  1.00  0.00     0.080 C 
BRANCH   5   6
ATOM      6  C   UNL     1      17.588 -10.483  63.719  1.00  0.00     0.155 C 
ATOM      7  O   UNL     1      17.509 -11.529  63.019  1.00  0.00    -0.295 OA
BRANCH   6   8
ATOM      8  C   UNL     1      18.808  -9.651  63.688  1.00  0.00     0.039 C 
ATOM      9  C   UNL     1      19.918  -9.988  64.341  1.00  0.00     0.012 C 
ENDBRANCH   6   8
ENDBRANCH   5   6
ENDBRANCH   1   5
TORSDOF 5
ENDMDL
MODEL 9
REMARK VINA RESULT:    -3.465      2.258      2.922
REMARK INTER + INTRA:          -4.992
REMARK INTER:                  -4.722
REMARK INTRA:                  -0.270
REMARK UNBOUND:                -0.514
REMARK SMILES C=CC(=O)CCCCC
REMARK SMILES IDX 6 1 7 2 8 3 9 4 5 5 3 6 4 7 2 8 1 9
REMARK H PARENT
REMARK Flexibility Score: inf
ROOT
ATOM      1  C   UNL     1      16.769 -11.823  67.275  1.00  0.00     0.008 C 
ENDROOT
BRANCH   1   2
ATOM      2  C   UNL     1      17.502 -10.499  67.012  1.00  0.00     0.000 C 
BRANCH   2   3
ATOM      3  C   UNL     1      17.082  -9.898  65.666  1.00  0.00    -0.003 C 
ATOM      4  C   UNL     1      16.057 -10.782  64.963  1.00  0.00     0.004 C 
ENDBRANCH   2   3
ENDBRANCH   1   2
BRANCH   1   5
ATOM      5  C   UNL     1      17.733 -12.960  67.640  1.00  0.00     0.080 C 
BRANCH   5   6
ATOM      6  C   UNL     1      17.612 -13.353  69.085  1.00  0.00     0.155 C 
ATOM      7  O   UNL     1      16.467 -13.552  69.575  1.00  0.00    -0.295 OA
BRANCH   6   8
ATOM      8  C   UNL     1      18.819 -13.476  69.927  1.00  0.00     0.039 C 
ATOM      9  C   UNL     1      19.917 -12.755  69.710  1.00  0.00     0.012 C 
ENDBRANCH   6   8
ENDBRANCH   5   6
ENDBRANCH   1   5
TORSDOF 5
ENDMDL
