MODEL 1
REMARK VINA RESULT:    -5.424      0.000      0.000
REMARK INTER + INTRA:          -8.196
REMARK INTER:                  -8.278
REMARK INTRA:                   0.081
REMARK UNBOUND:                 0.081
REMARK SMILES CC1=CCC[C@@H](C)C(=O)C[C@H](C(C)C)C(=O)C1
REMARK SMILES IDX 8 1 9 2 6 3 7 4 5 5 4 6 3 7 2 8 1 9 10 11 11 12 15 13 16 14
REMARK SMILES IDX 17 15 12 17 13 18 14 19
REMARK H PARENT
REMARK Flexibility Score: 70.00
ROOT
ATOM      1  C   UNL     1     -13.111 -40.408  37.792  1.00  0.00     0.136 C 
ATOM      2  O   UNL     1     -13.897 -40.829  36.956  1.00  0.00    -0.299 OA
ENDROOT
BRANCH   1   3
ATOM      3  C   UNL     1     -12.731 -41.276  38.970  1.00  0.00     0.053 C 
ATOM      4  C   UNL     1     -12.419 -42.710  38.526  1.00  0.00     0.016 C 
BRANCH   3   5
ATOM      5  C   UNL     1     -13.875 -41.240  40.014  1.00  0.00     0.015 C 
BRANCH   5   6
ATOM      6  C   UNL     1     -13.501 -40.677  41.400  1.00  0.00     0.028 C 
BRANCH   6   7
ATOM      7  C   UNL     1     -12.076 -40.202  41.586  1.00  0.00    -0.028 C 
ATOM      8  C   UNL     1     -11.634 -38.922  41.555  1.00  0.00    -0.070 CG0
ATOM      9  C   UNL     1     -10.179 -38.674  41.871  1.00  0.00     0.039 C 
ATOM     10  G   UNL     1     -12.491 -37.734  41.152  1.00  0.00     0.000 G0
ENDBRANCH   6   7
ENDBRANCH   5   6
ENDBRANCH   3   5
ENDBRANCH   1   3
BRANCH   1  11
ATOM     11  C   UNL     1     -12.599 -38.992  37.678  1.00  0.00     0.087 C 
BRANCH  11  12
ATOM     12  C   UNL     1     -13.343 -38.016  38.643  1.00  0.00     0.066 C 
BRANCH  12  13
ATOM     13  C   UNL     1     -12.351 -37.457  39.656  1.00  0.00     0.140 C 
ATOM     14  O   UNL     1     -11.457 -36.721  39.262  1.00  0.00    -0.299 OA
BRANCH  13  15
ATOM     15  C   UNL     1     -12.481 -37.721  41.143  1.00  0.00     0.106 CG0
ATOM     16  G   UNL     1     -11.644 -38.918  41.557  1.00  0.00     0.000 G0
ENDBRANCH  13  15
ENDBRANCH  12  13
BRANCH  12  17
ATOM     17  C   UNL     1     -14.065 -36.862  37.871  1.00  0.00    -0.006 C 
ATOM     18  C   UNL     1     -14.532 -35.743  38.824  1.00  0.00     0.008 C 
ATOM     19  C   UNL     1     -13.158 -36.229  36.796  1.00  0.00     0.008 C 
ENDBRANCH  12  17
ENDBRANCH  11  12
ENDBRANCH   1  11
TORSDOF 1
ENDMDL
MODEL 2
REMARK VINA RESULT:    -5.244      2.170      5.071
REMARK INTER + INTRA:          -7.922
REMARK INTER:                  -8.153
REMARK INTRA:                   0.230
REMARK UNBOUND:                 0.081
REMARK SMILES CC1=CCC[C@@H](C)C(=O)C[C@H](C(C)C)C(=O)C1
REMARK SMILES IDX 8 1 9 2 6 3 7 4 5 5 4 6 3 7 2 8 1 9 10 11 11 12 15 13 16 14
REMARK SMILES IDX 17 15 12 17 13 18 14 19
REMARK H PARENT
REMARK Flexibility Score: 70.00
ROOT
ATOM      1  C   UNL     1     -14.373 -36.415  39.973  1.00  0.00     0.136 C 
ATOM      2  O   UNL     1     -15.530 -36.434  40.367  1.00  0.00    -0.299 OA
ENDROOT
BRANCH   1   3
ATOM      3  C   UNL     1     -13.972 -35.467  38.865  1.00  0.00     0.053 C 
ATOM      4  C   UNL     1     -14.642 -34.099  39.036  1.00  0.00     0.016 C 
BRANCH   3   5
ATOM      5  C   UNL     1     -14.325 -36.108  37.500  1.00  0.00     0.015 C 
BRANCH   5   6
ATOM      6  C   UNL     1     -13.192 -36.127  36.455  1.00  0.00     0.028 C 
BRANCH   6   7
ATOM      7  C   UNL     1     -11.781 -35.937  36.968  1.00  0.00    -0.028 C 
ATOM      8  C   UNL     1     -10.943 -36.900  37.421  1.00  0.00    -0.070 CG0
ATOM      9  C   UNL     1      -9.537 -36.491  37.788  1.00  0.00     0.039 C 
ATOM     10  G   UNL     1     -11.349 -38.345  37.650  1.00  0.00     0.000 G0
ENDBRANCH   6   7
ENDBRANCH   5   6
ENDBRANCH   3   5
ENDBRANCH   1   3
BRANCH   1  11
ATOM     11  C   UNL     1     -13.382 -37.402  40.544  1.00  0.00     0.087 C 
BRANCH  11  12
ATOM     12  C   UNL     1     -13.148 -38.618  39.594  1.00  0.00     0.066 C 
BRANCH  12  13
ATOM     13  C   UNL     1     -11.707 -38.599  39.098  1.00  0.00     0.140 C 
ATOM     14  O   UNL     1     -10.808 -38.854  39.888  1.00  0.00    -0.299 OA
BRANCH  13  15
ATOM     15  C   UNL     1     -11.357 -38.351  37.644  1.00  0.00     0.106 CG0
ATOM     16  G   UNL     1     -10.934 -36.908  37.426  1.00  0.00     0.000 G0
ENDBRANCH  13  15
ENDBRANCH  12  13
BRANCH  12  17
ATOM     17  C   UNL     1     -13.483 -39.980  40.289  1.00  0.00    -0.006 C 
ATOM     18  C   UNL     1     -12.945 -41.179  39.482  1.00  0.00     0.008 C 
ATOM     19  C   UNL     1     -12.901 -40.061  41.714  1.00  0.00     0.008 C 
ENDBRANCH  12  17
ENDBRANCH  11  12
ENDBRANCH   1  11
TORSDOF 1
ENDMDL
MODEL 3
REMARK VINA RESULT:    -5.181      1.965      3.996
REMARK INTER + INTRA:          -7.826
REMARK INTER:                  -7.600
REMARK INTRA:                  -0.226
REMARK UNBOUND:                 0.081
REMARK SMILES CC1=CCC[C@@H](C)C(=O)C[C@H](C(C)C)C(=O)C1
REMARK SMILES IDX 8 1 9 2 6 3 7 4 5 5 4 6 3 7 2 8 1 9 10 11 11 12 15 13 16 14
REMARK SMILES IDX 17 15 12 17 13 18 14 19
REMARK H PARENT
REMARK Flexibility Score: 70.00
ROOT
ATOM      1  C   UNL     1     -13.184 -40.772  37.849  1.00  0.00     0.136 C 
ATOM      2  O   UNL     1     -12.836 -41.942  37.925  1.00  0.00    -0.299 OA
ENDROOT
BRANCH   1   3
ATOM      3  C   UNL     1     -13.404 -40.141  36.493  1.00  0.00     0.053 C 
ATOM      4  C   UNL     1     -13.840 -41.185  35.459  1.00  0.00     0.016 C 
BRANCH   3   5
ATOM      5  C   UNL     1     -12.107 -39.414  36.058  1.00  0.00     0.015 C 
BRANCH   5   6
ATOM      6  C   UNL     1     -12.028 -37.915  36.407  1.00  0.00     0.028 C 
BRANCH   6   7
ATOM      7  C   UNL     1     -10.792 -37.447  37.147  1.00  0.00    -0.028 C 
ATOM      8  C   UNL     1     -10.666 -37.256  38.482  1.00  0.00    -0.070 CG0
ATOM      9  C   UNL     1      -9.303 -36.883  39.011  1.00  0.00     0.039 C 
ATOM     10  G   UNL     1     -11.821 -37.324  39.466  1.00  0.00     0.000 G0
ENDBRANCH   6   7
ENDBRANCH   5   6
ENDBRANCH   3   5
ENDBRANCH   1   3
BRANCH   1  11
ATOM     11  C   UNL     1     -13.306 -39.953  39.113  1.00  0.00     0.087 C 
BRANCH  11  12
ATOM     12  C   UNL     1     -11.978 -39.934  39.933  1.00  0.00     0.066 C 
BRANCH  12  13
ATOM     13  C   UNL     1     -11.700 -38.512  40.405  1.00  0.00     0.140 C 
ATOM     14  O   UNL     1     -11.311 -38.337  41.552  1.00  0.00    -0.299 OA
BRANCH  13  15
ATOM     15  C   UNL     1     -11.816 -37.317  39.480  1.00  0.00     0.106 CG0
ATOM     16  G   UNL     1     -10.672 -37.291  38.481  1.00  0.00     0.000 G0
ENDBRANCH  13  15
ENDBRANCH  12  13
BRANCH  12  17
ATOM     17  C   UNL     1     -12.019 -40.928  41.141  1.00  0.00    -0.006 C 
ATOM     18  C   UNL     1     -13.466 -41.290  41.533  1.00  0.00     0.008 C 
ATOM     19  C   UNL     1     -11.263 -42.238  40.838  1.00  0.00     0.008 C 
ENDBRANCH  12  17
ENDBRANCH  11  12
ENDBRANCH   1  11
TORSDOF 1
ENDMDL
MODEL 4
REMARK VINA RESULT:    -5.116      1.725      4.254
REMARK INTER + INTRA:          -7.727
REMARK INTER:                  -7.785
REMARK INTRA:                   0.058
REMARK UNBOUND:                 0.081
REMARK SMILES CC1=CCC[C@@H](C)C(=O)C[C@H](C(C)C)C(=O)C1
REMARK SMILES IDX 8 1 9 2 6 3 7 4 5 5 4 6 3 7 2 8 1 9 10 11 11 12 15 13 16 14
REMARK SMILES IDX 17 15 12 17 13 18 14 19
REMARK H PARENT
REMARK Flexibility Score: 70.00
ROOT
ATOM      1  C   UNL     1     -12.379 -39.156  36.661  1.00  0.00     0.136 C 
ATOM      2  O   UNL     1     -11.990 -40.013  35.882  1.00  0.00    -0.299 OA
ENDROOT
BRANCH   1   3
ATOM      3  C   UNL     1     -11.866 -37.739  36.538  1.00  0.00     0.053 C 
ATOM      4  C   UNL     1     -10.681 -37.494  37.479  1.00  0.00     0.016 C 
BRANCH   3   5
ATOM      5  C   UNL     1     -13.029 -36.755  36.816  1.00  0.00     0.015 C 
BRANCH   5   6
ATOM      6  C   UNL     1     -12.843 -35.823  38.031  1.00  0.00     0.028 C 
BRANCH   6   7
ATOM      7  C   UNL     1     -13.766 -36.040  39.210  1.00  0.00    -0.028 C 
ATOM      8  C   UNL     1     -13.550 -36.850  40.275  1.00  0.00    -0.070 CG0
ATOM      9  C   UNL     1     -14.568 -36.830  41.389  1.00  0.00     0.039 C 
ATOM     10  G   UNL     1     -12.391 -37.826  40.383  1.00  0.00     0.000 G0
ENDBRANCH   6   7
ENDBRANCH   5   6
ENDBRANCH   3   5
ENDBRANCH   1   3
BRANCH   1  11
ATOM     11  C   UNL     1     -13.303 -39.548  37.791  1.00  0.00     0.087 C 
BRANCH  11  12
ATOM     12  C   UNL     1     -12.524 -40.110  39.021  1.00  0.00     0.066 C 
BRANCH  12  13
ATOM     13  C   UNL     1     -12.854 -39.273  40.251  1.00  0.00     0.140 C 
ATOM     14  O   UNL     1     -13.465 -39.794  41.173  1.00  0.00    -0.299 OA
BRANCH  13  15
ATOM     15  C   UNL     1     -12.383 -37.839  40.401  1.00  0.00     0.106 CG0
ATOM     16  G   UNL     1     -13.546 -36.871  40.281  1.00  0.00     0.000 G0
ENDBRANCH  13  15
ENDBRANCH  12  13
BRANCH  12  17
ATOM     17  C   UNL     1     -12.836 -41.623  39.274  1.00  0.00    -0.006 C 
ATOM     18  C   UNL     1     -13.179 -42.360  37.963  1.00  0.00     0.008 C 
ATOM     19  C   UNL     1     -11.652 -42.355  39.939  1.00  0.00     0.008 C 
ENDBRANCH  12  17
ENDBRANCH  11  12
ENDBRANCH   1  11
TORSDOF 1
ENDMDL
MODEL 5
REMARK VINA RESULT:    -5.006      1.806      4.104
REMARK INTER + INTRA:          -7.558
REMARK INTER:                  -7.158
REMARK INTRA:                  -0.400
REMARK UNBOUND:                 0.081
REMARK SMILES CC1=CCC[C@@H](C)C(=O)C[C@H](C(C)C)C(=O)C1
REMARK SMILES IDX 8 1 9 2 6 3 7 4 5 5 4 6 3 7 2 8 1 9 10 11 11 12 15 13 16 14
REMARK SMILES IDX 17 15 12 17 13 18 14 19
REMARK H PARENT
REMARK Flexibility Score: 70.00
ROOT
ATOM      1  C   UNL     1     -12.010 -37.825  37.861  1.00  0.00     0.136 C 
ATOM      2  O   UNL     1     -11.642 -38.069  36.722  1.00  0.00    -0.299 OA
ENDROOT
BRANCH   1   3
ATOM      3  C   UNL     1     -11.333 -36.728  38.651  1.00  0.00     0.053 C 
ATOM      4  C   UNL     1     -11.578 -35.355  38.015  1.00  0.00     0.016 C 
BRANCH   3   5
ATOM      5  C   UNL     1      -9.821 -37.043  38.760  1.00  0.00     0.015 C 
BRANCH   5   6
ATOM      6  C   UNL     1      -9.408 -37.951  39.935  1.00  0.00     0.028 C 
BRANCH   6   7
ATOM      7  C   UNL     1     -10.223 -37.843  41.206  1.00  0.00    -0.028 C 
ATOM      8  C   UNL     1     -10.950 -38.824  41.793  1.00  0.00    -0.070 CG0
ATOM      9  C   UNL     1     -11.601 -38.516  43.119  1.00  0.00     0.039 C 
ATOM     10  G   UNL     1     -11.208 -40.184  41.168  1.00  0.00     0.000 G0
ENDBRANCH   6   7
ENDBRANCH   5   6
ENDBRANCH   3   5
ENDBRANCH   1   3
BRANCH   1  11
ATOM     11  C   UNL     1     -13.081 -38.684  38.493  1.00  0.00     0.087 C 
BRANCH  11  12
ATOM     12  C   UNL     1     -12.551 -40.102  38.874  1.00  0.00     0.066 C 
BRANCH  12  13
ATOM     13  C   UNL     1     -12.507 -40.231  40.391  1.00  0.00     0.140 C 
ATOM     14  O   UNL     1     -13.552 -40.425  40.997  1.00  0.00    -0.299 OA
BRANCH  13  15
ATOM     15  C   UNL     1     -11.205 -40.204  41.166  1.00  0.00     0.106 CG0
ATOM     16  G   UNL     1     -10.975 -38.841  41.795  1.00  0.00     0.000 G0
ENDBRANCH  13  15
ENDBRANCH  12  13
BRANCH  12  17
ATOM     17  C   UNL     1     -13.415 -41.242  38.239  1.00  0.00    -0.006 C 
ATOM     18  C   UNL     1     -13.742 -40.953  36.760  1.00  0.00     0.008 C 
ATOM     19  C   UNL     1     -12.710 -42.612  38.315  1.00  0.00     0.008 C 
ENDBRANCH  12  17
ENDBRANCH  11  12
ENDBRANCH   1  11
TORSDOF 1
ENDMDL
MODEL 6
REMARK VINA RESULT:    -4.999      2.111      3.926
REMARK INTER + INTRA:          -7.548
REMARK INTER:                  -7.372
REMARK INTRA:                  -0.176
REMARK UNBOUND:                 0.081
REMARK SMILES CC1=CCC[C@@H](C)C(=O)C[C@H](C(C)C)C(=O)C1
REMARK SMILES IDX 8 1 9 2 6 3 7 4 5 5 4 6 3 7 2 8 1 9 10 11 11 12 15 13 16 14
REMARK SMILES IDX 17 15 12 17 13 18 14 19
REMARK H PARENT
REMARK Flexibility Score: 70.00
ROOT
ATOM      1  C   UNL     1     -13.886 -36.101  37.373  1.00  0.00     0.136 C 
ATOM      2  O   UNL     1     -13.525 -35.432  36.416  1.00  0.00    -0.299 OA
ENDROOT
BRANCH   1   3
ATOM      3  C   UNL     1     -14.745 -35.474  38.446  1.00  0.00     0.053 C 
ATOM      4  C   UNL     1     -14.110 -34.186  38.983  1.00  0.00     0.016 C 
BRANCH   3   5
ATOM      5  C   UNL     1     -14.978 -36.508  39.576  1.00  0.00     0.015 C 
BRANCH   5   6
ATOM      6  C   UNL     1     -14.116 -36.326  40.841  1.00  0.00     0.028 C 
BRANCH   6   7
ATOM      7  C   UNL     1     -13.784 -37.573  41.631  1.00  0.00    -0.028 C 
ATOM      8  C   UNL     1     -12.628 -38.279  41.592  1.00  0.00    -0.070 CG0
ATOM      9  C   UNL     1     -12.481 -39.436  42.549  1.00  0.00     0.039 C 
ATOM     10  G   UNL     1     -11.507 -38.023  40.601  1.00  0.00     0.000 G0
ENDBRANCH   6   7
ENDBRANCH   5   6
ENDBRANCH   3   5
ENDBRANCH   1   3
BRANCH   1  11
ATOM     11  C   UNL     1     -13.395 -37.524  37.508  1.00  0.00     0.087 C 
BRANCH  11  12
ATOM     12  C   UNL     1     -11.921 -37.592  38.018  1.00  0.00     0.066 C 
BRANCH  12  13
ATOM     13  C   UNL     1     -11.846 -38.533  39.215  1.00  0.00     0.140 C 
ATOM     14  O   UNL     1     -12.016 -39.731  39.035  1.00  0.00    -0.299 OA
BRANCH  13  15
ATOM     15  C   UNL     1     -11.492 -38.043  40.605  1.00  0.00     0.106 CG0
ATOM     16  G   UNL     1     -12.637 -38.286  41.574  1.00  0.00     0.000 G0
ENDBRANCH  13  15
ENDBRANCH  12  13
BRANCH  12  17
ATOM     17  C   UNL     1     -10.929 -38.038  36.892  1.00  0.00    -0.006 C 
ATOM     18  C   UNL     1     -11.654 -38.798  35.763  1.00  0.00     0.008 C 
ATOM     19  C   UNL     1     -10.190 -36.839  36.264  1.00  0.00     0.008 C 
ENDBRANCH  12  17
ENDBRANCH  11  12
ENDBRANCH   1  11
TORSDOF 1
ENDMDL
MODEL 7
REMARK VINA RESULT:    -4.994      2.268      5.116
REMARK INTER + INTRA:          -7.540
REMARK INTER:                  -7.612
REMARK INTRA:                   0.072
REMARK UNBOUND:                 0.081
REMARK SMILES CC1=CCC[C@@H](C)C(=O)C[C@H](C(C)C)C(=O)C1
REMARK SMILES IDX 8 1 9 2 6 3 7 4 5 5 4 6 3 7 2 8 1 9 10 11 11 12 15 13 16 14
REMARK SMILES IDX 17 15 12 17 13 18 14 19
REMARK H PARENT
REMARK Flexibility Score: 70.00
ROOT
ATOM      1  C   UNL     1     -10.506 -37.206  38.269  1.00  0.00     0.136 C 
ATOM      2  O   UNL     1     -10.004 -36.376  39.013  1.00  0.00    -0.299 OA
ENDROOT
BRANCH   1   3
ATOM      3  C   UNL     1     -10.225 -37.151  36.784  1.00  0.00     0.053 C 
ATOM      4  C   UNL     1      -8.769 -36.756  36.510  1.00  0.00     0.016 C 
BRANCH   3   5
ATOM      5  C   UNL     1     -11.217 -36.166  36.118  1.00  0.00     0.015 C 
BRANCH   5   6
ATOM      6  C   UNL     1     -12.712 -36.511  36.273  1.00  0.00     0.028 C 
BRANCH   6   7
ATOM      7  C   UNL     1     -13.537 -35.607  37.163  1.00  0.00    -0.028 C 
ATOM      8  C   UNL     1     -14.120 -35.935  38.341  1.00  0.00    -0.070 CG0
ATOM      9  C   UNL     1     -14.811 -34.837  39.111  1.00  0.00     0.039 C 
ATOM     10  G   UNL     1     -14.185 -37.347  38.895  1.00  0.00     0.000 G0
ENDBRANCH   6   7
ENDBRANCH   5   6
ENDBRANCH   3   5
ENDBRANCH   1   3
BRANCH   1  11
ATOM     11  C   UNL     1     -11.470 -38.222  38.836  1.00  0.00     0.087 C 
BRANCH  11  12
ATOM     12  C   UNL     1     -11.971 -37.828  40.261  1.00  0.00     0.066 C 
BRANCH  12  13
ATOM     13  C   UNL     1     -13.457 -37.498  40.198  1.00  0.00     0.140 C 
ATOM     14  O   UNL     1     -14.057 -37.276  41.241  1.00  0.00    -0.299 OA
BRANCH  13  15
ATOM     15  C   UNL     1     -14.198 -37.362  38.883  1.00  0.00     0.106 CG0
ATOM     16  G   UNL     1     -14.122 -35.937  38.362  1.00  0.00     0.000 G0
ENDBRANCH  13  15
ENDBRANCH  12  13
BRANCH  12  17
ATOM     17  C   UNL     1     -11.690 -38.951  41.314  1.00  0.00    -0.006 C 
ATOM     18  C   UNL     1     -12.041 -40.348  40.764  1.00  0.00     0.008 C 
ATOM     19  C   UNL     1     -10.213 -38.969  41.761  1.00  0.00     0.008 C 
ENDBRANCH  12  17
ENDBRANCH  11  12
ENDBRANCH   1  11
TORSDOF 1
ENDMDL
MODEL 8
REMARK VINA RESULT:    -4.993      1.821      3.897
REMARK INTER + INTRA:          -7.538
REMARK INTER:                  -7.853
REMARK INTRA:                   0.315
REMARK UNBOUND:                 0.081
REMARK SMILES CC1=CCC[C@@H](C)C(=O)C[C@H](C(C)C)C(=O)C1
REMARK SMILES IDX 8 1 9 2 6 3 7 4 5 5 4 6 3 7 2 8 1 9 10 11 11 12 15 13 16 14
REMARK SMILES IDX 17 15 12 17 13 18 14 19
REMARK H PARENT
REMARK Flexibility Score: 70.00
ROOT
ATOM      1  C   UNL     1     -13.183 -38.318  37.705  1.00  0.00     0.136 C 
ATOM      2  O   UNL     1     -13.691 -37.265  38.060  1.00  0.00    -0.299 OA
ENDROOT
BRANCH   1   3
ATOM      3  C   UNL     1     -12.219 -38.332  36.541  1.00  0.00     0.053 C 
ATOM      4  C   UNL     1     -12.152 -39.720  35.892  1.00  0.00     0.016 C 
BRANCH   3   5
ATOM      5  C   UNL     1     -10.826 -37.865  37.032  1.00  0.00     0.015 C 
BRANCH   5   6
ATOM      6  C   UNL     1     -10.823 -36.970  38.287  1.00  0.00     0.028 C 
BRANCH   6   7
ATOM      7  C   UNL     1     -10.077 -37.488  39.498  1.00  0.00    -0.028 C 
ATOM      8  C   UNL     1     -10.619 -37.973  40.641  1.00  0.00    -0.070 CG0
ATOM      9  C   UNL     1      -9.678 -38.534  41.679  1.00  0.00     0.039 C 
ATOM     10  G   UNL     1     -12.100 -37.922  40.971  1.00  0.00     0.000 G0
ENDBRANCH   6   7
ENDBRANCH   5   6
ENDBRANCH   3   5
ENDBRANCH   1   3
BRANCH   1  11
ATOM     11  C   UNL     1     -13.594 -39.604  38.384  1.00  0.00     0.087 C 
BRANCH  11  12
ATOM     12  C   UNL     1     -12.554 -40.065  39.453  1.00  0.00     0.066 C 
BRANCH  12  13
ATOM     13  C   UNL     1     -12.767 -39.271  40.736  1.00  0.00     0.140 C 
ATOM     14  O   UNL     1     -13.444 -39.763  41.629  1.00  0.00    -0.299 OA
BRANCH  13  15
ATOM     15  C   UNL     1     -12.106 -37.928  40.973  1.00  0.00     0.106 CG0
ATOM     16  G   UNL     1     -10.628 -37.982  40.629  1.00  0.00     0.000 G0
ENDBRANCH  13  15
ENDBRANCH  12  13
BRANCH  12  17
ATOM     17  C   UNL     1     -12.635 -41.604  39.726  1.00  0.00    -0.006 C 
ATOM     18  C   UNL     1     -12.852 -42.403  38.424  1.00  0.00     0.008 C 
ATOM     19  C   UNL     1     -11.359 -42.138  40.409  1.00  0.00     0.008 C 
ENDBRANCH  12  17
ENDBRANCH  11  12
ENDBRANCH   1  11
TORSDOF 1
ENDMDL
MODEL 9
REMARK VINA RESULT:    -4.908      1.975      4.584
REMARK INTER + INTRA:          -7.409
REMARK INTER:                  -7.464
REMARK INTRA:                   0.055
REMARK UNBOUND:                 0.081
REMARK SMILES CC1=CCC[C@@H](C)C(=O)C[C@H](C(C)C)C(=O)C1
REMARK SMILES IDX 8 1 9 2 6 3 7 4 5 5 4 6 3 7 2 8 1 9 10 11 11 12 15 13 16 14
REMARK SMILES IDX 17 15 12 17 13 18 14 19
REMARK H PARENT
REMARK Flexibility Score: 70.00
ROOT
ATOM      1  C   UNL     1     -10.475 -37.455  38.790  1.00  0.00     0.136 C 
ATOM      2  O   UNL     1     -10.122 -36.285  38.753  1.00  0.00    -0.299 OA
ENDROOT
BRANCH   1   3
ATOM      3  C   UNL     1     -11.234 -38.048  37.625  1.00  0.00     0.053 C 
ATOM      4  C   UNL     1     -10.557 -37.711  36.292  1.00  0.00     0.016 C 
BRANCH   3   5
ATOM      5  C   UNL     1     -12.697 -37.540  37.665  1.00  0.00     0.015 C 
BRANCH   5   6
ATOM      6  C   UNL     1     -13.764 -38.594  38.023  1.00  0.00     0.028 C 
BRANCH   6   7
ATOM      7  C   UNL     1     -13.393 -40.046  37.812  1.00  0.00    -0.028 C 
ATOM      8  C   UNL     1     -13.191 -40.982  38.770  1.00  0.00    -0.070 CG0
ATOM      9  C   UNL     1     -12.929 -42.399  38.321  1.00  0.00     0.039 C 
ATOM     10  G   UNL     1     -13.140 -40.682  40.258  1.00  0.00     0.000 G0
ENDBRANCH   6   7
ENDBRANCH   5   6
ENDBRANCH   3   5
ENDBRANCH   1   3
BRANCH   1  11
ATOM     11  C   UNL     1     -10.219 -38.265  40.039  1.00  0.00     0.087 C 
BRANCH  11  12
ATOM     12  C   UNL     1     -11.540 -38.627  40.788  1.00  0.00     0.066 C 
BRANCH  12  13
ATOM     13  C   UNL     1     -11.788 -40.126  40.675  1.00  0.00     0.140 C 
ATOM     14  O   UNL     1     -10.889 -40.898  40.978  1.00  0.00    -0.299 OA
BRANCH  13  15
ATOM     15  C   UNL     1     -13.136 -40.693  40.272  1.00  0.00     0.106 CG0
ATOM     16  G   UNL     1     -13.184 -40.971  38.780  1.00  0.00     0.000 G0
ENDBRANCH  13  15
ENDBRANCH  12  13
BRANCH  12  17
ATOM     17  C   UNL     1     -11.509 -38.176  42.287  1.00  0.00    -0.006 C 
ATOM     18  C   UNL     1     -12.486 -39.000  43.150  1.00  0.00     0.008 C 
ATOM     19  C   UNL     1     -10.100 -38.306  42.901  1.00  0.00     0.008 C 
ENDBRANCH  12  17
ENDBRANCH  11  12
ENDBRANCH   1  11
TORSDOF 1
ENDMDL
