MODEL 1
REMARK VINA RESULT:    -2.707      0.000      0.000
REMARK INTER + INTRA:          -3.029
REMARK INTER:                  -3.024
REMARK INTRA:                  -0.005
REMARK UNBOUND:                -0.005
REMARK SMILES CCCC(=O)[O-]
REMARK SMILES IDX 3 1 4 2 5 3 6 4 2 5 1 6
REMARK H PARENT
REMARK Flexibility Score: inf
ROOT
ATOM      1  C   UNL     1      28.126 -44.136   2.612  1.00  0.00     0.052 C 
ENDROOT
BRANCH   1   2
ATOM      2  C   UNL     1      27.827 -43.133   1.540  1.00  0.00     0.041 C 
ATOM      3  O   UNL     1      27.814 -41.903   1.809  1.00  0.00    -0.550 OA
ATOM      4  O   UNL     1      27.529 -43.558   0.252  1.00  0.00    -0.550 OA
ENDBRANCH   1   2
BRANCH   1   5
ATOM      5  C   UNL     1      26.934 -45.064   2.872  1.00  0.00     0.003 C 
ATOM      6  C   UNL     1      27.230 -46.103   3.954  1.00  0.00     0.004 C 
ENDBRANCH   1   5
TORSDOF 2
ENDMDL
MODEL 2
REMARK VINA RESULT:    -2.611     18.653     18.966
REMARK INTER + INTRA:          -2.922
REMARK INTER:                  -2.891
REMARK INTRA:                  -0.030
REMARK UNBOUND:                -0.005
REMARK SMILES CCCC(=O)[O-]
REMARK SMILES IDX 3 1 4 2 5 3 6 4 2 5 1 6
REMARK H PARENT
REMARK Flexibility Score: inf
ROOT
ATOM      1  C   UNL     1      35.444 -53.930 -11.564  1.00  0.00     0.052 C 
ENDROOT
BRANCH   1   2
ATOM      2  C   UNL     1      35.290 -55.104 -10.646  1.00  0.00     0.041 C 
ATOM      3  O   UNL     1      34.254 -55.819 -10.701  1.00  0.00    -0.550 OA
ATOM      4  O   UNL     1      36.273 -55.390  -9.708  1.00  0.00    -0.550 OA
ENDBRANCH   1   2
BRANCH   1   5
ATOM      5  C   UNL     1      36.913 -53.515 -11.714  1.00  0.00     0.003 C 
ATOM      6  C   UNL     1      37.132 -52.033 -11.410  1.00  0.00     0.004 C 
ENDBRANCH   1   5
TORSDOF 2
ENDMDL
MODEL 3
REMARK VINA RESULT:    -2.590     17.849     18.258
REMARK INTER + INTRA:          -2.898
REMARK INTER:                  -2.888
REMARK INTRA:                  -0.010
REMARK UNBOUND:                -0.005
REMARK SMILES CCCC(=O)[O-]
REMARK SMILES IDX 3 1 4 2 5 3 6 4 2 5 1 6
REMARK H PARENT
REMARK Flexibility Score: inf
ROOT
ATOM      1  C   UNL     1      35.435 -53.562 -12.080  1.00  0.00     0.052 C 
ENDROOT
BRANCH   1   2
ATOM      2  C   UNL     1      35.790 -52.168 -11.661  1.00  0.00     0.041 C 
ATOM      3  O   UNL     1      36.996 -51.840 -11.510  1.00  0.00    -0.550 OA
ATOM      4  O   UNL     1      34.788 -51.241 -11.405  1.00  0.00    -0.550 OA
ENDBRANCH   1   2
BRANCH   1   5
ATOM      5  C   UNL     1      35.783 -54.588 -10.995  1.00  0.00     0.003 C 
ATOM      6  C   UNL     1      34.583 -55.448 -10.600  1.00  0.00     0.004 C 
ENDBRANCH   1   5
TORSDOF 2
ENDMDL
MODEL 4
REMARK VINA RESULT:    -2.540      8.326      8.977
REMARK INTER + INTRA:          -2.843
REMARK INTER:                  -2.804
REMARK INTRA:                  -0.038
REMARK UNBOUND:                -0.005
REMARK SMILES CCCC(=O)[O-]
REMARK SMILES IDX 3 1 4 2 5 3 6 4 2 5 1 6
REMARK H PARENT
REMARK Flexibility Score: inf
ROOT
ATOM      1  C   UNL     1      32.632 -49.969   0.899  1.00  0.00     0.052 C 
ENDROOT
BRANCH   1   2
ATOM      2  C   UNL     1      33.323 -50.719   1.997  1.00  0.00     0.041 C 
ATOM      3  O   UNL     1      32.814 -51.773   2.462  1.00  0.00    -0.550 OA
ATOM      4  O   UNL     1      34.510 -50.235   2.530  1.00  0.00    -0.550 OA
ENDBRANCH   1   2
BRANCH   1   5
ATOM      5  C   UNL     1      33.580 -48.992   0.193  1.00  0.00     0.003 C 
ATOM      6  C   UNL     1      33.243 -47.532   0.495  1.00  0.00     0.004 C 
ENDBRANCH   1   5
TORSDOF 2
ENDMDL
MODEL 5
REMARK VINA RESULT:    -2.481      8.469      8.797
REMARK INTER + INTRA:          -2.776
REMARK INTER:                  -2.769
REMARK INTRA:                  -0.007
REMARK UNBOUND:                -0.005
REMARK SMILES CCCC(=O)[O-]
REMARK SMILES IDX 3 1 4 2 5 3 6 4 2 5 1 6
REMARK H PARENT
REMARK Flexibility Score: inf
ROOT
ATOM      1  C   UNL     1      34.441 -49.503   2.461  1.00  0.00     0.052 C 
ENDROOT
BRANCH   1   2
ATOM      2  C   UNL     1      33.704 -49.827   1.197  1.00  0.00     0.041 C 
ATOM      3  O   UNL     1      34.182 -49.489   0.082  1.00  0.00    -0.550 OA
ATOM      4  O   UNL     1      32.475 -50.470   1.252  1.00  0.00    -0.550 OA
ENDBRANCH   1   2
BRANCH   1   5
ATOM      5  C   UNL     1      34.721 -48.001   2.588  1.00  0.00     0.003 C 
ATOM      6  C   UNL     1      35.594 -47.671   3.798  1.00  0.00     0.004 C 
ENDBRANCH   1   5
TORSDOF 2
ENDMDL
MODEL 6
REMARK VINA RESULT:    -2.457     18.487     18.858
REMARK INTER + INTRA:          -2.750
REMARK INTER:                  -2.745
REMARK INTRA:                  -0.005
REMARK UNBOUND:                -0.005
REMARK SMILES CCCC(=O)[O-]
REMARK SMILES IDX 3 1 4 2 5 3 6 4 2 5 1 6
REMARK H PARENT
REMARK Flexibility Score: inf
ROOT
ATOM      1  C   UNL     1      36.156 -54.011 -11.729  1.00  0.00     0.052 C 
ENDROOT
BRANCH   1   2
ATOM      2  C   UNL     1      37.209 -53.012 -11.359  1.00  0.00     0.041 C 
ATOM      3  O   UNL     1      36.941 -51.781 -11.362  1.00  0.00    -0.550 OA
ATOM      4  O   UNL     1      38.493 -53.436 -11.044  1.00  0.00    -0.550 OA
ENDBRANCH   1   2
BRANCH   1   5
ATOM      5  C   UNL     1      35.903 -55.016 -10.599  1.00  0.00     0.003 C 
ATOM      6  C   UNL     1      34.469 -55.547 -10.602  1.00  0.00     0.004 C 
ENDBRANCH   1   5
TORSDOF 2
ENDMDL
MODEL 7
REMARK VINA RESULT:    -2.452      9.543      9.990
REMARK INTER + INTRA:          -2.744
REMARK INTER:                  -2.708
REMARK INTRA:                  -0.036
REMARK UNBOUND:                -0.005
REMARK SMILES CCCC(=O)[O-]
REMARK SMILES IDX 3 1 4 2 5 3 6 4 2 5 1 6
REMARK H PARENT
REMARK Flexibility Score: inf
ROOT
ATOM      1  C   UNL     1      34.484 -49.549   2.475  1.00  0.00     0.052 C 
ENDROOT
BRANCH   1   2
ATOM      2  C   UNL     1      35.463 -50.627   2.829  1.00  0.00     0.041 C 
ATOM      3  O   UNL     1      36.700 -50.423   2.706  1.00  0.00    -0.550 OA
ATOM      4  O   UNL     1      35.009 -51.865   3.263  1.00  0.00    -0.550 OA
ENDBRANCH   1   2
BRANCH   1   5
ATOM      5  C   UNL     1      33.930 -49.728   1.056  1.00  0.00     0.003 C 
ATOM      6  C   UNL     1      32.471 -50.183   1.053  1.00  0.00     0.004 C 
ENDBRANCH   1   5
TORSDOF 2
ENDMDL
MODEL 8
REMARK VINA RESULT:    -2.451      9.730     10.246
REMARK INTER + INTRA:          -2.743
REMARK INTER:                  -2.733
REMARK INTRA:                  -0.010
REMARK UNBOUND:                -0.005
REMARK SMILES CCCC(=O)[O-]
REMARK SMILES IDX 3 1 4 2 5 3 6 4 2 5 1 6
REMARK H PARENT
REMARK Flexibility Score: inf
ROOT
ATOM      1  C   UNL     1      35.750 -50.779   3.025  1.00  0.00     0.052 C 
ENDROOT
BRANCH   1   2
ATOM      2  C   UNL     1      34.490 -50.145   2.520  1.00  0.00     0.041 C 
ATOM      3  O   UNL     1      34.395 -48.891   2.454  1.00  0.00    -0.550 OA
ATOM      4  O   UNL     1      33.410 -50.937   2.155  1.00  0.00    -0.550 OA
ENDBRANCH   1   2
BRANCH   1   5
ATOM      5  C   UNL     1      35.491 -52.171   3.612  1.00  0.00     0.003 C 
ATOM      6  C   UNL     1      36.312 -52.432   4.875  1.00  0.00     0.004 C 
ENDBRANCH   1   5
TORSDOF 2
ENDMDL
MODEL 9
REMARK VINA RESULT:    -2.426     11.357     11.972
REMARK INTER + INTRA:          -2.715
REMARK INTER:                  -2.677
REMARK INTRA:                  -0.038
REMARK UNBOUND:                -0.005
REMARK SMILES CCCC(=O)[O-]
REMARK SMILES IDX 3 1 4 2 5 3 6 4 2 5 1 6
REMARK H PARENT
REMARK Flexibility Score: inf
ROOT
ATOM      1  C   UNL     1      36.682 -50.594   5.477  1.00  0.00     0.052 C 
ENDROOT
BRANCH   1   2
ATOM      2  C   UNL     1      36.249 -51.772   4.658  1.00  0.00     0.041 C 
ATOM      3  O   UNL     1      36.146 -52.909   5.190  1.00  0.00    -0.550 OA
ATOM      4  O   UNL     1      35.991 -51.620   3.302  1.00  0.00    -0.550 OA
ENDBRANCH   1   2
BRANCH   1   5
ATOM      5  C   UNL     1      36.536 -49.278   4.703  1.00  0.00     0.003 C 
ATOM      6  C   UNL     1      37.886 -48.692   4.290  1.00  0.00     0.004 C 
ENDBRANCH   1   5
TORSDOF 2
ENDMDL
