MODEL 1
REMARK VINA RESULT:    -4.777      0.000      0.000
REMARK INTER + INTRA:          -7.719
REMARK INTER:                  -7.291
REMARK INTRA:                  -0.428
REMARK UNBOUND:                -0.428
REMARK SMILES O=C([O-])CCCCCCCCC(=O)[O-]
REMARK SMILES IDX 7 1 6 2 5 3 4 4 2 5 1 6 3 7 8 8 9 9 10 10 11 11 12 12 13 13
REMARK SMILES IDX 14 14
REMARK H PARENT
REMARK Flexibility Score: inf
ROOT
ATOM      1  C   UNL     1      49.055 -41.114  -3.151  1.00  0.00     0.000 C 
ENDROOT
BRANCH   1   2
ATOM      2  C   UNL     1      50.417 -41.813  -3.351  1.00  0.00     0.000 C 
BRANCH   2   3
ATOM      3  C   UNL     1      51.611 -40.988  -2.844  1.00  0.00     0.006 C 
BRANCH   3   4
ATOM      4  C   UNL     1      52.627 -41.826  -2.061  1.00  0.00     0.053 C 
BRANCH   4   5
ATOM      5  C   UNL     1      53.905 -41.069  -1.886  1.00  0.00     0.041 C 
ATOM      6  O   UNL     1      53.900 -39.810  -1.875  1.00  0.00    -0.550 OA
ATOM      7  O   UNL     1      55.110 -41.752  -1.784  1.00  0.00    -0.550 OA
ENDBRANCH   4   5
ENDBRANCH   3   4
ENDBRANCH   2   3
ENDBRANCH   1   2
BRANCH   1   8
ATOM      8  C   UNL     1      48.447 -40.636  -4.482  1.00  0.00     0.000 C 
BRANCH   8   9
ATOM      9  C   UNL     1      47.791 -39.251  -4.368  1.00  0.00     0.000 C 
BRANCH   9  10
ATOM     10  C   UNL     1      46.273 -39.292  -4.620  1.00  0.00     0.006 C 
BRANCH  10  11
ATOM     11  C   UNL     1      45.547 -40.205  -3.624  1.00  0.00     0.053 C 
BRANCH  11  12
ATOM     12  C   UNL     1      45.557 -39.635  -2.238  1.00  0.00     0.041 C 
ATOM     13  O   UNL     1      45.010 -38.525  -2.006  1.00  0.00    -0.550 OA
ATOM     14  O   UNL     1      46.140 -40.348  -1.197  1.00  0.00    -0.550 OA
ENDBRANCH  11  12
ENDBRANCH  10  11
ENDBRANCH   9  10
ENDBRANCH   8   9
ENDBRANCH   1   8
TORSDOF 9
ENDMDL
MODEL 2
REMARK VINA RESULT:    -4.729      2.667      3.405
REMARK INTER + INTRA:          -7.646
REMARK INTER:                  -6.900
REMARK INTRA:                  -0.745
REMARK UNBOUND:                -0.428
REMARK SMILES O=C([O-])CCCCCCCCC(=O)[O-]
REMARK SMILES IDX 7 1 6 2 5 3 4 4 2 5 1 6 3 7 8 8 9 9 10 10 11 11 12 12 13 13
REMARK SMILES IDX 14 14
REMARK H PARENT
REMARK Flexibility Score: inf
ROOT
ATOM      1  C   UNL     1      49.490 -42.116  -3.369  1.00  0.00     0.000 C 
ENDROOT
BRANCH   1   2
ATOM      2  C   UNL     1      50.972 -41.796  -3.658  1.00  0.00     0.000 C 
BRANCH   2   3
ATOM      3  C   UNL     1      51.675 -41.052  -2.511  1.00  0.00     0.006 C 
BRANCH   3   4
ATOM      4  C   UNL     1      52.783 -41.880  -1.852  1.00  0.00     0.053 C 
BRANCH   4   5
ATOM      5  C   UNL     1      54.068 -41.113  -1.831  1.00  0.00     0.041 C 
ATOM      6  O   UNL     1      54.056 -39.855  -1.892  1.00  0.00    -0.550 OA
ATOM      7  O   UNL     1      55.280 -41.787  -1.792  1.00  0.00    -0.550 OA
ENDBRANCH   4   5
ENDBRANCH   3   4
ENDBRANCH   2   3
ENDBRANCH   1   2
BRANCH   1   8
ATOM      8  C   UNL     1      48.652 -40.843  -3.160  1.00  0.00     0.000 C 
BRANCH   8   9
ATOM      9  C   UNL     1      48.398 -40.080  -4.470  1.00  0.00     0.000 C 
BRANCH   9  10
ATOM     10  C   UNL     1      48.537 -38.557  -4.305  1.00  0.00     0.006 C 
BRANCH  10  11
ATOM     11  C   UNL     1      49.727 -37.996  -5.095  1.00  0.00     0.053 C 
BRANCH  11  12
ATOM     12  C   UNL     1      50.988 -38.011  -4.285  1.00  0.00     0.041 C 
ATOM     13  O   UNL     1      50.967 -37.666  -3.074  1.00  0.00    -0.550 OA
ATOM     14  O   UNL     1      52.178 -38.440  -4.859  1.00  0.00    -0.550 OA
ENDBRANCH  11  12
ENDBRANCH  10  11
ENDBRANCH   9  10
ENDBRANCH   8   9
ENDBRANCH   1   8
TORSDOF 9
ENDMDL
MODEL 3
REMARK VINA RESULT:    -4.611      3.379      6.122
REMARK INTER + INTRA:          -7.465
REMARK INTER:                  -6.722
REMARK INTRA:                  -0.743
REMARK UNBOUND:                -0.428
REMARK SMILES O=C([O-])CCCCCCCCC(=O)[O-]
REMARK SMILES IDX 7 1 6 2 5 3 4 4 2 5 1 6 3 7 8 8 9 9 10 10 11 11 12 12 13 13
REMARK SMILES IDX 14 14
REMARK H PARENT
REMARK Flexibility Score: inf
ROOT
ATOM      1  C   UNL     1      48.863 -40.867  -4.496  1.00  0.00     0.000 C 
ENDROOT
BRANCH   1   2
ATOM      2  C   UNL     1      48.546 -39.356  -4.503  1.00  0.00     0.000 C 
BRANCH   2   3
ATOM      3  C   UNL     1      49.791 -38.468  -4.662  1.00  0.00     0.006 C 
BRANCH   3   4
ATOM      4  C   UNL     1      50.734 -38.954  -5.768  1.00  0.00     0.053 C 
BRANCH   4   5
ATOM      5  C   UNL     1      51.549 -37.816  -6.298  1.00  0.00     0.041 C 
ATOM      6  O   UNL     1      51.068 -36.653  -6.329  1.00  0.00    -0.550 OA
ATOM      7  O   UNL     1      52.821 -38.048  -6.803  1.00  0.00    -0.550 OA
ENDBRANCH   4   5
ENDBRANCH   3   4
ENDBRANCH   2   3
ENDBRANCH   1   2
BRANCH   1   8
ATOM      8  C   UNL     1      49.550 -41.309  -3.191  1.00  0.00     0.000 C 
BRANCH   8   9
ATOM      9  C   UNL     1      50.974 -41.838  -3.423  1.00  0.00     0.000 C 
BRANCH   9  10
ATOM     10  C   UNL     1      51.962 -41.373  -2.338  1.00  0.00     0.006 C 
BRANCH  10  11
ATOM     11  C   UNL     1      52.542 -39.985  -2.641  1.00  0.00     0.053 C 
BRANCH  11  12
ATOM     12  C   UNL     1      53.953 -39.855  -2.154  1.00  0.00     0.041 C 
ATOM     13  O   UNL     1      54.623 -40.883  -1.871  1.00  0.00    -0.550 OA
ATOM     14  O   UNL     1      54.538 -38.599  -2.047  1.00  0.00    -0.550 OA
ENDBRANCH  11  12
ENDBRANCH  10  11
ENDBRANCH   9  10
ENDBRANCH   8   9
ENDBRANCH   1   8
TORSDOF 9
ENDMDL
MODEL 4
REMARK VINA RESULT:    -4.604      0.701      7.111
REMARK INTER + INTRA:          -7.455
REMARK INTER:                  -7.048
REMARK INTRA:                  -0.407
REMARK UNBOUND:                -0.428
REMARK SMILES O=C([O-])CCCCCCCCC(=O)[O-]
REMARK SMILES IDX 7 1 6 2 5 3 4 4 2 5 1 6 3 7 8 8 9 9 10 10 11 11 12 12 13 13
REMARK SMILES IDX 14 14
REMARK H PARENT
REMARK Flexibility Score: inf
ROOT
ATOM      1  C   UNL     1      48.901 -39.986  -3.438  1.00  0.00     0.000 C 
ENDROOT
BRANCH   1   2
ATOM      2  C   UNL     1      47.706 -39.963  -4.415  1.00  0.00     0.000 C 
BRANCH   2   3
ATOM      3  C   UNL     1      46.381 -40.414  -3.777  1.00  0.00     0.006 C 
BRANCH   3   4
ATOM      4  C   UNL     1      45.610 -39.261  -3.126  1.00  0.00     0.053 C 
BRANCH   4   5
ATOM      5  C   UNL     1      45.712 -39.339  -1.636  1.00  0.00     0.041 C 
ATOM      6  O   UNL     1      46.078 -40.408  -1.081  1.00  0.00    -0.550 OA
ATOM      7  O   UNL     1      45.356 -38.247  -0.856  1.00  0.00    -0.550 OA
ENDBRANCH   4   5
ENDBRANCH   3   4
ENDBRANCH   2   3
ENDBRANCH   1   2
BRANCH   1   8
ATOM      8  C   UNL     1      49.261 -41.416  -2.996  1.00  0.00     0.000 C 
BRANCH   8   9
ATOM      9  C   UNL     1      50.710 -41.793  -3.339  1.00  0.00     0.000 C 
BRANCH   9  10
ATOM     10  C   UNL     1      51.739 -40.881  -2.648  1.00  0.00     0.006 C 
BRANCH  10  11
ATOM     11  C   UNL     1      52.766 -41.680  -1.835  1.00  0.00     0.053 C 
BRANCH  11  12
ATOM     12  C   UNL     1      54.117 -41.031  -1.854  1.00  0.00     0.041 C 
ATOM     13  O   UNL     1      55.158 -41.731  -1.756  1.00  0.00    -0.550 OA
ATOM     14  O   UNL     1      54.224 -39.655  -2.014  1.00  0.00    -0.550 OA
ENDBRANCH  11  12
ENDBRANCH  10  11
ENDBRANCH   9  10
ENDBRANCH   8   9
ENDBRANCH   1   8
TORSDOF 9
ENDMDL
MODEL 5
REMARK VINA RESULT:    -4.530      1.186      1.766
REMARK INTER + INTRA:          -7.341
REMARK INTER:                  -6.965
REMARK INTRA:                  -0.376
REMARK UNBOUND:                -0.428
REMARK SMILES O=C([O-])CCCCCCCCC(=O)[O-]
REMARK SMILES IDX 7 1 6 2 5 3 4 4 2 5 1 6 3 7 8 8 9 9 10 10 11 11 12 12 13 13
REMARK SMILES IDX 14 14
REMARK H PARENT
REMARK Flexibility Score: inf
ROOT
ATOM      1  C   UNL     1      49.801 -40.835  -4.758  1.00  0.00     0.000 C 
ENDROOT
BRANCH   1   2
ATOM      2  C   UNL     1      50.282 -41.517  -3.459  1.00  0.00     0.000 C 
BRANCH   2   3
ATOM      3  C   UNL     1      51.482 -40.813  -2.803  1.00  0.00     0.006 C 
BRANCH   3   4
ATOM      4  C   UNL     1      52.531 -41.794  -2.270  1.00  0.00     0.053 C 
BRANCH   4   5
ATOM      5  C   UNL     1      53.807 -41.077  -1.959  1.00  0.00     0.041 C 
ATOM      6  O   UNL     1      53.838 -39.818  -1.942  1.00  0.00    -0.550 OA
ATOM      7  O   UNL     1      54.973 -41.797  -1.736  1.00  0.00    -0.550 OA
ENDBRANCH   4   5
ENDBRANCH   3   4
ENDBRANCH   2   3
ENDBRANCH   1   2
BRANCH   1   8
ATOM      8  C   UNL     1      48.509 -40.026  -4.544  1.00  0.00     0.000 C 
BRANCH   8   9
ATOM      9  C   UNL     1      47.592 -40.647  -3.478  1.00  0.00     0.000 C 
BRANCH   9  10
ATOM     10  C   UNL     1      46.113 -40.276  -3.681  1.00  0.00     0.006 C 
BRANCH  10  11
ATOM     11  C   UNL     1      45.937 -39.130  -4.686  1.00  0.00     0.053 C 
BRANCH  11  12
ATOM     12  C   UNL     1      45.364 -37.907  -4.038  1.00  0.00     0.041 C 
ATOM     13  O   UNL     1      44.614 -38.014  -3.032  1.00  0.00    -0.550 OA
ATOM     14  O   UNL     1      45.687 -36.646  -4.525  1.00  0.00    -0.550 OA
ENDBRANCH  11  12
ENDBRANCH  10  11
ENDBRANCH   9  10
ENDBRANCH   8   9
ENDBRANCH   1   8
TORSDOF 9
ENDMDL
MODEL 6
REMARK VINA RESULT:    -4.417     13.268     14.218
REMARK INTER + INTRA:          -7.169
REMARK INTER:                  -6.536
REMARK INTRA:                  -0.634
REMARK UNBOUND:                -0.428
REMARK SMILES O=C([O-])CCCCCCCCC(=O)[O-]
REMARK SMILES IDX 7 1 6 2 5 3 4 4 2 5 1 6 3 7 8 8 9 9 10 10 11 11 12 12 13 13
REMARK SMILES IDX 14 14
REMARK H PARENT
REMARK Flexibility Score: inf
ROOT
ATOM      1  C   UNL     1      51.448 -36.716   9.829  1.00  0.00     0.000 C 
ENDROOT
BRANCH   1   2
ATOM      2  C   UNL     1      50.695 -35.613   9.054  1.00  0.00     0.000 C 
BRANCH   2   3
ATOM      3  C   UNL     1      49.980 -34.601   9.965  1.00  0.00     0.006 C 
BRANCH   3   4
ATOM      4  C   UNL     1      50.933 -33.562  10.566  1.00  0.00     0.053 C 
BRANCH   4   5
ATOM      5  C   UNL     1      50.827 -33.558  12.059  1.00  0.00     0.041 C 
ATOM      6  O   UNL     1      51.748 -33.061  12.758  1.00  0.00    -0.550 OA
ATOM      7  O   UNL     1      49.734 -34.146  12.680  1.00  0.00    -0.550 OA
ENDBRANCH   4   5
ENDBRANCH   3   4
ENDBRANCH   2   3
ENDBRANCH   1   2
BRANCH   1   8
ATOM      8  C   UNL     1      51.749 -37.941   8.948  1.00  0.00     0.000 C 
BRANCH   8   9
ATOM      9  C   UNL     1      50.686 -38.163   7.860  1.00  0.00     0.000 C 
BRANCH   9  10
ATOM     10  C   UNL     1      49.933 -39.493   8.030  1.00  0.00     0.006 C 
BRANCH  10  11
ATOM     11  C   UNL     1      48.556 -39.299   8.678  1.00  0.00     0.053 C 
BRANCH  11  12
ATOM     12  C   UNL     1      48.647 -39.248  10.173  1.00  0.00     0.041 C 
ATOM     13  O   UNL     1      47.961 -38.416  10.821  1.00  0.00    -0.550 OA
ATOM     14  O   UNL     1      49.464 -40.145  10.850  1.00  0.00    -0.550 OA
ENDBRANCH  11  12
ENDBRANCH  10  11
ENDBRANCH   9  10
ENDBRANCH   8   9
ENDBRANCH   1   8
TORSDOF 9
ENDMDL
MODEL 7
REMARK VINA RESULT:    -4.375     12.897     13.848
REMARK INTER + INTRA:          -7.105
REMARK INTER:                  -6.423
REMARK INTRA:                  -0.683
REMARK UNBOUND:                -0.428
REMARK SMILES O=C([O-])CCCCCCCCC(=O)[O-]
REMARK SMILES IDX 7 1 6 2 5 3 4 4 2 5 1 6 3 7 8 8 9 9 10 10 11 11 12 12 13 13
REMARK SMILES IDX 14 14
REMARK H PARENT
REMARK Flexibility Score: inf
ROOT
ATOM      1  C   UNL     1      50.426 -37.980   8.153  1.00  0.00     0.000 C 
ENDROOT
BRANCH   1   2
ATOM      2  C   UNL     1      51.638 -37.538   9.000  1.00  0.00     0.000 C 
BRANCH   2   3
ATOM      3  C   UNL     1      51.278 -36.546  10.118  1.00  0.00     0.006 C 
BRANCH   3   4
ATOM      4  C   UNL     1      50.512 -35.322   9.606  1.00  0.00     0.053 C 
BRANCH   4   5
ATOM      5  C   UNL     1      50.789 -34.132  10.470  1.00  0.00     0.041 C 
ATOM      6  O   UNL     1      51.957 -33.907  10.883  1.00  0.00    -0.550 OA
ATOM      7  O   UNL     1      49.750 -33.298  10.860  1.00  0.00    -0.550 OA
ENDBRANCH   4   5
ENDBRANCH   3   4
ENDBRANCH   2   3
ENDBRANCH   1   2
BRANCH   1   8
ATOM      8  C   UNL     1      50.666 -39.332   7.457  1.00  0.00     0.000 C 
BRANCH   8   9
ATOM      9  C   UNL     1      49.822 -40.466   8.061  1.00  0.00     0.000 C 
BRANCH   9  10
ATOM     10  C   UNL     1      48.876 -39.974   9.171  1.00  0.00     0.006 C 
BRANCH  10  11
ATOM     11  C   UNL     1      49.350 -40.403  10.566  1.00  0.00     0.053 C 
BRANCH  11  12
ATOM     12  C   UNL     1      49.150 -39.317  11.579  1.00  0.00     0.041 C 
ATOM     13  O   UNL     1      49.900 -39.246  12.587  1.00  0.00    -0.550 OA
ATOM     14  O   UNL     1      48.156 -38.365  11.389  1.00  0.00    -0.550 OA
ENDBRANCH  11  12
ENDBRANCH  10  11
ENDBRANCH   9  10
ENDBRANCH   8   9
ENDBRANCH   1   8
TORSDOF 9
ENDMDL
MODEL 8
REMARK VINA RESULT:    -4.348     12.854     13.875
REMARK INTER + INTRA:          -7.064
REMARK INTER:                  -6.228
REMARK INTRA:                  -0.835
REMARK UNBOUND:                -0.428
REMARK SMILES O=C([O-])CCCCCCCCC(=O)[O-]
REMARK SMILES IDX 7 1 6 2 5 3 4 4 2 5 1 6 3 7 8 8 9 9 10 10 11 11 12 12 13 13
REMARK SMILES IDX 14 14
REMARK H PARENT
REMARK Flexibility Score: inf
ROOT
ATOM      1  C   UNL     1      48.828 -38.498  11.362  1.00  0.00     0.000 C 
ENDROOT
BRANCH   1   2
ATOM      2  C   UNL     1      49.479 -39.829  10.929  1.00  0.00     0.000 C 
BRANCH   2   3
ATOM      3  C   UNL     1      48.733 -40.535   9.785  1.00  0.00     0.006 C 
BRANCH   3   4
ATOM      4  C   UNL     1      49.593 -40.708   8.529  1.00  0.00     0.053 C 
BRANCH   4   5
ATOM      5  C   UNL     1      49.776 -39.394   7.836  1.00  0.00     0.041 C 
ATOM      6  O   UNL     1      50.899 -39.079   7.362  1.00  0.00    -0.550 OA
ATOM      7  O   UNL     1      48.719 -38.496   7.756  1.00  0.00    -0.550 OA
ENDBRANCH   4   5
ENDBRANCH   3   4
ENDBRANCH   2   3
ENDBRANCH   1   2
BRANCH   1   8
ATOM      8  C   UNL     1      49.870 -37.386  11.576  1.00  0.00     0.000 C 
BRANCH   8   9
ATOM      9  C   UNL     1      51.072 -37.511  10.627  1.00  0.00     0.000 C 
BRANCH   9  10
ATOM     10  C   UNL     1      51.178 -36.329   9.646  1.00  0.00     0.006 C 
BRANCH  10  11
ATOM     11  C   UNL     1      50.031 -35.326   9.824  1.00  0.00     0.053 C 
BRANCH  11  12
ATOM     12  C   UNL     1      50.488 -34.076  10.512  1.00  0.00     0.041 C 
ATOM     13  O   UNL     1      51.715 -33.873  10.708  1.00  0.00    -0.550 OA
ATOM     14  O   UNL     1      49.560 -33.119  10.905  1.00  0.00    -0.550 OA
ENDBRANCH  11  12
ENDBRANCH  10  11
ENDBRANCH   9  10
ENDBRANCH   8   9
ENDBRANCH   1   8
TORSDOF 9
ENDMDL
MODEL 9
REMARK VINA RESULT:    -4.325     13.158     14.228
REMARK INTER + INTRA:          -7.029
REMARK INTER:                  -6.278
REMARK INTRA:                  -0.751
REMARK UNBOUND:                -0.428
REMARK SMILES O=C([O-])CCCCCCCCC(=O)[O-]
REMARK SMILES IDX 7 1 6 2 5 3 4 4 2 5 1 6 3 7 8 8 9 9 10 10 11 11 12 12 13 13
REMARK SMILES IDX 14 14
REMARK H PARENT
REMARK Flexibility Score: inf
ROOT
ATOM      1  C   UNL     1      51.424 -38.028   8.507  1.00  0.00     0.000 C 
ENDROOT
BRANCH   1   2
ATOM      2  C   UNL     1      50.077 -38.536   7.950  1.00  0.00     0.000 C 
BRANCH   2   3
ATOM      3  C   UNL     1      49.934 -40.066   7.985  1.00  0.00     0.006 C 
BRANCH   3   4
ATOM      4  C   UNL     1      48.693 -40.533   8.752  1.00  0.00     0.053 C 
BRANCH   4   5
ATOM      5  C   UNL     1      48.650 -39.906  10.110  1.00  0.00     0.041 C 
ATOM      6  O   UNL     1      47.734 -39.094  10.405  1.00  0.00    -0.550 OA
ATOM      7  O   UNL     1      49.650 -40.179  11.034  1.00  0.00    -0.550 OA
ENDBRANCH   4   5
ENDBRANCH   3   4
ENDBRANCH   2   3
ENDBRANCH   1   2
BRANCH   1   8
ATOM      8  C   UNL     1      51.238 -37.115   9.732  1.00  0.00     0.000 C 
BRANCH   8   9
ATOM      9  C   UNL     1      49.901 -36.357   9.707  1.00  0.00     0.000 C 
BRANCH   9  10
ATOM     10  C   UNL     1      50.085 -34.830   9.758  1.00  0.00     0.006 C 
BRANCH  10  11
ATOM     11  C   UNL     1      51.266 -34.420  10.646  1.00  0.00     0.053 C 
BRANCH  11  12
ATOM     12  C   UNL     1      50.807 -33.782  11.922  1.00  0.00     0.041 C 
ATOM     13  O   UNL     1      49.610 -33.902  12.295  1.00  0.00    -0.550 OA
ATOM     14  O   UNL     1      51.710 -33.085  12.716  1.00  0.00    -0.550 OA
ENDBRANCH  11  12
ENDBRANCH  10  11
ENDBRANCH   9  10
ENDBRANCH   8   9
ENDBRANCH   1   8
TORSDOF 9
ENDMDL
