MODEL 1
REMARK VINA RESULT:    -4.445      0.000      0.000
REMARK INTER + INTRA:          -9.752
REMARK INTER:                  -8.083
REMARK INTRA:                  -1.669
REMARK UNBOUND:                -1.669
REMARK SMILES CCCCCCCCCCCCCC[C@H](C)C(=O)[O-]
REMARK SMILES IDX 9 1 10 2 11 3 12 4 13 5 14 6 15 7 16 8 17 9 18 10 19 11 8 12
REMARK SMILES IDX 7 13 6 14 5 15 4 16 3 17 2 18 1 19
REMARK H PARENT
REMARK Flexibility Score: inf
ROOT
ATOM      1  C   UNL     1       4.812  78.554  63.196  1.00  0.00     0.000 C 
ENDROOT
BRANCH   1   2
ATOM      2  C   UNL     1       6.212  79.151  63.430  1.00  0.00     0.000 C 
BRANCH   2   3
ATOM      3  C   UNL     1       7.207  78.134  64.015  1.00  0.00     0.000 C 
BRANCH   3   4
ATOM      4  C   UNL     1       6.651  77.385  65.240  1.00  0.00     0.000 C 
BRANCH   4   5
ATOM      5  C   UNL     1       7.310  77.736  66.587  1.00  0.00     0.001 C 
BRANCH   5   6
ATOM      6  C   UNL     1       6.374  78.512  67.532  1.00  0.00     0.009 C 
BRANCH   6   7
ATOM      7  C   UNL     1       4.885  78.366  67.148  1.00  0.00     0.032 C 
ATOM      8  C   UNL     1       4.148  79.713  67.140  1.00  0.00     0.014 C 
BRANCH   7   9
ATOM      9  C   UNL     1       4.200  77.421  68.098  1.00  0.00     0.044 C 
ATOM     10  O   UNL     1       4.448  76.186  68.061  1.00  0.00    -0.550 OA
ATOM     11  O   UNL     1       3.288  77.910  69.026  1.00  0.00    -0.550 OA
ENDBRANCH   7   9
ENDBRANCH   6   7
ENDBRANCH   5   6
ENDBRANCH   4   5
ENDBRANCH   3   4
ENDBRANCH   2   3
ENDBRANCH   1   2
BRANCH   1  12
ATOM     12  C   UNL     1       3.636  79.542  63.349  1.00  0.00     0.000 C 
BRANCH  12  13
ATOM     13  C   UNL     1       3.996  81.024  63.144  1.00  0.00    -0.000 C 
BRANCH  13  14
ATOM     14  C   UNL     1       3.710  81.932  64.356  1.00  0.00    -0.000 C 
BRANCH  14  15
ATOM     15  C   UNL     1       2.485  82.853  64.167  1.00  0.00    -0.000 C 
BRANCH  15  16
ATOM     16  C   UNL     1       2.835  84.339  64.329  1.00  0.00    -0.000 C 
BRANCH  16  17
ATOM     17  C   UNL     1       4.351  84.557  64.272  1.00  0.00    -0.000 C 
BRANCH  17  18
ATOM     18  C   UNL     1       4.777  85.105  62.905  1.00  0.00    -0.003 C 
ATOM     19  C   UNL     1       3.981  86.355  62.540  1.00  0.00     0.004 C 
ENDBRANCH  17  18
ENDBRANCH  16  17
ENDBRANCH  15  16
ENDBRANCH  14  15
ENDBRANCH  13  14
ENDBRANCH  12  13
ENDBRANCH   1  12
TORSDOF 14
ENDMDL
MODEL 2
REMARK VINA RESULT:    -4.339      1.292      2.099
REMARK INTER + INTRA:          -9.559
REMARK INTER:                  -8.567
REMARK INTRA:                  -0.992
REMARK UNBOUND:                -1.669
REMARK SMILES CCCCCCCCCCCCCC[C@H](C)C(=O)[O-]
REMARK SMILES IDX 9 1 10 2 11 3 12 4 13 5 14 6 15 7 16 8 17 9 18 10 19 11 8 12
REMARK SMILES IDX 7 13 6 14 5 15 4 16 3 17 2 18 1 19
REMARK H PARENT
REMARK Flexibility Score: inf
ROOT
ATOM      1  C   UNL     1       4.534  80.026  63.547  1.00  0.00     0.000 C 
ENDROOT
BRANCH   1   2
ATOM      2  C   UNL     1       4.632  78.708  64.336  1.00  0.00     0.000 C 
BRANCH   2   3
ATOM      3  C   UNL     1       5.941  77.946  64.069  1.00  0.00     0.000 C 
BRANCH   3   4
ATOM      4  C   UNL     1       7.063  78.312  65.059  1.00  0.00     0.000 C 
BRANCH   4   5
ATOM      5  C   UNL     1       7.124  77.456  66.338  1.00  0.00     0.001 C 
BRANCH   5   6
ATOM      6  C   UNL     1       6.738  78.240  67.606  1.00  0.00     0.009 C 
BRANCH   6   7
ATOM      7  C   UNL     1       5.460  77.693  68.279  1.00  0.00     0.032 C 
ATOM      8  C   UNL     1       4.924  76.434  67.581  1.00  0.00     0.014 C 
BRANCH   7   9
ATOM      9  C   UNL     1       4.395  78.755  68.294  1.00  0.00     0.044 C 
ATOM     10  O   UNL     1       4.526  79.802  67.606  1.00  0.00    -0.550 OA
ATOM     11  O   UNL     1       3.255  78.583  69.071  1.00  0.00    -0.550 OA
ENDBRANCH   7   9
ENDBRANCH   6   7
ENDBRANCH   5   6
ENDBRANCH   4   5
ENDBRANCH   3   4
ENDBRANCH   2   3
ENDBRANCH   1   2
BRANCH   1  12
ATOM     12  C   UNL     1       3.661  81.122  64.193  1.00  0.00     0.000 C 
BRANCH  12  13
ATOM     13  C   UNL     1       3.745  82.506  63.525  1.00  0.00    -0.000 C 
BRANCH  13  14
ATOM     14  C   UNL     1       3.304  83.683  64.417  1.00  0.00    -0.000 C 
BRANCH  14  15
ATOM     15  C   UNL     1       4.226  84.918  64.316  1.00  0.00    -0.000 C 
BRANCH  15  16
ATOM     16  C   UNL     1       4.447  85.371  62.866  1.00  0.00    -0.000 C 
BRANCH  16  17
ATOM     17  C   UNL     1       3.851  86.763  62.627  1.00  0.00    -0.000 C 
BRANCH  17  18
ATOM     18  C   UNL     1       4.351  87.355  61.304  1.00  0.00    -0.003 C 
ATOM     19  C   UNL     1       3.710  88.713  61.031  1.00  0.00     0.004 C 
ENDBRANCH  17  18
ENDBRANCH  16  17
ENDBRANCH  15  16
ENDBRANCH  14  15
ENDBRANCH  13  14
ENDBRANCH  12  13
ENDBRANCH   1  12
TORSDOF 14
ENDMDL
MODEL 3
REMARK VINA RESULT:    -4.313      4.063      6.017
REMARK INTER + INTRA:          -9.511
REMARK INTER:                  -7.480
REMARK INTRA:                  -2.032
REMARK UNBOUND:                -1.669
REMARK SMILES CCCCCCCCCCCCCC[C@H](C)C(=O)[O-]
REMARK SMILES IDX 9 1 10 2 11 3 12 4 13 5 14 6 15 7 16 8 17 9 18 10 19 11 8 12
REMARK SMILES IDX 7 13 6 14 5 15 4 16 3 17 2 18 1 19
REMARK H PARENT
REMARK Flexibility Score: inf
ROOT
ATOM      1  C   UNL     1       3.055  74.589  67.903  1.00  0.00     0.000 C 
ENDROOT
BRANCH   1   2
ATOM      2  C   UNL     1       4.308  75.362  68.354  1.00  0.00     0.000 C 
BRANCH   2   3
ATOM      3  C   UNL     1       4.955  76.170  67.217  1.00  0.00     0.000 C 
BRANCH   3   4
ATOM      4  C   UNL     1       6.378  76.653  67.557  1.00  0.00     0.000 C 
BRANCH   4   5
ATOM      5  C   UNL     1       7.026  77.588  66.519  1.00  0.00     0.001 C 
BRANCH   5   6
ATOM      6  C   UNL     1       6.611  77.263  65.073  1.00  0.00     0.009 C 
BRANCH   6   7
ATOM      7  C   UNL     1       6.245  78.525  64.260  1.00  0.00     0.032 C 
ATOM      8  C   UNL     1       4.923  78.365  63.495  1.00  0.00     0.014 C 
BRANCH   7   9
ATOM      9  C   UNL     1       7.351  78.850  63.293  1.00  0.00     0.044 C 
ATOM     10  O   UNL     1       8.556  78.806  63.662  1.00  0.00    -0.550 OA
ATOM     11  O   UNL     1       7.048  79.202  61.984  1.00  0.00    -0.550 OA
ENDBRANCH   7   9
ENDBRANCH   6   7
ENDBRANCH   5   6
ENDBRANCH   4   5
ENDBRANCH   3   4
ENDBRANCH   2   3
ENDBRANCH   1   2
BRANCH   1  12
ATOM     12  C   UNL     1       1.713  75.323  68.110  1.00  0.00     0.000 C 
BRANCH  12  13
ATOM     13  C   UNL     1       1.703  76.362  69.244  1.00  0.00    -0.000 C 
BRANCH  13  14
ATOM     14  C   UNL     1       1.321  77.791  68.810  1.00  0.00    -0.000 C 
BRANCH  14  15
ATOM     15  C   UNL     1       1.694  78.875  69.844  1.00  0.00    -0.000 C 
BRANCH  15  16
ATOM     16  C   UNL     1       2.579  79.979  69.247  1.00  0.00    -0.000 C 
BRANCH  16  17
ATOM     17  C   UNL     1       3.993  79.458  68.964  1.00  0.00    -0.000 C 
BRANCH  17  18
ATOM     18  C   UNL     1       4.437  79.820  67.542  1.00  0.00    -0.003 C 
ATOM     19  C   UNL     1       3.297  79.635  66.544  1.00  0.00     0.004 C 
ENDBRANCH  17  18
ENDBRANCH  16  17
ENDBRANCH  15  16
ENDBRANCH  14  15
ENDBRANCH  13  14
ENDBRANCH  12  13
ENDBRANCH   1  12
TORSDOF 14
ENDMDL
MODEL 4
REMARK VINA RESULT:    -4.283      4.101      6.712
REMARK INTER + INTRA:          -9.458
REMARK INTER:                  -7.622
REMARK INTRA:                  -1.837
REMARK UNBOUND:                -1.669
REMARK SMILES CCCCCCCCCCCCCC[C@H](C)C(=O)[O-]
REMARK SMILES IDX 9 1 10 2 11 3 12 4 13 5 14 6 15 7 16 8 17 9 18 10 19 11 8 12
REMARK SMILES IDX 7 13 6 14 5 15 4 16 3 17 2 18 1 19
REMARK H PARENT
REMARK Flexibility Score: inf
ROOT
ATOM      1  C   UNL     1       3.914  79.767  66.638  1.00  0.00     0.000 C 
ENDROOT
BRANCH   1   2
ATOM      2  C   UNL     1       4.355  79.660  68.109  1.00  0.00     0.000 C 
BRANCH   2   3
ATOM      3  C   UNL     1       5.061  78.332  68.428  1.00  0.00     0.000 C 
BRANCH   3   4
ATOM      4  C   UNL     1       6.549  78.332  68.031  1.00  0.00     0.000 C 
BRANCH   4   5
ATOM      5  C   UNL     1       6.942  77.329  66.930  1.00  0.00     0.001 C 
BRANCH   5   6
ATOM      6  C   UNL     1       7.530  78.007  65.679  1.00  0.00     0.009 C 
BRANCH   6   7
ATOM      7  C   UNL     1       6.456  78.342  64.621  1.00  0.00     0.032 C 
ATOM      8  C   UNL     1       5.529  77.152  64.332  1.00  0.00     0.014 C 
BRANCH   7   9
ATOM      9  C   UNL     1       7.115  78.789  63.345  1.00  0.00     0.044 C 
ATOM     10  O   UNL     1       6.467  78.814  62.265  1.00  0.00    -0.550 OA
ATOM     11  O   UNL     1       8.449  79.179  63.352  1.00  0.00    -0.550 OA
ENDBRANCH   7   9
ENDBRANCH   6   7
ENDBRANCH   5   6
ENDBRANCH   4   5
ENDBRANCH   3   4
ENDBRANCH   2   3
ENDBRANCH   1   2
BRANCH   1  12
ATOM     12  C   UNL     1       2.391  79.703  66.396  1.00  0.00     0.000 C 
BRANCH  12  13
ATOM     13  C   UNL     1       1.521  80.208  67.560  1.00  0.00    -0.000 C 
BRANCH  13  14
ATOM     14  C   UNL     1       0.768  79.106  68.330  1.00  0.00    -0.000 C 
BRANCH  14  15
ATOM     15  C   UNL     1       0.975  77.690  67.749  1.00  0.00    -0.000 C 
BRANCH  15  16
ATOM     16  C   UNL     1       1.765  76.774  68.695  1.00  0.00    -0.000 C 
BRANCH  16  17
ATOM     17  C   UNL     1       1.170  75.362  68.716  1.00  0.00    -0.000 C 
BRANCH  17  18
ATOM     18  C   UNL     1       2.216  74.318  68.306  1.00  0.00    -0.003 C 
ATOM     19  C   UNL     1       3.561  74.975  68.006  1.00  0.00     0.004 C 
ENDBRANCH  17  18
ENDBRANCH  16  17
ENDBRANCH  15  16
ENDBRANCH  14  15
ENDBRANCH  13  14
ENDBRANCH  12  13
ENDBRANCH   1  12
TORSDOF 14
ENDMDL
MODEL 5
REMARK VINA RESULT:    -4.232      3.314      6.692
REMARK INTER + INTRA:          -9.365
REMARK INTER:                  -7.433
REMARK INTRA:                  -1.932
REMARK UNBOUND:                -1.669
REMARK SMILES CCCCCCCCCCCCCC[C@H](C)C(=O)[O-]
REMARK SMILES IDX 9 1 10 2 11 3 12 4 13 5 14 6 15 7 16 8 17 9 18 10 19 11 8 12
REMARK SMILES IDX 7 13 6 14 5 15 4 16 3 17 2 18 1 19
REMARK H PARENT
REMARK Flexibility Score: inf
ROOT
ATOM      1  C   UNL     1       5.224  86.498  60.879  1.00  0.00     0.000 C 
ENDROOT
BRANCH   1   2
ATOM      2  C   UNL     1       4.726  85.332  61.754  1.00  0.00     0.000 C 
BRANCH   2   3
ATOM      3  C   UNL     1       4.109  85.801  63.082  1.00  0.00     0.000 C 
BRANCH   3   4
ATOM      4  C   UNL     1       4.382  84.832  64.248  1.00  0.00     0.000 C 
BRANCH   4   5
ATOM      5  C   UNL     1       3.134  84.192  64.884  1.00  0.00     0.001 C 
BRANCH   5   6
ATOM      6  C   UNL     1       2.615  82.973  64.099  1.00  0.00     0.009 C 
BRANCH   6   7
ATOM      7  C   UNL     1       3.751  82.038  63.630  1.00  0.00     0.032 C 
ATOM      8  C   UNL     1       3.681  81.742  62.124  1.00  0.00     0.014 C 
BRANCH   7   9
ATOM      9  C   UNL     1       3.705  80.748  64.401  1.00  0.00     0.044 C 
ATOM     10  O   UNL     1       3.293  80.729  65.592  1.00  0.00    -0.550 OA
ATOM     11  O   UNL     1       4.117  79.565  63.800  1.00  0.00    -0.550 OA
ENDBRANCH   7   9
ENDBRANCH   6   7
ENDBRANCH   5   6
ENDBRANCH   4   5
ENDBRANCH   3   4
ENDBRANCH   2   3
ENDBRANCH   1   2
BRANCH   1  12
ATOM     12  C   UNL     1       4.124  87.427  60.325  1.00  0.00     0.000 C 
BRANCH  12  13
ATOM     13  C   UNL     1       4.499  88.918  60.256  1.00  0.00    -0.000 C 
BRANCH  13  14
ATOM     14  C   UNL     1       3.601  89.850  61.092  1.00  0.00    -0.000 C 
BRANCH  14  15
ATOM     15  C   UNL     1       2.675  89.102  62.076  1.00  0.00    -0.000 C 
BRANCH  15  16
ATOM     16  C   UNL     1       1.188  89.360  61.797  1.00  0.00    -0.000 C 
BRANCH  16  17
ATOM     17  C   UNL     1       0.313  88.268  62.422  1.00  0.00    -0.000 C 
BRANCH  17  18
ATOM     18  C   UNL     1       0.861  86.873  62.101  1.00  0.00    -0.003 C 
ATOM     19  C   UNL     1       0.355  85.838  63.102  1.00  0.00     0.004 C 
ENDBRANCH  17  18
ENDBRANCH  16  17
ENDBRANCH  15  16
ENDBRANCH  14  15
ENDBRANCH  13  14
ENDBRANCH  12  13
ENDBRANCH   1  12
TORSDOF 14
ENDMDL
MODEL 6
REMARK VINA RESULT:    -4.195      4.484      7.213
REMARK INTER + INTRA:          -9.297
REMARK INTER:                  -7.511
REMARK INTRA:                  -1.786
REMARK UNBOUND:                -1.669
REMARK SMILES CCCCCCCCCCCCCC[C@H](C)C(=O)[O-]
REMARK SMILES IDX 9 1 10 2 11 3 12 4 13 5 14 6 15 7 16 8 17 9 18 10 19 11 8 12
REMARK SMILES IDX 7 13 6 14 5 15 4 16 3 17 2 18 1 19
REMARK H PARENT
REMARK Flexibility Score: inf
ROOT
ATOM      1  C   UNL     1       5.583  77.260  64.549  1.00  0.00     0.000 C 
ENDROOT
BRANCH   1   2
ATOM      2  C   UNL     1       5.249  78.754  64.380  1.00  0.00     0.000 C 
BRANCH   2   3
ATOM      3  C   UNL     1       4.211  79.015  63.275  1.00  0.00     0.000 C 
BRANCH   3   4
ATOM      4  C   UNL     1       4.788  79.798  62.080  1.00  0.00     0.000 C 
BRANCH   4   5
ATOM      5  C   UNL     1       5.913  79.087  61.303  1.00  0.00     0.001 C 
BRANCH   5   6
ATOM      6  C   UNL     1       7.253  79.844  61.357  1.00  0.00     0.009 C 
BRANCH   6   7
ATOM      7  C   UNL     1       8.408  78.972  61.898  1.00  0.00     0.032 C 
ATOM      8  C   UNL     1       8.568  79.091  63.421  1.00  0.00     0.014 C 
BRANCH   7   9
ATOM      9  C   UNL     1       9.697  79.354  61.224  1.00  0.00     0.044 C 
ATOM     10  O   UNL     1      10.220  78.595  60.365  1.00  0.00    -0.550 OA
ATOM     11  O   UNL     1      10.321  80.554  61.547  1.00  0.00    -0.550 OA
ENDBRANCH   7   9
ENDBRANCH   6   7
ENDBRANCH   5   6
ENDBRANCH   4   5
ENDBRANCH   3   4
ENDBRANCH   2   3
ENDBRANCH   1   2
BRANCH   1  12
ATOM     12  C   UNL     1       6.233  76.875  65.895  1.00  0.00     0.000 C 
BRANCH  12  13
ATOM     13  C   UNL     1       7.021  78.000  66.588  1.00  0.00    -0.000 C 
BRANCH  13  14
ATOM     14  C   UNL     1       6.509  78.378  67.991  1.00  0.00    -0.000 C 
BRANCH  14  15
ATOM     15  C   UNL     1       5.151  79.114  67.979  1.00  0.00    -0.000 C 
BRANCH  15  16
ATOM     16  C   UNL     1       4.086  78.398  68.823  1.00  0.00    -0.000 C 
BRANCH  16  17
ATOM     17  C   UNL     1       3.182  77.527  67.944  1.00  0.00    -0.000 C 
BRANCH  17  18
ATOM     18  C   UNL     1       2.862  76.196  68.635  1.00  0.00    -0.003 C 
ATOM     19  C   UNL     1       3.508  75.024  67.901  1.00  0.00     0.004 C 
ENDBRANCH  17  18
ENDBRANCH  16  17
ENDBRANCH  15  16
ENDBRANCH  14  15
ENDBRANCH  13  14
ENDBRANCH  12  13
ENDBRANCH   1  12
TORSDOF 14
ENDMDL
MODEL 7
REMARK VINA RESULT:    -4.177      3.099      6.596
REMARK INTER + INTRA:          -9.264
REMARK INTER:                  -7.124
REMARK INTRA:                  -2.141
REMARK UNBOUND:                -1.669
REMARK SMILES CCCCCCCCCCCCCC[C@H](C)C(=O)[O-]
REMARK SMILES IDX 9 1 10 2 11 3 12 4 13 5 14 6 15 7 16 8 17 9 18 10 19 11 8 12
REMARK SMILES IDX 7 13 6 14 5 15 4 16 3 17 2 18 1 19
REMARK H PARENT
REMARK Flexibility Score: inf
ROOT
ATOM      1  C   UNL     1       6.621  77.213  67.164  1.00  0.00     0.000 C 
ENDROOT
BRANCH   1   2
ATOM      2  C   UNL     1       5.630  76.945  66.017  1.00  0.00     0.000 C 
BRANCH   2   3
ATOM      3  C   UNL     1       6.280  77.049  64.627  1.00  0.00     0.000 C 
BRANCH   3   4
ATOM      4  C   UNL     1       6.756  78.475  64.291  1.00  0.00     0.000 C 
BRANCH   4   5
ATOM      5  C   UNL     1       6.207  79.066  62.979  1.00  0.00     0.001 C 
BRANCH   5   6
ATOM      6  C   UNL     1       4.676  79.232  62.987  1.00  0.00     0.009 C 
BRANCH   6   7
ATOM      7  C   UNL     1       4.201  80.327  63.967  1.00  0.00     0.032 C 
ATOM      8  C   UNL     1       2.954  79.904  64.757  1.00  0.00     0.014 C 
BRANCH   7   9
ATOM      9  C   UNL     1       3.916  81.599  63.216  1.00  0.00     0.044 C 
ATOM     10  O   UNL     1       4.391  81.781  62.063  1.00  0.00    -0.550 OA
ATOM     11  O   UNL     1       3.123  82.583  63.793  1.00  0.00    -0.550 OA
ENDBRANCH   7   9
ENDBRANCH   6   7
ENDBRANCH   5   6
ENDBRANCH   4   5
ENDBRANCH   3   4
ENDBRANCH   2   3
ENDBRANCH   1   2
BRANCH   1  12
ATOM     12  C   UNL     1       6.253  78.387  68.097  1.00  0.00     0.000 C 
BRANCH  12  13
ATOM     13  C   UNL     1       5.171  79.339  67.556  1.00  0.00    -0.000 C 
BRANCH  13  14
ATOM     14  C   UNL     1       4.034  79.653  68.547  1.00  0.00    -0.000 C 
BRANCH  14  15
ATOM     15  C   UNL     1       3.340  78.396  69.116  1.00  0.00    -0.000 C 
BRANCH  15  16
ATOM     16  C   UNL     1       2.127  77.964  68.280  1.00  0.00    -0.000 C 
BRANCH  16  17
ATOM     17  C   UNL     1       1.936  76.444  68.332  1.00  0.00    -0.000 C 
BRANCH  17  18
ATOM     18  C   UNL     1       3.286  75.722  68.404  1.00  0.00    -0.003 C 
ATOM     19  C   UNL     1       3.105  74.207  68.357  1.00  0.00     0.004 C 
ENDBRANCH  17  18
ENDBRANCH  16  17
ENDBRANCH  15  16
ENDBRANCH  14  15
ENDBRANCH  13  14
ENDBRANCH  12  13
ENDBRANCH   1  12
TORSDOF 14
ENDMDL
MODEL 8
REMARK VINA RESULT:    -4.148      3.344      4.910
REMARK INTER + INTRA:          -9.213
REMARK INTER:                  -7.749
REMARK INTRA:                  -1.464
REMARK UNBOUND:                -1.669
REMARK SMILES CCCCCCCCCCCCCC[C@H](C)C(=O)[O-]
REMARK SMILES IDX 9 1 10 2 11 3 12 4 13 5 14 6 15 7 16 8 17 9 18 10 19 11 8 12
REMARK SMILES IDX 7 13 6 14 5 15 4 16 3 17 2 18 1 19
REMARK H PARENT
REMARK Flexibility Score: inf
ROOT
ATOM      1  C   UNL     1       6.012  77.464  64.626  1.00  0.00     0.000 C 
ENDROOT
BRANCH   1   2
ATOM      2  C   UNL     1       7.292  77.957  65.325  1.00  0.00     0.000 C 
BRANCH   2   3
ATOM      3  C   UNL     1       7.185  77.931  66.859  1.00  0.00     0.000 C 
BRANCH   3   4
ATOM      4  C   UNL     1       6.749  76.559  67.408  1.00  0.00     0.000 C 
BRANCH   4   5
ATOM      5  C   UNL     1       5.509  76.574  68.322  1.00  0.00     0.001 C 
BRANCH   5   6
ATOM      6  C   UNL     1       5.037  77.997  68.673  1.00  0.00     0.009 C 
BRANCH   6   7
ATOM      7  C   UNL     1       3.501  78.148  68.609  1.00  0.00     0.032 C 
ATOM      8  C   UNL     1       2.788  76.801  68.420  1.00  0.00     0.014 C 
BRANCH   7   9
ATOM      9  C   UNL     1       3.124  79.080  67.490  1.00  0.00     0.044 C 
ATOM     10  O   UNL     1       1.954  79.078  67.022  1.00  0.00    -0.550 OA
ATOM     11  O   UNL     1       4.069  79.954  66.966  1.00  0.00    -0.550 OA
ENDBRANCH   7   9
ENDBRANCH   6   7
ENDBRANCH   5   6
ENDBRANCH   4   5
ENDBRANCH   3   4
ENDBRANCH   2   3
ENDBRANCH   1   2
BRANCH   1  12
ATOM     12  C   UNL     1       5.148  78.563  63.973  1.00  0.00     0.000 C 
BRANCH  12  13
ATOM     13  C   UNL     1       5.187  78.601  62.435  1.00  0.00    -0.000 C 
BRANCH  13  14
ATOM     14  C   UNL     1       5.533  79.976  61.831  1.00  0.00    -0.000 C 
BRANCH  14  15
ATOM     15  C   UNL     1       6.940  80.039  61.197  1.00  0.00    -0.000 C 
BRANCH  15  16
ATOM     16  C   UNL     1       8.040  79.555  62.153  1.00  0.00    -0.000 C 
BRANCH  16  17
ATOM     17  C   UNL     1       9.185  78.887  61.383  1.00  0.00    -0.000 C 
BRANCH  17  18
ATOM     18  C   UNL     1       8.660  78.165  60.136  1.00  0.00    -0.003 C 
ATOM     19  C   UNL     1       9.540  76.969  59.781  1.00  0.00     0.004 C 
ENDBRANCH  17  18
ENDBRANCH  16  17
ENDBRANCH  15  16
ENDBRANCH  14  15
ENDBRANCH  13  14
ENDBRANCH  12  13
ENDBRANCH   1  12
TORSDOF 14
ENDMDL
MODEL 9
REMARK VINA RESULT:    -4.115      3.882      6.697
REMARK INTER + INTRA:          -9.152
REMARK INTER:                  -7.354
REMARK INTRA:                  -1.798
REMARK UNBOUND:                -1.669
REMARK SMILES CCCCCCCCCCCCCC[C@H](C)C(=O)[O-]
REMARK SMILES IDX 9 1 10 2 11 3 12 4 13 5 14 6 15 7 16 8 17 9 18 10 19 11 8 12
REMARK SMILES IDX 7 13 6 14 5 15 4 16 3 17 2 18 1 19
REMARK H PARENT
REMARK Flexibility Score: inf
ROOT
ATOM      1  C   UNL     1       5.938  77.325  67.858  1.00  0.00     0.000 C 
ENDROOT
BRANCH   1   2
ATOM      2  C   UNL     1       7.103  76.945  66.925  1.00  0.00     0.000 C 
BRANCH   2   3
ATOM      3  C   UNL     1       7.437  78.046  65.905  1.00  0.00     0.000 C 
BRANCH   3   4
ATOM      4  C   UNL     1       7.025  77.679  64.467  1.00  0.00     0.000 C 
BRANCH   4   5
ATOM      5  C   UNL     1       5.508  77.572  64.220  1.00  0.00     0.001 C 
BRANCH   5   6
ATOM      6  C   UNL     1       4.898  78.865  63.649  1.00  0.00     0.009 C 
BRANCH   6   7
ATOM      7  C   UNL     1       4.971  78.928  62.107  1.00  0.00     0.032 C 
ATOM      8  C   UNL     1       6.070  79.880  61.612  1.00  0.00     0.014 C 
BRANCH   7   9
ATOM      9  C   UNL     1       3.642  79.356  61.548  1.00  0.00     0.044 C 
ATOM     10  O   UNL     1       3.522  79.630  60.323  1.00  0.00    -0.550 OA
ATOM     11  O   UNL     1       2.536  79.451  62.383  1.00  0.00    -0.550 OA
ENDBRANCH   7   9
ENDBRANCH   6   7
ENDBRANCH   5   6
ENDBRANCH   4   5
ENDBRANCH   3   4
ENDBRANCH   2   3
ENDBRANCH   1   2
BRANCH   1  12
ATOM     12  C   UNL     1       5.985  78.758  68.428  1.00  0.00     0.000 C 
BRANCH  12  13
ATOM     13  C   UNL     1       4.648  79.519  68.400  1.00  0.00    -0.000 C 
BRANCH  13  14
ATOM     14  C   UNL     1       3.796  79.283  67.139  1.00  0.00    -0.000 C 
BRANCH  14  15
ATOM     15  C   UNL     1       2.443  78.595  67.423  1.00  0.00    -0.000 C 
BRANCH  15  16
ATOM     16  C   UNL     1       2.256  78.255  68.909  1.00  0.00    -0.000 C 
BRANCH  16  17
ATOM     17  C   UNL     1       1.784  76.808  69.087  1.00  0.00    -0.000 C 
BRANCH  17  18
ATOM     18  C   UNL     1       2.693  75.835  68.327  1.00  0.00    -0.003 C 
ATOM     19  C   UNL     1       2.094  74.432  68.294  1.00  0.00     0.004 C 
ENDBRANCH  17  18
ENDBRANCH  16  17
ENDBRANCH  15  16
ENDBRANCH  14  15
ENDBRANCH  13  14
ENDBRANCH  12  13
ENDBRANCH   1  12
TORSDOF 14
ENDMDL
