MODEL 1
REMARK VINA RESULT:    -0.818      0.000      0.000
REMARK INTER + INTRA:           3.527
REMARK INTER:                  -1.201
REMARK INTRA:                   4.728
REMARK UNBOUND:                 4.728
REMARK SMILES Cc1cc2c(C(C)C)c(O)c(O)c(C=O)c2c(O)c1-c1c(C)cc2c(C(C)C)c(O)c(O)c(C=O)c2c1O
REMARK SMILES IDX 1 1 2 2 3 3 4 4 16 5 13 6 11 7 9 8 5 9 17 10 19 11 20 12
REMARK SMILES IDX 37 13 21 14 36 15 23 16 22 17 24 18 33 19 25 20 31 21 29 22
REMARK SMILES IDX 38 23 34 25 35 26 26 27 27 28 28 29 32 30 30 32 18 34 6 36
REMARK SMILES IDX 7 37 8 38 14 39 15 40 10 41 12 43
REMARK H PARENT 38 24 32 31 30 33 18 35 10 42 12 44
REMARK Flexibility Score: inf
ROOT
ATOM      1  C   UNL     1      -7.916  -2.825  -2.763  1.00  0.00     0.045 C 
ATOM      2  C   UNL     1      -8.331  -1.752  -3.741  1.00  0.00    -0.039 A 
ATOM      3  C   UNL     1      -8.275  -0.412  -3.355  1.00  0.00     0.013 A 
ATOM      4  C   UNL     1      -8.627   0.635  -4.235  1.00  0.00    -0.006 A 
ATOM      5  C   UNL     1      -9.152   0.304  -5.524  1.00  0.00     0.039 A 
ATOM      6  C   UNL     1      -9.624   1.356  -6.366  1.00  0.00     0.072 A 
ATOM      7  C   UNL     1      -9.633   2.684  -5.894  1.00  0.00     0.169 A 
ATOM      8  C   UNL     1      -9.117   2.994  -4.632  1.00  0.00     0.162 A 
ATOM      9  C   UNL     1      -8.501   2.002  -3.839  1.00  0.00     0.008 A 
ATOM     10  C   UNL     1      -9.224  -1.072  -5.906  1.00  0.00     0.132 A 
ATOM     11  C   UNL     1      -8.799  -2.086  -5.021  1.00  0.00     0.031 A 
ENDROOT
BRANCH  11  12
ATOM     12  C   UNL     1      -8.878  -3.514  -5.424  1.00  0.00     0.031 A 
ATOM     13  C   UNL     1      -8.367  -3.926  -6.673  1.00  0.00     0.132 A 
ATOM     14  C   UNL     1      -9.500  -4.446  -4.577  1.00  0.00    -0.039 A 
ATOM     15  C   UNL     1      -8.396  -5.304  -7.049  1.00  0.00     0.039 A 
ATOM     16  C   UNL     1      -9.622  -5.774  -4.987  1.00  0.00     0.013 A 
ATOM     17  C   UNL     1     -10.124  -4.018  -3.270  1.00  0.00     0.045 C 
ATOM     18  C   UNL     1      -9.050  -6.241  -6.191  1.00  0.00    -0.006 A 
ATOM     19  C   UNL     1      -7.836  -5.766  -8.275  1.00  0.00     0.072 A 
ATOM     20  C   UNL     1      -9.160  -7.613  -6.580  1.00  0.00     0.008 A 
ATOM     21  C   UNL     1      -8.090  -7.079  -8.712  1.00  0.00     0.169 A 
ATOM     22  C   UNL     1      -8.822  -7.967  -7.905  1.00  0.00     0.162 A 
BRANCH  13  23
ATOM     23  O   UNL     1      -7.874  -2.963  -7.560  1.00  0.00    -0.507 OA
ATOM     24  H   UNL     1      -6.937  -2.972  -7.942  1.00  0.00     0.293 HD
ENDBRANCH  13  23
BRANCH  19  25
ATOM     25  C   UNL     1      -6.907  -4.934  -9.080  1.00  0.00     0.264 C 
ATOM     26  O   UNL     1      -5.740  -4.686  -8.676  1.00  0.00    -0.298 OA
ENDBRANCH  19  25
BRANCH  20  27
ATOM     27  C   UNL     1      -9.684  -8.689  -5.613  1.00  0.00     0.017 C 
ATOM     28  C   UNL     1      -8.806  -9.943  -5.662  1.00  0.00     0.012 C 
ATOM     29  C   UNL     1      -9.868  -8.193  -4.165  1.00  0.00     0.012 C 
ENDBRANCH  20  27
BRANCH  21  30
ATOM     30  O   UNL     1      -7.557  -7.497  -9.936  1.00  0.00    -0.504 OA
ATOM     31  H   UNL     1      -7.378  -8.463 -10.175  1.00  0.00     0.293 HD
ENDBRANCH  21  30
BRANCH  22  32
ATOM     32  O   UNL     1      -9.234  -9.204  -8.405  1.00  0.00    -0.504 OA
ATOM     33  H   UNL     1     -10.166  -9.395  -8.748  1.00  0.00     0.293 HD
ENDBRANCH  22  32
ENDBRANCH  11  12
BRANCH  10  34
ATOM     34  O   UNL     1      -9.729  -1.434  -7.161  1.00  0.00    -0.507 OA
ATOM     35  H   UNL     1      -9.308  -2.131  -7.762  1.00  0.00     0.293 HD
ENDBRANCH  10  34
BRANCH   9  36
ATOM     36  C   UNL     1      -7.736   2.412  -2.566  1.00  0.00     0.017 C 
ATOM     37  C   UNL     1      -6.660   3.454  -2.889  1.00  0.00     0.012 C 
ATOM     38  C   UNL     1      -7.146   1.224  -1.783  1.00  0.00     0.012 C 
ENDBRANCH   9  36
BRANCH   6  39
ATOM     39  C   UNL     1     -10.122   1.101  -7.732  1.00  0.00     0.264 C 
ATOM     40  O   UNL     1      -9.330   0.755  -8.648  1.00  0.00    -0.298 OA
ENDBRANCH   6  39
BRANCH   8  41
ATOM     41  O   UNL     1      -9.212   4.305  -4.158  1.00  0.00    -0.504 OA
ATOM     42  H   UNL     1      -8.581   5.043  -4.445  1.00  0.00     0.293 HD
ENDBRANCH   8  41
BRANCH   7  43
ATOM     43  O   UNL     1     -10.125   3.738  -6.675  1.00  0.00    -0.504 OA
ATOM     44  H   UNL     1     -10.231   3.700  -7.679  1.00  0.00     0.293 HD
ENDBRANCH   7  43
TORSDOF 11
ENDMDL
MODEL 2
REMARK VINA RESULT:    -0.412      2.464      3.987
REMARK INTER + INTRA:           4.123
REMARK INTER:                   2.224
REMARK INTRA:                   1.899
REMARK UNBOUND:                 4.728
REMARK SMILES Cc1cc2c(C(C)C)c(O)c(O)c(C=O)c2c(O)c1-c1c(C)cc2c(C(C)C)c(O)c(O)c(C=O)c2c1O
REMARK SMILES IDX 1 1 2 2 3 3 4 4 16 5 13 6 11 7 9 8 5 9 17 10 19 11 20 12
REMARK SMILES IDX 37 13 21 14 36 15 23 16 22 17 24 18 33 19 25 20 31 21 29 22
REMARK SMILES IDX 38 23 34 25 35 26 26 27 27 28 28 29 32 30 30 32 18 34 6 36
REMARK SMILES IDX 7 37 8 38 14 39 15 40 10 41 12 43
REMARK H PARENT 38 24 32 31 30 33 18 35 10 42 12 44
REMARK Flexibility Score: inf
ROOT
ATOM      1  C   UNL     1      -7.364  -1.722  -9.156  1.00  0.00     0.045 C 
ATOM      2  C   UNL     1      -7.887  -1.603  -7.743  1.00  0.00    -0.039 A 
ATOM      3  C   UNL     1      -8.212  -0.345  -7.236  1.00  0.00     0.013 A 
ATOM      4  C   UNL     1      -8.728  -0.174  -5.932  1.00  0.00    -0.006 A 
ATOM      5  C   UNL     1      -8.822  -1.315  -5.075  1.00  0.00     0.039 A 
ATOM      6  C   UNL     1      -9.225  -1.125  -3.718  1.00  0.00     0.072 A 
ATOM      7  C   UNL     1      -9.453   0.176  -3.228  1.00  0.00     0.169 A 
ATOM      8  C   UNL     1      -9.358   1.283  -4.077  1.00  0.00     0.162 A 
ATOM      9  C   UNL     1      -9.114   1.117  -5.457  1.00  0.00     0.008 A 
ATOM     10  C   UNL     1      -8.469  -2.599  -5.595  1.00  0.00     0.132 A 
ATOM     11  C   UNL     1      -8.021  -2.736  -6.927  1.00  0.00     0.031 A 
ENDROOT
BRANCH  11  12
ATOM     12  C   UNL     1      -7.654  -4.073  -7.461  1.00  0.00     0.031 A 
ATOM     13  C   UNL     1      -6.298  -4.455  -7.542  1.00  0.00     0.132 A 
ATOM     14  C   UNL     1      -8.656  -4.940  -7.925  1.00  0.00    -0.039 A 
ATOM     15  C   UNL     1      -5.937  -5.755  -8.010  1.00  0.00     0.039 A 
ATOM     16  C   UNL     1      -8.300  -6.171  -8.478  1.00  0.00     0.013 A 
ATOM     17  C   UNL     1     -10.108  -4.527  -7.922  1.00  0.00     0.045 C 
ATOM     18  C   UNL     1      -6.961  -6.622  -8.500  1.00  0.00    -0.006 A 
ATOM     19  C   UNL     1      -4.583  -6.196  -8.049  1.00  0.00     0.072 A 
ATOM     20  C   UNL     1      -6.620  -7.899  -9.044  1.00  0.00     0.008 A 
ATOM     21  C   UNL     1      -4.251  -7.383  -8.728  1.00  0.00     0.169 A 
ATOM     22  C   UNL     1      -5.259  -8.182  -9.296  1.00  0.00     0.162 A 
BRANCH  13  23
ATOM     23  O   UNL     1      -5.307  -3.526  -7.202  1.00  0.00    -0.507 OA
ATOM     24  H   UNL     1      -5.169  -3.161  -6.269  1.00  0.00     0.293 HD
ENDBRANCH  13  23
BRANCH  19  25
ATOM     25  C   UNL     1      -3.503  -5.492  -7.314  1.00  0.00     0.264 C 
ATOM     26  O   UNL     1      -3.176  -4.312  -7.610  1.00  0.00    -0.298 OA
ENDBRANCH  19  25
BRANCH  20  27
ATOM     27  C   UNL     1      -7.694  -8.939  -9.407  1.00  0.00     0.017 C 
ATOM     28  C   UNL     1      -7.662 -10.123  -8.437  1.00  0.00     0.012 C 
ATOM     29  C   UNL     1      -9.115  -8.353  -9.526  1.00  0.00     0.012 C 
ENDBRANCH  20  27
BRANCH  21  30
ATOM     30  O   UNL     1      -2.910  -7.777  -8.781  1.00  0.00    -0.504 OA
ATOM     31  H   UNL     1      -2.155  -7.177  -9.083  1.00  0.00     0.293 HD
ENDBRANCH  21  30
BRANCH  22  32
ATOM     32  O   UNL     1      -4.929  -9.257 -10.125  1.00  0.00    -0.504 OA
ATOM     33  H   UNL     1      -5.568 -10.000 -10.370  1.00  0.00     0.293 HD
ENDBRANCH  22  32
ENDBRANCH  11  12
BRANCH  10  34
ATOM     34  O   UNL     1      -8.551  -3.740  -4.787  1.00  0.00    -0.507 OA
ATOM     35  H   UNL     1      -8.510  -4.688  -5.138  1.00  0.00     0.293 HD
ENDBRANCH  10  34
BRANCH   9  36
ATOM     36  C   UNL     1      -9.248   2.324  -6.404  1.00  0.00     0.017 C 
ATOM     37  C   UNL     1     -10.017   3.464  -5.728  1.00  0.00     0.012 C 
ATOM     38  C   UNL     1      -9.855   1.977  -7.776  1.00  0.00     0.012 C 
ENDBRANCH   9  36
BRANCH   6  39
ATOM     39  C   UNL     1      -9.405  -2.259  -2.790  1.00  0.00     0.264 C 
ATOM     40  O   UNL     1      -8.445  -2.664  -2.082  1.00  0.00    -0.298 OA
ENDBRANCH   6  39
BRANCH   8  41
ATOM     41  O   UNL     1      -9.510   2.566  -3.546  1.00  0.00    -0.504 OA
ATOM     42  H   UNL     1      -8.731   3.130  -3.233  1.00  0.00     0.293 HD
ENDBRANCH   8  41
BRANCH   7  43
ATOM     43  O   UNL     1      -9.811   0.406  -1.894  1.00  0.00    -0.504 OA
ATOM     44  H   UNL     1      -9.155   0.643  -1.162  1.00  0.00     0.293 HD
ENDBRANCH   7  43
TORSDOF 11
ENDMDL
MODEL 3
REMARK VINA RESULT:     0.280      2.530      4.534
REMARK INTER + INTRA:           5.139
REMARK INTER:                   2.673
REMARK INTRA:                   2.466
REMARK UNBOUND:                 4.728
REMARK SMILES Cc1cc2c(C(C)C)c(O)c(O)c(C=O)c2c(O)c1-c1c(C)cc2c(C(C)C)c(O)c(O)c(C=O)c2c1O
REMARK SMILES IDX 1 1 2 2 3 3 4 4 16 5 13 6 11 7 9 8 5 9 17 10 19 11 20 12
REMARK SMILES IDX 37 13 21 14 36 15 23 16 22 17 24 18 33 19 25 20 31 21 29 22
REMARK SMILES IDX 38 23 34 25 35 26 26 27 27 28 28 29 32 30 30 32 18 34 6 36
REMARK SMILES IDX 7 37 8 38 14 39 15 40 10 41 12 43
REMARK H PARENT 38 24 32 31 30 33 18 35 10 42 12 44
REMARK Flexibility Score: inf
ROOT
ATOM      1  C   UNL     1      -6.743  -1.319  -9.144  1.00  0.00     0.045 C 
ATOM      2  C   UNL     1      -7.347  -1.402  -7.762  1.00  0.00    -0.039 A 
ATOM      3  C   UNL     1      -7.811  -0.240  -7.146  1.00  0.00     0.013 A 
ATOM      4  C   UNL     1      -8.408  -0.260  -5.866  1.00  0.00    -0.006 A 
ATOM      5  C   UNL     1      -8.444  -1.493  -5.143  1.00  0.00     0.039 A 
ATOM      6  C   UNL     1      -8.934  -1.490  -3.801  1.00  0.00     0.072 A 
ATOM      7  C   UNL     1      -9.303  -0.274  -3.190  1.00  0.00     0.169 A 
ATOM      8  C   UNL     1      -9.263   0.924  -3.909  1.00  0.00     0.162 A 
ATOM      9  C   UNL     1      -8.934   0.933  -5.281  1.00  0.00     0.008 A 
ATOM     10  C   UNL     1      -7.950  -2.677  -5.773  1.00  0.00     0.132 A 
ATOM     11  C   UNL     1      -7.422  -2.626  -7.081  1.00  0.00     0.031 A 
ENDROOT
BRANCH  11  12
ATOM     12  C   UNL     1      -6.908  -3.860  -7.731  1.00  0.00     0.031 A 
ATOM     13  C   UNL     1      -7.803  -4.875  -8.128  1.00  0.00     0.132 A 
ATOM     14  C   UNL     1      -5.526  -4.032  -7.910  1.00  0.00    -0.039 A 
ATOM     15  C   UNL     1      -7.323  -6.044  -8.795  1.00  0.00     0.039 A 
ATOM     16  C   UNL     1      -5.046  -5.217  -8.469  1.00  0.00     0.013 A 
ATOM     17  C   UNL     1      -4.541  -2.996  -7.425  1.00  0.00     0.045 C 
ATOM     18  C   UNL     1      -5.915  -6.221  -8.954  1.00  0.00    -0.006 A 
ATOM     19  C   UNL     1      -8.203  -7.062  -9.264  1.00  0.00     0.072 A 
ATOM     20  C   UNL     1      -5.405  -7.415  -9.550  1.00  0.00     0.008 A 
ATOM     21  C   UNL     1      -7.681  -8.293  -9.702  1.00  0.00     0.169 A 
ATOM     22  C   UNL     1      -6.291  -8.495  -9.761  1.00  0.00     0.162 A 
BRANCH  13  23
ATOM     23  O   UNL     1      -9.162  -4.747  -7.819  1.00  0.00    -0.507 OA
ATOM     24  H   UNL     1      -9.689  -5.430  -7.289  1.00  0.00     0.293 HD
ENDBRANCH  13  23
BRANCH  19  25
ATOM     25  C   UNL     1      -9.664  -6.842  -9.396  1.00  0.00     0.264 C 
ATOM     26  O   UNL     1     -10.121  -5.917 -10.120  1.00  0.00    -0.298 OA
ENDBRANCH  19  25
BRANCH  20  27
ATOM     27  C   UNL     1      -3.917  -7.569  -9.913  1.00  0.00     0.017 C 
ATOM     28  C   UNL     1      -3.073  -6.488  -9.232  1.00  0.00     0.012 C 
ATOM     29  C   UNL     1      -3.350  -8.976  -9.640  1.00  0.00     0.012 C 
ENDBRANCH  20  27
BRANCH  21  30
ATOM     30  O   UNL     1      -8.568  -9.289 -10.125  1.00  0.00    -0.504 OA
ATOM     31  H   UNL     1      -8.760 -10.135  -9.605  1.00  0.00     0.293 HD
ENDBRANCH  21  30
BRANCH  22  32
ATOM     32  O   UNL     1      -5.769  -9.766 -10.016  1.00  0.00    -0.504 OA
ATOM     33  H   UNL     1      -6.329 -10.605 -10.082  1.00  0.00     0.293 HD
ENDBRANCH  22  32
ENDBRANCH  11  12
BRANCH  10  34
ATOM     34  O   UNL     1      -7.971  -3.903  -5.097  1.00  0.00    -0.507 OA
ATOM     35  H   UNL     1      -8.792  -4.488  -5.009  1.00  0.00     0.293 HD
ENDBRANCH  10  34
BRANCH   9  36
ATOM     36  C   UNL     1      -9.125   2.223  -6.100  1.00  0.00     0.017 C 
ATOM     37  C   UNL     1      -9.497   3.398  -5.189  1.00  0.00     0.012 C 
ATOM     38  C   UNL     1     -10.125   2.081  -7.264  1.00  0.00     0.012 C 
ENDBRANCH   9  36
BRANCH   6  39
ATOM     39  C   UNL     1      -9.059  -2.731  -3.011  1.00  0.00     0.264 C 
ATOM     40  O   UNL     1      -8.298  -2.944  -2.030  1.00  0.00    -0.298 OA
ENDBRANCH   6  39
BRANCH   8  41
ATOM     41  O   UNL     1      -9.559   2.122  -3.255  1.00  0.00    -0.504 OA
ATOM     42  H   UNL     1      -8.847   2.746  -2.896  1.00  0.00     0.293 HD
ENDBRANCH   8  41
BRANCH   7  43
ATOM     43  O   UNL     1      -9.750  -0.226  -1.863  1.00  0.00    -0.504 OA
ATOM     44  H   UNL     1      -9.172   0.041  -1.078  1.00  0.00     0.293 HD
ENDBRANCH   7  43
TORSDOF 11
ENDMDL
MODEL 4
REMARK VINA RESULT:     0.421      1.401      2.059
REMARK INTER + INTRA:           5.346
REMARK INTER:                   3.483
REMARK INTRA:                   1.862
REMARK UNBOUND:                 4.728
REMARK SMILES Cc1cc2c(C(C)C)c(O)c(O)c(C=O)c2c(O)c1-c1c(C)cc2c(C(C)C)c(O)c(O)c(C=O)c2c1O
REMARK SMILES IDX 1 1 2 2 3 3 4 4 16 5 13 6 11 7 9 8 5 9 17 10 19 11 20 12
REMARK SMILES IDX 37 13 21 14 36 15 23 16 22 17 24 18 33 19 25 20 31 21 29 22
REMARK SMILES IDX 38 23 34 25 35 26 26 27 27 28 28 29 32 30 30 32 18 34 6 36
REMARK SMILES IDX 7 37 8 38 14 39 15 40 10 41 12 43
REMARK H PARENT 38 24 32 31 30 33 18 35 10 42 12 44
REMARK Flexibility Score: inf
ROOT
ATOM      1  C   UNL     1      -7.403  -3.330  -3.632  1.00  0.00     0.045 C 
ATOM      2  C   UNL     1      -7.853  -2.164  -4.480  1.00  0.00    -0.039 A 
ATOM      3  C   UNL     1      -8.079  -0.925  -3.879  1.00  0.00     0.013 A 
ATOM      4  C   UNL     1      -8.476   0.206  -4.625  1.00  0.00    -0.006 A 
ATOM      5  C   UNL     1      -8.752   0.049  -6.019  1.00  0.00     0.039 A 
ATOM      6  C   UNL     1      -9.273   1.161  -6.748  1.00  0.00     0.072 A 
ATOM      7  C   UNL     1      -9.573   2.364  -6.076  1.00  0.00     0.169 A 
ATOM      8  C   UNL     1      -9.297   2.504  -4.712  1.00  0.00     0.162 A 
ATOM      9  C   UNL     1      -8.640   1.480  -3.998  1.00  0.00     0.008 A 
ATOM     10  C   UNL     1      -8.537  -1.228  -6.625  1.00  0.00     0.132 A 
ATOM     11  C   UNL     1      -8.074  -2.318  -5.857  1.00  0.00     0.031 A 
ENDROOT
BRANCH  11  12
ATOM     12  C   UNL     1      -7.853  -3.643  -6.492  1.00  0.00     0.031 A 
ATOM     13  C   UNL     1      -6.684  -3.881  -7.246  1.00  0.00     0.132 A 
ATOM     14  C   UNL     1      -8.830  -4.645  -6.376  1.00  0.00    -0.039 A 
ATOM     15  C   UNL     1      -6.442  -5.165  -7.821  1.00  0.00     0.039 A 
ATOM     16  C   UNL     1      -8.642  -5.867  -7.022  1.00  0.00     0.013 A 
ATOM     17  C   UNL     1     -10.124  -4.393  -5.640  1.00  0.00     0.045 C 
ATOM     18  C   UNL     1      -7.450  -6.172  -7.716  1.00  0.00    -0.006 A 
ATOM     19  C   UNL     1      -5.246  -5.459  -8.538  1.00  0.00     0.072 A 
ATOM     20  C   UNL     1      -7.264  -7.441  -8.347  1.00  0.00     0.008 A 
ATOM     21  C   UNL     1      -5.148  -6.650  -9.281  1.00  0.00     0.169 A 
ATOM     22  C   UNL     1      -6.190  -7.593  -9.253  1.00  0.00     0.162 A 
BRANCH  13  23
ATOM     23  O   UNL     1      -5.788  -2.828  -7.464  1.00  0.00    -0.507 OA
ATOM     24  H   UNL     1      -5.665  -2.049  -6.831  1.00  0.00     0.293 HD
ENDBRANCH  13  23
BRANCH  19  25
ATOM     25  C   UNL     1      -4.046  -4.590  -8.459  1.00  0.00     0.264 C 
ATOM     26  O   UNL     1      -2.934  -5.047  -8.081  1.00  0.00    -0.298 OA
ENDBRANCH  19  25
BRANCH  20  27
ATOM     27  C   UNL     1      -8.230  -8.615  -8.106  1.00  0.00     0.017 C 
ATOM     28  C   UNL     1      -9.129  -8.345  -6.896  1.00  0.00     0.012 C 
ATOM     29  C   UNL     1      -9.061  -9.004  -9.345  1.00  0.00     0.012 C 
ENDBRANCH  20  27
BRANCH  21  30
ATOM     30  O   UNL     1      -3.977  -6.899 -10.004  1.00  0.00    -0.504 OA
ATOM     31  H   UNL     1      -3.242  -6.219 -10.144  1.00  0.00     0.293 HD
ENDBRANCH  21  30
BRANCH  22  32
ATOM     32  O   UNL     1      -6.184  -8.684 -10.125  1.00  0.00    -0.504 OA
ATOM     33  H   UNL     1      -5.637  -9.522  -9.980  1.00  0.00     0.293 HD
ENDBRANCH  22  32
ENDBRANCH  11  12
BRANCH  10  34
ATOM     34  O   UNL     1      -8.793  -1.419  -7.988  1.00  0.00    -0.507 OA
ATOM     35  H   UNL     1      -8.426  -0.828  -8.724  1.00  0.00     0.293 HD
ENDBRANCH  10  34
BRANCH   9  36
ATOM     36  C   UNL     1      -8.140   1.751  -2.567  1.00  0.00     0.017 C 
ATOM     37  C   UNL     1      -7.303   3.033  -2.515  1.00  0.00     0.012 C 
ATOM     38  C   UNL     1      -7.386   0.565  -1.934  1.00  0.00     0.012 C 
ENDBRANCH   9  36
BRANCH   6  39
ATOM     39  C   UNL     1      -9.526   1.096  -8.201  1.00  0.00     0.264 C 
ATOM     40  O   UNL     1      -8.601   0.785  -8.997  1.00  0.00    -0.298 OA
ENDBRANCH   6  39
BRANCH   8  41
ATOM     41  O   UNL     1      -9.678   3.677  -4.056  1.00  0.00    -0.504 OA
ATOM     42  H   UNL     1     -10.205   4.415  -4.505  1.00  0.00     0.293 HD
ENDBRANCH   8  41
BRANCH   7  43
ATOM     43  O   UNL     1     -10.122   3.463  -6.748  1.00  0.00    -0.504 OA
ATOM     44  H   UNL     1     -10.831   3.395  -7.465  1.00  0.00     0.293 HD
ENDBRANCH   7  43
TORSDOF 11
ENDMDL
MODEL 5
REMARK VINA RESULT:     1.605     15.847     18.182
REMARK INTER + INTRA:           7.084
REMARK INTER:                   5.010
REMARK INTRA:                   2.073
REMARK UNBOUND:                 4.728
REMARK SMILES Cc1cc2c(C(C)C)c(O)c(O)c(C=O)c2c(O)c1-c1c(C)cc2c(C(C)C)c(O)c(O)c(C=O)c2c1O
REMARK SMILES IDX 1 1 2 2 3 3 4 4 16 5 13 6 11 7 9 8 5 9 17 10 19 11 20 12
REMARK SMILES IDX 37 13 21 14 36 15 23 16 22 17 24 18 33 19 25 20 31 21 29 22
REMARK SMILES IDX 38 23 34 25 35 26 26 27 27 28 28 29 32 30 30 32 18 34 6 36
REMARK SMILES IDX 7 37 8 38 14 39 15 40 10 41 12 43
REMARK H PARENT 38 24 32 31 30 33 18 35 10 42 12 44
REMARK Flexibility Score: inf
ROOT
ATOM      1  C   UNL     1      -3.923   6.264   4.909  1.00  0.00     0.045 C 
ATOM      2  C   UNL     1      -2.908   6.995   5.756  1.00  0.00    -0.039 A 
ATOM      3  C   UNL     1      -1.848   7.657   5.137  1.00  0.00     0.013 A 
ATOM      4  C   UNL     1      -0.883   8.377   5.875  1.00  0.00    -0.006 A 
ATOM      5  C   UNL     1      -0.941   8.340   7.303  1.00  0.00     0.039 A 
ATOM      6  C   UNL     1       0.104   8.964   8.050  1.00  0.00     0.072 A 
ATOM      7  C   UNL     1       1.203   9.538   7.379  1.00  0.00     0.169 A 
ATOM      8  C   UNL     1       1.246   9.567   5.982  1.00  0.00     0.162 A 
ATOM      9  C   UNL     1       0.158   9.100   5.215  1.00  0.00     0.008 A 
ATOM     10  C   UNL     1      -2.019   7.644   7.932  1.00  0.00     0.132 A 
ATOM     11  C   UNL     1      -3.003   6.993   7.156  1.00  0.00     0.031 A 
ENDROOT
BRANCH  11  12
ATOM     12  C   UNL     1      -4.121   6.269   7.815  1.00  0.00     0.031 A 
ATOM     13  C   UNL     1      -3.978   4.909   8.160  1.00  0.00     0.132 A 
ATOM     14  C   UNL     1      -5.335   6.931   8.056  1.00  0.00    -0.039 A 
ATOM     15  C   UNL     1      -5.029   4.218   8.835  1.00  0.00     0.039 A 
ATOM     16  C   UNL     1      -6.400   6.231   8.624  1.00  0.00     0.013 A 
ATOM     17  C   UNL     1      -5.542   8.364   7.628  1.00  0.00     0.045 C 
ATOM     18  C   UNL     1      -6.269   4.892   9.058  1.00  0.00    -0.006 A 
ATOM     19  C   UNL     1      -4.898   2.861   9.252  1.00  0.00     0.072 A 
ATOM     20  C   UNL     1      -7.363   4.200   9.664  1.00  0.00     0.008 A 
ATOM     21  C   UNL     1      -6.028   2.153   9.700  1.00  0.00     0.169 A 
ATOM     22  C   UNL     1      -7.271   2.799   9.821  1.00  0.00     0.162 A 
BRANCH  13  23
ATOM     23  O   UNL     1      -2.811   4.230   7.789  1.00  0.00    -0.507 OA
ATOM     24  H   UNL     1      -1.940   4.689   7.555  1.00  0.00     0.293 HD
ENDBRANCH  13  23
BRANCH  19  25
ATOM     25  C   UNL     1      -3.581   2.181   9.319  1.00  0.00     0.264 C 
ATOM     26  O   UNL     1      -2.632   2.665   9.992  1.00  0.00    -0.298 OA
ENDBRANCH  19  25
BRANCH  20  27
ATOM     27  C   UNL     1      -8.647   4.932  10.094  1.00  0.00     0.017 C 
ATOM     28  C   UNL     1      -8.783   6.273   9.366  1.00  0.00     0.012 C 
ATOM     29  C   UNL     1      -9.927   4.086   9.948  1.00  0.00     0.012 C 
ENDBRANCH  20  27
BRANCH  21  30
ATOM     30  O   UNL     1      -5.879   0.812  10.071  1.00  0.00    -0.504 OA
ATOM     31  H   UNL     1      -5.485   0.508  10.951  1.00  0.00     0.293 HD
ENDBRANCH  21  30
BRANCH  22  32
ATOM     32  O   UNL     1      -8.429   2.065  10.087  1.00  0.00    -0.504 OA
ATOM     33  H   UNL     1      -8.788   1.337   9.486  1.00  0.00     0.293 HD
ENDBRANCH  22  32
ENDBRANCH  11  12
BRANCH  10  34
ATOM     34  O   UNL     1      -2.111   7.589   9.328  1.00  0.00    -0.507 OA
ATOM     35  H   UNL     1      -2.606   6.867   9.836  1.00  0.00     0.293 HD
ENDBRANCH  10  34
BRANCH   9  36
ATOM     36  C   UNL     1       0.131   9.358   3.696  1.00  0.00     0.017 C 
ATOM     37  C   UNL     1       1.384  10.121   3.251  1.00  0.00     0.012 C 
ATOM     38  C   UNL     1      -1.151  10.055   3.205  1.00  0.00     0.012 C 
ENDBRANCH   9  36
BRANCH   6  39
ATOM     39  C   UNL     1       0.084   9.021   9.526  1.00  0.00     0.264 C 
ATOM     40  O   UNL     1      -0.675   9.829  10.124  1.00  0.00    -0.298 OA
ENDBRANCH   6  39
BRANCH   8  41
ATOM     41  O   UNL     1       2.383  10.071   5.345  1.00  0.00    -0.504 OA
ATOM     42  H   UNL     1       2.986   9.505   4.762  1.00  0.00     0.293 HD
ENDBRANCH   8  41
BRANCH   7  43
ATOM     43  O   UNL     1       2.266  10.124   8.078  1.00  0.00    -0.504 OA
ATOM     44  H   UNL     1       3.098  10.495   7.641  1.00  0.00     0.293 HD
ENDBRANCH   7  43
TORSDOF 11
ENDMDL
