MODEL 1
REMARK VINA RESULT:    -2.290      0.000      0.000
REMARK INTER + INTRA:          -2.290
REMARK INTER:                  -2.290
REMARK INTRA:                   0.000
REMARK UNBOUND:                 0.000
REMARK SMILES CC(=O)[O-]
REMARK SMILES IDX 1 1 2 2 3 3 4 4
REMARK H PARENT
REMARK Flexibility Score: inf
ROOT
ATOM      1  C   UNL     1     106.901 -81.895  26.284  1.00  0.00     0.063 C 
ATOM      2  C   UNL     1     107.095 -82.795  25.111  1.00  0.00     0.038 C 
ATOM      3  O   UNL     1     108.097 -82.651  24.363  1.00  0.00    -0.550 OA
ATOM      4  O   UNL     1     106.201 -83.830  24.872  1.00  0.00    -0.550 OA
ENDROOT
TORSDOF 0
ENDMDL
MODEL 2
REMARK VINA RESULT:    -2.262     24.962     25.330
REMARK INTER + INTRA:          -2.262
REMARK INTER:                  -2.262
REMARK INTRA:                   0.000
REMARK UNBOUND:                 0.000
REMARK SMILES CC(=O)[O-]
REMARK SMILES IDX 1 1 2 2 3 3 4 4
REMARK H PARENT
REMARK Flexibility Score: inf
ROOT
ATOM      1  C   UNL     1     120.667 -65.137  10.955  1.00  0.00     0.063 C 
ATOM      2  C   UNL     1     120.371 -65.610  12.338  1.00  0.00     0.038 C 
ATOM      3  O   UNL     1     119.433 -65.091  12.996  1.00  0.00    -0.550 OA
ATOM      4  O   UNL     1     121.095 -66.663  12.883  1.00  0.00    -0.550 OA
ENDROOT
TORSDOF 0
ENDMDL
MODEL 3
REMARK VINA RESULT:    -2.205      6.460      6.845
REMARK INTER + INTRA:          -2.205
REMARK INTER:                  -2.205
REMARK INTRA:                   0.000
REMARK UNBOUND:                 0.000
REMARK SMILES CC(=O)[O-]
REMARK SMILES IDX 1 1 2 2 3 3 4 4
REMARK H PARENT
REMARK Flexibility Score: inf
ROOT
ATOM      1  C   UNL     1     105.077 -81.352  18.374  1.00  0.00     0.063 C 
ATOM      2  C   UNL     1     105.724 -82.651  18.712  1.00  0.00     0.038 C 
ATOM      3  O   UNL     1     105.495 -83.201  19.821  1.00  0.00    -0.550 OA
ATOM      4  O   UNL     1     106.539 -83.286  17.784  1.00  0.00    -0.550 OA
ENDROOT
TORSDOF 0
ENDMDL
MODEL 4
REMARK VINA RESULT:    -2.133      6.996      7.604
REMARK INTER + INTRA:          -2.133
REMARK INTER:                  -2.133
REMARK INTRA:                   0.000
REMARK UNBOUND:                 0.000
REMARK SMILES CC(=O)[O-]
REMARK SMILES IDX 1 1 2 2 3 3 4 4
REMARK H PARENT
REMARK Flexibility Score: inf
ROOT
ATOM      1  C   UNL     1     114.004 -83.979  20.171  1.00  0.00     0.063 C 
ATOM      2  C   UNL     1     113.316 -83.224  21.257  1.00  0.00     0.038 C 
ATOM      3  O   UNL     1     113.368 -81.967  21.283  1.00  0.00    -0.550 OA
ATOM      4  O   UNL     1     112.569 -83.903  22.211  1.00  0.00    -0.550 OA
ENDROOT
TORSDOF 0
ENDMDL
MODEL 5
REMARK VINA RESULT:    -2.109      1.436      2.042
REMARK INTER + INTRA:          -2.109
REMARK INTER:                  -2.109
REMARK INTRA:                   0.000
REMARK UNBOUND:                 0.000
REMARK SMILES CC(=O)[O-]
REMARK SMILES IDX 1 1 2 2 3 3 4 4
REMARK H PARENT
REMARK Flexibility Score: inf
ROOT
ATOM      1  C   UNL     1     106.514 -81.505  24.204  1.00  0.00     0.063 C 
ATOM      2  C   UNL     1     106.794 -82.465  25.310  1.00  0.00     0.038 C 
ATOM      3  O   UNL     1     106.432 -83.666  25.210  1.00  0.00    -0.550 OA
ATOM      4  O   UNL     1     107.504 -82.050  26.429  1.00  0.00    -0.550 OA
ENDROOT
TORSDOF 0
ENDMDL
MODEL 6
REMARK VINA RESULT:    -2.107     25.240     25.772
REMARK INTER + INTRA:          -2.107
REMARK INTER:                  -2.107
REMARK INTRA:                   0.000
REMARK UNBOUND:                 0.000
REMARK SMILES CC(=O)[O-]
REMARK SMILES IDX 1 1 2 2 3 3 4 4
REMARK H PARENT
REMARK Flexibility Score: inf
ROOT
ATOM      1  C   UNL     1     120.867 -66.172  12.695  1.00  0.00     0.063 C 
ATOM      2  C   UNL     1     120.309 -65.249  11.666  1.00  0.00     0.038 C 
ATOM      3  O   UNL     1     120.959 -65.005  10.616  1.00  0.00    -0.550 OA
ATOM      4  O   UNL     1     119.045 -64.699  11.836  1.00  0.00    -0.550 OA
ENDROOT
TORSDOF 0
ENDMDL
MODEL 7
REMARK VINA RESULT:    -2.086     11.660     11.980
REMARK INTER + INTRA:          -2.086
REMARK INTER:                  -2.086
REMARK INTRA:                   0.000
REMARK UNBOUND:                 0.000
REMARK SMILES CC(=O)[O-]
REMARK SMILES IDX 1 1 2 2 3 3 4 4
REMARK H PARENT
REMARK Flexibility Score: inf
ROOT
ATOM      1  C   UNL     1     117.132 -83.322  21.478  1.00  0.00     0.063 C 
ATOM      2  C   UNL     1     118.498 -82.817  21.793  1.00  0.00     0.038 C 
ATOM      3  O   UNL     1     118.991 -81.868  21.128  1.00  0.00    -0.550 OA
ATOM      4  O   UNL     1     119.211 -83.354  22.858  1.00  0.00    -0.550 OA
ENDROOT
TORSDOF 0
ENDMDL
MODEL 8
REMARK VINA RESULT:    -2.075     11.466     12.065
REMARK INTER + INTRA:          -2.075
REMARK INTER:                  -2.075
REMARK INTRA:                   0.000
REMARK UNBOUND:                 0.000
REMARK SMILES CC(=O)[O-]
REMARK SMILES IDX 1 1 2 2 3 3 4 4
REMARK H PARENT
REMARK Flexibility Score: inf
ROOT
ATOM      1  C   UNL     1     119.326 -83.248  23.174  1.00  0.00     0.063 C 
ATOM      2  C   UNL     1     118.532 -82.866  21.972  1.00  0.00     0.038 C 
ATOM      3  O   UNL     1     117.425 -83.420  21.742  1.00  0.00    -0.550 OA
ATOM      4  O   UNL     1     118.984 -81.857  21.131  1.00  0.00    -0.550 OA
ENDROOT
TORSDOF 0
ENDMDL
MODEL 9
REMARK VINA RESULT:    -2.060      8.970      9.429
REMARK INTER + INTRA:          -2.060
REMARK INTER:                  -2.060
REMARK INTRA:                   0.000
REMARK UNBOUND:                 0.000
REMARK SMILES CC(=O)[O-]
REMARK SMILES IDX 1 1 2 2 3 3 4 4
REMARK H PARENT
REMARK Flexibility Score: inf
ROOT
ATOM      1  C   UNL     1     114.392 -83.783  20.275  1.00  0.00     0.063 C 
ATOM      2  C   UNL     1     115.411 -83.117  21.135  1.00  0.00     0.038 C 
ATOM      3  O   UNL     1     116.571 -83.597  21.228  1.00  0.00    -0.550 OA
ATOM      4  O   UNL     1     115.101 -81.933  21.792  1.00  0.00    -0.550 OA
ENDROOT
TORSDOF 0
ENDMDL
