MODEL 1
REMARK VINA RESULT:    -5.752      0.000      0.000
REMARK INTER + INTRA:         -12.569
REMARK INTER:                  -9.450
REMARK INTRA:                  -3.119
REMARK UNBOUND:                -3.119
REMARK SMILES COc1ccc([C@H]2CC(=O)c3c(O)cc(O[C@H]4O[C@@H](CO[C@@H]5O[C@H](C)[C@H](O)[C@@H](O)[C@@H]5O)[C@@H](O)[C@@H](O)[C@@H]4O)cc3O2)cc1O
REMARK SMILES IDX 19 1 32 2 34 3 36 4 17 5 18 6 20 7 21 8 22 9 25 10 24 11
REMARK SMILES IDX 26 12 23 13 28 14 30 15 27 16 29 18 31 20 33 22 35 24 16 26
REMARK SMILES IDX 15 27 14 28 38 29 12 30 39 31 11 32 40 33 9 34 7 35 10 36
REMARK SMILES IDX 8 37 13 38 6 40 41 41 5 42 42 43 4 44 3 45 43 46 2 48 1 49
REMARK SMILES IDX 37 50
REMARK H PARENT 27 17 29 19 31 21 33 23 35 25 13 39 43 47 37 51
REMARK Flexibility Score: inf
ROOT
ATOM      1  C   UNL     1     -42.552 -17.046  24.180  1.00  0.00     0.180 C 
ATOM      2  C   UNL     1     -42.686 -15.492  24.343  1.00  0.00     0.177 C 
ATOM      3  C   UNL     1     -41.336 -14.786  24.538  1.00  0.00     0.180 C 
ATOM      4  C   UNL     1     -40.333 -15.312  23.506  1.00  0.00     0.214 C 
ATOM      5  C   UNL     1     -40.237 -16.857  23.608  1.00  0.00     0.339 C 
ATOM      6  O   UNL     1     -41.493 -17.464  23.323  1.00  0.00    -0.332 OA
ENDROOT
BRANCH   1   7
ATOM      7  C   UNL     1     -42.611 -17.859  25.501  1.00  0.00     0.198 C 
BRANCH   7   8
ATOM      8  O   UNL     1     -43.955 -18.051  25.915  1.00  0.00    -0.347 OA
BRANCH   8   9
ATOM      9  C   UNL     1     -44.768 -18.775  24.998  1.00  0.00     0.281 C 
ATOM     10  C   UNL     1     -46.328 -17.102  27.123  1.00  0.00     0.041 C 
ATOM     11  C   UNL     1     -46.812 -18.119  26.069  1.00  0.00     0.150 C 
ATOM     12  C   UNL     1     -47.035 -19.537  26.647  1.00  0.00     0.174 C 
ATOM     13  O   UNL     1     -46.026 -18.117  24.869  1.00  0.00    -0.344 OA
ATOM     14  C   UNL     1     -45.711 -20.308  26.773  1.00  0.00     0.179 C 
ATOM     15  C   UNL     1     -44.972 -20.252  25.435  1.00  0.00     0.202 C 
BRANCH  12  16
ATOM     16  O   UNL     1     -47.756 -19.483  27.863  1.00  0.00    -0.388 OA
ATOM     17  H   UNL     1     -48.684 -19.799  27.698  1.00  0.00     0.211 HD
ENDBRANCH  12  16
BRANCH  14  18
ATOM     18  O   UNL     1     -45.986 -21.639  27.141  1.00  0.00    -0.387 OA
ATOM     19  H   UNL     1     -46.100 -22.147  26.297  1.00  0.00     0.211 HD
ENDBRANCH  14  18
BRANCH  15  20
ATOM     20  O   UNL     1     -43.742 -20.914  25.530  1.00  0.00    -0.385 OA
ATOM     21  H   UNL     1     -43.712 -21.586  24.795  1.00  0.00     0.211 HD
ENDBRANCH  15  20
ENDBRANCH   8   9
ENDBRANCH   7   8
ENDBRANCH   1   7
BRANCH   2  22
ATOM     22  O   UNL     1     -43.544 -15.137  25.400  1.00  0.00    -0.387 OA
ATOM     23  H   UNL     1     -44.396 -14.863  24.979  1.00  0.00     0.211 HD
ENDBRANCH   2  22
BRANCH   3  24
ATOM     24  O   UNL     1     -40.841 -15.014  25.842  1.00  0.00    -0.387 OA
ATOM     25  H   UNL     1     -41.514 -15.562  26.320  1.00  0.00     0.211 HD
ENDBRANCH   3  24
BRANCH   5  26
ATOM     26  O   UNL     1     -39.760 -17.294  24.888  1.00  0.00    -0.462 OA
BRANCH  26  27
ATOM     27  C   UNL     1     -39.239 -18.556  25.203  1.00  0.00     0.130 A 
ATOM     28  C   UNL     1     -38.678 -19.410  24.236  1.00  0.00     0.093 A 
ATOM     29  C   UNL     1     -39.314 -18.974  26.529  1.00  0.00     0.094 A 
ATOM     30  C   UNL     1     -38.159 -20.658  24.602  1.00  0.00     0.133 A 
ATOM     31  C   UNL     1     -38.858 -20.244  26.895  1.00  0.00     0.138 A 
ATOM     32  C   UNL     1     -38.209 -21.064  25.957  1.00  0.00     0.102 A 
ATOM     33  O   UNL     1     -39.102 -20.709  28.191  1.00  0.00    -0.484 OA
ATOM     34  C   UNL     1     -37.647 -22.345  26.459  1.00  0.00     0.174 C 
ATOM     35  C   UNL     1     -39.187 -22.104  28.494  1.00  0.00     0.211 C 
ATOM     36  O   UNL     1     -36.677 -22.885  25.872  1.00  0.00    -0.294 OA
ATOM     37  C   UNL     1     -38.065 -22.905  27.795  1.00  0.00     0.131 C 
BRANCH  30  38
ATOM     38  O   UNL     1     -37.654 -21.464  23.583  1.00  0.00    -0.507 OA
ATOM     39  H   UNL     1     -37.075 -22.266  23.744  1.00  0.00     0.293 HD
ENDBRANCH  30  38
BRANCH  35  40
ATOM     40  C   UNL     1     -40.575 -22.638  28.170  1.00  0.00    -0.003 A 
ATOM     41  C   UNL     1     -41.727 -22.174  28.830  1.00  0.00     0.057 A 
ATOM     42  C   UNL     1     -40.723 -23.641  27.195  1.00  0.00     0.011 A 
ATOM     43  C   UNL     1     -42.983 -22.723  28.568  1.00  0.00     0.158 A 
ATOM     44  C   UNL     1     -41.978 -24.191  26.921  1.00  0.00     0.051 A 
ATOM     45  C   UNL     1     -43.124 -23.739  27.607  1.00  0.00     0.160 A 
BRANCH  43  46
ATOM     46  O   UNL     1     -44.081 -22.246  29.279  1.00  0.00    -0.504 OA
ATOM     47  H   UNL     1     -44.947 -21.983  28.826  1.00  0.00     0.293 HD
ENDBRANCH  43  46
BRANCH  45  48
ATOM     48  O   UNL     1     -44.398 -24.274  27.365  1.00  0.00    -0.493 OA
ATOM     49  C   UNL     1     -44.844 -25.524  27.877  1.00  0.00     0.278 C 
ENDBRANCH  45  48
ENDBRANCH  35  40
ENDBRANCH  26  27
ENDBRANCH   5  26
BRANCH   4  50
ATOM     50  O   UNL     1     -40.755 -14.928  22.222  1.00  0.00    -0.384 OA
ATOM     51  H   UNL     1     -41.382 -15.629  21.894  1.00  0.00     0.211 HD
ENDBRANCH   4  50
TORSDOF 15
ENDMDL
MODEL 2
REMARK VINA RESULT:    -5.726      2.942      7.731
REMARK INTER + INTRA:         -12.527
REMARK INTER:                 -10.577
REMARK INTRA:                  -1.951
REMARK UNBOUND:                -3.119
REMARK SMILES COc1ccc([C@H]2CC(=O)c3c(O)cc(O[C@H]4O[C@@H](CO[C@@H]5O[C@H](C)[C@H](O)[C@@H](O)[C@@H]5O)[C@@H](O)[C@@H](O)[C@@H]4O)cc3O2)cc1O
REMARK SMILES IDX 19 1 32 2 34 3 36 4 17 5 18 6 20 7 21 8 22 9 25 10 24 11
REMARK SMILES IDX 26 12 23 13 28 14 30 15 27 16 29 18 31 20 33 22 35 24 16 26
REMARK SMILES IDX 15 27 14 28 38 29 12 30 39 31 11 32 40 33 9 34 7 35 10 36
REMARK SMILES IDX 8 37 13 38 6 40 41 41 5 42 42 43 4 44 3 45 43 46 2 48 1 49
REMARK SMILES IDX 37 50
REMARK H PARENT 27 17 29 19 31 21 33 23 35 25 13 39 43 47 37 51
REMARK Flexibility Score: inf
ROOT
ATOM      1  C   UNL     1     -42.474 -11.431  24.668  1.00  0.00     0.180 C 
ATOM      2  C   UNL     1     -43.712 -10.529  24.333  1.00  0.00     0.177 C 
ATOM      3  C   UNL     1     -45.055 -11.205  24.644  1.00  0.00     0.180 C 
ATOM      4  C   UNL     1     -44.993 -11.844  26.034  1.00  0.00     0.214 C 
ATOM      5  C   UNL     1     -43.786 -12.816  26.112  1.00  0.00     0.339 C 
ATOM      6  O   UNL     1     -42.560 -12.119  25.913  1.00  0.00    -0.332 OA
ENDROOT
BRANCH   1   7
ATOM      7  C   UNL     1     -41.987 -12.345  23.511  1.00  0.00     0.198 C 
BRANCH   7   8
ATOM      8  O   UNL     1     -40.621 -12.689  23.682  1.00  0.00    -0.347 OA
BRANCH   8   9
ATOM      9  C   UNL     1     -39.792 -12.441  22.552  1.00  0.00     0.281 C 
ATOM     10  C   UNL     1     -39.725 -15.369  23.633  1.00  0.00     0.041 C 
ATOM     11  C   UNL     1     -38.887 -14.663  22.547  1.00  0.00     0.150 C 
ATOM     12  C   UNL     1     -37.514 -14.168  23.061  1.00  0.00     0.174 C 
ATOM     13  O   UNL     1     -39.615 -13.656  21.828  1.00  0.00    -0.344 OA
ATOM     14  C   UNL     1     -37.642 -12.838  23.819  1.00  0.00     0.179 C 
ATOM     15  C   UNL     1     -38.416 -11.843  22.953  1.00  0.00     0.202 C 
BRANCH  12  16
ATOM     16  O   UNL     1     -36.864 -15.171  23.819  1.00  0.00    -0.388 OA
ATOM     17  H   UNL     1     -36.264 -14.733  24.479  1.00  0.00     0.211 HD
ENDBRANCH  12  16
BRANCH  14  18
ATOM     18  O   UNL     1     -36.354 -12.351  24.116  1.00  0.00    -0.387 OA
ATOM     19  H   UNL     1     -35.820 -13.130  24.416  1.00  0.00     0.211 HD
ENDBRANCH  14  18
BRANCH  15  20
ATOM     20  O   UNL     1     -38.582 -10.631  23.632  1.00  0.00    -0.385 OA
ATOM     21  H   UNL     1     -39.143 -10.818  24.434  1.00  0.00     0.211 HD
ENDBRANCH  15  20
ENDBRANCH   8   9
ENDBRANCH   7   8
ENDBRANCH   1   7
BRANCH   2  22
ATOM     22  O   UNL     1     -43.715 -10.101  22.992  1.00  0.00    -0.387 OA
ATOM     23  H   UNL     1     -44.055  -9.173  23.003  1.00  0.00     0.211 HD
ENDBRANCH   2  22
BRANCH   3  24
ATOM     24  O   UNL     1     -45.348 -12.195  23.678  1.00  0.00    -0.387 OA
ATOM     25  H   UNL     1     -45.775 -11.738  22.909  1.00  0.00     0.211 HD
ENDBRANCH   3  24
BRANCH   5  26
ATOM     26  O   UNL     1     -43.892 -13.899  25.178  1.00  0.00    -0.462 OA
BRANCH  26  27
ATOM     27  C   UNL     1     -44.361 -15.192  25.444  1.00  0.00     0.130 A 
ATOM     28  C   UNL     1     -45.297 -15.469  26.458  1.00  0.00     0.093 A 
ATOM     29  C   UNL     1     -43.847 -16.236  24.681  1.00  0.00     0.094 A 
ATOM     30  C   UNL     1     -45.746 -16.777  26.676  1.00  0.00     0.133 A 
ATOM     31  C   UNL     1     -44.237 -17.555  24.934  1.00  0.00     0.138 A 
ATOM     32  C   UNL     1     -45.242 -17.830  25.876  1.00  0.00     0.102 A 
ATOM     33  O   UNL     1     -43.580 -18.600  24.276  1.00  0.00    -0.484 OA
ATOM     34  C   UNL     1     -45.684 -19.244  25.995  1.00  0.00     0.174 C 
ATOM     35  C   UNL     1     -43.501 -19.915  24.831  1.00  0.00     0.211 C 
ATOM     36  O   UNL     1     -46.839 -19.515  26.405  1.00  0.00    -0.294 OA
ATOM     37  C   UNL     1     -44.858 -20.366  25.418  1.00  0.00     0.131 C 
BRANCH  30  38
ATOM     38  O   UNL     1     -46.645 -16.977  27.723  1.00  0.00    -0.507 OA
ATOM     39  H   UNL     1     -47.563 -17.361  27.600  1.00  0.00     0.293 HD
ENDBRANCH  30  38
BRANCH  35  40
ATOM     40  C   UNL     1     -42.368 -20.001  25.845  1.00  0.00    -0.003 A 
ATOM     41  C   UNL     1     -41.400 -18.989  25.973  1.00  0.00     0.057 A 
ATOM     42  C   UNL     1     -42.264 -21.132  26.676  1.00  0.00     0.011 A 
ATOM     43  C   UNL     1     -40.332 -19.116  26.861  1.00  0.00     0.158 A 
ATOM     44  C   UNL     1     -41.202 -21.263  27.574  1.00  0.00     0.051 A 
ATOM     45  C   UNL     1     -40.221 -20.257  27.675  1.00  0.00     0.160 A 
BRANCH  43  46
ATOM     46  O   UNL     1     -39.386 -18.096  26.917  1.00  0.00    -0.504 OA
ATOM     47  H   UNL     1     -39.426 -17.358  27.608  1.00  0.00     0.293 HD
ENDBRANCH  43  46
BRANCH  45  48
ATOM     48  O   UNL     1     -39.135 -20.359  28.557  1.00  0.00    -0.493 OA
ATOM     49  C   UNL     1     -38.225 -21.452  28.574  1.00  0.00     0.278 C 
ENDBRANCH  45  48
ENDBRANCH  35  40
ENDBRANCH  26  27
ENDBRANCH   5  26
BRANCH   4  50
ATOM     50  O   UNL     1     -44.873 -10.830  26.998  1.00  0.00    -0.384 OA
ATOM     51  H   UNL     1     -44.003 -10.372  26.839  1.00  0.00     0.211 HD
ENDBRANCH   4  50
TORSDOF 15
ENDMDL
MODEL 3
REMARK VINA RESULT:    -5.602      3.720      7.907
REMARK INTER + INTRA:         -12.324
REMARK INTER:                  -9.051
REMARK INTRA:                  -3.272
REMARK UNBOUND:                -3.119
REMARK SMILES COc1ccc([C@H]2CC(=O)c3c(O)cc(O[C@H]4O[C@@H](CO[C@@H]5O[C@H](C)[C@H](O)[C@@H](O)[C@@H]5O)[C@@H](O)[C@@H](O)[C@@H]4O)cc3O2)cc1O
REMARK SMILES IDX 19 1 32 2 34 3 36 4 17 5 18 6 20 7 21 8 22 9 25 10 24 11
REMARK SMILES IDX 26 12 23 13 28 14 30 15 27 16 29 18 31 20 33 22 35 24 16 26
REMARK SMILES IDX 15 27 14 28 38 29 12 30 39 31 11 32 40 33 9 34 7 35 10 36
REMARK SMILES IDX 8 37 13 38 6 40 41 41 5 42 42 43 4 44 3 45 43 46 2 48 1 49
REMARK SMILES IDX 37 50
REMARK H PARENT 27 17 29 19 31 21 33 23 35 25 13 39 43 47 37 51
REMARK Flexibility Score: inf
ROOT
ATOM      1  C   UNL     1     -45.441 -14.445  24.923  1.00  0.00     0.180 C 
ATOM      2  C   UNL     1     -46.800 -15.211  24.763  1.00  0.00     0.177 C 
ATOM      3  C   UNL     1     -46.654 -16.734  24.890  1.00  0.00     0.180 C 
ATOM      4  C   UNL     1     -45.790 -17.062  26.112  1.00  0.00     0.214 C 
ATOM      5  C   UNL     1     -44.430 -16.324  26.006  1.00  0.00     0.339 C 
ATOM      6  O   UNL     1     -44.618 -14.913  25.989  1.00  0.00    -0.332 OA
ENDROOT
BRANCH   1   7
ATOM      7  C   UNL     1     -44.647 -14.220  23.608  1.00  0.00     0.198 C 
BRANCH   7   8
ATOM      8  O   UNL     1     -43.286 -13.929  23.885  1.00  0.00    -0.347 OA
BRANCH   8   9
ATOM      9  C   UNL     1     -42.953 -12.546  23.876  1.00  0.00     0.281 C 
ATOM     10  C   UNL     1     -40.678 -14.467  22.935  1.00  0.00     0.041 C 
ATOM     11  C   UNL     1     -40.684 -12.949  23.207  1.00  0.00     0.150 C 
ATOM     12  C   UNL     1     -40.142 -12.578  24.609  1.00  0.00     0.174 C 
ATOM     13  O   UNL     1     -41.936 -12.317  22.903  1.00  0.00    -0.344 OA
ATOM     14  C   UNL     1     -41.213 -12.772  25.695  1.00  0.00     0.179 C 
ATOM     15  C   UNL     1     -42.490 -12.044  25.271  1.00  0.00     0.202 C 
BRANCH  12  16
ATOM     16  O   UNL     1     -38.943 -13.275  24.891  1.00  0.00    -0.388 OA
ATOM     17  H   UNL     1     -39.161 -14.076  25.437  1.00  0.00     0.211 HD
ENDBRANCH  12  16
BRANCH  14  18
ATOM     18  O   UNL     1     -40.727 -12.265  26.916  1.00  0.00    -0.387 OA
ATOM     19  H   UNL     1     -40.993 -11.310  26.952  1.00  0.00     0.211 HD
ENDBRANCH  14  18
BRANCH  15  20
ATOM     20  O   UNL     1     -43.497 -12.233  26.224  1.00  0.00    -0.385 OA
ATOM     21  H   UNL     1     -44.225 -12.752  25.784  1.00  0.00     0.211 HD
ENDBRANCH  15  20
ENDBRANCH   8   9
ENDBRANCH   7   8
ENDBRANCH   1   7
BRANCH   2  22
ATOM     22  O   UNL     1     -47.441 -14.913  23.546  1.00  0.00    -0.387 OA
ATOM     23  H   UNL     1     -48.248 -14.393  23.783  1.00  0.00     0.211 HD
ENDBRANCH   2  22
BRANCH   3  24
ATOM     24  O   UNL     1     -46.060 -17.275  23.728  1.00  0.00    -0.387 OA
ATOM     25  H   UNL     1     -46.725 -17.203  22.997  1.00  0.00     0.211 HD
ENDBRANCH   3  24
BRANCH   5  26
ATOM     26  O   UNL     1     -43.672 -16.732  24.858  1.00  0.00    -0.462 OA
BRANCH  26  27
ATOM     27  C   UNL     1     -42.418 -17.356  24.861  1.00  0.00     0.130 A 
ATOM     28  C   UNL     1     -41.690 -17.597  26.041  1.00  0.00     0.093 A 
ATOM     29  C   UNL     1     -41.874 -17.719  23.632  1.00  0.00     0.094 A 
ATOM     30  C   UNL     1     -40.445 -18.237  25.992  1.00  0.00     0.133 A 
ATOM     31  C   UNL     1     -40.603 -18.299  23.566  1.00  0.00     0.138 A 
ATOM     32  C   UNL     1     -39.912 -18.632  24.742  1.00  0.00     0.102 A 
ATOM     33  O   UNL     1     -40.006 -18.493  22.316  1.00  0.00    -0.484 OA
ATOM     34  C   UNL     1     -38.623 -19.356  24.583  1.00  0.00     0.174 C 
ATOM     35  C   UNL     1     -38.587 -18.543  22.153  1.00  0.00     0.211 C 
ATOM     36  O   UNL     1     -38.197 -20.100  25.501  1.00  0.00    -0.294 OA
ATOM     37  C   UNL     1     -37.918 -19.401  23.252  1.00  0.00     0.131 C 
BRANCH  30  38
ATOM     38  O   UNL     1     -39.768 -18.407  27.199  1.00  0.00    -0.507 OA
ATOM     39  H   UNL     1     -38.943 -17.895  27.449  1.00  0.00     0.293 HD
ENDBRANCH  30  38
BRANCH  35  40
ATOM     40  C   UNL     1     -38.007 -17.138  22.076  1.00  0.00    -0.003 A 
ATOM     41  C   UNL     1     -37.373 -16.530  23.174  1.00  0.00     0.057 A 
ATOM     42  C   UNL     1     -38.117 -16.406  20.880  1.00  0.00     0.011 A 
ATOM     43  C   UNL     1     -36.907 -15.216  23.105  1.00  0.00     0.158 A 
ATOM     44  C   UNL     1     -37.646 -15.093  20.800  1.00  0.00     0.051 A 
ATOM     45  C   UNL     1     -37.037 -14.481  21.914  1.00  0.00     0.160 A 
BRANCH  43  46
ATOM     46  O   UNL     1     -36.319 -14.656  24.237  1.00  0.00    -0.504 OA
ATOM     47  H   UNL     1     -36.861 -14.211  24.965  1.00  0.00     0.293 HD
ENDBRANCH  43  46
BRANCH  45  48
ATOM     48  O   UNL     1     -36.561 -13.162  21.874  1.00  0.00    -0.493 OA
ATOM     49  C   UNL     1     -37.399 -12.014  21.929  1.00  0.00     0.278 C 
ENDBRANCH  45  48
ENDBRANCH  35  40
ENDBRANCH  26  27
ENDBRANCH   5  26
BRANCH   4  50
ATOM     50  O   UNL     1     -46.475 -16.670  27.274  1.00  0.00    -0.384 OA
ATOM     51  H   UNL     1     -46.833 -17.496  27.700  1.00  0.00     0.211 HD
ENDBRANCH   4  50
TORSDOF 15
ENDMDL
MODEL 4
REMARK VINA RESULT:    -5.532      3.691      7.086
REMARK INTER + INTRA:         -12.208
REMARK INTER:                 -10.271
REMARK INTRA:                  -1.937
REMARK UNBOUND:                -3.119
REMARK SMILES COc1ccc([C@H]2CC(=O)c3c(O)cc(O[C@H]4O[C@@H](CO[C@@H]5O[C@H](C)[C@H](O)[C@@H](O)[C@@H]5O)[C@@H](O)[C@@H](O)[C@@H]4O)cc3O2)cc1O
REMARK SMILES IDX 19 1 32 2 34 3 36 4 17 5 18 6 20 7 21 8 22 9 25 10 24 11
REMARK SMILES IDX 26 12 23 13 28 14 30 15 27 16 29 18 31 20 33 22 35 24 16 26
REMARK SMILES IDX 15 27 14 28 38 29 12 30 39 31 11 32 40 33 9 34 7 35 10 36
REMARK SMILES IDX 8 37 13 38 6 40 41 41 5 42 42 43 4 44 3 45 43 46 2 48 1 49
REMARK SMILES IDX 37 50
REMARK H PARENT 27 17 29 19 31 21 33 23 35 25 13 39 43 47 37 51
REMARK Flexibility Score: inf
ROOT
ATOM      1  C   UNL     1     -42.043 -12.246  23.099  1.00  0.00     0.180 C 
ATOM      2  C   UNL     1     -41.319 -11.393  24.199  1.00  0.00     0.177 C 
ATOM      3  C   UNL     1     -41.234 -12.104  25.557  1.00  0.00     0.180 C 
ATOM      4  C   UNL     1     -40.762 -13.546  25.347  1.00  0.00     0.214 C 
ATOM      5  C   UNL     1     -41.697 -14.263  24.338  1.00  0.00     0.339 C 
ATOM      6  O   UNL     1     -41.664 -13.619  23.069  1.00  0.00    -0.332 OA
ENDROOT
BRANCH   1   7
ATOM      7  C   UNL     1     -43.580 -12.046  23.010  1.00  0.00     0.198 C 
BRANCH   7   8
ATOM      8  O   UNL     1     -44.047 -11.248  24.087  1.00  0.00    -0.347 OA
BRANCH   8   9
ATOM      9  C   UNL     1     -45.446 -11.331  24.333  1.00  0.00     0.281 C 
ATOM     10  C   UNL     1     -44.429  -8.539  23.377  1.00  0.00     0.041 C 
ATOM     11  C   UNL     1     -45.810  -9.004  23.882  1.00  0.00     0.150 C 
ATOM     12  C   UNL     1     -46.051  -8.690  25.378  1.00  0.00     0.174 C 
ATOM     13  O   UNL     1     -46.119 -10.361  23.535  1.00  0.00    -0.344 OA
ATOM     14  C   UNL     1     -45.376  -9.729  26.287  1.00  0.00     0.179 C 
ATOM     15  C   UNL     1     -45.790 -11.131  25.835  1.00  0.00     0.202 C 
BRANCH  12  16
ATOM     16  O   UNL     1     -45.671  -7.362  25.686  1.00  0.00    -0.388 OA
ATOM     17  H   UNL     1     -45.563  -7.281  26.671  1.00  0.00     0.211 HD
ENDBRANCH  12  16
BRANCH  14  18
ATOM     18  O   UNL     1     -45.763  -9.496  27.621  1.00  0.00    -0.387 OA
ATOM     19  H   UNL     1     -46.225  -8.618  27.631  1.00  0.00     0.211 HD
ENDBRANCH  14  18
BRANCH  15  20
ATOM     20  O   UNL     1     -45.161 -12.102  26.621  1.00  0.00    -0.385 OA
ATOM     21  H   UNL     1     -44.352 -12.404  26.124  1.00  0.00     0.211 HD
ENDBRANCH  15  20
ENDBRANCH   8   9
ENDBRANCH   7   8
ENDBRANCH   1   7
BRANCH   2  22
ATOM     22  O   UNL     1     -41.921 -10.133  24.380  1.00  0.00    -0.387 OA
ATOM     23  H   UNL     1     -41.184  -9.474  24.357  1.00  0.00     0.211 HD
ENDBRANCH   2  22
BRANCH   3  24
ATOM     24  O   UNL     1     -42.494 -12.105  26.197  1.00  0.00    -0.387 OA
ATOM     25  H   UNL     1     -42.470 -11.398  26.892  1.00  0.00     0.211 HD
ENDBRANCH   3  24
BRANCH   5  26
ATOM     26  O   UNL     1     -43.049 -14.350  24.809  1.00  0.00    -0.462 OA
BRANCH  26  27
ATOM     27  C   UNL     1     -43.718 -15.506  25.230  1.00  0.00     0.130 A 
ATOM     28  C   UNL     1     -44.667 -15.502  26.268  1.00  0.00     0.093 A 
ATOM     29  C   UNL     1     -43.394 -16.705  24.600  1.00  0.00     0.094 A 
ATOM     30  C   UNL     1     -45.319 -16.682  26.644  1.00  0.00     0.133 A 
ATOM     31  C   UNL     1     -43.990 -17.902  25.011  1.00  0.00     0.138 A 
ATOM     32  C   UNL     1     -45.009 -17.893  25.979  1.00  0.00     0.102 A 
ATOM     33  O   UNL     1     -43.524 -19.111  24.487  1.00  0.00    -0.484 OA
ATOM     34  C   UNL     1     -45.673 -19.190  26.269  1.00  0.00     0.174 C 
ATOM     35  C   UNL     1     -43.650 -20.345  25.199  1.00  0.00     0.211 C 
ATOM     36  O   UNL     1     -46.849 -19.216  26.708  1.00  0.00    -0.294 OA
ATOM     37  C   UNL     1     -45.052 -20.494  25.835  1.00  0.00     0.131 C 
BRANCH  30  38
ATOM     38  O   UNL     1     -46.218 -16.605  27.706  1.00  0.00    -0.507 OA
ATOM     39  H   UNL     1     -46.920 -15.893  27.789  1.00  0.00     0.293 HD
ENDBRANCH  30  38
BRANCH  35  40
ATOM     40  C   UNL     1     -42.528 -20.493  26.217  1.00  0.00    -0.003 A 
ATOM     41  C   UNL     1     -41.476 -19.564  26.311  1.00  0.00     0.057 A 
ATOM     42  C   UNL     1     -42.521 -21.599  27.087  1.00  0.00     0.011 A 
ATOM     43  C   UNL     1     -40.421 -19.752  27.205  1.00  0.00     0.158 A 
ATOM     44  C   UNL     1     -41.473 -21.790  27.991  1.00  0.00     0.051 A 
ATOM     45  C   UNL     1     -40.408 -20.869  28.058  1.00  0.00     0.160 A 
BRANCH  43  46
ATOM     46  O   UNL     1     -39.391 -18.816  27.227  1.00  0.00    -0.504 OA
ATOM     47  H   UNL     1     -39.427 -17.984  27.801  1.00  0.00     0.293 HD
ENDBRANCH  43  46
BRANCH  45  48
ATOM     48  O   UNL     1     -39.334 -21.033  28.946  1.00  0.00    -0.493 OA
ATOM     49  C   UNL     1     -38.145 -21.746  28.630  1.00  0.00     0.278 C 
ENDBRANCH  45  48
ENDBRANCH  35  40
ENDBRANCH  26  27
ENDBRANCH   5  26
BRANCH   4  50
ATOM     50  O   UNL     1     -39.441 -13.529  24.868  1.00  0.00    -0.384 OA
ATOM     51  H   UNL     1     -39.311 -12.666  24.388  1.00  0.00     0.211 HD
ENDBRANCH   4  50
TORSDOF 15
ENDMDL
MODEL 5
REMARK VINA RESULT:    -5.488      2.206      5.501
REMARK INTER + INTRA:         -12.136
REMARK INTER:                  -9.492
REMARK INTRA:                  -2.644
REMARK UNBOUND:                -3.119
REMARK SMILES COc1ccc([C@H]2CC(=O)c3c(O)cc(O[C@H]4O[C@@H](CO[C@@H]5O[C@H](C)[C@H](O)[C@@H](O)[C@@H]5O)[C@@H](O)[C@@H](O)[C@@H]4O)cc3O2)cc1O
REMARK SMILES IDX 19 1 32 2 34 3 36 4 17 5 18 6 20 7 21 8 22 9 25 10 24 11
REMARK SMILES IDX 26 12 23 13 28 14 30 15 27 16 29 18 31 20 33 22 35 24 16 26
REMARK SMILES IDX 15 27 14 28 38 29 12 30 39 31 11 32 40 33 9 34 7 35 10 36
REMARK SMILES IDX 8 37 13 38 6 40 41 41 5 42 42 43 4 44 3 45 43 46 2 48 1 49
REMARK SMILES IDX 37 50
REMARK H PARENT 27 17 29 19 31 21 33 23 35 25 13 39 43 47 37 51
REMARK Flexibility Score: inf
ROOT
ATOM      1  C   UNL     1     -45.217 -14.942  25.169  1.00  0.00     0.180 C 
ATOM      2  C   UNL     1     -46.778 -15.094  25.121  1.00  0.00     0.177 C 
ATOM      3  C   UNL     1     -47.248 -16.550  25.257  1.00  0.00     0.180 C 
ATOM      4  C   UNL     1     -46.501 -17.220  26.413  1.00  0.00     0.214 C 
ATOM      5  C   UNL     1     -44.970 -17.089  26.196  1.00  0.00     0.339 C 
ATOM      6  O   UNL     1     -44.576 -15.721  26.175  1.00  0.00    -0.332 OA
ENDROOT
BRANCH   1   7
ATOM      7  C   UNL     1     -44.500 -15.030  23.794  1.00  0.00     0.198 C 
BRANCH   7   8
ATOM      8  O   UNL     1     -43.097 -14.880  23.949  1.00  0.00    -0.347 OA
BRANCH   8   9
ATOM      9  C   UNL     1     -42.590 -13.594  23.613  1.00  0.00     0.281 C 
ATOM     10  C   UNL     1     -40.908 -16.002  22.557  1.00  0.00     0.041 C 
ATOM     11  C   UNL     1     -40.637 -14.484  22.543  1.00  0.00     0.150 C 
ATOM     12  C   UNL     1     -39.718 -14.016  23.697  1.00  0.00     0.174 C 
ATOM     13  O   UNL     1     -41.826 -13.691  22.414  1.00  0.00    -0.344 OA
ATOM     14  C   UNL     1     -40.501 -13.859  25.010  1.00  0.00     0.179 C 
ATOM     15  C   UNL     1     -41.730 -12.985  24.756  1.00  0.00     0.202 C 
BRANCH  12  16
ATOM     16  O   UNL     1     -38.594 -14.866  23.828  1.00  0.00    -0.388 OA
ATOM     17  H   UNL     1     -38.485 -15.106  24.786  1.00  0.00     0.211 HD
ENDBRANCH  12  16
BRANCH  14  18
ATOM     18  O   UNL     1     -39.662 -13.275  25.980  1.00  0.00    -0.387 OA
ATOM     19  H   UNL     1     -40.210 -13.166  26.799  1.00  0.00     0.211 HD
ENDBRANCH  14  18
BRANCH  15  20
ATOM     20  O   UNL     1     -42.485 -12.854  25.926  1.00  0.00    -0.385 OA
ATOM     21  H   UNL     1     -42.226 -13.603  26.530  1.00  0.00     0.211 HD
ENDBRANCH  15  20
ENDBRANCH   8   9
ENDBRANCH   7   8
ENDBRANCH   1   7
BRANCH   2  22
ATOM     22  O   UNL     1     -47.333 -14.541  23.952  1.00  0.00    -0.387 OA
ATOM     23  H   UNL     1     -48.300 -14.438  24.132  1.00  0.00     0.211 HD
ENDBRANCH   2  22
BRANCH   3  24
ATOM     24  O   UNL     1     -47.009 -17.262  24.059  1.00  0.00    -0.387 OA
ATOM     25  H   UNL     1     -46.083 -17.054  23.774  1.00  0.00     0.211 HD
ENDBRANCH   3  24
BRANCH   5  26
ATOM     26  O   UNL     1     -44.527 -17.745  25.000  1.00  0.00    -0.462 OA
BRANCH  26  27
ATOM     27  C   UNL     1     -43.262 -18.298  24.767  1.00  0.00     0.130 A 
ATOM     28  C   UNL     1     -42.933 -18.971  23.575  1.00  0.00     0.093 A 
ATOM     29  C   UNL     1     -42.313 -18.192  25.780  1.00  0.00     0.094 A 
ATOM     30  C   UNL     1     -41.649 -19.496  23.384  1.00  0.00     0.133 A 
ATOM     31  C   UNL     1     -41.049 -18.769  25.626  1.00  0.00     0.138 A 
ATOM     32  C   UNL     1     -40.679 -19.357  24.405  1.00  0.00     0.102 A 
ATOM     33  O   UNL     1     -40.177 -18.802  26.719  1.00  0.00    -0.484 OA
ATOM     34  C   UNL     1     -39.277 -19.836  24.286  1.00  0.00     0.174 C 
ATOM     35  C   UNL     1     -39.157 -19.796  26.846  1.00  0.00     0.211 C 
ATOM     36  O   UNL     1     -38.726 -19.911  23.161  1.00  0.00    -0.294 OA
ATOM     37  C   UNL     1     -38.415 -20.024  25.509  1.00  0.00     0.131 C 
BRANCH  30  38
ATOM     38  O   UNL     1     -41.410 -20.182  22.194  1.00  0.00    -0.507 OA
ATOM     39  H   UNL     1     -41.661 -19.828  21.290  1.00  0.00     0.293 HD
ENDBRANCH  30  38
BRANCH  35  40
ATOM     40  C   UNL     1     -39.732 -21.083  27.421  1.00  0.00    -0.003 A 
ATOM     41  C   UNL     1     -40.790 -21.081  28.348  1.00  0.00     0.057 A 
ATOM     42  C   UNL     1     -39.187 -22.321  27.035  1.00  0.00     0.011 A 
ATOM     43  C   UNL     1     -41.259 -22.266  28.915  1.00  0.00     0.158 A 
ATOM     44  C   UNL     1     -39.657 -23.513  27.592  1.00  0.00     0.051 A 
ATOM     45  C   UNL     1     -40.698 -23.499  28.541  1.00  0.00     0.160 A 
BRANCH  43  46
ATOM     46  O   UNL     1     -42.286 -22.196  29.853  1.00  0.00    -0.504 OA
ATOM     47  H   UNL     1     -43.239 -22.453  29.634  1.00  0.00     0.293 HD
ENDBRANCH  43  46
BRANCH  45  48
ATOM     48  O   UNL     1     -41.189 -24.675  29.128  1.00  0.00    -0.493 OA
ATOM     49  C   UNL     1     -40.371 -25.635  29.787  1.00  0.00     0.278 C 
ENDBRANCH  45  48
ENDBRANCH  35  40
ENDBRANCH  26  27
ENDBRANCH   5  26
BRANCH   4  50
ATOM     50  O   UNL     1     -46.881 -16.608  27.619  1.00  0.00    -0.384 OA
ATOM     51  H   UNL     1     -47.589 -17.176  28.030  1.00  0.00     0.211 HD
ENDBRANCH   4  50
TORSDOF 15
ENDMDL
MODEL 6
REMARK VINA RESULT:    -5.435      1.332      1.666
REMARK INTER + INTRA:         -12.049
REMARK INTER:                  -9.011
REMARK INTRA:                  -3.038
REMARK UNBOUND:                -3.119
REMARK SMILES COc1ccc([C@H]2CC(=O)c3c(O)cc(O[C@H]4O[C@@H](CO[C@@H]5O[C@H](C)[C@H](O)[C@@H](O)[C@@H]5O)[C@@H](O)[C@@H](O)[C@@H]4O)cc3O2)cc1O
REMARK SMILES IDX 19 1 32 2 34 3 36 4 17 5 18 6 20 7 21 8 22 9 25 10 24 11
REMARK SMILES IDX 26 12 23 13 28 14 30 15 27 16 29 18 31 20 33 22 35 24 16 26
REMARK SMILES IDX 15 27 14 28 38 29 12 30 39 31 11 32 40 33 9 34 7 35 10 36
REMARK SMILES IDX 8 37 13 38 6 40 41 41 5 42 42 43 4 44 3 45 43 46 2 48 1 49
REMARK SMILES IDX 37 50
REMARK H PARENT 27 17 29 19 31 21 33 23 35 25 13 39 43 47 37 51
REMARK Flexibility Score: inf
ROOT
ATOM      1  C   UNL     1     -42.510 -15.769  24.053  1.00  0.00     0.180 C 
ATOM      2  C   UNL     1     -42.165 -14.253  23.847  1.00  0.00     0.177 C 
ATOM      3  C   UNL     1     -40.655 -13.979  23.791  1.00  0.00     0.180 C 
ATOM      4  C   UNL     1     -39.988 -14.995  22.860  1.00  0.00     0.214 C 
ATOM      5  C   UNL     1     -40.332 -16.436  23.323  1.00  0.00     0.339 C 
ATOM      6  O   UNL     1     -41.736 -16.667  23.264  1.00  0.00    -0.332 OA
ENDROOT
BRANCH   1   7
ATOM      7  C   UNL     1     -42.635 -16.225  25.532  1.00  0.00     0.198 C 
BRANCH   7   8
ATOM      8  O   UNL     1     -43.793 -17.024  25.716  1.00  0.00    -0.347 OA
BRANCH   8   9
ATOM      9  C   UNL     1     -44.637 -17.132  24.575  1.00  0.00     0.281 C 
ATOM     10  C   UNL     1     -46.124 -16.937  27.313  1.00  0.00     0.041 C 
ATOM     11  C   UNL     1     -46.644 -17.207  25.887  1.00  0.00     0.150 C 
ATOM     12  C   UNL     1     -46.854 -18.711  25.587  1.00  0.00     0.174 C 
ATOM     13  O   UNL     1     -45.895 -16.530  24.867  1.00  0.00    -0.344 OA
ATOM     14  C   UNL     1     -45.530 -19.404  25.230  1.00  0.00     0.179 C 
ATOM     15  C   UNL     1     -44.832 -18.607  24.126  1.00  0.00     0.202 C 
BRANCH  12  16
ATOM     16  O   UNL     1     -47.537 -19.349  26.649  1.00  0.00    -0.388 OA
ATOM     17  H   UNL     1     -47.538 -18.744  27.438  1.00  0.00     0.211 HD
ENDBRANCH  12  16
BRANCH  14  18
ATOM     18  O   UNL     1     -45.798 -20.720  24.806  1.00  0.00    -0.387 OA
ATOM     19  H   UNL     1     -46.482 -21.083  25.426  1.00  0.00     0.211 HD
ENDBRANCH  14  18
BRANCH  15  20
ATOM     20  O   UNL     1     -43.603 -19.193  23.804  1.00  0.00    -0.385 OA
ATOM     21  H   UNL     1     -43.493 -19.123  22.817  1.00  0.00     0.211 HD
ENDBRANCH  15  20
ENDBRANCH   8   9
ENDBRANCH   7   8
ENDBRANCH   1   7
BRANCH   2  22
ATOM     22  O   UNL     1     -42.742 -13.434  24.835  1.00  0.00    -0.387 OA
ATOM     23  H   UNL     1     -43.524 -13.932  25.180  1.00  0.00     0.211 HD
ENDBRANCH   2  22
BRANCH   3  24
ATOM     24  O   UNL     1     -40.086 -14.069  25.082  1.00  0.00    -0.387 OA
ATOM     25  H   UNL     1     -39.918 -15.029  25.261  1.00  0.00     0.211 HD
ENDBRANCH   3  24
BRANCH   5  26
ATOM     26  O   UNL     1     -39.844 -16.720  24.642  1.00  0.00    -0.462 OA
BRANCH  26  27
ATOM     27  C   UNL     1     -39.440 -17.967  25.136  1.00  0.00     0.130 A 
ATOM     28  C   UNL     1     -38.748 -18.908  24.352  1.00  0.00     0.093 A 
ATOM     29  C   UNL     1     -39.773 -18.279  26.451  1.00  0.00     0.094 A 
ATOM     30  C   UNL     1     -38.355 -20.137  24.896  1.00  0.00     0.133 A 
ATOM     31  C   UNL     1     -39.443 -19.529  26.985  1.00  0.00     0.138 A 
ATOM     32  C   UNL     1     -38.668 -20.436  26.244  1.00  0.00     0.102 A 
ATOM     33  O   UNL     1     -39.938 -19.886  28.243  1.00  0.00    -0.484 OA
ATOM     34  C   UNL     1     -38.258 -21.690  26.930  1.00  0.00     0.174 C 
ATOM     35  C   UNL     1     -40.132 -21.251  28.623  1.00  0.00     0.211 C 
ATOM     36  O   UNL     1     -37.220 -22.298  26.572  1.00  0.00    -0.294 OA
ATOM     37  C   UNL     1     -38.935 -22.134  28.202  1.00  0.00     0.131 C 
BRANCH  30  38
ATOM     38  O   UNL     1     -37.706 -21.033  24.047  1.00  0.00    -0.507 OA
ATOM     39  H   UNL     1     -36.710 -21.141  24.011  1.00  0.00     0.293 HD
ENDBRANCH  30  38
BRANCH  35  40
ATOM     40  C   UNL     1     -41.459 -21.772  28.087  1.00  0.00    -0.003 A 
ATOM     41  C   UNL     1     -41.769 -21.756  26.716  1.00  0.00     0.057 A 
ATOM     42  C   UNL     1     -42.421 -22.272  28.983  1.00  0.00     0.011 A 
ATOM     43  C   UNL     1     -43.016 -22.175  26.250  1.00  0.00     0.158 A 
ATOM     44  C   UNL     1     -43.669 -22.701  28.525  1.00  0.00     0.051 A 
ATOM     45  C   UNL     1     -43.982 -22.655  27.151  1.00  0.00     0.160 A 
BRANCH  43  46
ATOM     46  O   UNL     1     -43.277 -22.103  24.885  1.00  0.00    -0.504 OA
ATOM     47  H   UNL     1     -43.827 -22.800  24.400  1.00  0.00     0.293 HD
ENDBRANCH  43  46
BRANCH  45  48
ATOM     48  O   UNL     1     -45.227 -23.069  26.656  1.00  0.00    -0.493 OA
ATOM     49  C   UNL     1     -46.443 -22.978  27.388  1.00  0.00     0.278 C 
ENDBRANCH  45  48
ENDBRANCH  35  40
ENDBRANCH  26  27
ENDBRANCH   5  26
BRANCH   4  50
ATOM     50  O   UNL     1     -40.439 -14.779  21.548  1.00  0.00    -0.384 OA
ATOM     51  H   UNL     1     -40.115 -13.880  21.267  1.00  0.00     0.211 HD
ENDBRANCH   4  50
TORSDOF 15
ENDMDL
MODEL 7
REMARK VINA RESULT:    -5.427      3.110      8.160
REMARK INTER + INTRA:         -12.036
REMARK INTER:                  -9.313
REMARK INTRA:                  -2.723
REMARK UNBOUND:                -3.119
REMARK SMILES COc1ccc([C@H]2CC(=O)c3c(O)cc(O[C@H]4O[C@@H](CO[C@@H]5O[C@H](C)[C@H](O)[C@@H](O)[C@@H]5O)[C@@H](O)[C@@H](O)[C@@H]4O)cc3O2)cc1O
REMARK SMILES IDX 19 1 32 2 34 3 36 4 17 5 18 6 20 7 21 8 22 9 25 10 24 11
REMARK SMILES IDX 26 12 23 13 28 14 30 15 27 16 29 18 31 20 33 22 35 24 16 26
REMARK SMILES IDX 15 27 14 28 38 29 12 30 39 31 11 32 40 33 9 34 7 35 10 36
REMARK SMILES IDX 8 37 13 38 6 40 41 41 5 42 42 43 4 44 3 45 43 46 2 48 1 49
REMARK SMILES IDX 37 50
REMARK H PARENT 27 17 29 19 31 21 33 23 35 25 13 39 43 47 37 51
REMARK Flexibility Score: inf
ROOT
ATOM      1  C   UNL     1     -39.704 -14.156  23.921  1.00  0.00     0.180 C 
ATOM      2  C   UNL     1     -38.784 -13.725  22.726  1.00  0.00     0.177 C 
ATOM      3  C   UNL     1     -39.289 -12.472  21.997  1.00  0.00     0.180 C 
ATOM      4  C   UNL     1     -39.670 -11.403  23.025  1.00  0.00     0.214 C 
ATOM      5  C   UNL     1     -40.701 -11.984  24.029  1.00  0.00     0.339 C 
ATOM      6  O   UNL     1     -40.147 -13.082  24.746  1.00  0.00    -0.332 OA
ENDROOT
BRANCH   1   7
ATOM      7  C   UNL     1     -40.846 -15.143  23.557  1.00  0.00     0.198 C 
BRANCH   7   8
ATOM      8  O   UNL     1     -40.726 -16.347  24.300  1.00  0.00    -0.347 OA
BRANCH   8   9
ATOM      9  C   UNL     1     -41.450 -16.371  25.525  1.00  0.00     0.281 C 
ATOM     10  C   UNL     1     -39.121 -18.440  25.316  1.00  0.00     0.041 C 
ATOM     11  C   UNL     1     -40.216 -18.241  26.384  1.00  0.00     0.150 C 
ATOM     12  C   UNL     1     -41.422 -19.194  26.207  1.00  0.00     0.174 C 
ATOM     13  O   UNL     1     -40.603 -16.870  26.558  1.00  0.00    -0.344 OA
ATOM     14  C   UNL     1     -42.390 -18.683  25.128  1.00  0.00     0.179 C 
ATOM     15  C   UNL     1     -42.744 -17.225  25.426  1.00  0.00     0.202 C 
BRANCH  12  16
ATOM     16  O   UNL     1     -40.991 -20.521  25.973  1.00  0.00    -0.388 OA
ATOM     17  H   UNL     1     -41.625 -20.957  25.344  1.00  0.00     0.211 HD
ENDBRANCH  12  16
BRANCH  14  18
ATOM     18  O   UNL     1     -43.544 -19.490  25.125  1.00  0.00    -0.387 OA
ATOM     19  H   UNL     1     -43.266 -20.383  25.455  1.00  0.00     0.211 HD
ENDBRANCH  14  18
BRANCH  15  20
ATOM     20  O   UNL     1     -43.595 -16.719  24.438  1.00  0.00    -0.385 OA
ATOM     21  H   UNL     1     -43.896 -17.491  23.884  1.00  0.00     0.211 HD
ENDBRANCH  15  20
ENDBRANCH   8   9
ENDBRANCH   7   8
ENDBRANCH   1   7
BRANCH   2  22
ATOM     22  O   UNL     1     -38.607 -14.760  21.788  1.00  0.00    -0.387 OA
ATOM     23  H   UNL     1     -39.072 -15.548  22.162  1.00  0.00     0.211 HD
ENDBRANCH   2  22
BRANCH   3  24
ATOM     24  O   UNL     1     -40.411 -12.782  21.195  1.00  0.00    -0.387 OA
ATOM     25  H   UNL     1     -41.220 -12.565  21.725  1.00  0.00     0.211 HD
ENDBRANCH   3  24
BRANCH   5  26
ATOM     26  O   UNL     1     -41.923 -12.380  23.392  1.00  0.00    -0.462 OA
BRANCH  26  27
ATOM     27  C   UNL     1     -43.212 -12.317  23.939  1.00  0.00     0.130 A 
ATOM     28  C   UNL     1     -43.474 -11.767  25.207  1.00  0.00     0.093 A 
ATOM     29  C   UNL     1     -44.258 -12.851  23.191  1.00  0.00     0.094 A 
ATOM     30  C   UNL     1     -44.782 -11.714  25.704  1.00  0.00     0.133 A 
ATOM     31  C   UNL     1     -45.558 -12.864  23.706  1.00  0.00     0.138 A 
ATOM     32  C   UNL     1     -45.846 -12.231  24.926  1.00  0.00     0.102 A 
ATOM     33  O   UNL     1     -46.557 -13.559  23.018  1.00  0.00    -0.484 OA
ATOM     34  C   UNL     1     -47.273 -12.184  25.340  1.00  0.00     0.174 C 
ATOM     35  C   UNL     1     -47.707 -14.089  23.681  1.00  0.00     0.211 C 
ATOM     36  O   UNL     1     -47.683 -11.272  26.099  1.00  0.00    -0.294 OA
ATOM     37  C   UNL     1     -48.299 -13.076  24.689  1.00  0.00     0.131 C 
BRANCH  30  38
ATOM     38  O   UNL     1     -44.958 -11.189  26.984  1.00  0.00    -0.507 OA
ATOM     39  H   UNL     1     -44.438 -10.409  27.340  1.00  0.00     0.293 HD
ENDBRANCH  30  38
BRANCH  35  40
ATOM     40  C   UNL     1     -47.384 -15.431  24.324  1.00  0.00    -0.003 A 
ATOM     41  C   UNL     1     -47.233 -15.577  25.714  1.00  0.00     0.057 A 
ATOM     42  C   UNL     1     -47.212 -16.566  23.511  1.00  0.00     0.011 A 
ATOM     43  C   UNL     1     -46.871 -16.801  26.279  1.00  0.00     0.158 A 
ATOM     44  C   UNL     1     -46.857 -17.797  24.069  1.00  0.00     0.051 A 
ATOM     45  C   UNL     1     -46.680 -17.928  25.461  1.00  0.00     0.160 A 
BRANCH  43  46
ATOM     46  O   UNL     1     -46.703 -16.875  27.659  1.00  0.00    -0.504 OA
ATOM     47  H   UNL     1     -46.628 -17.756  28.149  1.00  0.00     0.293 HD
ENDBRANCH  43  46
BRANCH  45  48
ATOM     48  O   UNL     1     -46.315 -19.145  26.056  1.00  0.00    -0.493 OA
ATOM     49  C   UNL     1     -47.246 -20.142  26.458  1.00  0.00     0.278 C 
ENDBRANCH  45  48
ENDBRANCH  35  40
ENDBRANCH  26  27
ENDBRANCH   5  26
BRANCH   4  50
ATOM     50  O   UNL     1     -38.510 -10.983  23.698  1.00  0.00    -0.384 OA
ATOM     51  H   UNL     1     -38.801 -10.420  24.466  1.00  0.00     0.211 HD
ENDBRANCH   4  50
TORSDOF 15
ENDMDL
MODEL 8
REMARK VINA RESULT:    -5.411      1.365      2.137
REMARK INTER + INTRA:         -12.009
REMARK INTER:                  -8.521
REMARK INTRA:                  -3.488
REMARK UNBOUND:                -3.119
REMARK SMILES COc1ccc([C@H]2CC(=O)c3c(O)cc(O[C@H]4O[C@@H](CO[C@@H]5O[C@H](C)[C@H](O)[C@@H](O)[C@@H]5O)[C@@H](O)[C@@H](O)[C@@H]4O)cc3O2)cc1O
REMARK SMILES IDX 19 1 32 2 34 3 36 4 17 5 18 6 20 7 21 8 22 9 25 10 24 11
REMARK SMILES IDX 26 12 23 13 28 14 30 15 27 16 29 18 31 20 33 22 35 24 16 26
REMARK SMILES IDX 15 27 14 28 38 29 12 30 39 31 11 32 40 33 9 34 7 35 10 36
REMARK SMILES IDX 8 37 13 38 6 40 41 41 5 42 42 43 4 44 3 45 43 46 2 48 1 49
REMARK SMILES IDX 37 50
REMARK H PARENT 27 17 29 19 31 21 33 23 35 25 13 39 43 47 37 51
REMARK Flexibility Score: inf
ROOT
ATOM      1  C   UNL     1     -42.677 -15.502  23.981  1.00  0.00     0.180 C 
ATOM      2  C   UNL     1     -42.253 -14.025  24.295  1.00  0.00     0.177 C 
ATOM      3  C   UNL     1     -40.763 -13.885  24.644  1.00  0.00     0.180 C 
ATOM      4  C   UNL     1     -39.927 -14.667  23.626  1.00  0.00     0.214 C 
ATOM      5  C   UNL     1     -40.408 -16.141  23.573  1.00  0.00     0.339 C 
ATOM      6  O   UNL     1     -41.766 -16.218  23.152  1.00  0.00    -0.332 OA
ENDROOT
BRANCH   1   7
ATOM      7  C   UNL     1     -43.151 -16.330  25.205  1.00  0.00     0.198 C 
BRANCH   7   8
ATOM      8  O   UNL     1     -43.705 -17.570  24.790  1.00  0.00    -0.347 OA
BRANCH   8   9
ATOM      9  C   UNL     1     -45.035 -17.813  25.235  1.00  0.00     0.281 C 
ATOM     10  C   UNL     1     -42.926 -19.938  26.123  1.00  0.00     0.041 C 
ATOM     11  C   UNL     1     -44.462 -19.904  26.263  1.00  0.00     0.150 C 
ATOM     12  C   UNL     1     -45.194 -20.712  25.164  1.00  0.00     0.174 C 
ATOM     13  O   UNL     1     -44.992 -18.581  26.435  1.00  0.00    -0.344 OA
ATOM     14  C   UNL     1     -45.301 -19.913  23.855  1.00  0.00     0.179 C 
ATOM     15  C   UNL     1     -45.891 -18.535  24.159  1.00  0.00     0.202 C 
BRANCH  12  16
ATOM     16  O   UNL     1     -44.595 -21.982  24.984  1.00  0.00    -0.388 OA
ATOM     17  H   UNL     1     -44.727 -22.517  25.811  1.00  0.00     0.211 HD
ENDBRANCH  12  16
BRANCH  14  18
ATOM     18  O   UNL     1     -46.115 -20.621  22.950  1.00  0.00    -0.387 OA
ATOM     19  H   UNL     1     -46.192 -20.056  22.138  1.00  0.00     0.211 HD
ENDBRANCH  14  18
BRANCH  15  20
ATOM     20  O   UNL     1     -45.967 -17.769  22.991  1.00  0.00    -0.385 OA
ATOM     21  H   UNL     1     -46.094 -18.402  22.231  1.00  0.00     0.211 HD
ENDBRANCH  15  20
ENDBRANCH   8   9
ENDBRANCH   7   8
ENDBRANCH   1   7
BRANCH   2  22
ATOM     22  O   UNL     1     -43.019 -13.457  25.330  1.00  0.00    -0.387 OA
ATOM     23  H   UNL     1     -42.935 -14.071  26.100  1.00  0.00     0.211 HD
ENDBRANCH   2  22
BRANCH   3  24
ATOM     24  O   UNL     1     -40.510 -14.376  25.945  1.00  0.00    -0.387 OA
ATOM     25  H   UNL     1     -41.229 -14.031  26.534  1.00  0.00     0.211 HD
ENDBRANCH   3  24
BRANCH   5  26
ATOM     26  O   UNL     1     -40.245 -16.817  24.828  1.00  0.00    -0.462 OA
BRANCH  26  27
ATOM     27  C   UNL     1     -39.688 -18.086  25.031  1.00  0.00     0.130 A 
ATOM     28  C   UNL     1     -39.321 -18.935  23.970  1.00  0.00     0.093 A 
ATOM     29  C   UNL     1     -39.525 -18.518  26.344  1.00  0.00     0.094 A 
ATOM     30  C   UNL     1     -38.756 -20.190  24.224  1.00  0.00     0.133 A 
ATOM     31  C   UNL     1     -39.022 -19.796  26.609  1.00  0.00     0.138 A 
ATOM     32  C   UNL     1     -38.563 -20.611  25.562  1.00  0.00     0.102 A 
ATOM     33  O   UNL     1     -39.031 -20.273  27.924  1.00  0.00    -0.484 OA
ATOM     34  C   UNL     1     -37.932 -21.902  25.940  1.00  0.00     0.174 C 
ATOM     35  C   UNL     1     -39.073 -21.670  28.224  1.00  0.00     0.211 C 
ATOM     36  O   UNL     1     -37.090 -22.443  25.182  1.00  0.00    -0.294 OA
ATOM     37  C   UNL     1     -38.105 -22.473  27.325  1.00  0.00     0.131 C 
BRANCH  30  38
ATOM     38  O   UNL     1     -38.453 -20.989  23.122  1.00  0.00    -0.507 OA
ATOM     39  H   UNL     1     -39.080 -21.132  22.352  1.00  0.00     0.293 HD
ENDBRANCH  30  38
BRANCH  35  40
ATOM     40  C   UNL     1     -40.502 -22.190  28.153  1.00  0.00    -0.003 A 
ATOM     41  C   UNL     1     -40.947 -23.017  27.106  1.00  0.00     0.057 A 
ATOM     42  C   UNL     1     -41.424 -21.826  29.152  1.00  0.00     0.011 A 
ATOM     43  C   UNL     1     -42.277 -23.429  27.022  1.00  0.00     0.158 A 
ATOM     44  C   UNL     1     -42.756 -22.241  29.080  1.00  0.00     0.051 A 
ATOM     45  C   UNL     1     -43.199 -23.046  28.012  1.00  0.00     0.160 A 
BRANCH  43  46
ATOM     46  O   UNL     1     -42.665 -24.218  25.942  1.00  0.00    -0.504 OA
ATOM     47  H   UNL     1     -42.206 -24.168  25.042  1.00  0.00     0.293 HD
ENDBRANCH  43  46
BRANCH  45  48
ATOM     48  O   UNL     1     -44.531 -23.474  27.902  1.00  0.00    -0.493 OA
ATOM     49  C   UNL     1     -45.640 -22.763  28.438  1.00  0.00     0.278 C 
ENDBRANCH  45  48
ENDBRANCH  35  40
ENDBRANCH  26  27
ENDBRANCH   5  26
BRANCH   4  50
ATOM     50  O   UNL     1     -40.058 -14.061  22.366  1.00  0.00    -0.384 OA
ATOM     51  H   UNL     1     -40.725 -13.326  22.457  1.00  0.00     0.211 HD
ENDBRANCH   4  50
TORSDOF 15
ENDMDL
MODEL 9
REMARK VINA RESULT:    -5.357      2.159      6.489
REMARK INTER + INTRA:         -11.920
REMARK INTER:                  -9.028
REMARK INTRA:                  -2.893
REMARK UNBOUND:                -3.119
REMARK SMILES COc1ccc([C@H]2CC(=O)c3c(O)cc(O[C@H]4O[C@@H](CO[C@@H]5O[C@H](C)[C@H](O)[C@@H](O)[C@@H]5O)[C@@H](O)[C@@H](O)[C@@H]4O)cc3O2)cc1O
REMARK SMILES IDX 19 1 32 2 34 3 36 4 17 5 18 6 20 7 21 8 22 9 25 10 24 11
REMARK SMILES IDX 26 12 23 13 28 14 30 15 27 16 29 18 31 20 33 22 35 24 16 26
REMARK SMILES IDX 15 27 14 28 38 29 12 30 39 31 11 32 40 33 9 34 7 35 10 36
REMARK SMILES IDX 8 37 13 38 6 40 41 41 5 42 42 43 4 44 3 45 43 46 2 48 1 49
REMARK SMILES IDX 37 50
REMARK H PARENT 27 17 29 19 31 21 33 23 35 25 13 39 43 47 37 51
REMARK Flexibility Score: inf
ROOT
ATOM      1  C   UNL     1     -40.259 -14.503  23.720  1.00  0.00     0.180 C 
ATOM      2  C   UNL     1     -40.283 -13.095  23.030  1.00  0.00     0.177 C 
ATOM      3  C   UNL     1     -41.570 -12.305  23.313  1.00  0.00     0.180 C 
ATOM      4  C   UNL     1     -41.889 -12.372  24.809  1.00  0.00     0.214 C 
ATOM      5  C   UNL     1     -41.968 -13.853  25.264  1.00  0.00     0.339 C 
ATOM      6  O   UNL     1     -40.721 -14.511  25.068  1.00  0.00    -0.332 OA
ENDROOT
BRANCH   1   7
ATOM      7  C   UNL     1     -40.851 -15.665  22.877  1.00  0.00     0.198 C 
BRANCH   7   8
ATOM      8  O   UNL     1     -39.929 -16.741  22.787  1.00  0.00    -0.347 OA
BRANCH   8   9
ATOM      9  C   UNL     1     -40.070 -17.738  23.792  1.00  0.00     0.281 C 
ATOM     10  C   UNL     1     -37.127 -16.986  23.069  1.00  0.00     0.041 C 
ATOM     11  C   UNL     1     -37.704 -18.094  23.974  1.00  0.00     0.150 C 
ATOM     12  C   UNL     1     -37.797 -19.470  23.272  1.00  0.00     0.174 C 
ATOM     13  O   UNL     1     -38.921 -17.717  24.635  1.00  0.00    -0.344 OA
ATOM     14  C   UNL     1     -39.042 -19.561  22.375  1.00  0.00     0.179 C 
ATOM     15  C   UNL     1     -40.272 -19.156  23.188  1.00  0.00     0.202 C 
BRANCH  12  16
ATOM     16  O   UNL     1     -36.599 -19.768  22.579  1.00  0.00    -0.388 OA
ATOM     17  H   UNL     1     -36.091 -18.925  22.443  1.00  0.00     0.211 HD
ENDBRANCH  12  16
BRANCH  14  18
ATOM     18  O   UNL     1     -39.168 -20.880  21.896  1.00  0.00    -0.387 OA
ATOM     19  H   UNL     1     -39.790 -20.842  21.125  1.00  0.00     0.211 HD
ENDBRANCH  14  18
BRANCH  15  20
ATOM     20  O   UNL     1     -41.419 -19.193  22.387  1.00  0.00    -0.385 OA
ATOM     21  H   UNL     1     -41.397 -18.386  21.803  1.00  0.00     0.211 HD
ENDBRANCH  15  20
ENDBRANCH   8   9
ENDBRANCH   7   8
ENDBRANCH   1   7
BRANCH   2  22
ATOM     22  O   UNL     1     -40.095 -13.179  21.638  1.00  0.00    -0.387 OA
ATOM     23  H   UNL     1     -39.393 -13.862  21.499  1.00  0.00     0.211 HD
ENDBRANCH   2  22
BRANCH   3  24
ATOM     24  O   UNL     1     -42.650 -12.834  22.571  1.00  0.00    -0.387 OA
ATOM     25  H   UNL     1     -42.493 -12.604  21.619  1.00  0.00     0.211 HD
ENDBRANCH   3  24
BRANCH   5  26
ATOM     26  O   UNL     1     -43.013 -14.576  24.598  1.00  0.00    -0.462 OA
BRANCH  26  27
ATOM     27  C   UNL     1     -43.714 -15.683  25.094  1.00  0.00     0.130 A 
ATOM     28  C   UNL     1     -44.638 -15.588  26.151  1.00  0.00     0.093 A 
ATOM     29  C   UNL     1     -43.450 -16.925  24.523  1.00  0.00     0.094 A 
ATOM     30  C   UNL     1     -45.324 -16.722  26.603  1.00  0.00     0.133 A 
ATOM     31  C   UNL     1     -44.079 -18.074  25.010  1.00  0.00     0.138 A 
ATOM     32  C   UNL     1     -45.074 -17.976  25.997  1.00  0.00     0.102 A 
ATOM     33  O   UNL     1     -43.670 -19.327  24.542  1.00  0.00    -0.484 OA
ATOM     34  C   UNL     1     -45.778 -19.231  26.370  1.00  0.00     0.174 C 
ATOM     35  C   UNL     1     -43.825 -20.516  25.321  1.00  0.00     0.211 C 
ATOM     36  O   UNL     1     -46.944 -19.189  26.835  1.00  0.00    -0.294 OA
ATOM     37  C   UNL     1     -45.216 -20.578  25.993  1.00  0.00     0.131 C 
BRANCH  30  38
ATOM     38  O   UNL     1     -46.195 -16.554  27.679  1.00  0.00    -0.507 OA
ATOM     39  H   UNL     1     -46.335 -17.244  28.392  1.00  0.00     0.293 HD
ENDBRANCH  30  38
BRANCH  35  40
ATOM     40  C   UNL     1     -42.686 -20.653  26.322  1.00  0.00    -0.003 A 
ATOM     41  C   UNL     1     -41.635 -19.720  26.391  1.00  0.00     0.057 A 
ATOM     42  C   UNL     1     -42.661 -21.751  27.200  1.00  0.00     0.011 A 
ATOM     43  C   UNL     1     -40.565 -19.897  27.268  1.00  0.00     0.158 A 
ATOM     44  C   UNL     1     -41.597 -21.932  28.087  1.00  0.00     0.051 A 
ATOM     45  C   UNL     1     -40.534 -21.007  28.130  1.00  0.00     0.160 A 
BRANCH  43  46
ATOM     46  O   UNL     1     -39.538 -18.958  27.266  1.00  0.00    -0.504 OA
ATOM     47  H   UNL     1     -39.120 -18.610  28.119  1.00  0.00     0.293 HD
ENDBRANCH  43  46
BRANCH  45  48
ATOM     48  O   UNL     1     -39.445 -21.161  29.001  1.00  0.00    -0.493 OA
ATOM     49  C   UNL     1     -38.221 -21.787  28.638  1.00  0.00     0.278 C 
ENDBRANCH  45  48
ENDBRANCH  35  40
ENDBRANCH  26  27
ENDBRANCH   5  26
BRANCH   4  50
ATOM     50  O   UNL     1     -40.888 -11.691  25.521  1.00  0.00    -0.384 OA
ATOM     51  H   UNL     1     -41.275 -11.431  26.402  1.00  0.00     0.211 HD
ENDBRANCH   4  50
TORSDOF 15
ENDMDL
