MODEL 1
REMARK VINA RESULT:    -4.498      0.000      0.000
REMARK INTER + INTRA:         -10.157
REMARK INTER:                  -8.180
REMARK INTRA:                  -1.977
REMARK UNBOUND:                -1.977
REMARK SMILES CCCCCCCCCCCCCC[C@@H](C)C(=O)[O-]
REMARK SMILES IDX 9 1 10 2 11 3 12 4 13 5 14 6 15 7 16 8 17 9 18 10 19 11 8 12
REMARK SMILES IDX 7 13 6 14 5 15 4 16 3 17 2 18 1 19
REMARK H PARENT
REMARK Flexibility Score: inf
ROOT
ATOM      1  C   UNL     1      94.682 104.465  89.750  1.00  0.00     0.000 C 
ENDROOT
BRANCH   1   2
ATOM      2  C   UNL     1      94.635 103.040  89.162  1.00  0.00     0.000 C 
BRANCH   2   3
ATOM      3  C   UNL     1      93.265 102.343  89.253  1.00  0.00     0.000 C 
BRANCH   3   4
ATOM      4  C   UNL     1      92.467 102.761  90.501  1.00  0.00     0.000 C 
BRANCH   4   5
ATOM      5  C   UNL     1      92.471 101.677  91.593  1.00  0.00     0.001 C 
BRANCH   5   6
ATOM      6  C   UNL     1      92.407 100.252  91.010  1.00  0.00     0.009 C 
BRANCH   6   7
ATOM      7  C   UNL     1      91.843  99.224  92.014  1.00  0.00     0.032 C 
ATOM      8  C   UNL     1      92.589  99.246  93.354  1.00  0.00     0.014 C 
BRANCH   7   9
ATOM      9  C   UNL     1      90.382  99.495  92.249  1.00  0.00     0.044 C 
ATOM     10  O   UNL     1      89.541  99.275  91.338  1.00  0.00    -0.550 OA
ATOM     11  O   UNL     1      89.948  99.990  93.475  1.00  0.00    -0.550 OA
ENDBRANCH   7   9
ENDBRANCH   6   7
ENDBRANCH   5   6
ENDBRANCH   4   5
ENDBRANCH   3   4
ENDBRANCH   2   3
ENDBRANCH   1   2
BRANCH   1  12
ATOM     12  C   UNL     1      95.957 105.269  89.421  1.00  0.00     0.000 C 
BRANCH  12  13
ATOM     13  C   UNL     1      97.055 104.484  88.681  1.00  0.00    -0.000 C 
BRANCH  13  14
ATOM     14  C   UNL     1      98.446 104.665  89.311  1.00  0.00    -0.000 C 
BRANCH  14  15
ATOM     15  C   UNL     1      99.150 103.327  89.604  1.00  0.00    -0.000 C 
BRANCH  15  16
ATOM     16  C   UNL     1      98.211 102.139  89.886  1.00  0.00    -0.000 C 
BRANCH  16  17
ATOM     17  C   UNL     1      98.163 101.750  91.371  1.00  0.00    -0.000 C 
BRANCH  17  18
ATOM     18  C   UNL     1      96.715 101.613  91.856  1.00  0.00    -0.003 C 
ATOM     19  C   UNL     1      96.065 100.349  91.301  1.00  0.00     0.004 C 
ENDBRANCH  17  18
ENDBRANCH  16  17
ENDBRANCH  15  16
ENDBRANCH  14  15
ENDBRANCH  13  14
ENDBRANCH  12  13
ENDBRANCH   1  12
TORSDOF 14
ENDMDL
MODEL 2
REMARK VINA RESULT:    -4.477      9.974     12.982
REMARK INTER + INTRA:         -10.117
REMARK INTER:                  -7.991
REMARK INTRA:                  -2.126
REMARK UNBOUND:                -1.977
REMARK SMILES CCCCCCCCCCCCCC[C@@H](C)C(=O)[O-]
REMARK SMILES IDX 9 1 10 2 11 3 12 4 13 5 14 6 15 7 16 8 17 9 18 10 19 11 8 12
REMARK SMILES IDX 7 13 6 14 5 15 4 16 3 17 2 18 1 19
REMARK H PARENT
REMARK Flexibility Score: inf
ROOT
ATOM      1  C   UNL     1     103.288  93.689  89.846  1.00  0.00     0.000 C 
ENDROOT
BRANCH   1   2
ATOM      2  C   UNL     1     103.574  94.959  89.020  1.00  0.00     0.000 C 
BRANCH   2   3
ATOM      3  C   UNL     1     104.918  95.645  89.324  1.00  0.00     0.000 C 
BRANCH   3   4
ATOM      4  C   UNL     1     105.529  95.191  90.662  1.00  0.00     0.000 C 
BRANCH   4   5
ATOM      5  C   UNL     1     106.008  96.373  91.522  1.00  0.00     0.001 C 
BRANCH   5   6
ATOM      6  C   UNL     1     105.901  97.721  90.784  1.00  0.00     0.009 C 
BRANCH   6   7
ATOM      7  C   UNL     1     106.130  98.929  91.718  1.00  0.00     0.032 C 
ATOM      8  C   UNL     1     105.600  98.680  93.136  1.00  0.00     0.014 C 
BRANCH   7   9
ATOM      9  C   UNL     1     107.599  99.249  91.781  1.00  0.00     0.044 C 
ATOM     10  O   UNL     1     108.127  99.976  90.899  1.00  0.00    -0.550 OA
ATOM     11  O   UNL     1     108.383  98.744  92.812  1.00  0.00    -0.550 OA
ENDBRANCH   7   9
ENDBRANCH   6   7
ENDBRANCH   5   6
ENDBRANCH   4   5
ENDBRANCH   3   4
ENDBRANCH   2   3
ENDBRANCH   1   2
BRANCH   1  12
ATOM     12  C   UNL     1     102.076  92.858  89.376  1.00  0.00     0.000 C 
BRANCH  12  13
ATOM     13  C   UNL     1     100.999  93.647  88.608  1.00  0.00    -0.000 C 
BRANCH  13  14
ATOM     14  C   UNL     1      99.583  93.418  89.163  1.00  0.00    -0.000 C 
BRANCH  14  15
ATOM     15  C   UNL     1      99.070  94.602  90.004  1.00  0.00    -0.000 C 
BRANCH  15  16
ATOM     16  C   UNL     1      99.989  95.837  90.028  1.00  0.00    -0.000 C 
BRANCH  16  17
ATOM     17  C   UNL     1     100.253  96.362  91.447  1.00  0.00    -0.000 C 
BRANCH  17  18
ATOM     18  C   UNL     1     101.747  96.622  91.668  1.00  0.00    -0.003 C 
ATOM     19  C   UNL     1     102.212  97.852  90.894  1.00  0.00     0.004 C 
ENDBRANCH  17  18
ENDBRANCH  16  17
ENDBRANCH  15  16
ENDBRANCH  14  15
ENDBRANCH  13  14
ENDBRANCH  12  13
ENDBRANCH   1  12
TORSDOF 14
ENDMDL
MODEL 3
REMARK VINA RESULT:    -4.376      1.018      1.649
REMARK INTER + INTRA:          -9.933
REMARK INTER:                  -7.595
REMARK INTRA:                  -2.339
REMARK UNBOUND:                -1.977
REMARK SMILES CCCCCCCCCCCCCC[C@@H](C)C(=O)[O-]
REMARK SMILES IDX 9 1 10 2 11 3 12 4 13 5 14 6 15 7 16 8 17 9 18 10 19 11 8 12
REMARK SMILES IDX 7 13 6 14 5 15 4 16 3 17 2 18 1 19
REMARK H PARENT
REMARK Flexibility Score: inf
ROOT
ATOM      1  C   UNL     1      95.723 105.066  89.464  1.00  0.00     0.000 C 
ENDROOT
BRANCH   1   2
ATOM      2  C   UNL     1      94.844 103.799  89.469  1.00  0.00     0.000 C 
BRANCH   2   3
ATOM      3  C   UNL     1      93.914 103.656  90.687  1.00  0.00     0.000 C 
BRANCH   3   4
ATOM      4  C   UNL     1      92.472 103.285  90.295  1.00  0.00     0.000 C 
BRANCH   4   5
ATOM      5  C   UNL     1      92.200 101.776  90.412  1.00  0.00     0.001 C 
BRANCH   5   6
ATOM      6  C   UNL     1      92.165 101.294  91.874  1.00  0.00     0.009 C 
BRANCH   6   7
ATOM      7  C   UNL     1      91.788  99.802  92.000  1.00  0.00     0.032 C 
ATOM      8  C   UNL     1      92.631  99.072  93.054  1.00  0.00     0.014 C 
BRANCH   7   9
ATOM      9  C   UNL     1      90.330  99.677  92.350  1.00  0.00     0.044 C 
ATOM     10  O   UNL     1      89.789  98.541  92.412  1.00  0.00    -0.550 OA
ATOM     11  O   UNL     1      89.569 100.812  92.607  1.00  0.00    -0.550 OA
ENDBRANCH   7   9
ENDBRANCH   6   7
ENDBRANCH   5   6
ENDBRANCH   4   5
ENDBRANCH   3   4
ENDBRANCH   2   3
ENDBRANCH   1   2
BRANCH   1  12
ATOM     12  C   UNL     1      97.217 104.828  89.163  1.00  0.00     0.000 C 
BRANCH  12  13
ATOM     13  C   UNL     1      97.627 103.352  89.003  1.00  0.00    -0.000 C 
BRANCH  13  14
ATOM     14  C   UNL     1      98.554 102.865  90.129  1.00  0.00    -0.000 C 
BRANCH  14  15
ATOM     15  C   UNL     1      98.120 101.511  90.719  1.00  0.00    -0.000 C 
BRANCH  15  16
ATOM     16  C   UNL     1      96.956 101.576  91.725  1.00  0.00    -0.000 C 
BRANCH  16  17
ATOM     17  C   UNL     1      95.831 100.580  91.409  1.00  0.00    -0.000 C 
BRANCH  17  18
ATOM     18  C   UNL     1      95.900 100.120  89.948  1.00  0.00    -0.003 C 
ATOM     19  C   UNL     1      94.705  99.242  89.590  1.00  0.00     0.004 C 
ENDBRANCH  17  18
ENDBRANCH  16  17
ENDBRANCH  15  16
ENDBRANCH  14  15
ENDBRANCH  13  14
ENDBRANCH  12  13
ENDBRANCH   1  12
TORSDOF 14
ENDMDL
MODEL 4
REMARK VINA RESULT:    -4.283      9.545     12.694
REMARK INTER + INTRA:          -9.766
REMARK INTER:                  -7.903
REMARK INTRA:                  -1.863
REMARK UNBOUND:                -1.977
REMARK SMILES CCCCCCCCCCCCCC[C@@H](C)C(=O)[O-]
REMARK SMILES IDX 9 1 10 2 11 3 12 4 13 5 14 6 15 7 16 8 17 9 18 10 19 11 8 12
REMARK SMILES IDX 7 13 6 14 5 15 4 16 3 17 2 18 1 19
REMARK H PARENT
REMARK Flexibility Score: inf
ROOT
ATOM      1  C   UNL     1     103.166  95.765  91.956  1.00  0.00     0.000 C 
ENDROOT
BRANCH   1   2
ATOM      2  C   UNL     1     103.617  94.399  91.401  1.00  0.00     0.000 C 
BRANCH   2   3
ATOM      3  C   UNL     1     104.375  94.458  90.062  1.00  0.00     0.000 C 
BRANCH   3   4
ATOM      4  C   UNL     1     105.639  95.333  90.132  1.00  0.00     0.000 C 
BRANCH   4   5
ATOM      5  C   UNL     1     105.544  96.576  89.230  1.00  0.00     0.001 C 
BRANCH   5   6
ATOM      6  C   UNL     1     105.681  97.891  90.020  1.00  0.00     0.009 C 
BRANCH   6   7
ATOM      7  C   UNL     1     106.909  97.897  90.955  1.00  0.00     0.032 C 
ATOM      8  C   UNL     1     107.955  98.940  90.537  1.00  0.00     0.014 C 
BRANCH   7   9
ATOM      9  C   UNL     1     106.470  98.167  92.368  1.00  0.00     0.044 C 
ATOM     10  O   UNL     1     105.286  98.521  92.607  1.00  0.00    -0.550 OA
ATOM     11  O   UNL     1     107.368  98.026  93.421  1.00  0.00    -0.550 OA
ENDBRANCH   7   9
ENDBRANCH   6   7
ENDBRANCH   5   6
ENDBRANCH   4   5
ENDBRANCH   3   4
ENDBRANCH   2   3
ENDBRANCH   1   2
BRANCH   1  12
ATOM     12  C   UNL     1     102.242  96.579  91.026  1.00  0.00     0.000 C 
BRANCH  12  13
ATOM     13  C   UNL     1     101.007  97.198  91.706  1.00  0.00    -0.000 C 
BRANCH  13  14
ATOM     14  C   UNL     1      99.769  96.289  91.640  1.00  0.00    -0.000 C 
BRANCH  14  15
ATOM     15  C   UNL     1      99.485  95.765  90.220  1.00  0.00    -0.000 C 
BRANCH  15  16
ATOM     16  C   UNL     1      98.825  94.376  90.153  1.00  0.00    -0.000 C 
BRANCH  16  17
ATOM     17  C   UNL     1      99.389  93.495  89.028  1.00  0.00    -0.000 C 
BRANCH  17  18
ATOM     18  C   UNL     1     100.912  93.635  88.934  1.00  0.00    -0.003 C 
ATOM     19  C   UNL     1     101.604  92.292  89.151  1.00  0.00     0.004 C 
ENDBRANCH  17  18
ENDBRANCH  16  17
ENDBRANCH  15  16
ENDBRANCH  14  15
ENDBRANCH  13  14
ENDBRANCH  12  13
ENDBRANCH   1  12
TORSDOF 14
ENDMDL
MODEL 5
REMARK VINA RESULT:    -4.272      8.798     11.298
REMARK INTER + INTRA:          -9.745
REMARK INTER:                  -7.372
REMARK INTRA:                  -2.373
REMARK UNBOUND:                -1.977
REMARK SMILES CCCCCCCCCCCCCC[C@@H](C)C(=O)[O-]
REMARK SMILES IDX 9 1 10 2 11 3 12 4 13 5 14 6 15 7 16 8 17 9 18 10 19 11 8 12
REMARK SMILES IDX 7 13 6 14 5 15 4 16 3 17 2 18 1 19
REMARK H PARENT
REMARK Flexibility Score: inf
ROOT
ATOM      1  C   UNL     1     105.376  96.524  88.625  1.00  0.00     0.000 C 
ENDROOT
BRANCH   1   2
ATOM      2  C   UNL     1     105.756  96.240  90.092  1.00  0.00     0.000 C 
BRANCH   2   3
ATOM      3  C   UNL     1     105.134  94.965  90.691  1.00  0.00     0.000 C 
BRANCH   3   4
ATOM      4  C   UNL     1     104.054  94.348  89.784  1.00  0.00     0.000 C 
BRANCH   4   5
ATOM      5  C   UNL     1     102.658  94.373  90.430  1.00  0.00     0.001 C 
BRANCH   5   6
ATOM      6  C   UNL     1     101.956  95.734  90.267  1.00  0.00     0.009 C 
BRANCH   6   7
ATOM      7  C   UNL     1     101.809  96.491  91.604  1.00  0.00     0.032 C 
ATOM      8  C   UNL     1     102.743  97.706  91.694  1.00  0.00     0.014 C 
BRANCH   7   9
ATOM      9  C   UNL     1     100.385  96.941  91.778  1.00  0.00     0.044 C 
ATOM     10  O   UNL     1      99.455  96.093  91.836  1.00  0.00    -0.550 OA
ATOM     11  O   UNL     1     100.083  98.295  91.877  1.00  0.00    -0.550 OA
ENDBRANCH   7   9
ENDBRANCH   6   7
ENDBRANCH   5   6
ENDBRANCH   4   5
ENDBRANCH   3   4
ENDBRANCH   2   3
ENDBRANCH   1   2
BRANCH   1  12
ATOM     12  C   UNL     1     105.326  98.016  88.237  1.00  0.00     0.000 C 
BRANCH  12  13
ATOM     13  C   UNL     1     105.166  98.995  89.414  1.00  0.00    -0.000 C 
BRANCH  13  14
ATOM     14  C   UNL     1     106.207 100.127  89.396  1.00  0.00    -0.000 C 
BRANCH  14  15
ATOM     15  C   UNL     1     107.628  99.640  89.732  1.00  0.00    -0.000 C 
BRANCH  15  16
ATOM     16  C   UNL     1     107.986  99.643  91.230  1.00  0.00    -0.000 C 
BRANCH  16  17
ATOM     17  C   UNL     1     108.338  98.248  91.767  1.00  0.00    -0.000 C 
BRANCH  17  18
ATOM     18  C   UNL     1     107.507  97.914  93.011  1.00  0.00    -0.003 C 
ATOM     19  C   UNL     1     106.163  98.636  92.987  1.00  0.00     0.004 C 
ENDBRANCH  17  18
ENDBRANCH  16  17
ENDBRANCH  15  16
ENDBRANCH  14  15
ENDBRANCH  13  14
ENDBRANCH  12  13
ENDBRANCH   1  12
TORSDOF 14
ENDMDL
MODEL 6
REMARK VINA RESULT:    -4.261      9.681     12.551
REMARK INTER + INTRA:          -9.726
REMARK INTER:                  -7.772
REMARK INTRA:                  -1.954
REMARK UNBOUND:                -1.977
REMARK SMILES CCCCCCCCCCCCCC[C@@H](C)C(=O)[O-]
REMARK SMILES IDX 9 1 10 2 11 3 12 4 13 5 14 6 15 7 16 8 17 9 18 10 19 11 8 12
REMARK SMILES IDX 7 13 6 14 5 15 4 16 3 17 2 18 1 19
REMARK H PARENT
REMARK Flexibility Score: inf
ROOT
ATOM      1  C   UNL     1     103.323  94.763  89.364  1.00  0.00     0.000 C 
ENDROOT
BRANCH   1   2
ATOM      2  C   UNL     1     104.779  95.268  89.411  1.00  0.00     0.000 C 
BRANCH   2   3
ATOM      3  C   UNL     1     104.969  96.745  89.023  1.00  0.00     0.000 C 
BRANCH   3   4
ATOM      4  C   UNL     1     103.710  97.593  89.277  1.00  0.00     0.000 C 
BRANCH   4   5
ATOM      5  C   UNL     1     103.892  98.583  90.441  1.00  0.00     0.001 C 
BRANCH   5   6
ATOM      6  C   UNL     1     105.370  98.945  90.682  1.00  0.00     0.009 C 
BRANCH   6   7
ATOM      7  C   UNL     1     105.770  98.849  92.169  1.00  0.00     0.032 C 
ATOM      8  C   UNL     1     104.635  98.303  93.046  1.00  0.00     0.014 C 
BRANCH   7   9
ATOM      9  C   UNL     1     106.982  97.969  92.312  1.00  0.00     0.044 C 
ATOM     10  O   UNL     1     106.911  96.743  92.033  1.00  0.00    -0.550 OA
ATOM     11  O   UNL     1     108.188  98.502  92.754  1.00  0.00    -0.550 OA
ENDBRANCH   7   9
ENDBRANCH   6   7
ENDBRANCH   5   6
ENDBRANCH   4   5
ENDBRANCH   3   4
ENDBRANCH   2   3
ENDBRANCH   1   2
BRANCH   1  12
ATOM     12  C   UNL     1     103.110  93.322  89.873  1.00  0.00     0.000 C 
BRANCH  12  13
ATOM     13  C   UNL     1     101.856  92.613  89.329  1.00  0.00    -0.000 C 
BRANCH  13  14
ATOM     14  C   UNL     1     100.845  93.586  88.699  1.00  0.00    -0.000 C 
BRANCH  14  15
ATOM     15  C   UNL     1      99.410  93.377  89.215  1.00  0.00    -0.000 C 
BRANCH  15  16
ATOM     16  C   UNL     1      98.789  94.588  89.936  1.00  0.00    -0.000 C 
BRANCH  16  17
ATOM     17  C   UNL     1      99.722  95.807  89.974  1.00  0.00    -0.000 C 
BRANCH  17  18
ATOM     18  C   UNL     1      99.837  96.365  91.398  1.00  0.00    -0.003 C 
ATOM     19  C   UNL     1     101.293  96.426  91.850  1.00  0.00     0.004 C 
ENDBRANCH  17  18
ENDBRANCH  16  17
ENDBRANCH  15  16
ENDBRANCH  14  15
ENDBRANCH  13  14
ENDBRANCH  12  13
ENDBRANCH   1  12
TORSDOF 14
ENDMDL
MODEL 7
REMARK VINA RESULT:    -4.222      3.421      6.917
REMARK INTER + INTRA:          -9.654
REMARK INTER:                  -7.184
REMARK INTRA:                  -2.470
REMARK UNBOUND:                -1.977
REMARK SMILES CCCCCCCCCCCCCC[C@@H](C)C(=O)[O-]
REMARK SMILES IDX 9 1 10 2 11 3 12 4 13 5 14 6 15 7 16 8 17 9 18 10 19 11 8 12
REMARK SMILES IDX 7 13 6 14 5 15 4 16 3 17 2 18 1 19
REMARK H PARENT
REMARK Flexibility Score: inf
ROOT
ATOM      1  C   UNL     1      93.280  99.125  89.667  1.00  0.00     0.000 C 
ENDROOT
BRANCH   1   2
ATOM      2  C   UNL     1      93.318  99.924  88.349  1.00  0.00     0.000 C 
BRANCH   2   3
ATOM      3  C   UNL     1      92.723 101.342  88.430  1.00  0.00     0.000 C 
BRANCH   3   4
ATOM      4  C   UNL     1      92.181 101.680  89.830  1.00  0.00     0.000 C 
BRANCH   4   5
ATOM      5  C   UNL     1      92.855 102.923  90.437  1.00  0.00     0.001 C 
BRANCH   5   6
ATOM      6  C   UNL     1      93.971 103.488  89.538  1.00  0.00     0.009 C 
BRANCH   6   7
ATOM      7  C   UNL     1      95.352 103.478  90.227  1.00  0.00     0.032 C 
ATOM      8  C   UNL     1      95.740 102.084  90.739  1.00  0.00     0.014 C 
BRANCH   7   9
ATOM      9  C   UNL     1      96.401 103.970  89.268  1.00  0.00     0.044 C 
ATOM     10  O   UNL     1      97.206 103.159  88.739  1.00  0.00    -0.550 OA
ATOM     11  O   UNL     1      96.490 105.323  88.958  1.00  0.00    -0.550 OA
ENDBRANCH   7   9
ENDBRANCH   6   7
ENDBRANCH   5   6
ENDBRANCH   4   5
ENDBRANCH   3   4
ENDBRANCH   2   3
ENDBRANCH   1   2
BRANCH   1  12
ATOM     12  C   UNL     1      92.368  97.881  89.655  1.00  0.00     0.000 C 
BRANCH  12  13
ATOM     13  C   UNL     1      91.032  98.054  88.910  1.00  0.00    -0.000 C 
BRANCH  13  14
ATOM     14  C   UNL     1      89.939  98.692  89.784  1.00  0.00    -0.000 C 
BRANCH  14  15
ATOM     15  C   UNL     1      90.012  98.247  91.256  1.00  0.00    -0.000 C 
BRANCH  15  16
ATOM     16  C   UNL     1      89.687  99.342  92.289  1.00  0.00    -0.000 C 
BRANCH  16  17
ATOM     17  C   UNL     1      90.933 100.099  92.774  1.00  0.00    -0.000 C 
BRANCH  17  18
ATOM     18  C   UNL     1      92.047  99.124  93.172  1.00  0.00    -0.003 C 
ATOM     19  C   UNL     1      93.418  99.789  93.086  1.00  0.00     0.004 C 
ENDBRANCH  17  18
ENDBRANCH  16  17
ENDBRANCH  15  16
ENDBRANCH  14  15
ENDBRANCH  13  14
ENDBRANCH  12  13
ENDBRANCH   1  12
TORSDOF 14
ENDMDL
MODEL 8
REMARK VINA RESULT:    -4.216      3.414      7.040
REMARK INTER + INTRA:          -9.642
REMARK INTER:                  -7.262
REMARK INTRA:                  -2.381
REMARK UNBOUND:                -1.977
REMARK SMILES CCCCCCCCCCCCCC[C@@H](C)C(=O)[O-]
REMARK SMILES IDX 9 1 10 2 11 3 12 4 13 5 14 6 15 7 16 8 17 9 18 10 19 11 8 12
REMARK SMILES IDX 7 13 6 14 5 15 4 16 3 17 2 18 1 19
REMARK H PARENT
REMARK Flexibility Score: inf
ROOT
ATOM      1  C   UNL     1      92.475 101.020  92.031  1.00  0.00     0.000 C 
ENDROOT
BRANCH   1   2
ATOM      2  C   UNL     1      91.882 101.994  90.993  1.00  0.00     0.000 C 
BRANCH   2   3
ATOM      3  C   UNL     1      92.917 102.837  90.225  1.00  0.00     0.000 C 
BRANCH   3   4
ATOM      4  C   UNL     1      93.571 102.064  89.066  1.00  0.00     0.000 C 
BRANCH   4   5
ATOM      5  C   UNL     1      95.061 101.774  89.318  1.00  0.00     0.001 C 
BRANCH   5   6
ATOM      6  C   UNL     1      95.608 102.525  90.547  1.00  0.00     0.009 C 
BRANCH   6   7
ATOM      7  C   UNL     1      96.344 101.592  91.533  1.00  0.00     0.032 C 
ATOM      8  C   UNL     1      95.912 100.127  91.384  1.00  0.00     0.014 C 
BRANCH   7   9
ATOM      9  C   UNL     1      97.829 101.701  91.322  1.00  0.00     0.044 C 
ATOM     10  O   UNL     1      98.610 101.717  92.309  1.00  0.00    -0.550 OA
ATOM     11  O   UNL     1      98.351 101.785  90.035  1.00  0.00    -0.550 OA
ENDBRANCH   7   9
ENDBRANCH   6   7
ENDBRANCH   5   6
ENDBRANCH   4   5
ENDBRANCH   3   4
ENDBRANCH   2   3
ENDBRANCH   1   2
BRANCH   1  12
ATOM     12  C   UNL     1      91.463 100.047  92.672  1.00  0.00     0.000 C 
BRANCH  12  13
ATOM     13  C   UNL     1      89.999 100.524  92.663  1.00  0.00    -0.000 C 
BRANCH  13  14
ATOM     14  C   UNL     1      89.120  99.736  91.679  1.00  0.00    -0.000 C 
BRANCH  14  15
ATOM     15  C   UNL     1      89.532  98.257  91.557  1.00  0.00    -0.000 C 
BRANCH  15  16
ATOM     16  C   UNL     1      89.948  97.806  90.145  1.00  0.00    -0.000 C 
BRANCH  16  17
ATOM     17  C   UNL     1      90.470  98.959  89.275  1.00  0.00    -0.000 C 
BRANCH  17  18
ATOM     18  C   UNL     1      91.881  98.658  88.755  1.00  0.00    -0.003 C 
ATOM     19  C   UNL     1      92.726  97.968  89.822  1.00  0.00     0.004 C 
ENDBRANCH  17  18
ENDBRANCH  16  17
ENDBRANCH  15  16
ENDBRANCH  14  15
ENDBRANCH  13  14
ENDBRANCH  12  13
ENDBRANCH   1  12
TORSDOF 14
ENDMDL
MODEL 9
REMARK VINA RESULT:    -4.192      9.790     12.820
REMARK INTER + INTRA:          -9.600
REMARK INTER:                  -7.038
REMARK INTRA:                  -2.561
REMARK UNBOUND:                -1.977
REMARK SMILES CCCCCCCCCCCCCC[C@@H](C)C(=O)[O-]
REMARK SMILES IDX 9 1 10 2 11 3 12 4 13 5 14 6 15 7 16 8 17 9 18 10 19 11 8 12
REMARK SMILES IDX 7 13 6 14 5 15 4 16 3 17 2 18 1 19
REMARK H PARENT
REMARK Flexibility Score: inf
ROOT
ATOM      1  C   UNL     1     102.893  93.928  89.761  1.00  0.00     0.000 C 
ENDROOT
BRANCH   1   2
ATOM      2  C   UNL     1     103.362  94.248  91.195  1.00  0.00     0.000 C 
BRANCH   2   3
ATOM      3  C   UNL     1     104.667  95.059  91.287  1.00  0.00     0.000 C 
BRANCH   3   4
ATOM      4  C   UNL     1     105.337  95.267  89.917  1.00  0.00     0.000 C 
BRANCH   4   5
ATOM      5  C   UNL     1     105.772  96.725  89.690  1.00  0.00     0.001 C 
BRANCH   5   6
ATOM      6  C   UNL     1     105.991  97.488  91.010  1.00  0.00     0.009 C 
BRANCH   6   7
ATOM      7  C   UNL     1     107.439  98.001  91.167  1.00  0.00     0.032 C 
ATOM      8  C   UNL     1     107.578  99.483  90.794  1.00  0.00     0.014 C 
BRANCH   7   9
ATOM      9  C   UNL     1     107.898  97.795  92.584  1.00  0.00     0.044 C 
ATOM     10  O   UNL     1     107.176  98.170  93.545  1.00  0.00    -0.550 OA
ATOM     11  O   UNL     1     109.123  97.191  92.845  1.00  0.00    -0.550 OA
ENDBRANCH   7   9
ENDBRANCH   6   7
ENDBRANCH   5   6
ENDBRANCH   4   5
ENDBRANCH   3   4
ENDBRANCH   2   3
ENDBRANCH   1   2
BRANCH   1  12
ATOM     12  C   UNL     1     101.423  94.285  89.456  1.00  0.00     0.000 C 
BRANCH  12  13
ATOM     13  C   UNL     1     101.212  95.229  88.258  1.00  0.00    -0.000 C 
BRANCH  13  14
ATOM     14  C   UNL     1     102.212  96.397  88.235  1.00  0.00    -0.000 C 
BRANCH  14  15
ATOM     15  C   UNL     1     101.672  97.664  88.924  1.00  0.00    -0.000 C 
BRANCH  15  16
ATOM     16  C   UNL     1     102.471  98.135  90.153  1.00  0.00    -0.000 C 
BRANCH  16  17
ATOM     17  C   UNL     1     101.899  97.611  91.478  1.00  0.00    -0.000 C 
BRANCH  17  18
ATOM     18  C   UNL     1     100.367  97.677  91.479  1.00  0.00    -0.003 C 
ATOM     19  C   UNL     1      99.760  96.381  92.011  1.00  0.00     0.004 C 
ENDBRANCH  17  18
ENDBRANCH  16  17
ENDBRANCH  15  16
ENDBRANCH  14  15
ENDBRANCH  13  14
ENDBRANCH  12  13
ENDBRANCH   1  12
TORSDOF 14
ENDMDL
