MODEL 1
REMARK VINA RESULT:    -4.895      0.000      0.000
REMARK INTER + INTRA:          -8.940
REMARK INTER:                  -7.184
REMARK INTRA:                  -1.756
REMARK UNBOUND:                -1.756
REMARK SMILES O=c1c(O[C@@H]2O[C@H](CO)[C@H](O)[C@H](O)[C@@H]2O)c(-c2ccc(O)c(O)c2)oc2cc(O)cc(O)c12
REMARK SMILES IDX 4 1 3 2 16 3 25 4 2 5 26 6 1 7 33 8 27 9 31 10 28 11 30 12
REMARK SMILES IDX 17 13 18 14 19 15 20 16 24 17 22 18 21 19 23 21 32 23 29 25
REMARK SMILES IDX 5 27 14 28 6 29 12 30 7 31 10 32 15 33 13 35 8 37 9 38 11 40
REMARK H PARENT 21 20 23 22 32 24 29 26 15 34 13 36 9 39 11 41
REMARK Flexibility Score: inf
ROOT
ATOM      1  O   UNL     1      28.239 176.289 171.782  1.00  0.00    -0.454 OA
ENDROOT
BRANCH   1   2
ATOM      2  C   UNL     1      29.524 176.756 172.321  1.00  0.00     0.214 A 
ATOM      3  C   UNL     1      30.663 175.936 172.185  1.00  0.00     0.180 A 
ATOM      4  O   UNL     1      31.770 176.529 171.735  1.00  0.00    -0.452 OA
ATOM      5  C   UNL     1      29.863 178.057 172.924  1.00  0.00     0.239 A 
ATOM      6  C   UNL     1      32.141 177.711 172.214  1.00  0.00     0.146 A 
ATOM      7  O   UNL     1      29.056 178.730 173.590  1.00  0.00    -0.285 OA
ATOM      8  C   UNL     1      31.206 178.473 172.982  1.00  0.00     0.111 A 
ATOM      9  C   UNL     1      33.481 178.093 172.160  1.00  0.00     0.094 A 
ATOM     10  C   UNL     1      31.719 179.459 173.875  1.00  0.00     0.134 A 
ATOM     11  C   UNL     1      33.989 178.968 173.169  1.00  0.00     0.123 A 
ATOM     12  C   UNL     1      33.103 179.593 174.011  1.00  0.00     0.093 A 
BRANCH   3  13
ATOM     13  C   UNL     1      31.021 174.770 173.080  1.00  0.00     0.025 A 
ATOM     14  C   UNL     1      31.835 174.977 174.236  1.00  0.00     0.016 A 
ATOM     15  C   UNL     1      33.112 174.362 174.219  1.00  0.00     0.051 A 
ATOM     16  C   UNL     1      33.379 173.319 173.328  1.00  0.00     0.157 A 
ATOM     17  C   UNL     1      31.167 173.567 172.386  1.00  0.00     0.062 A 
ATOM     18  C   UNL     1      32.353 172.876 172.474  1.00  0.00     0.158 A 
BRANCH  16  19
ATOM     19  O   UNL     1      34.666 172.741 173.232  1.00  0.00    -0.504 OA
ATOM     20  H   UNL     1      34.851 171.791 173.477  1.00  0.00     0.293 HD
ENDBRANCH  16  19
BRANCH  18  21
ATOM     21  O   UNL     1      32.518 171.722 171.675  1.00  0.00    -0.504 OA
ATOM     22  H   UNL     1      32.382 171.737 170.654  1.00  0.00     0.293 HD
ENDBRANCH  18  21
ENDBRANCH   3  13
BRANCH  10  23
ATOM     23  O   UNL     1      30.867 180.270 174.643  1.00  0.00    -0.507 OA
ATOM     24  H   UNL     1      30.152 180.904 174.194  1.00  0.00     0.293 HD
ENDBRANCH  10  23
BRANCH  11  25
ATOM     25  O   UNL     1      35.365 179.107 173.353  1.00  0.00    -0.508 OA
ATOM     26  H   UNL     1      35.778 179.975 173.492  1.00  0.00     0.293 HD
ENDBRANCH  11  25
ENDBRANCH   1   2
BRANCH   1  27
ATOM     27  C   UNL     1      27.375 177.026 170.855  1.00  0.00     0.339 C 
ATOM     28  C   UNL     1      27.059 176.269 169.469  1.00  0.00     0.214 C 
ATOM     29  O   UNL     1      26.228 177.483 171.544  1.00  0.00    -0.332 OA
ATOM     30  C   UNL     1      25.503 175.994 169.278  1.00  0.00     0.180 C 
ATOM     31  C   UNL     1      25.116 176.601 171.661  1.00  0.00     0.179 C 
ATOM     32  C   UNL     1      24.939 175.446 170.581  1.00  0.00     0.177 C 
BRANCH  28  33
ATOM     33  O   UNL     1      27.734 175.049 169.489  1.00  0.00    -0.384 OA
ATOM     34  H   UNL     1      28.056 174.983 170.416  1.00  0.00     0.211 HD
ENDBRANCH  28  33
BRANCH  30  35
ATOM     35  O   UNL     1      25.174 175.159 168.162  1.00  0.00    -0.387 OA
ATOM     36  H   UNL     1      25.688 174.298 168.256  1.00  0.00     0.211 HD
ENDBRANCH  30  35
BRANCH  31  37
ATOM     37  C   UNL     1      24.964 176.175 173.127  1.00  0.00     0.191 C 
BRANCH  37  38
ATOM     38  O   UNL     1      26.088 175.340 173.415  1.00  0.00    -0.394 OA
ATOM     39  H   UNL     1      25.757 174.414 173.319  1.00  0.00     0.210 HD
ENDBRANCH  37  38
ENDBRANCH  31  37
BRANCH  32  40
ATOM     40  O   UNL     1      25.612 174.261 170.924  1.00  0.00    -0.387 OA
ATOM     41  H   UNL     1      26.112 173.841 170.127  1.00  0.00     0.211 HD
ENDBRANCH  32  40
ENDBRANCH   1  27
TORSDOF 12
ENDMDL
MODEL 2
REMARK VINA RESULT:    -4.736      7.015     11.018
REMARK INTER + INTRA:          -8.707
REMARK INTER:                  -7.039
REMARK INTRA:                  -1.669
REMARK UNBOUND:                -1.756
REMARK SMILES O=c1c(O[C@@H]2O[C@H](CO)[C@H](O)[C@H](O)[C@@H]2O)c(-c2ccc(O)c(O)c2)oc2cc(O)cc(O)c12
REMARK SMILES IDX 4 1 3 2 16 3 25 4 2 5 26 6 1 7 33 8 27 9 31 10 28 11 30 12
REMARK SMILES IDX 17 13 18 14 19 15 20 16 24 17 22 18 21 19 23 21 32 23 29 25
REMARK SMILES IDX 5 27 14 28 6 29 12 30 7 31 10 32 15 33 13 35 8 37 9 38 11 40
REMARK H PARENT 21 20 23 22 32 24 29 26 15 34 13 36 9 39 11 41
REMARK Flexibility Score: inf
ROOT
ATOM      1  O   UNL     1      32.609 169.044 172.099  1.00  0.00    -0.454 OA
ENDROOT
BRANCH   1   2
ATOM      2  C   UNL     1      31.258 168.465 172.066  1.00  0.00     0.214 A 
ATOM      3  C   UNL     1      30.937 167.533 171.059  1.00  0.00     0.180 A 
ATOM      4  O   UNL     1      30.327 166.415 171.458  1.00  0.00    -0.452 OA
ATOM      5  C   UNL     1      30.151 168.629 173.024  1.00  0.00     0.239 A 
ATOM      6  C   UNL     1      29.329 166.470 172.332  1.00  0.00     0.146 A 
ATOM      7  O   UNL     1      29.956 169.675 173.668  1.00  0.00    -0.285 OA
ATOM      8  C   UNL     1      29.112 167.681 173.062  1.00  0.00     0.111 A 
ATOM      9  C   UNL     1      28.380 165.449 172.369  1.00  0.00     0.094 A 
ATOM     10  C   UNL     1      27.814 167.912 173.605  1.00  0.00     0.134 A 
ATOM     11  C   UNL     1      27.048 165.762 172.779  1.00  0.00     0.123 A 
ATOM     12  C   UNL     1      26.800 166.987 173.349  1.00  0.00     0.093 A 
BRANCH   3  13
ATOM     13  C   UNL     1      30.532 167.872 169.641  1.00  0.00     0.025 A 
ATOM     14  C   UNL     1      29.216 167.560 169.177  1.00  0.00     0.016 A 
ATOM     15  C   UNL     1      29.129 166.586 168.152  1.00  0.00     0.051 A 
ATOM     16  C   UNL     1      30.256 166.264 167.390  1.00  0.00     0.157 A 
ATOM     17  C   UNL     1      31.585 167.774 168.728  1.00  0.00     0.062 A 
ATOM     18  C   UNL     1      31.462 166.941 167.641  1.00  0.00     0.158 A 
BRANCH  16  19
ATOM     19  O   UNL     1      30.220 165.239 166.416  1.00  0.00    -0.504 OA
ATOM     20  H   UNL     1      29.686 165.311 165.575  1.00  0.00     0.293 HD
ENDBRANCH  16  19
BRANCH  18  21
ATOM     21  O   UNL     1      32.582 166.774 166.794  1.00  0.00    -0.504 OA
ATOM     22  H   UNL     1      33.481 167.242 166.977  1.00  0.00     0.293 HD
ENDBRANCH  18  21
ENDBRANCH   3  13
BRANCH  10  23
ATOM     23  O   UNL     1      27.526 169.061 174.360  1.00  0.00    -0.507 OA
ATOM     24  H   UNL     1      26.919 169.020 175.223  1.00  0.00     0.293 HD
ENDBRANCH  10  23
BRANCH  11  25
ATOM     25  O   UNL     1      26.003 164.875 172.516  1.00  0.00    -0.508 OA
ATOM     26  H   UNL     1      25.979 164.336 171.710  1.00  0.00     0.293 HD
ENDBRANCH  11  25
ENDBRANCH   1   2
BRANCH   1  27
ATOM     27  C   UNL     1      33.787 168.443 172.730  1.00  0.00     0.339 C 
ATOM     28  C   UNL     1      34.934 167.956 171.710  1.00  0.00     0.214 C 
ATOM     29  O   UNL     1      34.249 169.290 173.765  1.00  0.00    -0.332 OA
ATOM     30  C   UNL     1      36.312 168.717 171.950  1.00  0.00     0.180 C 
ATOM     31  C   UNL     1      35.141 170.346 173.424  1.00  0.00     0.179 C 
ATOM     32  C   UNL     1      36.029 170.203 172.111  1.00  0.00     0.177 C 
BRANCH  28  33
ATOM     33  O   UNL     1      34.491 168.224 170.415  1.00  0.00    -0.384 OA
ATOM     34  H   UNL     1      34.526 167.344 169.977  1.00  0.00     0.211 HD
ENDBRANCH  28  33
BRANCH  30  35
ATOM     35  O   UNL     1      37.314 168.470 170.958  1.00  0.00    -0.387 OA
ATOM     36  H   UNL     1      37.923 169.270 170.925  1.00  0.00     0.211 HD
ENDBRANCH  30  35
BRANCH  31  37
ATOM     37  C   UNL     1      34.422 171.689 173.603  1.00  0.00     0.191 C 
BRANCH  37  38
ATOM     38  O   UNL     1      33.464 171.769 172.545  1.00  0.00    -0.394 OA
ATOM     39  H   UNL     1      33.557 172.681 172.177  1.00  0.00     0.210 HD
ENDBRANCH  37  38
ENDBRANCH  31  37
BRANCH  32  40
ATOM     40  O   UNL     1      35.391 170.689 170.957  1.00  0.00    -0.387 OA
ATOM     41  H   UNL     1      35.752 171.606 170.657  1.00  0.00     0.211 HD
ENDBRANCH  32  40
ENDBRANCH   1  27
TORSDOF 12
ENDMDL
MODEL 3
REMARK VINA RESULT:    -4.705      2.034      6.540
REMARK INTER + INTRA:          -8.662
REMARK INTER:                  -6.819
REMARK INTRA:                  -1.843
REMARK UNBOUND:                -1.756
REMARK SMILES O=c1c(O[C@@H]2O[C@H](CO)[C@H](O)[C@H](O)[C@@H]2O)c(-c2ccc(O)c(O)c2)oc2cc(O)cc(O)c12
REMARK SMILES IDX 4 1 3 2 16 3 25 4 2 5 26 6 1 7 33 8 27 9 31 10 28 11 30 12
REMARK SMILES IDX 17 13 18 14 19 15 20 16 24 17 22 18 21 19 23 21 32 23 29 25
REMARK SMILES IDX 5 27 14 28 6 29 12 30 7 31 10 32 15 33 13 35 8 37 9 38 11 40
REMARK H PARENT 21 20 23 22 32 24 29 26 15 34 13 36 9 39 11 41
REMARK Flexibility Score: inf
ROOT
ATOM      1  O   UNL     1      31.539 178.648 172.179  1.00  0.00    -0.454 OA
ENDROOT
BRANCH   1   2
ATOM      2  C   UNL     1      30.638 177.524 172.471  1.00  0.00     0.214 A 
ATOM      3  C   UNL     1      31.157 176.378 173.106  1.00  0.00     0.180 A 
ATOM      4  O   UNL     1      30.462 175.908 174.143  1.00  0.00    -0.452 OA
ATOM      5  C   UNL     1      29.179 177.431 172.294  1.00  0.00     0.239 A 
ATOM      6  C   UNL     1      29.140 175.805 174.075  1.00  0.00     0.146 A 
ATOM      7  O   UNL     1      28.564 178.008 171.380  1.00  0.00    -0.285 OA
ATOM      8  C   UNL     1      28.446 176.470 173.016  1.00  0.00     0.111 A 
ATOM      9  C   UNL     1      28.472 174.886 174.883  1.00  0.00     0.094 A 
ATOM     10  C   UNL     1      27.154 175.986 172.655  1.00  0.00     0.134 A 
ATOM     11  C   UNL     1      27.252 174.314 174.411  1.00  0.00     0.123 A 
ATOM     12  C   UNL     1      26.652 174.854 173.300  1.00  0.00     0.093 A 
BRANCH   3  13
ATOM     13  C   UNL     1      31.899 175.251 172.420  1.00  0.00     0.025 A 
ATOM     14  C   UNL     1      31.189 174.323 171.596  1.00  0.00     0.016 A 
ATOM     15  C   UNL     1      31.145 172.984 172.059  1.00  0.00     0.051 A 
ATOM     16  C   UNL     1      32.058 172.541 173.020  1.00  0.00     0.157 A 
ATOM     17  C   UNL     1      32.980 174.771 173.161  1.00  0.00     0.062 A 
ATOM     18  C   UNL     1      33.031 173.438 173.497  1.00  0.00     0.158 A 
BRANCH  16  19
ATOM     19  O   UNL     1      31.988 171.236 173.560  1.00  0.00    -0.504 OA
ATOM     20  H   UNL     1      32.678 170.539 173.378  1.00  0.00     0.293 HD
ENDBRANCH  16  19
BRANCH  18  21
ATOM     21  O   UNL     1      34.076 172.998 174.341  1.00  0.00    -0.504 OA
ATOM     22  H   UNL     1      34.576 173.639 174.973  1.00  0.00     0.293 HD
ENDBRANCH  18  21
ENDBRANCH   3  13
BRANCH  10  23
ATOM     23  O   UNL     1      26.394 176.601 171.646  1.00  0.00    -0.507 OA
ATOM     24  H   UNL     1      25.846 177.486 171.826  1.00  0.00     0.293 HD
ENDBRANCH  10  23
BRANCH  11  25
ATOM     25  O   UNL     1      26.732 173.166 175.012  1.00  0.00    -0.508 OA
ATOM     26  H   UNL     1      26.854 172.983 175.958  1.00  0.00     0.293 HD
ENDBRANCH  11  25
ENDBRANCH   1   2
BRANCH   1  27
ATOM     27  C   UNL     1      32.944 178.543 171.773  1.00  0.00     0.339 C 
ATOM     28  C   UNL     1      33.462 179.715 170.798  1.00  0.00     0.214 C 
ATOM     29  O   UNL     1      33.749 178.339 172.918  1.00  0.00    -0.332 OA
ATOM     30  C   UNL     1      34.651 180.552 171.446  1.00  0.00     0.180 C 
ATOM     31  C   UNL     1      34.189 179.481 173.646  1.00  0.00     0.179 C 
ATOM     32  C   UNL     1      34.290 180.877 172.888  1.00  0.00     0.177 C 
BRANCH  28  33
ATOM     33  O   UNL     1      32.387 180.569 170.555  1.00  0.00    -0.384 OA
ATOM     34  H   UNL     1      32.440 181.216 171.294  1.00  0.00     0.211 HD
ENDBRANCH  28  33
BRANCH  30  35
ATOM     35  O   UNL     1      35.027 181.723 170.714  1.00  0.00    -0.387 OA
ATOM     36  H   UNL     1      34.335 181.879 170.000  1.00  0.00     0.211 HD
ENDBRANCH  30  35
BRANCH  31  37
ATOM     37  C   UNL     1      33.488 179.510 175.009  1.00  0.00     0.191 C 
BRANCH  37  38
ATOM     38  O   UNL     1      32.124 179.846 174.746  1.00  0.00    -0.394 OA
ATOM     39  H   UNL     1      31.845 180.417 175.503  1.00  0.00     0.210 HD
ENDBRANCH  37  38
ENDBRANCH  31  37
BRANCH  32  40
ATOM     40  O   UNL     1      33.093 181.612 172.921  1.00  0.00    -0.387 OA
ATOM     41  H   UNL     1      33.196 182.560 172.531  1.00  0.00     0.211 HD
ENDBRANCH  32  40
ENDBRANCH   1  27
TORSDOF 12
ENDMDL
MODEL 4
REMARK VINA RESULT:    -4.701      2.628      7.884
REMARK INTER + INTRA:          -8.655
REMARK INTER:                  -7.189
REMARK INTRA:                  -1.466
REMARK UNBOUND:                -1.756
REMARK SMILES O=c1c(O[C@@H]2O[C@H](CO)[C@H](O)[C@H](O)[C@@H]2O)c(-c2ccc(O)c(O)c2)oc2cc(O)cc(O)c12
REMARK SMILES IDX 4 1 3 2 16 3 25 4 2 5 26 6 1 7 33 8 27 9 31 10 28 11 30 12
REMARK SMILES IDX 17 13 18 14 19 15 20 16 24 17 22 18 21 19 23 21 32 23 29 25
REMARK SMILES IDX 5 27 14 28 6 29 12 30 7 31 10 32 15 33 13 35 8 37 9 38 11 40
REMARK H PARENT 21 20 23 22 32 24 29 26 15 34 13 36 9 39 11 41
REMARK Flexibility Score: inf
ROOT
ATOM      1  O   UNL     1      33.110 171.733 173.545  1.00  0.00    -0.454 OA
ENDROOT
BRANCH   1   2
ATOM      2  C   UNL     1      31.944 172.590 173.287  1.00  0.00     0.214 A 
ATOM      3  C   UNL     1      32.152 173.919 172.864  1.00  0.00     0.180 A 
ATOM      4  O   UNL     1      31.435 174.327 171.816  1.00  0.00    -0.452 OA
ATOM      5  C   UNL     1      30.513 172.243 173.296  1.00  0.00     0.239 A 
ATOM      6  C   UNL     1      30.140 174.044 171.737  1.00  0.00     0.146 A 
ATOM      7  O   UNL     1      30.025 171.384 174.052  1.00  0.00    -0.285 OA
ATOM      8  C   UNL     1      29.590 173.059 172.615  1.00  0.00     0.111 A 
ATOM      9  C   UNL     1      29.298 174.851 170.973  1.00  0.00     0.094 A 
ATOM     10  C   UNL     1      28.189 173.100 172.874  1.00  0.00     0.134 A 
ATOM     11  C   UNL     1      27.930 174.980 171.361  1.00  0.00     0.123 A 
ATOM     12  C   UNL     1      27.429 174.131 172.317  1.00  0.00     0.093 A 
BRANCH   3  13
ATOM     13  C   UNL     1      32.472 175.090 173.767  1.00  0.00     0.025 A 
ATOM     14  C   UNL     1      31.434 175.716 174.525  1.00  0.00     0.016 A 
ATOM     15  C   UNL     1      31.129 177.056 174.178  1.00  0.00     0.051 A 
ATOM     16  C   UNL     1      32.040 177.816 173.439  1.00  0.00     0.157 A 
ATOM     17  C   UNL     1      33.501 175.898 173.279  1.00  0.00     0.062 A 
ATOM     18  C   UNL     1      33.268 177.238 173.073  1.00  0.00     0.158 A 
BRANCH  16  19
ATOM     19  O   UNL     1      31.731 179.127 173.009  1.00  0.00    -0.504 OA
ATOM     20  H   UNL     1      30.872 179.359 172.557  1.00  0.00     0.293 HD
ENDBRANCH  16  19
BRANCH  18  21
ATOM     21  O   UNL     1      34.288 178.011 172.473  1.00  0.00    -0.504 OA
ATOM     22  H   UNL     1      34.479 178.983 172.759  1.00  0.00     0.293 HD
ENDBRANCH  18  21
ENDBRANCH   3  13
BRANCH  10  23
ATOM     23  O   UNL     1      27.565 172.151 173.701  1.00  0.00    -0.507 OA
ATOM     24  H   UNL     1      27.544 171.125 173.450  1.00  0.00     0.293 HD
ENDBRANCH  10  23
BRANCH  11  25
ATOM     25  O   UNL     1      27.145 176.014 170.847  1.00  0.00    -0.508 OA
ATOM     26  H   UNL     1      26.469 175.855 170.168  1.00  0.00     0.293 HD
ENDBRANCH  11  25
ENDBRANCH   1   2
BRANCH   1  27
ATOM     27  C   UNL     1      33.126 170.267 173.511  1.00  0.00     0.339 C 
ATOM     28  C   UNL     1      32.948 169.617 172.049  1.00  0.00     0.214 C 
ATOM     29  O   UNL     1      34.249 169.792 174.227  1.00  0.00    -0.332 OA
ATOM     30  C   UNL     1      34.208 168.741 171.625  1.00  0.00     0.180 C 
ATOM     31  C   UNL     1      35.491 169.684 173.538  1.00  0.00     0.179 C 
ATOM     32  C   UNL     1      35.476 169.514 171.956  1.00  0.00     0.177 C 
BRANCH  28  33
ATOM     33  O   UNL     1      32.797 170.661 171.136  1.00  0.00    -0.384 OA
ATOM     34  H   UNL     1      33.723 170.883 170.889  1.00  0.00     0.211 HD
ENDBRANCH  28  33
BRANCH  30  35
ATOM     35  O   UNL     1      34.196 168.293 170.265  1.00  0.00    -0.387 OA
ATOM     36  H   UNL     1      35.021 168.652 169.813  1.00  0.00     0.211 HD
ENDBRANCH  30  35
BRANCH  31  37
ATOM     37  C   UNL     1      36.465 170.733 174.088  1.00  0.00     0.191 C 
BRANCH  37  38
ATOM     38  O   UNL     1      35.780 171.986 174.015  1.00  0.00    -0.394 OA
ATOM     39  H   UNL     1      35.857 172.270 173.072  1.00  0.00     0.210 HD
ENDBRANCH  37  38
ENDBRANCH  31  37
BRANCH  32  40
ATOM     40  O   UNL     1      35.473 170.740 171.269  1.00  0.00    -0.387 OA
ATOM     41  H   UNL     1      35.635 171.546 171.889  1.00  0.00     0.211 HD
ENDBRANCH  32  40
ENDBRANCH   1  27
TORSDOF 12
ENDMDL
MODEL 5
REMARK VINA RESULT:    -4.674      9.979     13.229
REMARK INTER + INTRA:          -8.615
REMARK INTER:                  -6.793
REMARK INTRA:                  -1.823
REMARK UNBOUND:                -1.756
REMARK SMILES O=c1c(O[C@@H]2O[C@H](CO)[C@H](O)[C@H](O)[C@@H]2O)c(-c2ccc(O)c(O)c2)oc2cc(O)cc(O)c12
REMARK SMILES IDX 4 1 3 2 16 3 25 4 2 5 26 6 1 7 33 8 27 9 31 10 28 11 30 12
REMARK SMILES IDX 17 13 18 14 19 15 20 16 24 17 22 18 21 19 23 21 32 23 29 25
REMARK SMILES IDX 5 27 14 28 6 29 12 30 7 31 10 32 15 33 13 35 8 37 9 38 11 40
REMARK H PARENT 21 20 23 22 32 24 29 26 15 34 13 36 9 39 11 41
REMARK Flexibility Score: inf
ROOT
ATOM      1  O   UNL     1      28.847 167.192 162.568  1.00  0.00    -0.454 OA
ENDROOT
BRANCH   1   2
ATOM      2  C   UNL     1      29.237 167.492 163.953  1.00  0.00     0.214 A 
ATOM      3  C   UNL     1      28.413 168.333 164.729  1.00  0.00     0.180 A 
ATOM      4  O   UNL     1      28.116 167.905 165.957  1.00  0.00    -0.452 OA
ATOM      5  C   UNL     1      30.352 166.947 164.746  1.00  0.00     0.239 A 
ATOM      6  C   UNL     1      29.060 167.386 166.734  1.00  0.00     0.146 A 
ATOM      7  O   UNL     1      31.444 166.617 164.249  1.00  0.00    -0.285 OA
ATOM      8  C   UNL     1      30.312 167.015 166.151  1.00  0.00     0.111 A 
ATOM      9  C   UNL     1      28.911 167.413 168.119  1.00  0.00     0.094 A 
ATOM     10  C   UNL     1      31.449 166.928 167.007  1.00  0.00     0.134 A 
ATOM     11  C   UNL     1      30.082 167.477 168.936  1.00  0.00     0.123 A 
ATOM     12  C   UNL     1      31.309 167.269 168.354  1.00  0.00     0.093 A 
BRANCH   3  13
ATOM     13  C   UNL     1      28.413 169.846 164.688  1.00  0.00     0.025 A 
ATOM     14  C   UNL     1      27.901 170.593 165.794  1.00  0.00     0.016 A 
ATOM     15  C   UNL     1      26.730 171.352 165.546  1.00  0.00     0.051 A 
ATOM     16  C   UNL     1      26.353 171.657 164.236  1.00  0.00     0.157 A 
ATOM     17  C   UNL     1      28.218 170.363 163.406  1.00  0.00     0.062 A 
ATOM     18  C   UNL     1      27.169 171.223 163.176  1.00  0.00     0.158 A 
BRANCH  16  19
ATOM     19  O   UNL     1      25.149 172.343 163.954  1.00  0.00    -0.504 OA
ATOM     20  H   UNL     1      24.268 171.879 163.879  1.00  0.00     0.293 HD
ENDBRANCH  16  19
BRANCH  18  21
ATOM     21  O   UNL     1      26.926 171.644 161.849  1.00  0.00    -0.504 OA
ATOM     22  H   UNL     1      25.995 171.955 161.534  1.00  0.00     0.293 HD
ENDBRANCH  18  21
ENDBRANCH   3  13
BRANCH  10  23
ATOM     23  O   UNL     1      32.709 166.542 166.519  1.00  0.00    -0.507 OA
ATOM     24  H   UNL     1      32.890 165.563 166.166  1.00  0.00     0.293 HD
ENDBRANCH  10  23
BRANCH  11  25
ATOM     25  O   UNL     1      29.986 167.840 170.280  1.00  0.00    -0.508 OA
ATOM     26  H   UNL     1      29.318 168.471 170.593  1.00  0.00     0.293 HD
ENDBRANCH  11  25
ENDBRANCH   1   2
BRANCH   1  27
ATOM     27  C   UNL     1      29.358 167.858 161.367  1.00  0.00     0.339 C 
ATOM     28  C   UNL     1      30.554 167.086 160.614  1.00  0.00     0.214 C 
ATOM     29  O   UNL     1      28.274 168.211 160.528  1.00  0.00    -0.332 OA
ATOM     30  C   UNL     1      30.162 166.680 159.125  1.00  0.00     0.180 C 
ATOM     31  C   UNL     1      27.785 167.237 159.612  1.00  0.00     0.179 C 
ATOM     32  C   UNL     1      28.765 166.078 159.134  1.00  0.00     0.177 C 
BRANCH  28  33
ATOM     33  O   UNL     1      30.833 165.928 161.339  1.00  0.00    -0.384 OA
ATOM     34  H   UNL     1      31.550 166.210 161.951  1.00  0.00     0.211 HD
ENDBRANCH  28  33
BRANCH  30  35
ATOM     35  O   UNL     1      31.107 165.827 158.469  1.00  0.00    -0.387 OA
ATOM     36  H   UNL     1      30.630 165.355 157.719  1.00  0.00     0.211 HD
ENDBRANCH  30  35
BRANCH  31  37
ATOM     37  C   UNL     1      26.386 166.790 160.052  1.00  0.00     0.191 C 
BRANCH  37  38
ATOM     38  O   UNL     1      26.572 166.017 161.240  1.00  0.00    -0.394 OA
ATOM     39  H   UNL     1      25.787 166.215 161.806  1.00  0.00     0.210 HD
ENDBRANCH  37  38
ENDBRANCH  31  37
BRANCH  32  40
ATOM     40  O   UNL     1      28.742 164.952 159.975  1.00  0.00    -0.387 OA
ATOM     41  H   UNL     1      29.110 165.150 160.916  1.00  0.00     0.211 HD
ENDBRANCH  32  40
ENDBRANCH   1  27
TORSDOF 12
ENDMDL
MODEL 6
REMARK VINA RESULT:    -4.639      4.652     10.164
REMARK INTER + INTRA:          -8.564
REMARK INTER:                  -7.007
REMARK INTRA:                  -1.558
REMARK UNBOUND:                -1.756
REMARK SMILES O=c1c(O[C@@H]2O[C@H](CO)[C@H](O)[C@H](O)[C@@H]2O)c(-c2ccc(O)c(O)c2)oc2cc(O)cc(O)c12
REMARK SMILES IDX 4 1 3 2 16 3 25 4 2 5 26 6 1 7 33 8 27 9 31 10 28 11 30 12
REMARK SMILES IDX 17 13 18 14 19 15 20 16 24 17 22 18 21 19 23 21 32 23 29 25
REMARK SMILES IDX 5 27 14 28 6 29 12 30 7 31 10 32 15 33 13 35 8 37 9 38 11 40
REMARK H PARENT 21 20 23 22 32 24 29 26 15 34 13 36 9 39 11 41
REMARK Flexibility Score: inf
ROOT
ATOM      1  O   UNL     1      32.639 169.537 171.859  1.00  0.00    -0.454 OA
ENDROOT
BRANCH   1   2
ATOM      2  C   UNL     1      31.199 169.250 171.796  1.00  0.00     0.214 A 
ATOM      3  C   UNL     1      30.333 170.213 171.240  1.00  0.00     0.180 A 
ATOM      4  O   UNL     1      29.449 169.770 170.344  1.00  0.00    -0.452 OA
ATOM      5  C   UNL     1      30.480 168.012 172.141  1.00  0.00     0.239 A 
ATOM      6  C   UNL     1      28.768 168.653 170.569  1.00  0.00     0.146 A 
ATOM      7  O   UNL     1      30.846 167.242 173.047  1.00  0.00    -0.285 OA
ATOM      8  C   UNL     1      29.195 167.779 171.617  1.00  0.00     0.111 A 
ATOM      9  C   UNL     1      27.536 168.453 169.947  1.00  0.00     0.094 A 
ATOM     10  C   UNL     1      28.238 166.878 172.170  1.00  0.00     0.134 A 
ATOM     11  C   UNL     1      26.550 167.662 170.613  1.00  0.00     0.123 A 
ATOM     12  C   UNL     1      26.918 166.931 171.715  1.00  0.00     0.093 A 
BRANCH   3  13
ATOM     13  C   UNL     1      29.784 171.425 171.962  1.00  0.00     0.025 A 
ATOM     14  C   UNL     1      28.544 172.005 171.548  1.00  0.00     0.016 A 
ATOM     15  C   UNL     1      28.616 173.314 171.011  1.00  0.00     0.051 A 
ATOM     16  C   UNL     1      29.740 174.110 171.244  1.00  0.00     0.157 A 
ATOM     17  C   UNL     1      30.779 172.282 172.436  1.00  0.00     0.062 A 
ATOM     18  C   UNL     1      30.781 173.600 172.041  1.00  0.00     0.158 A 
BRANCH  16  19
ATOM     19  O   UNL     1      29.876 175.388 170.655  1.00  0.00    -0.504 OA
ATOM     20  H   UNL     1      30.674 175.969 170.802  1.00  0.00     0.293 HD
ENDBRANCH  16  19
BRANCH  18  21
ATOM     21  O   UNL     1      31.860 174.419 172.443  1.00  0.00    -0.504 OA
ATOM     22  H   UNL     1      31.716 175.356 172.847  1.00  0.00     0.293 HD
ENDBRANCH  18  21
ENDBRANCH   3  13
BRANCH  10  23
ATOM     23  O   UNL     1      28.584 165.967 173.181  1.00  0.00    -0.507 OA
ATOM     24  H   UNL     1      29.036 166.283 174.082  1.00  0.00     0.293 HD
ENDBRANCH  10  23
BRANCH  11  25
ATOM     25  O   UNL     1      25.216 167.709 170.204  1.00  0.00    -0.508 OA
ATOM     26  H   UNL     1      24.839 167.043 169.608  1.00  0.00     0.293 HD
ENDBRANCH  11  25
ENDBRANCH   1   2
BRANCH   1  27
ATOM     27  C   UNL     1      33.654 168.710 172.518  1.00  0.00     0.339 C 
ATOM     28  C   UNL     1      34.772 168.091 171.538  1.00  0.00     0.214 C 
ATOM     29  O   UNL     1      34.177 169.407 173.633  1.00  0.00    -0.332 OA
ATOM     30  C   UNL     1      36.237 168.591 171.910  1.00  0.00     0.180 C 
ATOM     31  C   UNL     1      35.255 170.312 173.417  1.00  0.00     0.179 C 
ATOM     32  C   UNL     1      36.196 170.092 172.152  1.00  0.00     0.177 C 
BRANCH  28  33
ATOM     33  O   UNL     1      34.471 168.501 170.240  1.00  0.00    -0.384 OA
ATOM     34  H   UNL     1      34.707 167.718 169.694  1.00  0.00     0.211 HD
ENDBRANCH  28  33
BRANCH  30  35
ATOM     35  O   UNL     1      37.251 168.231 170.964  1.00  0.00    -0.387 OA
ATOM     36  H   UNL     1      37.006 167.337 170.572  1.00  0.00     0.211 HD
ENDBRANCH  30  35
BRANCH  31  37
ATOM     37  C   UNL     1      34.760 171.746 173.640  1.00  0.00     0.191 C 
BRANCH  37  38
ATOM     38  O   UNL     1      33.926 172.056 172.521  1.00  0.00    -0.394 OA
ATOM     39  H   UNL     1      33.040 172.267 172.907  1.00  0.00     0.210 HD
ENDBRANCH  37  38
ENDBRANCH  31  37
BRANCH  32  40
ATOM     40  O   UNL     1      35.730 170.743 170.997  1.00  0.00    -0.387 OA
ATOM     41  H   UNL     1      34.966 170.233 170.531  1.00  0.00     0.211 HD
ENDBRANCH  32  40
ENDBRANCH   1  27
TORSDOF 12
ENDMDL
MODEL 7
REMARK VINA RESULT:    -4.631     10.192     13.502
REMARK INTER + INTRA:          -8.552
REMARK INTER:                  -6.891
REMARK INTRA:                  -1.661
REMARK UNBOUND:                -1.756
REMARK SMILES O=c1c(O[C@@H]2O[C@H](CO)[C@H](O)[C@H](O)[C@@H]2O)c(-c2ccc(O)c(O)c2)oc2cc(O)cc(O)c12
REMARK SMILES IDX 4 1 3 2 16 3 25 4 2 5 26 6 1 7 33 8 27 9 31 10 28 11 30 12
REMARK SMILES IDX 17 13 18 14 19 15 20 16 24 17 22 18 21 19 23 21 32 23 29 25
REMARK SMILES IDX 5 27 14 28 6 29 12 30 7 31 10 32 15 33 13 35 8 37 9 38 11 40
REMARK H PARENT 21 20 23 22 32 24 29 26 15 34 13 36 9 39 11 41
REMARK Flexibility Score: inf
ROOT
ATOM      1  O   UNL     1      29.706 167.126 162.397  1.00  0.00    -0.454 OA
ENDROOT
BRANCH   1   2
ATOM      2  C   UNL     1      29.709 167.493 163.820  1.00  0.00     0.214 A 
ATOM      3  C   UNL     1      28.688 168.330 164.313  1.00  0.00     0.180 A 
ATOM      4  O   UNL     1      28.090 167.937 165.440  1.00  0.00    -0.452 OA
ATOM      5  C   UNL     1      30.592 167.023 164.901  1.00  0.00     0.239 A 
ATOM      6  C   UNL     1      28.811 167.484 166.459  1.00  0.00     0.146 A 
ATOM      7  O   UNL     1      31.785 166.717 164.722  1.00  0.00    -0.285 OA
ATOM      8  C   UNL     1      30.182 167.141 166.242  1.00  0.00     0.111 A 
ATOM      9  C   UNL     1      28.303 167.557 167.755  1.00  0.00     0.094 A 
ATOM     10  C   UNL     1      31.056 167.131 167.368  1.00  0.00     0.134 A 
ATOM     11  C   UNL     1      29.216 167.698 168.845  1.00  0.00     0.123 A 
ATOM     12  C   UNL     1      30.557 167.516 168.614  1.00  0.00     0.093 A 
BRANCH   3  13
ATOM     13  C   UNL     1      28.656 169.839 164.204  1.00  0.00     0.025 A 
ATOM     14  C   UNL     1      28.343 170.634 165.350  1.00  0.00     0.016 A 
ATOM     15  C   UNL     1      27.135 171.372 165.288  1.00  0.00     0.051 A 
ATOM     16  C   UNL     1      26.519 171.612 164.057  1.00  0.00     0.157 A 
ATOM     17  C   UNL     1      28.220 170.293 162.957  1.00  0.00     0.062 A 
ATOM     18  C   UNL     1      27.133 171.132 162.886  1.00  0.00     0.158 A 
BRANCH  16  19
ATOM     19  O   UNL     1      25.273 172.274 163.970  1.00  0.00    -0.504 OA
ATOM     20  H   UNL     1      24.920 172.650 163.116  1.00  0.00     0.293 HD
ENDBRANCH  16  19
BRANCH  18  21
ATOM     21  O   UNL     1      26.643 171.487 161.608  1.00  0.00    -0.504 OA
ATOM     22  H   UNL     1      25.706 171.894 161.474  1.00  0.00     0.293 HD
ENDBRANCH  18  21
ENDBRANCH   3  13
BRANCH  10  23
ATOM     23  O   UNL     1      32.410 166.776 167.245  1.00  0.00    -0.507 OA
ATOM     24  H   UNL     1      32.838 166.011 167.834  1.00  0.00     0.293 HD
ENDBRANCH  10  23
BRANCH  11  25
ATOM     25  O   UNL     1      28.759 168.107 170.099  1.00  0.00    -0.508 OA
ATOM     26  H   UNL     1      29.360 168.465 170.772  1.00  0.00     0.293 HD
ENDBRANCH  11  25
ENDBRANCH   1   2
BRANCH   1  27
ATOM     27  C   UNL     1      28.956 166.021 161.793  1.00  0.00     0.339 C 
ATOM     28  C   UNL     1      28.036 166.427 160.535  1.00  0.00     0.214 C 
ATOM     29  O   UNL     1      29.831 164.937 161.549  1.00  0.00    -0.332 OA
ATOM     30  C   UNL     1      28.469 165.666 159.206  1.00  0.00     0.180 C 
ATOM     31  C   UNL     1      30.563 164.923 160.328  1.00  0.00     0.179 C 
ATOM     32  C   UNL     1      29.984 165.723 159.081  1.00  0.00     0.177 C 
BRANCH  28  33
ATOM     33  O   UNL     1      28.175 167.800 160.335  1.00  0.00    -0.384 OA
ATOM     34  H   UNL     1      29.089 167.887 159.982  1.00  0.00     0.211 HD
ENDBRANCH  28  33
BRANCH  30  35
ATOM     35  O   UNL     1      27.818 166.122 158.015  1.00  0.00    -0.387 OA
ATOM     36  H   UNL     1      28.213 167.013 157.767  1.00  0.00     0.211 HD
ENDBRANCH  30  35
BRANCH  31  37
ATOM     37  C   UNL     1      32.051 165.142 160.631  1.00  0.00     0.191 C 
BRANCH  37  38
ATOM     38  O   UNL     1      32.148 165.288 162.050  1.00  0.00    -0.394 OA
ATOM     39  H   UNL     1      32.554 166.178 162.194  1.00  0.00     0.210 HD
ENDBRANCH  37  38
ENDBRANCH  31  37
BRANCH  32  40
ATOM     40  O   UNL     1      30.403 167.064 159.041  1.00  0.00    -0.387 OA
ATOM     41  H   UNL     1      31.427 167.164 159.084  1.00  0.00     0.211 HD
ENDBRANCH  32  40
ENDBRANCH   1  27
TORSDOF 12
ENDMDL
MODEL 8
REMARK VINA RESULT:    -4.584     12.392     15.562
REMARK INTER + INTRA:          -8.484
REMARK INTER:                  -6.348
REMARK INTRA:                  -2.136
REMARK UNBOUND:                -1.756
REMARK SMILES O=c1c(O[C@@H]2O[C@H](CO)[C@H](O)[C@H](O)[C@@H]2O)c(-c2ccc(O)c(O)c2)oc2cc(O)cc(O)c12
REMARK SMILES IDX 4 1 3 2 16 3 25 4 2 5 26 6 1 7 33 8 27 9 31 10 28 11 30 12
REMARK SMILES IDX 17 13 18 14 19 15 20 16 24 17 22 18 21 19 23 21 32 23 29 25
REMARK SMILES IDX 5 27 14 28 6 29 12 30 7 31 10 32 15 33 13 35 8 37 9 38 11 40
REMARK H PARENT 21 20 23 22 32 24 29 26 15 34 13 36 9 39 11 41
REMARK Flexibility Score: inf
ROOT
ATOM      1  O   UNL     1      29.316 166.645 159.470  1.00  0.00    -0.454 OA
ENDROOT
BRANCH   1   2
ATOM      2  C   UNL     1      29.372 166.867 160.922  1.00  0.00     0.214 A 
ATOM      3  C   UNL     1      28.295 167.518 161.557  1.00  0.00     0.180 A 
ATOM      4  O   UNL     1      27.826 166.944 162.667  1.00  0.00    -0.452 OA
ATOM      5  C   UNL     1      30.376 166.407 161.896  1.00  0.00     0.239 A 
ATOM      6  C   UNL     1      28.662 166.487 163.591  1.00  0.00     0.146 A 
ATOM      7  O   UNL     1      31.581 166.271 161.620  1.00  0.00    -0.285 OA
ATOM      8  C   UNL     1      30.047 166.341 163.263  1.00  0.00     0.111 A 
ATOM      9  C   UNL     1      28.239 166.369 164.914  1.00  0.00     0.094 A 
ATOM     10  C   UNL     1      30.990 166.328 164.332  1.00  0.00     0.134 A 
ATOM     11  C   UNL     1      29.201 166.514 165.960  1.00  0.00     0.123 A 
ATOM     12  C   UNL     1      30.535 166.524 165.637  1.00  0.00     0.093 A 
BRANCH   3  13
ATOM     13  C   UNL     1      28.077 169.014 161.610  1.00  0.00     0.025 A 
ATOM     14  C   UNL     1      29.011 169.851 162.298  1.00  0.00     0.016 A 
ATOM     15  C   UNL     1      28.523 170.513 163.452  1.00  0.00     0.051 A 
ATOM     16  C   UNL     1      27.147 170.651 163.656  1.00  0.00     0.157 A 
ATOM     17  C   UNL     1      26.729 169.375 161.647  1.00  0.00     0.062 A 
ATOM     18  C   UNL     1      26.263 170.146 162.687  1.00  0.00     0.158 A 
BRANCH  16  19
ATOM     19  O   UNL     1      26.630 171.234 164.836  1.00  0.00    -0.504 OA
ATOM     20  H   UNL     1      26.919 172.131 165.166  1.00  0.00     0.293 HD
ENDBRANCH  16  19
BRANCH  18  21
ATOM     21  O   UNL     1      24.875 170.403 162.761  1.00  0.00    -0.504 OA
ATOM     22  H   UNL     1      24.493 171.200 163.291  1.00  0.00     0.293 HD
ENDBRANCH  18  21
ENDBRANCH   3  13
BRANCH  10  23
ATOM     23  O   UNL     1      32.365 166.160 164.097  1.00  0.00    -0.507 OA
ATOM     24  H   UNL     1      32.909 166.827 163.485  1.00  0.00     0.293 HD
ENDBRANCH  10  23
BRANCH  11  25
ATOM     25  O   UNL     1      28.785 166.738 167.274  1.00  0.00    -0.508 OA
ATOM     26  H   UNL     1      28.869 166.057 167.961  1.00  0.00     0.293 HD
ENDBRANCH  11  25
ENDBRANCH   1   2
BRANCH   1  27
ATOM     27  C   UNL     1      29.358 165.344 158.796  1.00  0.00     0.339 C 
ATOM     28  C   UNL     1      28.599 165.286 157.377  1.00  0.00     0.214 C 
ATOM     29  O   UNL     1      30.692 164.875 158.762  1.00  0.00    -0.332 OA
ATOM     30  C   UNL     1      29.587 164.924 156.183  1.00  0.00     0.180 C 
ATOM     31  C   UNL     1      31.530 165.301 157.693  1.00  0.00     0.179 C 
ATOM     32  C   UNL     1      30.853 165.755 156.326  1.00  0.00     0.177 C 
BRANCH  28  33
ATOM     33  O   UNL     1      28.047 166.545 157.140  1.00  0.00    -0.384 OA
ATOM     34  H   UNL     1      28.801 167.157 157.298  1.00  0.00     0.211 HD
ENDBRANCH  28  33
BRANCH  30  35
ATOM     35  O   UNL     1      29.016 165.043 154.875  1.00  0.00    -0.387 OA
ATOM     36  H   UNL     1      29.004 166.019 154.629  1.00  0.00     0.211 HD
ENDBRANCH  30  35
BRANCH  31  37
ATOM     37  C   UNL     1      32.614 166.235 158.244  1.00  0.00     0.191 C 
BRANCH  37  38
ATOM     38  O   UNL     1      31.939 167.428 158.651  1.00  0.00    -0.394 OA
ATOM     39  H   UNL     1      31.825 167.343 159.629  1.00  0.00     0.210 HD
ENDBRANCH  37  38
ENDBRANCH  31  37
BRANCH  32  40
ATOM     40  O   UNL     1      30.525 167.121 156.298  1.00  0.00    -0.387 OA
ATOM     41  H   UNL     1      29.948 167.410 157.101  1.00  0.00     0.211 HD
ENDBRANCH  32  40
ENDBRANCH   1  27
TORSDOF 12
ENDMDL
MODEL 9
REMARK VINA RESULT:    -4.560      3.411      6.690
REMARK INTER + INTRA:          -8.449
REMARK INTER:                  -6.247
REMARK INTRA:                  -2.202
REMARK UNBOUND:                -1.756
REMARK SMILES O=c1c(O[C@@H]2O[C@H](CO)[C@H](O)[C@H](O)[C@@H]2O)c(-c2ccc(O)c(O)c2)oc2cc(O)cc(O)c12
REMARK SMILES IDX 4 1 3 2 16 3 25 4 2 5 26 6 1 7 33 8 27 9 31 10 28 11 30 12
REMARK SMILES IDX 17 13 18 14 19 15 20 16 24 17 22 18 21 19 23 21 32 23 29 25
REMARK SMILES IDX 5 27 14 28 6 29 12 30 7 31 10 32 15 33 13 35 8 37 9 38 11 40
REMARK H PARENT 21 20 23 22 32 24 29 26 15 34 13 36 9 39 11 41
REMARK Flexibility Score: inf
ROOT
ATOM      1  O   UNL     1      30.684 172.929 171.751  1.00  0.00    -0.454 OA
ENDROOT
BRANCH   1   2
ATOM      2  C   UNL     1      31.676 171.920 172.147  1.00  0.00     0.214 A 
ATOM      3  C   UNL     1      31.352 170.554 172.018  1.00  0.00     0.180 A 
ATOM      4  O   UNL     1      32.266 169.779 171.431  1.00  0.00    -0.452 OA
ATOM      5  C   UNL     1      33.071 172.106 172.583  1.00  0.00     0.239 A 
ATOM      6  C   UNL     1      33.549 169.892 171.754  1.00  0.00     0.146 A 
ATOM      7  O   UNL     1      33.457 173.096 173.228  1.00  0.00    -0.285 OA
ATOM      8  C   UNL     1      33.979 171.034 172.501  1.00  0.00     0.111 A 
ATOM      9  C   UNL     1      34.410 168.812 171.565  1.00  0.00     0.094 A 
ATOM     10  C   UNL     1      35.190 170.929 173.246  1.00  0.00     0.134 A 
ATOM     11  C   UNL     1      35.532 168.666 172.438  1.00  0.00     0.123 A 
ATOM     12  C   UNL     1      35.865 169.706 173.270  1.00  0.00     0.093 A 
BRANCH   3  13
ATOM     13  C   UNL     1      30.537 169.746 173.004  1.00  0.00     0.025 A 
ATOM     14  C   UNL     1      29.890 168.542 172.583  1.00  0.00     0.016 A 
ATOM     15  C   UNL     1      28.473 168.557 172.599  1.00  0.00     0.051 A 
ATOM     16  C   UNL     1      27.787 169.520 173.345  1.00  0.00     0.157 A 
ATOM     17  C   UNL     1      29.893 170.531 173.963  1.00  0.00     0.062 A 
ATOM     18  C   UNL     1      28.527 170.451 174.096  1.00  0.00     0.158 A 
BRANCH  16  19
ATOM     19  O   UNL     1      26.376 169.610 173.316  1.00  0.00    -0.504 OA
ATOM     20  H   UNL     1      25.798 168.904 172.913  1.00  0.00     0.293 HD
ENDBRANCH  16  19
BRANCH  18  21
ATOM     21  O   UNL     1      27.887 171.336 174.993  1.00  0.00    -0.504 OA
ATOM     22  H   UNL     1      28.147 171.389 175.989  1.00  0.00     0.293 HD
ENDBRANCH  18  21
ENDBRANCH   3  13
BRANCH  10  23
ATOM     23  O   UNL     1      35.697 172.013 173.982  1.00  0.00    -0.507 OA
ATOM     24  H   UNL     1      35.138 172.470 174.753  1.00  0.00     0.293 HD
ENDBRANCH  10  23
BRANCH  11  25
ATOM     25  O   UNL     1      36.216 167.452 172.509  1.00  0.00    -0.508 OA
ATOM     26  H   UNL     1      35.895 166.655 172.057  1.00  0.00     0.293 HD
ENDBRANCH  11  25
ENDBRANCH   1   2
BRANCH   1  27
ATOM     27  C   UNL     1      30.192 174.027 172.589  1.00  0.00     0.339 C 
ATOM     28  C   UNL     1      30.346 175.496 171.948  1.00  0.00     0.214 C 
ATOM     29  O   UNL     1      28.887 173.724 173.042  1.00  0.00    -0.332 OA
ATOM     30  C   UNL     1      28.940 176.216 171.753  1.00  0.00     0.180 C 
ATOM     31  C   UNL     1      27.786 174.056 172.201  1.00  0.00     0.179 C 
ATOM     32  C   UNL     1      27.965 175.224 171.136  1.00  0.00     0.177 C 
BRANCH  28  33
ATOM     33  O   UNL     1      30.958 175.353 170.703  1.00  0.00    -0.384 OA
ATOM     34  H   UNL     1      31.860 175.032 170.928  1.00  0.00     0.211 HD
ENDBRANCH  28  33
BRANCH  30  35
ATOM     35  O   UNL     1      28.992 177.442 171.015  1.00  0.00    -0.387 OA
ATOM     36  H   UNL     1      29.175 178.188 171.665  1.00  0.00     0.211 HD
ENDBRANCH  30  35
BRANCH  31  37
ATOM     37  C   UNL     1      27.146 172.765 171.676  1.00  0.00     0.191 C 
BRANCH  37  38
ATOM     38  O   UNL     1      28.152 172.112 170.899  1.00  0.00    -0.394 OA
ATOM     39  H   UNL     1      27.676 171.741 170.115  1.00  0.00     0.210 HD
ENDBRANCH  37  38
ENDBRANCH  31  37
BRANCH  32  40
ATOM     40  O   UNL     1      28.466 174.776 169.902  1.00  0.00    -0.387 OA
ATOM     41  H   UNL     1      29.494 174.726 169.883  1.00  0.00     0.211 HD
ENDBRANCH  32  40
ENDBRANCH   1  27
TORSDOF 12
ENDMDL
