MODEL 1
REMARK VINA RESULT:    -5.836      0.000      0.000
REMARK INTER + INTRA:          -7.148
REMARK INTER:                  -6.860
REMARK INTRA:                  -0.289
REMARK UNBOUND:                -0.289
REMARK SMILES O=C([O-])C=Cc1ccc(O)c(O)c1
REMARK SMILES IDX 6 1 13 2 7 3 11 4 8 5 9 6 5 7 4 8 2 9 1 10 3 11 12 12 10 14
REMARK H PARENT 12 13 10 15
REMARK Flexibility Score: inf
ROOT
ATOM      1  C   UNL     1      -2.083   0.764   9.338  1.00  0.00    -0.022 A 
ATOM      2  C   UNL     1      -2.012   2.122   9.694  1.00  0.00     0.058 A 
ATOM      3  C   UNL     1      -1.498   0.339   8.136  1.00  0.00     0.012 A 
ATOM      4  C   UNL     1      -1.413   3.053   8.833  1.00  0.00     0.157 A 
ATOM      5  C   UNL     1      -0.900   1.264   7.276  1.00  0.00     0.051 A 
ATOM      6  C   UNL     1      -0.858   2.621   7.616  1.00  0.00     0.157 A 
ENDROOT
BRANCH   1   7
ATOM      7  C   UNL     1      -2.662  -0.240  10.254  1.00  0.00     0.010 C 
ATOM      8  C   UNL     1      -3.960  -0.578  10.314  1.00  0.00     0.025 C 
BRANCH   8   9
ATOM      9  C   UNL     1      -4.999  -0.154   9.356  1.00  0.00     0.064 C 
ATOM     10  O   UNL     1      -5.305  -0.916   8.403  1.00  0.00    -0.545 OA
ATOM     11  O   UNL     1      -5.597   1.098   9.441  1.00  0.00    -0.545 OA
ENDBRANCH   8   9
ENDBRANCH   1   7
BRANCH   4  12
ATOM     12  O   UNL     1      -1.361   4.401   9.185  1.00  0.00    -0.504 OA
ATOM     13  H   UNL     1      -1.469   5.133   8.494  1.00  0.00     0.293 HD
ENDBRANCH   4  12
BRANCH   6  14
ATOM     14  O   UNL     1      -0.258   3.521   6.737  1.00  0.00    -0.504 OA
ATOM     15  H   UNL     1       0.668   3.899   6.902  1.00  0.00     0.293 HD
ENDBRANCH   6  14
TORSDOF 4
ENDMDL
MODEL 2
REMARK VINA RESULT:    -5.818      2.260      2.863
REMARK INTER + INTRA:          -7.127
REMARK INTER:                  -6.836
REMARK INTRA:                  -0.291
REMARK UNBOUND:                -0.289
REMARK SMILES O=C([O-])C=Cc1ccc(O)c(O)c1
REMARK SMILES IDX 6 1 13 2 7 3 11 4 8 5 9 6 5 7 4 8 2 9 1 10 3 11 12 12 10 14
REMARK H PARENT 12 13 10 15
REMARK Flexibility Score: inf
ROOT
ATOM      1  C   UNL     1      -2.960   1.105   9.360  1.00  0.00    -0.022 A 
ATOM      2  C   UNL     1      -3.569   1.263   8.102  1.00  0.00     0.058 A 
ATOM      3  C   UNL     1      -1.903   1.951   9.720  1.00  0.00     0.012 A 
ATOM      4  C   UNL     1      -3.090   2.220   7.196  1.00  0.00     0.157 A 
ATOM      5  C   UNL     1      -1.423   2.905   8.819  1.00  0.00     0.051 A 
ATOM      6  C   UNL     1      -2.008   3.042   7.556  1.00  0.00     0.157 A 
ENDROOT
BRANCH   1   7
ATOM      7  C   UNL     1      -3.484   0.140  10.348  1.00  0.00     0.010 C 
ATOM      8  C   UNL     1      -3.152  -1.158  10.417  1.00  0.00     0.025 C 
BRANCH   8   9
ATOM      9  C   UNL     1      -2.072  -1.807   9.648  1.00  0.00     0.064 C 
ATOM     10  O   UNL     1      -0.933  -1.925  10.168  1.00  0.00    -0.545 OA
ATOM     11  O   UNL     1      -2.265  -2.223   8.336  1.00  0.00    -0.545 OA
ENDBRANCH   8   9
ENDBRANCH   1   7
BRANCH   4  12
ATOM     12  O   UNL     1      -3.687   2.360   5.944  1.00  0.00    -0.504 OA
ATOM     13  H   UNL     1      -4.469   2.988   5.797  1.00  0.00     0.293 HD
ENDBRANCH   4  12
BRANCH   6  14
ATOM     14  O   UNL     1      -1.505   4.000   6.676  1.00  0.00    -0.504 OA
ATOM     15  H   UNL     1      -1.356   4.962   6.957  1.00  0.00     0.293 HD
ENDBRANCH   6  14
TORSDOF 4
ENDMDL
MODEL 3
REMARK VINA RESULT:    -5.787      2.298      2.918
REMARK INTER + INTRA:          -7.090
REMARK INTER:                  -6.803
REMARK INTRA:                  -0.287
REMARK UNBOUND:                -0.289
REMARK SMILES O=C([O-])C=Cc1ccc(O)c(O)c1
REMARK SMILES IDX 6 1 13 2 7 3 11 4 8 5 9 6 5 7 4 8 2 9 1 10 3 11 12 12 10 14
REMARK H PARENT 12 13 10 15
REMARK Flexibility Score: inf
ROOT
ATOM      1  C   UNL     1      -2.770   0.424   8.859  1.00  0.00    -0.022 A 
ATOM      2  C   UNL     1      -1.447   0.233   8.426  1.00  0.00     0.058 A 
ATOM      3  C   UNL     1      -3.553   1.415   8.250  1.00  0.00     0.012 A 
ATOM      4  C   UNL     1      -0.896   1.058   7.436  1.00  0.00     0.157 A 
ATOM      5  C   UNL     1      -3.007   2.239   7.263  1.00  0.00     0.051 A 
ATOM      6  C   UNL     1      -1.680   2.069   6.854  1.00  0.00     0.157 A 
ENDROOT
BRANCH   1   7
ATOM      7  C   UNL     1      -3.385  -0.468   9.863  1.00  0.00     0.010 C 
ATOM      8  C   UNL     1      -3.321  -0.301  11.193  1.00  0.00     0.025 C 
BRANCH   8   9
ATOM      9  C   UNL     1      -2.794   0.893  11.880  1.00  0.00     0.064 C 
ATOM     10  O   UNL     1      -3.594   1.784  12.265  1.00  0.00    -0.545 OA
ATOM     11  O   UNL     1      -1.428   1.091  12.047  1.00  0.00    -0.545 OA
ENDBRANCH   8   9
ENDBRANCH   1   7
BRANCH   4  12
ATOM     12  O   UNL     1       0.423   0.874   7.023  1.00  0.00    -0.504 OA
ATOM     13  H   UNL     1       0.912   0.001   7.185  1.00  0.00     0.293 HD
ENDBRANCH   4  12
BRANCH   6  14
ATOM     14  O   UNL     1      -1.161   2.909   5.870  1.00  0.00    -0.504 OA
ATOM     15  H   UNL     1      -0.412   3.565   6.062  1.00  0.00     0.293 HD
ENDBRANCH   6  14
TORSDOF 4
ENDMDL
MODEL 4
REMARK VINA RESULT:    -5.698      2.454      3.679
REMARK INTER + INTRA:          -6.986
REMARK INTER:                  -6.713
REMARK INTRA:                  -0.273
REMARK UNBOUND:                -0.289
REMARK SMILES O=C([O-])C=Cc1ccc(O)c(O)c1
REMARK SMILES IDX 6 1 13 2 7 3 11 4 8 5 9 6 5 7 4 8 2 9 1 10 3 11 12 12 10 14
REMARK H PARENT 12 13 10 15
REMARK Flexibility Score: inf
ROOT
ATOM      1  C   UNL     1      -2.258   1.521   9.999  1.00  0.00    -0.022 A 
ATOM      2  C   UNL     1      -3.455   0.967   9.512  1.00  0.00     0.058 A 
ATOM      3  C   UNL     1      -1.542   2.419   9.194  1.00  0.00     0.012 A 
ATOM      4  C   UNL     1      -3.901   1.264   8.217  1.00  0.00     0.157 A 
ATOM      5  C   UNL     1      -1.984   2.716   7.902  1.00  0.00     0.051 A 
ATOM      6  C   UNL     1      -3.158   2.140   7.407  1.00  0.00     0.157 A 
ENDROOT
BRANCH   1   7
ATOM      7  C   UNL     1      -1.799   1.263  11.379  1.00  0.00     0.010 C 
ATOM      8  C   UNL     1      -2.147   1.978  12.460  1.00  0.00     0.025 C 
BRANCH   8   9
ATOM      9  C   UNL     1      -3.190   3.022  12.495  1.00  0.00     0.064 C 
ATOM     10  O   UNL     1      -2.849   4.233  12.467  1.00  0.00    -0.545 OA
ATOM     11  O   UNL     1      -4.535   2.700  12.632  1.00  0.00    -0.545 OA
ENDBRANCH   8   9
ENDBRANCH   1   7
BRANCH   4  12
ATOM     12  O   UNL     1      -5.080   0.697   7.734  1.00  0.00    -0.504 OA
ATOM     13  H   UNL     1      -5.639   0.071   8.302  1.00  0.00     0.293 HD
ENDBRANCH   4  12
BRANCH   6  14
ATOM     14  O   UNL     1      -3.572   2.453   6.112  1.00  0.00    -0.504 OA
ATOM     15  H   UNL     1      -4.485   2.188   5.761  1.00  0.00     0.293 HD
ENDBRANCH   6  14
TORSDOF 4
ENDMDL
MODEL 5
REMARK VINA RESULT:    -5.647      2.766      3.692
REMARK INTER + INTRA:          -6.926
REMARK INTER:                  -6.646
REMARK INTRA:                  -0.281
REMARK UNBOUND:                -0.289
REMARK SMILES O=C([O-])C=Cc1ccc(O)c(O)c1
REMARK SMILES IDX 6 1 13 2 7 3 11 4 8 5 9 6 5 7 4 8 2 9 1 10 3 11 12 12 10 14
REMARK H PARENT 12 13 10 15
REMARK Flexibility Score: inf
ROOT
ATOM      1  C   UNL     1      -1.733   0.178   8.718  1.00  0.00    -0.022 A 
ATOM      2  C   UNL     1      -1.232   0.896   7.619  1.00  0.00     0.058 A 
ATOM      3  C   UNL     1      -2.080   0.869   9.888  1.00  0.00     0.012 A 
ATOM      4  C   UNL     1      -1.030   2.280   7.706  1.00  0.00     0.157 A 
ATOM      5  C   UNL     1      -1.880   2.249   9.978  1.00  0.00     0.051 A 
ATOM      6  C   UNL     1      -1.352   2.959   8.894  1.00  0.00     0.157 A 
ENDROOT
BRANCH   1   7
ATOM      7  C   UNL     1      -2.003  -1.272   8.629  1.00  0.00     0.010 C 
ATOM      8  C   UNL     1      -1.136  -2.244   8.952  1.00  0.00     0.025 C 
BRANCH   8   9
ATOM      9  C   UNL     1       0.160  -2.045   9.629  1.00  0.00     0.064 C 
ATOM     10  O   UNL     1       1.213  -2.010   8.942  1.00  0.00    -0.545 OA
ATOM     11  O   UNL     1       0.252  -1.968  11.013  1.00  0.00    -0.545 OA
ENDBRANCH   8   9
ENDBRANCH   1   7
BRANCH   4  12
ATOM     12  O   UNL     1      -0.518   2.984   6.617  1.00  0.00    -0.504 OA
ATOM     13  H   UNL     1      -0.539   3.996   6.582  1.00  0.00     0.293 HD
ENDBRANCH   4  12
BRANCH   6  14
ATOM     14  O   UNL     1      -1.160   4.335   9.015  1.00  0.00    -0.504 OA
ATOM     15  H   UNL     1      -1.810   5.005   8.622  1.00  0.00     0.293 HD
ENDBRANCH   6  14
TORSDOF 4
ENDMDL
MODEL 6
REMARK VINA RESULT:    -5.609      1.921      2.349
REMARK INTER + INTRA:          -6.882
REMARK INTER:                  -6.609
REMARK INTRA:                  -0.273
REMARK UNBOUND:                -0.289
REMARK SMILES O=C([O-])C=Cc1ccc(O)c(O)c1
REMARK SMILES IDX 6 1 13 2 7 3 11 4 8 5 9 6 5 7 4 8 2 9 1 10 3 11 12 12 10 14
REMARK H PARENT 12 13 10 15
REMARK Flexibility Score: inf
ROOT
ATOM      1  C   UNL     1      -3.613   0.181   8.906  1.00  0.00    -0.022 A 
ATOM      2  C   UNL     1      -3.717   1.388   8.193  1.00  0.00     0.058 A 
ATOM      3  C   UNL     1      -2.389  -0.501   8.925  1.00  0.00     0.012 A 
ATOM      4  C   UNL     1      -2.625   1.879   7.464  1.00  0.00     0.157 A 
ATOM      5  C   UNL     1      -1.299  -0.015   8.198  1.00  0.00     0.051 A 
ATOM      6  C   UNL     1      -1.411   1.171   7.463  1.00  0.00     0.157 A 
ENDROOT
BRANCH   1   7
ATOM      7  C   UNL     1      -4.735  -0.325   9.724  1.00  0.00     0.010 C 
ATOM      8  C   UNL     1      -5.665  -1.199   9.309  1.00  0.00     0.025 C 
BRANCH   8   9
ATOM      9  C   UNL     1      -5.628  -1.951   8.040  1.00  0.00     0.064 C 
ATOM     10  O   UNL     1      -6.378  -1.597   7.094  1.00  0.00    -0.545 OA
ATOM     11  O   UNL     1      -4.838  -3.084   7.890  1.00  0.00    -0.545 OA
ENDBRANCH   8   9
ENDBRANCH   1   7
BRANCH   4  12
ATOM     12  O   UNL     1      -2.740   3.068   6.746  1.00  0.00    -0.504 OA
ATOM     13  H   UNL     1      -3.453   3.753   6.964  1.00  0.00     0.293 HD
ENDBRANCH   4  12
BRANCH   6  14
ATOM     14  O   UNL     1      -0.308   1.630   6.745  1.00  0.00    -0.504 OA
ATOM     15  H   UNL     1       0.037   1.148   5.922  1.00  0.00     0.293 HD
ENDBRANCH   6  14
TORSDOF 4
ENDMDL
MODEL 7
REMARK VINA RESULT:    -5.585      2.504      2.993
REMARK INTER + INTRA:          -6.853
REMARK INTER:                  -6.562
REMARK INTRA:                  -0.292
REMARK UNBOUND:                -0.289
REMARK SMILES O=C([O-])C=Cc1ccc(O)c(O)c1
REMARK SMILES IDX 6 1 13 2 7 3 11 4 8 5 9 6 5 7 4 8 2 9 1 10 3 11 12 12 10 14
REMARK H PARENT 12 13 10 15
REMARK Flexibility Score: inf
ROOT
ATOM      1  C   UNL     1      -2.961   1.322  10.303  1.00  0.00    -0.022 A 
ATOM      2  C   UNL     1      -1.881   2.141   9.931  1.00  0.00     0.058 A 
ATOM      3  C   UNL     1      -3.933   0.993   9.348  1.00  0.00     0.012 A 
ATOM      4  C   UNL     1      -1.803   2.669   8.635  1.00  0.00     0.157 A 
ATOM      5  C   UNL     1      -3.858   1.518   8.055  1.00  0.00     0.051 A 
ATOM      6  C   UNL     1      -2.799   2.359   7.694  1.00  0.00     0.157 A 
ENDROOT
BRANCH   1   7
ATOM      7  C   UNL     1      -3.034   0.713  11.647  1.00  0.00     0.010 C 
ATOM      8  C   UNL     1      -3.550   1.299  12.738  1.00  0.00     0.025 C 
BRANCH   8   9
ATOM      9  C   UNL     1      -4.303   2.569  12.752  1.00  0.00     0.064 C 
ATOM     10  O   UNL     1      -5.519   2.565  12.431  1.00  0.00    -0.545 OA
ATOM     11  O   UNL     1      -3.681   3.778  13.040  1.00  0.00    -0.545 OA
ENDBRANCH   8   9
ENDBRANCH   1   7
BRANCH   4  12
ATOM     12  O   UNL     1      -0.738   3.495   8.278  1.00  0.00    -0.504 OA
ATOM     13  H   UNL     1      -0.087   3.849   8.968  1.00  0.00     0.293 HD
ENDBRANCH   4  12
BRANCH   6  14
ATOM     14  O   UNL     1      -2.753   2.871   6.397  1.00  0.00    -0.504 OA
ATOM     15  H   UNL     1      -3.026   3.823   6.186  1.00  0.00     0.293 HD
ENDBRANCH   6  14
TORSDOF 4
ENDMDL
MODEL 8
REMARK VINA RESULT:    -5.540      2.560      3.001
REMARK INTER + INTRA:          -6.801
REMARK INTER:                  -6.528
REMARK INTRA:                  -0.272
REMARK UNBOUND:                -0.289
REMARK SMILES O=C([O-])C=Cc1ccc(O)c(O)c1
REMARK SMILES IDX 6 1 13 2 7 3 11 4 8 5 9 6 5 7 4 8 2 9 1 10 3 11 12 12 10 14
REMARK H PARENT 12 13 10 15
REMARK Flexibility Score: inf
ROOT
ATOM      1  C   UNL     1      -2.147   0.380   9.403  1.00  0.00    -0.022 A 
ATOM      2  C   UNL     1      -2.108   1.720   9.826  1.00  0.00     0.058 A 
ATOM      3  C   UNL     1      -1.489   0.015   8.220  1.00  0.00     0.012 A 
ATOM      4  C   UNL     1      -1.464   2.692   9.049  1.00  0.00     0.157 A 
ATOM      5  C   UNL     1      -0.846   0.982   7.443  1.00  0.00     0.051 A 
ATOM      6  C   UNL     1      -0.833   2.321   7.848  1.00  0.00     0.157 A 
ENDROOT
BRANCH   1   7
ATOM      7  C   UNL     1      -2.775  -0.668  10.234  1.00  0.00     0.010 C 
ATOM      8  C   UNL     1      -2.120  -1.503  11.056  1.00  0.00     0.025 C 
BRANCH   8   9
ATOM      9  C   UNL     1      -0.694  -1.400  11.421  1.00  0.00     0.064 C 
ATOM     10  O   UNL     1      -0.357  -0.658  12.379  1.00  0.00    -0.545 OA
ATOM     11  O   UNL     1       0.292  -2.046  10.684  1.00  0.00    -0.545 OA
ENDBRANCH   8   9
ENDBRANCH   1   7
BRANCH   4  12
ATOM     12  O   UNL     1      -1.442   4.022   9.466  1.00  0.00    -0.504 OA
ATOM     13  H   UNL     1      -1.586   4.276  10.436  1.00  0.00     0.293 HD
ENDBRANCH   4  12
BRANCH   6  14
ATOM     14  O   UNL     1      -0.187   3.264   7.050  1.00  0.00    -0.504 OA
ATOM     15  H   UNL     1      -0.474   3.448   6.096  1.00  0.00     0.293 HD
ENDBRANCH   6  14
TORSDOF 4
ENDMDL
MODEL 9
REMARK VINA RESULT:    -5.458      3.970      5.336
REMARK INTER + INTRA:          -6.704
REMARK INTER:                  -6.437
REMARK INTRA:                  -0.267
REMARK UNBOUND:                -0.289
REMARK SMILES O=C([O-])C=Cc1ccc(O)c(O)c1
REMARK SMILES IDX 6 1 13 2 7 3 11 4 8 5 9 6 5 7 4 8 2 9 1 10 3 11 12 12 10 14
REMARK H PARENT 12 13 10 15
REMARK Flexibility Score: inf
ROOT
ATOM      1  C   UNL     1      -6.447   0.236  10.896  1.00  0.00    -0.022 A 
ATOM      2  C   UNL     1      -5.962   0.889   9.750  1.00  0.00     0.058 A 
ATOM      3  C   UNL     1      -6.493  -1.165  10.918  1.00  0.00     0.012 A 
ATOM      4  C   UNL     1      -5.580   0.153   8.620  1.00  0.00     0.157 A 
ATOM      5  C   UNL     1      -6.114  -1.902   9.793  1.00  0.00     0.051 A 
ATOM      6  C   UNL     1      -5.660  -1.250   8.641  1.00  0.00     0.157 A 
ENDROOT
BRANCH   1   7
ATOM      7  C   UNL     1      -6.804   0.990  12.115  1.00  0.00     0.010 C 
ATOM      8  C   UNL     1      -5.946   1.362  13.077  1.00  0.00     0.025 C 
BRANCH   8   9
ATOM      9  C   UNL     1      -4.476   1.253  13.002  1.00  0.00     0.064 C 
ATOM     10  O   UNL     1      -3.821   2.163  12.431  1.00  0.00    -0.545 OA
ATOM     11  O   UNL     1      -3.805   0.134  13.480  1.00  0.00    -0.545 OA
ENDBRANCH   8   9
ENDBRANCH   1   7
BRANCH   4  12
ATOM     12  O   UNL     1      -5.115   0.808   7.480  1.00  0.00    -0.504 OA
ATOM     13  H   UNL     1      -5.066   0.341   6.583  1.00  0.00     0.293 HD
ENDBRANCH   4  12
BRANCH   6  14
ATOM     14  O   UNL     1      -5.292  -2.011   7.532  1.00  0.00    -0.504 OA
ATOM     15  H   UNL     1      -4.403  -2.496   7.484  1.00  0.00     0.293 HD
ENDBRANCH   6  14
TORSDOF 4
ENDMDL
