MODEL 1
REMARK VINA RESULT:    -5.427      0.000      0.000
REMARK INTER + INTRA:          -9.144
REMARK INTER:                  -7.965
REMARK INTRA:                  -1.179
REMARK UNBOUND:                -1.179
REMARK SMILES O=c1c(O[C@@H]2O[C@@H](CO)[C@@H](O)[C@H](O)[C@H]2O)c(-c2ccc(O)c(O)c2)oc2cc(O)cc(O)c12
REMARK SMILES IDX 4 1 3 2 16 3 25 4 2 5 26 6 1 7 33 8 27 9 31 10 28 11 30 12
REMARK SMILES IDX 17 13 18 14 19 15 20 16 24 17 22 18 21 19 23 21 32 23 29 25
REMARK SMILES IDX 5 27 14 28 6 29 12 30 7 31 10 32 15 33 13 35 8 37 9 38 11 40
REMARK H PARENT 21 20 23 22 32 24 29 26 15 34 13 36 9 39 11 41
REMARK Flexibility Score: inf
ROOT
ATOM      1  O   UNL     1      29.334 169.474 162.522  1.00  0.00    -0.454 OA
ENDROOT
BRANCH   1   2
ATOM      2  C   UNL     1      29.817 169.335 161.215  1.00  0.00     0.214 A 
ATOM      3  C   UNL     1      29.189 169.988 160.136  1.00  0.00     0.180 A 
ATOM      4  O   UNL     1      29.605 169.752 158.894  1.00  0.00    -0.452 OA
ATOM      5  C   UNL     1      30.930 168.524 160.965  1.00  0.00     0.239 A 
ATOM      6  C   UNL     1      30.631 168.957 158.605  1.00  0.00     0.146 A 
ATOM      7  O   UNL     1      31.528 167.982 161.935  1.00  0.00    -0.285 OA
ATOM      8  C   UNL     1      31.361 168.323 159.638  1.00  0.00     0.111 A 
ATOM      9  C   UNL     1      30.995 168.771 157.269  1.00  0.00     0.094 A 
ATOM     10  C   UNL     1      32.474 167.512 159.300  1.00  0.00     0.134 A 
ATOM     11  C   UNL     1      32.098 167.976 156.943  1.00  0.00     0.123 A 
ATOM     12  C   UNL     1      32.832 167.350 157.953  1.00  0.00     0.093 A 
BRANCH   3  13
ATOM     13  C   UNL     1      28.079 170.953 160.329  1.00  0.00     0.025 A 
ATOM     14  C   UNL     1      26.739 170.585 160.103  1.00  0.00     0.016 A 
ATOM     15  C   UNL     1      25.706 171.491 160.357  1.00  0.00     0.051 A 
ATOM     16  C   UNL     1      25.987 172.765 160.866  1.00  0.00     0.157 A 
ATOM     17  C   UNL     1      28.355 172.231 160.845  1.00  0.00     0.062 A 
ATOM     18  C   UNL     1      27.319 173.133 161.115  1.00  0.00     0.158 A 
BRANCH  16  19
ATOM     19  O   UNL     1      24.950 173.659 161.132  1.00  0.00    -0.504 OA
ATOM     20  H   UNL     1      25.032 174.647 160.914  1.00  0.00     0.293 HD
ENDBRANCH  16  19
BRANCH  18  21
ATOM     21  O   UNL     1      27.629 174.387 161.641  1.00  0.00    -0.504 OA
ATOM     22  H   UNL     1      28.334 174.984 161.229  1.00  0.00     0.293 HD
ENDBRANCH  18  21
ENDBRANCH   3  13
BRANCH  10  23
ATOM     23  O   UNL     1      33.231 166.881 160.287  1.00  0.00    -0.507 OA
ATOM     24  H   UNL     1      34.155 166.508 160.099  1.00  0.00     0.293 HD
ENDBRANCH  10  23
BRANCH  11  25
ATOM     25  O   UNL     1      32.473 167.825 155.612  1.00  0.00    -0.508 OA
ATOM     26  H   UNL     1      32.579 166.895 155.226  1.00  0.00     0.293 HD
ENDBRANCH  11  25
ENDBRANCH   1   2
BRANCH   1  27
ATOM     27  C   UNL     1      29.778 170.531 163.385  1.00  0.00     0.339 C 
ATOM     28  C   UNL     1      28.648 170.955 164.348  1.00  0.00     0.214 C 
ATOM     29  O   UNL     1      30.961 170.155 164.082  1.00  0.00    -0.332 OA
ATOM     30  C   UNL     1      28.396 169.873 165.421  1.00  0.00     0.180 C 
ATOM     31  C   UNL     1      30.725 169.049 164.939  1.00  0.00     0.179 C 
ATOM     32  C   UNL     1      29.724 169.424 166.059  1.00  0.00     0.177 C 
BRANCH  28  33
ATOM     33  O   UNL     1      28.992 172.175 164.953  1.00  0.00    -0.384 OA
ATOM     34  H   UNL     1      28.726 172.893 164.318  1.00  0.00     0.211 HD
ENDBRANCH  28  33
BRANCH  30  35
ATOM     35  O   UNL     1      27.754 168.762 164.846  1.00  0.00    -0.387 OA
ATOM     36  H   UNL     1      27.523 169.012 163.911  1.00  0.00     0.211 HD
ENDBRANCH  30  35
BRANCH  31  37
ATOM     37  C   UNL     1      32.069 168.546 165.496  1.00  0.00     0.191 C 
BRANCH  37  38
ATOM     38  O   UNL     1      33.098 168.666 164.548  1.00  0.00    -0.394 OA
ATOM     39  H   UNL     1      32.958 167.937 163.892  1.00  0.00     0.210 HD
ENDBRANCH  37  38
ENDBRANCH  31  37
BRANCH  32  40
ATOM     40  O   UNL     1      30.246 170.459 166.852  1.00  0.00    -0.387 OA
ATOM     41  H   UNL     1      30.472 171.212 166.249  1.00  0.00     0.211 HD
ENDBRANCH  32  40
ENDBRANCH   1  27
TORSDOF 12
ENDMDL
MODEL 2
REMARK VINA RESULT:    -5.284     10.100     13.075
REMARK INTER + INTRA:          -8.934
REMARK INTER:                  -7.353
REMARK INTRA:                  -1.582
REMARK UNBOUND:                -1.179
REMARK SMILES O=c1c(O[C@@H]2O[C@@H](CO)[C@@H](O)[C@H](O)[C@H]2O)c(-c2ccc(O)c(O)c2)oc2cc(O)cc(O)c12
REMARK SMILES IDX 4 1 3 2 16 3 25 4 2 5 26 6 1 7 33 8 27 9 31 10 28 11 30 12
REMARK SMILES IDX 17 13 18 14 19 15 20 16 24 17 22 18 21 19 23 21 32 23 29 25
REMARK SMILES IDX 5 27 14 28 6 29 12 30 7 31 10 32 15 33 13 35 8 37 9 38 11 40
REMARK H PARENT 21 20 23 22 32 24 29 26 15 34 13 36 9 39 11 41
REMARK Flexibility Score: inf
ROOT
ATOM      1  O   UNL     1      31.207 176.166 171.233  1.00  0.00    -0.454 OA
ENDROOT
BRANCH   1   2
ATOM      2  C   UNL     1      32.343 175.359 171.372  1.00  0.00     0.214 A 
ATOM      3  C   UNL     1      33.551 175.885 171.871  1.00  0.00     0.180 A 
ATOM      4  O   UNL     1      34.641 175.121 171.892  1.00  0.00    -0.452 OA
ATOM      5  C   UNL     1      32.291 174.011 170.998  1.00  0.00     0.239 A 
ATOM      6  C   UNL     1      34.649 173.849 171.507  1.00  0.00     0.146 A 
ATOM      7  O   UNL     1      31.196 173.523 170.603  1.00  0.00    -0.285 OA
ATOM      8  C   UNL     1      33.459 173.225 171.063  1.00  0.00     0.111 A 
ATOM      9  C   UNL     1      35.844 173.126 171.565  1.00  0.00     0.094 A 
ATOM     10  C   UNL     1      33.492 171.856 170.696  1.00  0.00     0.134 A 
ATOM     11  C   UNL     1      35.867 171.775 171.208  1.00  0.00     0.123 A 
ATOM     12  C   UNL     1      34.699 171.144 170.775  1.00  0.00     0.093 A 
BRANCH   3  13
ATOM     13  C   UNL     1      33.658 177.268 172.396  1.00  0.00     0.025 A 
ATOM     14  C   UNL     1      33.064 177.637 173.618  1.00  0.00     0.016 A 
ATOM     15  C   UNL     1      33.235 178.928 174.125  1.00  0.00     0.051 A 
ATOM     16  C   UNL     1      34.021 179.862 173.439  1.00  0.00     0.157 A 
ATOM     17  C   UNL     1      34.450 178.208 171.715  1.00  0.00     0.062 A 
ATOM     18  C   UNL     1      34.635 179.496 172.230  1.00  0.00     0.158 A 
BRANCH  16  19
ATOM     19  O   UNL     1      34.201 181.145 173.957  1.00  0.00    -0.504 OA
ATOM     20  H   UNL     1      35.124 181.558 174.042  1.00  0.00     0.293 HD
ENDBRANCH  16  19
BRANCH  18  21
ATOM     21  O   UNL     1      35.440 180.398 171.534  1.00  0.00    -0.504 OA
ATOM     22  H   UNL     1      36.396 180.183 171.281  1.00  0.00     0.293 HD
ENDBRANCH  18  21
ENDBRANCH   3  13
BRANCH  10  23
ATOM     23  O   UNL     1      32.339 171.198 170.268  1.00  0.00    -0.507 OA
ATOM     24  H   UNL     1      31.857 170.523 170.854  1.00  0.00     0.293 HD
ENDBRANCH  10  23
BRANCH  11  25
ATOM     25  O   UNL     1      37.054 171.055 171.302  1.00  0.00    -0.508 OA
ATOM     26  H   UNL     1      37.462 170.882 172.212  1.00  0.00     0.293 HD
ENDBRANCH  11  25
ENDBRANCH   1   2
BRANCH   1  27
ATOM     27  C   UNL     1      30.860 176.776 169.982  1.00  0.00     0.339 C 
ATOM     28  C   UNL     1      29.331 176.744 169.768  1.00  0.00     0.214 C 
ATOM     29  O   UNL     1      31.383 178.098 169.899  1.00  0.00    -0.332 OA
ATOM     30  C   UNL     1      28.616 177.734 170.713  1.00  0.00     0.180 C 
ATOM     31  C   UNL     1      30.819 178.939 170.893  1.00  0.00     0.179 C 
ATOM     32  C   UNL     1      29.296 179.115 170.666  1.00  0.00     0.177 C 
BRANCH  28  33
ATOM     33  O   UNL     1      29.047 177.052 168.427  1.00  0.00    -0.384 OA
ATOM     34  H   UNL     1      28.579 176.262 168.046  1.00  0.00     0.211 HD
ENDBRANCH  28  33
BRANCH  30  35
ATOM     35  O   UNL     1      28.638 177.246 172.031  1.00  0.00    -0.387 OA
ATOM     36  H   UNL     1      27.690 177.136 172.316  1.00  0.00     0.211 HD
ENDBRANCH  30  35
BRANCH  31  37
ATOM     37  C   UNL     1      31.570 180.283 170.905  1.00  0.00     0.191 C 
BRANCH  37  38
ATOM     38  O   UNL     1      32.179 180.543 169.667  1.00  0.00    -0.394 OA
ATOM     39  H   UNL     1      32.381 181.513 169.653  1.00  0.00     0.210 HD
ENDBRANCH  37  38
ENDBRANCH  31  37
BRANCH  32  40
ATOM     40  O   UNL     1      29.057 179.723 169.424  1.00  0.00    -0.387 OA
ATOM     41  H   UNL     1      28.214 179.346 169.063  1.00  0.00     0.211 HD
ENDBRANCH  32  40
ENDBRANCH   1  27
TORSDOF 12
ENDMDL
MODEL 3
REMARK VINA RESULT:    -5.160      1.172      2.355
REMARK INTER + INTRA:          -8.753
REMARK INTER:                  -7.160
REMARK INTRA:                  -1.593
REMARK UNBOUND:                -1.179
REMARK SMILES O=c1c(O[C@@H]2O[C@@H](CO)[C@@H](O)[C@H](O)[C@H]2O)c(-c2ccc(O)c(O)c2)oc2cc(O)cc(O)c12
REMARK SMILES IDX 4 1 3 2 16 3 25 4 2 5 26 6 1 7 33 8 27 9 31 10 28 11 30 12
REMARK SMILES IDX 17 13 18 14 19 15 20 16 24 17 22 18 21 19 23 21 32 23 29 25
REMARK SMILES IDX 5 27 14 28 6 29 12 30 7 31 10 32 15 33 13 35 8 37 9 38 11 40
REMARK H PARENT 21 20 23 22 32 24 29 26 15 34 13 36 9 39 11 41
REMARK Flexibility Score: inf
ROOT
ATOM      1  O   UNL     1      30.315 169.452 161.699  1.00  0.00    -0.454 OA
ENDROOT
BRANCH   1   2
ATOM      2  C   UNL     1      30.347 169.271 160.310  1.00  0.00     0.214 A 
ATOM      3  C   UNL     1      29.373 169.859 159.479  1.00  0.00     0.180 A 
ATOM      4  O   UNL     1      29.368 169.581 158.177  1.00  0.00    -0.452 OA
ATOM      5  C   UNL     1      31.348 168.481 159.733  1.00  0.00     0.239 A 
ATOM      6  C   UNL     1      30.273 168.804 157.592  1.00  0.00     0.146 A 
ATOM      7  O   UNL     1      32.253 167.998 160.469  1.00  0.00    -0.285 OA
ATOM      8  C   UNL     1      31.327 168.235 158.346  1.00  0.00     0.111 A 
ATOM      9  C   UNL     1      30.185 168.570 156.217  1.00  0.00     0.094 A 
ATOM     10  C   UNL     1      32.299 167.442 157.685  1.00  0.00     0.134 A 
ATOM     11  C   UNL     1      31.151 167.793 155.571  1.00  0.00     0.123 A 
ATOM     12  C   UNL     1      32.201 167.231 156.301  1.00  0.00     0.093 A 
BRANCH   3  13
ATOM     13  C   UNL     1      28.351 170.800 159.997  1.00  0.00     0.025 A 
ATOM     14  C   UNL     1      26.978 170.489 159.952  1.00  0.00     0.016 A 
ATOM     15  C   UNL     1      26.039 171.362 160.508  1.00  0.00     0.051 A 
ATOM     16  C   UNL     1      26.452 172.542 161.140  1.00  0.00     0.157 A 
ATOM     17  C   UNL     1      28.759 171.983 160.637  1.00  0.00     0.062 A 
ATOM     18  C   UNL     1      27.820 172.849 161.209  1.00  0.00     0.158 A 
BRANCH  16  19
ATOM     19  O   UNL     1      25.510 173.401 161.707  1.00  0.00    -0.504 OA
ATOM     20  H   UNL     1      24.539 173.128 161.813  1.00  0.00     0.293 HD
ENDBRANCH  16  19
BRANCH  18  21
ATOM     21  O   UNL     1      28.263 174.005 161.850  1.00  0.00    -0.504 OA
ATOM     22  H   UNL     1      28.447 174.034 162.844  1.00  0.00     0.293 HD
ENDBRANCH  18  21
ENDBRANCH   3  13
BRANCH  10  23
ATOM     23  O   UNL     1      33.363 166.875 158.387  1.00  0.00    -0.507 OA
ATOM     24  H   UNL     1      33.236 166.437 159.293  1.00  0.00     0.293 HD
ENDBRANCH  10  23
BRANCH  11  25
ATOM     25  O   UNL     1      31.074 167.595 154.196  1.00  0.00    -0.508 OA
ATOM     26  H   UNL     1      30.512 166.835 153.832  1.00  0.00     0.293 HD
ENDBRANCH  11  25
ENDBRANCH   1   2
BRANCH   1  27
ATOM     27  C   UNL     1      29.433 168.697 162.541  1.00  0.00     0.339 C 
ATOM     28  C   UNL     1      30.239 167.820 163.523  1.00  0.00     0.214 C 
ATOM     29  O   UNL     1      28.520 169.556 163.219  1.00  0.00    -0.332 OA
ATOM     30  C   UNL     1      30.917 168.681 164.612  1.00  0.00     0.180 C 
ATOM     31  C   UNL     1      29.199 170.445 164.091  1.00  0.00     0.179 C 
ATOM     32  C   UNL     1      29.907 169.668 165.228  1.00  0.00     0.177 C 
BRANCH  28  33
ATOM     33  O   UNL     1      29.380 166.875 164.109  1.00  0.00    -0.384 OA
ATOM     34  H   UNL     1      29.548 166.011 163.645  1.00  0.00     0.211 HD
ENDBRANCH  28  33
BRANCH  30  35
ATOM     35  O   UNL     1      31.995 169.397 164.062  1.00  0.00    -0.387 OA
ATOM     36  H   UNL     1      32.826 169.024 164.463  1.00  0.00     0.211 HD
ENDBRANCH  30  35
BRANCH  31  37
ATOM     37  C   UNL     1      28.201 171.488 164.626  1.00  0.00     0.191 C 
BRANCH  37  38
ATOM     38  O   UNL     1      28.754 172.779 164.626  1.00  0.00    -0.394 OA
ATOM     39  H   UNL     1      28.535 173.176 163.745  1.00  0.00     0.210 HD
ENDBRANCH  37  38
ENDBRANCH  31  37
BRANCH  32  40
ATOM     40  O   UNL     1      28.966 168.969 165.999  1.00  0.00    -0.387 OA
ATOM     41  H   UNL     1      28.769 168.117 165.531  1.00  0.00     0.211 HD
ENDBRANCH  32  40
ENDBRANCH   1  27
TORSDOF 12
ENDMDL
MODEL 4
REMARK VINA RESULT:    -5.022      1.560      4.681
REMARK INTER + INTRA:          -8.550
REMARK INTER:                  -6.894
REMARK INTRA:                  -1.657
REMARK UNBOUND:                -1.179
REMARK SMILES O=c1c(O[C@@H]2O[C@@H](CO)[C@@H](O)[C@H](O)[C@H]2O)c(-c2ccc(O)c(O)c2)oc2cc(O)cc(O)c12
REMARK SMILES IDX 4 1 3 2 16 3 25 4 2 5 26 6 1 7 33 8 27 9 31 10 28 11 30 12
REMARK SMILES IDX 17 13 18 14 19 15 20 16 24 17 22 18 21 19 23 21 32 23 29 25
REMARK SMILES IDX 5 27 14 28 6 29 12 30 7 31 10 32 15 33 13 35 8 37 9 38 11 40
REMARK H PARENT 21 20 23 22 32 24 29 26 15 34 13 36 9 39 11 41
REMARK Flexibility Score: inf
ROOT
ATOM      1  O   UNL     1      28.957 170.012 161.498  1.00  0.00    -0.454 OA
ENDROOT
BRANCH   1   2
ATOM      2  C   UNL     1      29.876 169.325 160.695  1.00  0.00     0.214 A 
ATOM      3  C   UNL     1      30.904 168.550 161.268  1.00  0.00     0.180 A 
ATOM      4  O   UNL     1      31.824 167.996 160.481  1.00  0.00    -0.452 OA
ATOM      5  C   UNL     1      29.789 169.416 159.301  1.00  0.00     0.239 A 
ATOM      6  C   UNL     1      31.806 168.091 159.156  1.00  0.00     0.146 A 
ATOM      7  O   UNL     1      28.837 170.064 158.784  1.00  0.00    -0.285 OA
ATOM      8  C   UNL     1      30.765 168.789 158.500  1.00  0.00     0.111 A 
ATOM      9  C   UNL     1      32.817 167.474 158.414  1.00  0.00     0.094 A 
ATOM     10  C   UNL     1      30.752 168.839 157.083  1.00  0.00     0.134 A 
ATOM     11  C   UNL     1      32.794 167.521 157.017  1.00  0.00     0.123 A 
ATOM     12  C   UNL     1      31.769 168.201 156.356  1.00  0.00     0.093 A 
BRANCH   3  13
ATOM     13  C   UNL     1      30.997 168.309 162.728  1.00  0.00     0.025 A 
ATOM     14  C   UNL     1      29.994 167.605 163.421  1.00  0.00     0.016 A 
ATOM     15  C   UNL     1      30.135 167.332 164.784  1.00  0.00     0.051 A 
ATOM     16  C   UNL     1      31.289 167.731 165.472  1.00  0.00     0.157 A 
ATOM     17  C   UNL     1      32.154 168.702 163.423  1.00  0.00     0.062 A 
ATOM     18  C   UNL     1      32.304 168.415 164.785  1.00  0.00     0.158 A 
BRANCH  16  19
ATOM     19  O   UNL     1      31.431 167.442 166.829  1.00  0.00    -0.504 OA
ATOM     20  H   UNL     1      32.310 167.593 167.314  1.00  0.00     0.293 HD
ENDBRANCH  16  19
BRANCH  18  21
ATOM     21  O   UNL     1      33.472 168.807 165.437  1.00  0.00    -0.504 OA
ATOM     22  H   UNL     1      34.383 168.733 165.003  1.00  0.00     0.293 HD
ENDBRANCH  18  21
ENDBRANCH   3  13
BRANCH  10  23
ATOM     23  O   UNL     1      29.736 169.503 156.395  1.00  0.00    -0.507 OA
ATOM     24  H   UNL     1      28.958 169.006 155.976  1.00  0.00     0.293 HD
ENDBRANCH  10  23
BRANCH  11  25
ATOM     25  O   UNL     1      33.786 166.875 156.286  1.00  0.00    -0.508 OA
ATOM     26  H   UNL     1      34.316 166.127 156.717  1.00  0.00     0.293 HD
ENDBRANCH  11  25
ENDBRANCH   1   2
BRANCH   1  27
ATOM     27  C   UNL     1      29.136 171.394 161.840  1.00  0.00     0.339 C 
ATOM     28  C   UNL     1      27.824 172.180 161.624  1.00  0.00     0.214 C 
ATOM     29  O   UNL     1      29.626 171.528 163.170  1.00  0.00    -0.332 OA
ATOM     30  C   UNL     1      26.772 171.812 162.694  1.00  0.00     0.180 C 
ATOM     31  C   UNL     1      28.696 171.027 164.116  1.00  0.00     0.179 C 
ATOM     32  C   UNL     1      27.392 171.864 164.103  1.00  0.00     0.177 C 
BRANCH  28  33
ATOM     33  O   UNL     1      28.101 173.557 161.661  1.00  0.00    -0.384 OA
ATOM     34  H   UNL     1      29.056 173.649 161.923  1.00  0.00     0.211 HD
ENDBRANCH  28  33
BRANCH  30  35
ATOM     35  O   UNL     1      26.268 170.522 162.452  1.00  0.00    -0.387 OA
ATOM     36  H   UNL     1      27.047 169.903 162.440  1.00  0.00     0.211 HD
ENDBRANCH  30  35
BRANCH  31  37
ATOM     37  C   UNL     1      29.357 170.992 165.506  1.00  0.00     0.191 C 
BRANCH  37  38
ATOM     38  O   UNL     1      28.435 171.288 166.523  1.00  0.00    -0.394 OA
ATOM     39  H   UNL     1      28.966 171.433 167.347  1.00  0.00     0.210 HD
ENDBRANCH  37  38
ENDBRANCH  31  37
BRANCH  32  40
ATOM     40  O   UNL     1      27.666 173.195 164.456  1.00  0.00    -0.387 OA
ATOM     41  H   UNL     1      28.535 173.205 164.933  1.00  0.00     0.211 HD
ENDBRANCH  32  40
ENDBRANCH   1  27
TORSDOF 12
ENDMDL
MODEL 5
REMARK VINA RESULT:    -5.003      9.049     13.066
REMARK INTER + INTRA:          -8.522
REMARK INTER:                  -7.043
REMARK INTRA:                  -1.479
REMARK UNBOUND:                -1.179
REMARK SMILES O=c1c(O[C@@H]2O[C@@H](CO)[C@@H](O)[C@H](O)[C@H]2O)c(-c2ccc(O)c(O)c2)oc2cc(O)cc(O)c12
REMARK SMILES IDX 4 1 3 2 16 3 25 4 2 5 26 6 1 7 33 8 27 9 31 10 28 11 30 12
REMARK SMILES IDX 17 13 18 14 19 15 20 16 24 17 22 18 21 19 23 21 32 23 29 25
REMARK SMILES IDX 5 27 14 28 6 29 12 30 7 31 10 32 15 33 13 35 8 37 9 38 11 40
REMARK H PARENT 21 20 23 22 32 24 29 26 15 34 13 36 9 39 11 41
REMARK Flexibility Score: inf
ROOT
ATOM      1  O   UNL     1      32.525 173.493 170.607  1.00  0.00    -0.454 OA
ENDROOT
BRANCH   1   2
ATOM      2  C   UNL     1      32.827 174.801 171.007  1.00  0.00     0.214 A 
ATOM      3  C   UNL     1      33.986 175.081 171.757  1.00  0.00     0.180 A 
ATOM      4  O   UNL     1      34.190 176.315 172.213  1.00  0.00    -0.452 OA
ATOM      5  C   UNL     1      31.961 175.850 170.674  1.00  0.00     0.239 A 
ATOM      6  C   UNL     1      33.374 177.333 171.958  1.00  0.00     0.146 A 
ATOM      7  O   UNL     1      30.952 175.610 169.956  1.00  0.00    -0.285 OA
ATOM      8  C   UNL     1      32.228 177.149 171.149  1.00  0.00     0.111 A 
ATOM      9  C   UNL     1      33.673 178.594 172.481  1.00  0.00     0.094 A 
ATOM     10  C   UNL     1      31.398 178.263 170.864  1.00  0.00     0.134 A 
ATOM     11  C   UNL     1      32.855 179.689 172.189  1.00  0.00     0.123 A 
ATOM     12  C   UNL     1      31.724 179.524 171.387  1.00  0.00     0.093 A 
BRANCH   3  13
ATOM     13  C   UNL     1      35.010 174.049 172.051  1.00  0.00     0.025 A 
ATOM     14  C   UNL     1      35.237 173.593 173.364  1.00  0.00     0.016 A 
ATOM     15  C   UNL     1      36.159 172.572 173.606  1.00  0.00     0.051 A 
ATOM     16  C   UNL     1      36.849 171.970 172.546  1.00  0.00     0.157 A 
ATOM     17  C   UNL     1      35.702 173.438 170.991  1.00  0.00     0.062 A 
ATOM     18  C   UNL     1      36.614 172.404 171.232  1.00  0.00     0.158 A 
BRANCH  16  19
ATOM     19  O   UNL     1      37.757 170.941 172.793  1.00  0.00    -0.504 OA
ATOM     20  H   UNL     1      37.716 170.390 173.644  1.00  0.00     0.293 HD
ENDBRANCH  16  19
BRANCH  18  21
ATOM     21  O   UNL     1      37.270 171.812 170.153  1.00  0.00    -0.504 OA
ATOM     22  H   UNL     1      38.219 171.468 170.223  1.00  0.00     0.293 HD
ENDBRANCH  18  21
ENDBRANCH   3  13
BRANCH  10  23
ATOM     23  O   UNL     1      30.267 178.130 170.058  1.00  0.00    -0.507 OA
ATOM     24  H   UNL     1      29.797 177.240 169.935  1.00  0.00     0.293 HD
ENDBRANCH  10  23
BRANCH  11  25
ATOM     25  O   UNL     1      33.180 180.947 172.686  1.00  0.00    -0.508 OA
ATOM     26  H   UNL     1      33.521 181.661 172.054  1.00  0.00     0.293 HD
ENDBRANCH  11  25
ENDBRANCH   1   2
BRANCH   1  27
ATOM     27  C   UNL     1      32.128 172.486 171.548  1.00  0.00     0.339 C 
ATOM     28  C   UNL     1      30.668 172.051 171.293  1.00  0.00     0.214 C 
ATOM     29  O   UNL     1      33.027 171.382 171.520  1.00  0.00    -0.332 OA
ATOM     30  C   UNL     1      30.554 171.214 169.999  1.00  0.00     0.180 C 
ATOM     31  C   UNL     1      33.013 170.738 170.256  1.00  0.00     0.179 C 
ATOM     32  C   UNL     1      31.626 170.108 169.974  1.00  0.00     0.177 C 
BRANCH  28  33
ATOM     33  O   UNL     1      30.208 171.312 172.396  1.00  0.00    -0.384 OA
ATOM     34  H   UNL     1      29.243 171.134 172.238  1.00  0.00     0.211 HD
ENDBRANCH  28  33
BRANCH  30  35
ATOM     35  O   UNL     1      30.710 172.042 168.873  1.00  0.00    -0.387 OA
ATOM     36  H   UNL     1      30.542 171.476 168.072  1.00  0.00     0.211 HD
ENDBRANCH  30  35
BRANCH  31  37
ATOM     37  C   UNL     1      34.150 169.701 170.204  1.00  0.00     0.191 C 
BRANCH  37  38
ATOM     38  O   UNL     1      35.078 170.003 169.195  1.00  0.00    -0.394 OA
ATOM     39  H   UNL     1      35.835 169.376 169.316  1.00  0.00     0.210 HD
ENDBRANCH  37  38
ENDBRANCH  31  37
BRANCH  32  40
ATOM     40  O   UNL     1      31.329 169.133 170.939  1.00  0.00    -0.387 OA
ATOM     41  H   UNL     1      31.542 168.249 170.546  1.00  0.00     0.211 HD
ENDBRANCH  32  40
ENDBRANCH   1  27
TORSDOF 12
ENDMDL
MODEL 6
REMARK VINA RESULT:    -4.971      9.794     12.630
REMARK INTER + INTRA:          -8.475
REMARK INTER:                  -6.980
REMARK INTRA:                  -1.494
REMARK UNBOUND:                -1.179
REMARK SMILES O=c1c(O[C@@H]2O[C@@H](CO)[C@@H](O)[C@H](O)[C@H]2O)c(-c2ccc(O)c(O)c2)oc2cc(O)cc(O)c12
REMARK SMILES IDX 4 1 3 2 16 3 25 4 2 5 26 6 1 7 33 8 27 9 31 10 28 11 30 12
REMARK SMILES IDX 17 13 18 14 19 15 20 16 24 17 22 18 21 19 23 21 32 23 29 25
REMARK SMILES IDX 5 27 14 28 6 29 12 30 7 31 10 32 15 33 13 35 8 37 9 38 11 40
REMARK H PARENT 21 20 23 22 32 24 29 26 15 34 13 36 9 39 11 41
REMARK Flexibility Score: inf
ROOT
ATOM      1  O   UNL     1      32.350 177.531 171.909  1.00  0.00    -0.454 OA
ENDROOT
BRANCH   1   2
ATOM      2  C   UNL     1      32.312 176.199 171.479  1.00  0.00     0.214 A 
ATOM      3  C   UNL     1      31.116 175.623 171.005  1.00  0.00     0.180 A 
ATOM      4  O   UNL     1      31.088 174.327 170.704  1.00  0.00    -0.452 OA
ATOM      5  C   UNL     1      33.472 175.416 171.530  1.00  0.00     0.239 A 
ATOM      6  C   UNL     1      32.153 173.535 170.778  1.00  0.00     0.146 A 
ATOM      7  O   UNL     1      34.556 175.945 171.901  1.00  0.00    -0.285 OA
ATOM      8  C   UNL     1      33.409 174.055 171.173  1.00  0.00     0.111 A 
ATOM      9  C   UNL     1      32.024 172.185 170.440  1.00  0.00     0.094 A 
ATOM     10  C   UNL     1      34.534 173.193 171.204  1.00  0.00     0.134 A 
ATOM     11  C   UNL     1      33.140 171.343 170.466  1.00  0.00     0.123 A 
ATOM     12  C   UNL     1      34.386 171.844 170.847  1.00  0.00     0.093 A 
BRANCH   3  13
ATOM     13  C   UNL     1      29.877 176.413 170.812  1.00  0.00     0.025 A 
ATOM     14  C   UNL     1      29.011 176.696 171.886  1.00  0.00     0.016 A 
ATOM     15  C   UNL     1      27.885 177.500 171.691  1.00  0.00     0.051 A 
ATOM     16  C   UNL     1      27.617 178.057 170.434  1.00  0.00     0.157 A 
ATOM     17  C   UNL     1      29.606 176.979 169.554  1.00  0.00     0.062 A 
ATOM     18  C   UNL     1      28.487 177.798 169.363  1.00  0.00     0.158 A 
BRANCH  16  19
ATOM     19  O   UNL     1      26.500 178.871 170.250  1.00  0.00    -0.504 OA
ATOM     20  H   UNL     1      25.786 178.962 170.966  1.00  0.00     0.293 HD
ENDBRANCH  16  19
BRANCH  18  21
ATOM     21  O   UNL     1      28.259 178.354 168.104  1.00  0.00    -0.504 OA
ATOM     22  H   UNL     1      27.899 177.809 167.332  1.00  0.00     0.293 HD
ENDBRANCH  18  21
ENDBRANCH   3  13
BRANCH  10  23
ATOM     23  O   UNL     1      35.793 173.667 171.572  1.00  0.00    -0.507 OA
ATOM     24  H   UNL     1      36.632 173.108 171.456  1.00  0.00     0.293 HD
ENDBRANCH  10  23
BRANCH  11  25
ATOM     25  O   UNL     1      33.008 170.008 170.095  1.00  0.00    -0.508 OA
ATOM     26  H   UNL     1      33.445 169.288 170.656  1.00  0.00     0.293 HD
ENDBRANCH  11  25
ENDBRANCH   1   2
BRANCH   1  27
ATOM     27  C   UNL     1      32.712 178.603 171.026  1.00  0.00     0.339 C 
ATOM     28  C   UNL     1      31.532 179.583 170.852  1.00  0.00     0.214 C 
ATOM     29  O   UNL     1      33.890 179.260 171.481  1.00  0.00    -0.332 OA
ATOM     30  C   UNL     1      31.302 180.411 172.136  1.00  0.00     0.180 C 
ATOM     31  C   UNL     1      33.684 179.872 172.745  1.00  0.00     0.179 C 
ATOM     32  C   UNL     1      32.630 181.002 172.644  1.00  0.00     0.177 C 
BRANCH  28  33
ATOM     33  O   UNL     1      31.795 180.431 169.762  1.00  0.00    -0.384 OA
ATOM     34  H   UNL     1      31.292 181.273 169.928  1.00  0.00     0.211 HD
ENDBRANCH  28  33
BRANCH  30  35
ATOM     35  O   UNL     1      30.736 179.603 173.137  1.00  0.00    -0.387 OA
ATOM     36  H   UNL     1      31.431 179.483 173.840  1.00  0.00     0.211 HD
ENDBRANCH  30  35
BRANCH  31  37
ATOM     37  C   UNL     1      35.034 180.373 173.289  1.00  0.00     0.191 C 
BRANCH  37  38
ATOM     38  O   UNL     1      35.824 180.933 172.272  1.00  0.00    -0.394 OA
ATOM     39  H   UNL     1      36.765 180.838 172.567  1.00  0.00     0.210 HD
ENDBRANCH  37  38
ENDBRANCH  31  37
BRANCH  32  40
ATOM     40  O   UNL     1      33.075 182.004 171.766  1.00  0.00    -0.387 OA
ATOM     41  H   UNL     1      33.921 181.689 171.357  1.00  0.00     0.211 HD
ENDBRANCH  32  40
ENDBRANCH   1  27
TORSDOF 12
ENDMDL
MODEL 7
REMARK VINA RESULT:    -4.828      2.289      3.685
REMARK INTER + INTRA:          -8.265
REMARK INTER:                  -6.648
REMARK INTRA:                  -1.617
REMARK UNBOUND:                -1.179
REMARK SMILES O=c1c(O[C@@H]2O[C@@H](CO)[C@@H](O)[C@H](O)[C@H]2O)c(-c2ccc(O)c(O)c2)oc2cc(O)cc(O)c12
REMARK SMILES IDX 4 1 3 2 16 3 25 4 2 5 26 6 1 7 33 8 27 9 31 10 28 11 30 12
REMARK SMILES IDX 17 13 18 14 19 15 20 16 24 17 22 18 21 19 23 21 32 23 29 25
REMARK SMILES IDX 5 27 14 28 6 29 12 30 7 31 10 32 15 33 13 35 8 37 9 38 11 40
REMARK H PARENT 21 20 23 22 32 24 29 26 15 34 13 36 9 39 11 41
REMARK Flexibility Score: inf
ROOT
ATOM      1  O   UNL     1      31.053 169.509 164.804  1.00  0.00    -0.454 OA
ENDROOT
BRANCH   1   2
ATOM      2  C   UNL     1      30.747 169.420 163.440  1.00  0.00     0.214 A 
ATOM      3  C   UNL     1      29.681 170.156 162.886  1.00  0.00     0.180 A 
ATOM      4  O   UNL     1      29.349 169.969 161.610  1.00  0.00    -0.452 OA
ATOM      5  C   UNL     1      31.497 168.577 162.611  1.00  0.00     0.239 A 
ATOM      6  C   UNL     1      30.005 169.148 160.797  1.00  0.00     0.146 A 
ATOM      7  O   UNL     1      32.486 167.959 163.094  1.00  0.00    -0.285 OA
ATOM      8  C   UNL     1      31.133 168.429 161.258  1.00  0.00     0.111 A 
ATOM      9  C   UNL     1      29.581 169.018 159.471  1.00  0.00     0.094 A 
ATOM     10  C   UNL     1      31.835 167.592 160.355  1.00  0.00     0.134 A 
ATOM     11  C   UNL     1      30.282 168.196 158.584  1.00  0.00     0.123 A 
ATOM     12  C   UNL     1      31.401 167.486 159.024  1.00  0.00     0.093 A 
BRANCH   3  13
ATOM     13  C   UNL     1      28.914 171.154 163.669  1.00  0.00     0.025 A 
ATOM     14  C   UNL     1      29.487 172.381 164.056  1.00  0.00     0.016 A 
ATOM     15  C   UNL     1      28.723 173.333 164.736  1.00  0.00     0.051 A 
ATOM     16  C   UNL     1      27.372 173.093 165.014  1.00  0.00     0.157 A 
ATOM     17  C   UNL     1      27.556 170.922 163.947  1.00  0.00     0.062 A 
ATOM     18  C   UNL     1      26.786 171.883 164.612  1.00  0.00     0.158 A 
BRANCH  16  19
ATOM     19  O   UNL     1      26.610 174.055 165.679  1.00  0.00    -0.504 OA
ATOM     20  H   UNL     1      26.380 174.943 165.244  1.00  0.00     0.293 HD
ENDBRANCH  16  19
BRANCH  18  21
ATOM     21  O   UNL     1      25.438 171.623 164.857  1.00  0.00    -0.504 OA
ATOM     22  H   UNL     1      24.702 171.993 164.269  1.00  0.00     0.293 HD
ENDBRANCH  18  21
ENDBRANCH   3  13
BRANCH  10  23
ATOM     23  O   UNL     1      32.961 166.877 160.763  1.00  0.00    -0.507 OA
ATOM     24  H   UNL     1      33.135 165.927 160.455  1.00  0.00     0.293 HD
ENDBRANCH  10  23
BRANCH  11  25
ATOM     25  O   UNL     1      29.872 168.101 157.258  1.00  0.00    -0.508 OA
ATOM     26  H   UNL     1      29.085 168.651 156.938  1.00  0.00     0.293 HD
ENDBRANCH  11  25
ENDBRANCH   1   2
BRANCH   1  27
ATOM     27  C   UNL     1      30.322 168.770 165.794  1.00  0.00     0.339 C 
ATOM     28  C   UNL     1      31.280 167.910 166.646  1.00  0.00     0.214 C 
ATOM     29  O   UNL     1      29.531 169.642 166.596  1.00  0.00    -0.332 OA
ATOM     30  C   UNL     1      32.126 168.790 167.593  1.00  0.00     0.180 C 
ATOM     31  C   UNL     1      30.342 170.546 167.329  1.00  0.00     0.179 C 
ATOM     32  C   UNL     1      31.229 169.789 168.348  1.00  0.00     0.177 C 
BRANCH  28  33
ATOM     33  O   UNL     1      30.531 166.977 167.381  1.00  0.00    -0.384 OA
ATOM     34  H   UNL     1      30.655 167.204 168.342  1.00  0.00     0.211 HD
ENDBRANCH  28  33
BRANCH  30  35
ATOM     35  O   UNL     1      33.097 169.494 166.860  1.00  0.00    -0.387 OA
ATOM     36  H   UNL     1      33.307 170.320 167.375  1.00  0.00     0.211 HD
ENDBRANCH  30  35
BRANCH  31  37
ATOM     37  C   UNL     1      29.443 171.600 168.002  1.00  0.00     0.191 C 
BRANCH  37  38
ATOM     38  O   UNL     1      29.997 172.053 169.210  1.00  0.00    -0.394 OA
ATOM     39  H   UNL     1      29.841 171.335 169.875  1.00  0.00     0.210 HD
ENDBRANCH  37  38
ENDBRANCH  31  37
BRANCH  32  40
ATOM     40  O   UNL     1      30.428 169.105 169.276  1.00  0.00    -0.387 OA
ATOM     41  H   UNL     1      29.584 169.614 169.375  1.00  0.00     0.211 HD
ENDBRANCH  32  40
ENDBRANCH   1  27
TORSDOF 12
ENDMDL
MODEL 8
REMARK VINA RESULT:    -4.823      8.181     11.416
REMARK INTER + INTRA:          -8.258
REMARK INTER:                  -6.564
REMARK INTRA:                  -1.694
REMARK UNBOUND:                -1.179
REMARK SMILES O=c1c(O[C@@H]2O[C@@H](CO)[C@@H](O)[C@H](O)[C@H]2O)c(-c2ccc(O)c(O)c2)oc2cc(O)cc(O)c12
REMARK SMILES IDX 4 1 3 2 16 3 25 4 2 5 26 6 1 7 33 8 27 9 31 10 28 11 30 12
REMARK SMILES IDX 17 13 18 14 19 15 20 16 24 17 22 18 21 19 23 21 32 23 29 25
REMARK SMILES IDX 5 27 14 28 6 29 12 30 7 31 10 32 15 33 13 35 8 37 9 38 11 40
REMARK H PARENT 21 20 23 22 32 24 29 26 15 34 13 36 9 39 11 41
REMARK Flexibility Score: inf
ROOT
ATOM      1  O   UNL     1      33.540 171.910 171.115  1.00  0.00    -0.454 OA
ENDROOT
BRANCH   1   2
ATOM      2  C   UNL     1      32.739 173.046 170.946  1.00  0.00     0.214 A 
ATOM      3  C   UNL     1      31.448 172.947 170.389  1.00  0.00     0.180 A 
ATOM      4  O   UNL     1      30.754 174.056 170.142  1.00  0.00    -0.452 OA
ATOM      5  C   UNL     1      33.225 174.305 171.318  1.00  0.00     0.239 A 
ATOM      6  C   UNL     1      31.193 175.275 170.440  1.00  0.00     0.146 A 
ATOM      7  O   UNL     1      34.359 174.389 171.867  1.00  0.00    -0.285 OA
ATOM      8  C   UNL     1      32.448 175.453 171.069  1.00  0.00     0.111 A 
ATOM      9  C   UNL     1      30.390 176.380 170.143  1.00  0.00     0.094 A 
ATOM     10  C   UNL     1      32.870 176.763 171.409  1.00  0.00     0.134 A 
ATOM     11  C   UNL     1      30.810 177.668 170.487  1.00  0.00     0.123 A 
ATOM     12  C   UNL     1      32.043 177.858 171.115  1.00  0.00     0.093 A 
BRANCH   3  13
ATOM     13  C   UNL     1      30.816 171.643 170.077  1.00  0.00     0.025 A 
ATOM     14  C   UNL     1      30.744 171.159 168.756  1.00  0.00     0.016 A 
ATOM     15  C   UNL     1      30.205 169.897 168.495  1.00  0.00     0.051 A 
ATOM     16  C   UNL     1      29.755 169.086 169.544  1.00  0.00     0.157 A 
ATOM     17  C   UNL     1      30.368 170.822 171.126  1.00  0.00     0.062 A 
ATOM     18  C   UNL     1      29.842 169.551 170.866  1.00  0.00     0.158 A 
BRANCH  16  19
ATOM     19  O   UNL     1      29.231 167.820 169.278  1.00  0.00    -0.504 OA
ATOM     20  H   UNL     1      29.198 167.447 168.336  1.00  0.00     0.293 HD
ENDBRANCH  16  19
BRANCH  18  21
ATOM     21  O   UNL     1      29.421 168.758 171.933  1.00  0.00    -0.504 OA
ATOM     22  H   UNL     1      29.478 169.072 172.893  1.00  0.00     0.293 HD
ENDBRANCH  18  21
ENDBRANCH   3  13
BRANCH  10  23
ATOM     23  O   UNL     1      34.093 176.983 172.044  1.00  0.00    -0.507 OA
ATOM     24  H   UNL     1      34.812 176.268 172.087  1.00  0.00     0.293 HD
ENDBRANCH  10  23
BRANCH  11  25
ATOM     25  O   UNL     1      29.989 178.758 170.218  1.00  0.00    -0.508 OA
ATOM     26  H   UNL     1      30.326 179.500 169.617  1.00  0.00     0.293 HD
ENDBRANCH  11  25
ENDBRANCH   1   2
BRANCH   1  27
ATOM     27  C   UNL     1      34.316 171.363 170.039  1.00  0.00     0.339 C 
ATOM     28  C   UNL     1      35.815 171.344 170.407  1.00  0.00     0.214 C 
ATOM     29  O   UNL     1      33.839 170.071 169.676  1.00  0.00    -0.332 OA
ATOM     30  C   UNL     1      36.114 170.269 171.475  1.00  0.00     0.180 C 
ATOM     31  C   UNL     1      33.981 169.149 170.745  1.00  0.00     0.179 C 
ATOM     32  C   UNL     1      35.476 168.923 171.082  1.00  0.00     0.177 C 
BRANCH  28  33
ATOM     33  O   UNL     1      36.571 171.105 169.246  1.00  0.00    -0.384 OA
ATOM     34  H   UNL     1      35.922 170.910 168.519  1.00  0.00     0.211 HD
ENDBRANCH  28  33
BRANCH  30  35
ATOM     35  O   UNL     1      35.613 170.677 172.724  1.00  0.00    -0.387 OA
ATOM     36  H   UNL     1      34.896 171.344 172.546  1.00  0.00     0.211 HD
ENDBRANCH  30  35
BRANCH  31  37
ATOM     37  C   UNL     1      33.257 167.840 170.382  1.00  0.00     0.191 C 
BRANCH  37  38
ATOM     38  O   UNL     1      33.173 167.665 168.991  1.00  0.00    -0.394 OA
ATOM     39  H   UNL     1      32.412 168.222 168.686  1.00  0.00     0.210 HD
ENDBRANCH  37  38
ENDBRANCH  31  37
BRANCH  32  40
ATOM     40  O   UNL     1      36.148 168.381 169.975  1.00  0.00    -0.387 OA
ATOM     41  H   UNL     1      35.658 167.566 169.698  1.00  0.00     0.211 HD
ENDBRANCH  32  40
ENDBRANCH   1  27
TORSDOF 12
ENDMDL
MODEL 9
REMARK VINA RESULT:    -4.815      9.359     12.011
REMARK INTER + INTRA:          -8.246
REMARK INTER:                  -6.478
REMARK INTRA:                  -1.768
REMARK UNBOUND:                -1.179
REMARK SMILES O=c1c(O[C@@H]2O[C@@H](CO)[C@@H](O)[C@H](O)[C@H]2O)c(-c2ccc(O)c(O)c2)oc2cc(O)cc(O)c12
REMARK SMILES IDX 4 1 3 2 16 3 25 4 2 5 26 6 1 7 33 8 27 9 31 10 28 11 30 12
REMARK SMILES IDX 17 13 18 14 19 15 20 16 24 17 22 18 21 19 23 21 32 23 29 25
REMARK SMILES IDX 5 27 14 28 6 29 12 30 7 31 10 32 15 33 13 35 8 37 9 38 11 40
REMARK H PARENT 21 20 23 22 32 24 29 26 15 34 13 36 9 39 11 41
REMARK Flexibility Score: inf
ROOT
ATOM      1  O   UNL     1      29.413 175.754 170.517  1.00  0.00    -0.454 OA
ENDROOT
BRANCH   1   2
ATOM      2  C   UNL     1      30.646 175.109 170.678  1.00  0.00     0.214 A 
ATOM      3  C   UNL     1      31.807 175.835 171.009  1.00  0.00     0.180 A 
ATOM      4  O   UNL     1      32.982 175.210 171.051  1.00  0.00    -0.452 OA
ATOM      5  C   UNL     1      30.738 173.724 170.494  1.00  0.00     0.239 A 
ATOM      6  C   UNL     1      33.123 173.905 170.841  1.00  0.00     0.146 A 
ATOM      7  O   UNL     1      29.690 173.064 170.252  1.00  0.00    -0.285 OA
ATOM      8  C   UNL     1      31.995 173.093 170.577  1.00  0.00     0.111 A 
ATOM      9  C   UNL     1      34.399 173.339 170.906  1.00  0.00     0.094 A 
ATOM     10  C   UNL     1      32.174 171.699 170.396  1.00  0.00     0.134 A 
ATOM     11  C   UNL     1      34.568 171.961 170.735  1.00  0.00     0.123 A 
ATOM     12  C   UNL     1      33.462 171.147 170.480  1.00  0.00     0.093 A 
BRANCH   3  13
ATOM     13  C   UNL     1      31.774 177.281 171.333  1.00  0.00     0.025 A 
ATOM     14  C   UNL     1      31.440 177.738 172.623  1.00  0.00     0.016 A 
ATOM     15  C   UNL     1      31.480 179.102 172.922  1.00  0.00     0.051 A 
ATOM     16  C   UNL     1      31.880 180.030 171.952  1.00  0.00     0.157 A 
ATOM     17  C   UNL     1      32.179 178.218 170.366  1.00  0.00     0.062 A 
ATOM     18  C   UNL     1      32.236 179.583 170.670  1.00  0.00     0.158 A 
BRANCH  16  19
ATOM     19  O   UNL     1      31.934 181.389 172.261  1.00  0.00    -0.504 OA
ATOM     20  H   UNL     1      32.227 181.714 173.176  1.00  0.00     0.293 HD
ENDBRANCH  16  19
BRANCH  18  21
ATOM     21  O   UNL     1      32.658 180.480 169.689  1.00  0.00    -0.504 OA
ATOM     22  H   UNL     1      32.017 181.110 169.225  1.00  0.00     0.293 HD
ENDBRANCH  18  21
ENDBRANCH   3  13
BRANCH  10  23
ATOM     23  O   UNL     1      31.088 170.859 170.149  1.00  0.00    -0.507 OA
ATOM     24  H   UNL     1      30.309 170.785 170.795  1.00  0.00     0.293 HD
ENDBRANCH  10  23
BRANCH  11  25
ATOM     25  O   UNL     1      35.838 171.402 170.836  1.00  0.00    -0.508 OA
ATOM     26  H   UNL     1      36.080 170.607 170.258  1.00  0.00     0.293 HD
ENDBRANCH  11  25
ENDBRANCH   1   2
BRANCH   1  27
ATOM     27  C   UNL     1      28.953 176.198 169.232  1.00  0.00     0.339 C 
ATOM     28  C   UNL     1      27.509 175.714 168.977  1.00  0.00     0.214 C 
ATOM     29  O   UNL     1      29.071 177.612 169.112  1.00  0.00    -0.332 OA
ATOM     30  C   UNL     1      26.500 176.481 169.861  1.00  0.00     0.180 C 
ATOM     31  C   UNL     1      28.249 178.281 170.054  1.00  0.00     0.179 C 
ATOM     32  C   UNL     1      26.752 177.998 169.777  1.00  0.00     0.177 C 
BRANCH  28  33
ATOM     33  O   UNL     1      27.199 175.886 167.617  1.00  0.00    -0.384 OA
ATOM     34  H   UNL     1      27.914 176.461 167.233  1.00  0.00     0.211 HD
ENDBRANCH  28  33
BRANCH  30  35
ATOM     35  O   UNL     1      26.612 176.061 171.198  1.00  0.00    -0.387 OA
ATOM     36  H   UNL     1      25.871 175.416 171.362  1.00  0.00     0.211 HD
ENDBRANCH  30  35
BRANCH  31  37
ATOM     37  C   UNL     1      28.577 179.785 170.033  1.00  0.00     0.191 C 
BRANCH  37  38
ATOM     38  O   UNL     1      28.838 180.237 168.729  1.00  0.00    -0.394 OA
ATOM     39  H   UNL     1      28.329 181.079 168.618  1.00  0.00     0.210 HD
ENDBRANCH  37  38
ENDBRANCH  31  37
BRANCH  32  40
ATOM     40  O   UNL     1      26.394 178.473 168.505  1.00  0.00    -0.387 OA
ATOM     41  H   UNL     1      25.685 179.154 168.628  1.00  0.00     0.211 HD
ENDBRANCH  32  40
ENDBRANCH   1  27
TORSDOF 12
ENDMDL
