MODEL 1
REMARK VINA RESULT:    -3.822      0.000      0.000
REMARK INTER + INTRA:          -5.926
REMARK INTER:                  -5.609
REMARK INTRA:                  -0.317
REMARK UNBOUND:                -0.317
REMARK SMILES O=C([O-])CCCCCCCC(=O)[O-]
REMARK SMILES IDX 7 1 6 2 5 3 4 4 2 5 1 6 3 7 8 8 9 9 10 10 11 11 12 12 13 13
REMARK H PARENT
REMARK Flexibility Score: inf
ROOT
ATOM      1  C   UNL     1      -2.457  19.048  29.226  1.00  0.00     0.000 C 
ENDROOT
BRANCH   1   2
ATOM      2  C   UNL     1      -0.962  18.723  29.325  1.00  0.00     0.000 C 
BRANCH   2   3
ATOM      3  C   UNL     1      -0.663  17.327  28.760  1.00  0.00     0.006 C 
BRANCH   3   4
ATOM      4  C   UNL     1       0.355  17.370  27.613  1.00  0.00     0.053 C 
BRANCH   4   5
ATOM      5  C   UNL     1       1.607  16.622  27.954  1.00  0.00     0.041 C 
ATOM      6  O   UNL     1       1.985  16.530  29.151  1.00  0.00    -0.550 OA
ATOM      7  O   UNL     1       2.339  15.998  26.951  1.00  0.00    -0.550 OA
ENDBRANCH   4   5
ENDBRANCH   3   4
ENDBRANCH   2   3
ENDBRANCH   1   2
BRANCH   1   8
ATOM      8  C   UNL     1      -2.767  20.412  29.856  1.00  0.00     0.000 C 
BRANCH   8   9
ATOM      9  C   UNL     1      -1.478  21.160  30.215  1.00  0.00     0.006 C 
BRANCH   9  10
ATOM     10  C   UNL     1      -1.787  22.553  30.769  1.00  0.00     0.053 C 
BRANCH  10  11
ATOM     11  C   UNL     1      -0.768  23.542  30.297  1.00  0.00     0.041 C 
ATOM     12  O   UNL     1       0.317  23.144  29.797  1.00  0.00    -0.550 OA
ATOM     13  O   UNL     1      -0.996  24.903  30.454  1.00  0.00    -0.550 OA
ENDBRANCH  10  11
ENDBRANCH   9  10
ENDBRANCH   8   9
ENDBRANCH   1   8
TORSDOF 8
ENDMDL
MODEL 2
REMARK VINA RESULT:    -3.769      4.472      8.005
REMARK INTER + INTRA:          -5.848
REMARK INTER:                  -5.350
REMARK INTRA:                  -0.498
REMARK UNBOUND:                -0.317
REMARK SMILES O=C([O-])CCCCCCCC(=O)[O-]
REMARK SMILES IDX 7 1 6 2 5 3 4 4 2 5 1 6 3 7 8 8 9 9 10 10 11 11 12 12 13 13
REMARK H PARENT
REMARK Flexibility Score: inf
ROOT
ATOM      1  C   UNL     1       0.854  15.171  30.708  1.00  0.00     0.000 C 
ENDROOT
BRANCH   1   2
ATOM      2  C   UNL     1       0.946  15.361  29.189  1.00  0.00     0.000 C 
BRANCH   2   3
ATOM      3  C   UNL     1       0.684  16.823  28.800  1.00  0.00     0.006 C 
BRANCH   3   4
ATOM      4  C   UNL     1      -0.815  17.139  28.706  1.00  0.00     0.053 C 
BRANCH   4   5
ATOM      5  C   UNL     1      -1.124  18.518  29.203  1.00  0.00     0.041 C 
ATOM      6  O   UNL     1      -2.294  18.974  29.122  1.00  0.00    -0.550 OA
ATOM      7  O   UNL     1      -0.124  19.287  29.786  1.00  0.00    -0.550 OA
ENDBRANCH   4   5
ENDBRANCH   3   4
ENDBRANCH   2   3
ENDBRANCH   1   2
BRANCH   1   8
ATOM      8  C   UNL     1       0.153  13.853  31.057  1.00  0.00     0.000 C 
BRANCH   8   9
ATOM      9  C   UNL     1      -0.990  13.560  30.079  1.00  0.00     0.006 C 
BRANCH   9  10
ATOM     10  C   UNL     1      -1.180  12.052  29.889  1.00  0.00     0.053 C 
BRANCH  10  11
ATOM     11  C   UNL     1      -1.614  11.414  31.171  1.00  0.00     0.041 C 
ATOM     12  O   UNL     1      -2.703  11.749  31.709  1.00  0.00    -0.550 OA
ATOM     13  O   UNL     1      -0.793  10.486  31.798  1.00  0.00    -0.550 OA
ENDBRANCH  10  11
ENDBRANCH   9  10
ENDBRANCH   8   9
ENDBRANCH   1   8
TORSDOF 8
ENDMDL
MODEL 3
REMARK VINA RESULT:    -3.760      4.386      7.849
REMARK INTER + INTRA:          -5.835
REMARK INTER:                  -5.432
REMARK INTRA:                  -0.403
REMARK UNBOUND:                -0.317
REMARK SMILES O=C([O-])CCCCCCCC(=O)[O-]
REMARK SMILES IDX 7 1 6 2 5 3 4 4 2 5 1 6 3 7 8 8 9 9 10 10 11 11 12 12 13 13
REMARK H PARENT
REMARK Flexibility Score: inf
ROOT
ATOM      1  C   UNL     1       0.605  15.043  30.493  1.00  0.00     0.000 C 
ENDROOT
BRANCH   1   2
ATOM      2  C   UNL     1      -0.289  15.601  29.379  1.00  0.00     0.000 C 
BRANCH   2   3
ATOM      3  C   UNL     1      -0.033  17.100  29.166  1.00  0.00     0.006 C 
BRANCH   3   4
ATOM      4  C   UNL     1       0.398  17.416  27.728  1.00  0.00     0.053 C 
BRANCH   4   5
ATOM      5  C   UNL     1       1.873  17.237  27.538  1.00  0.00     0.041 C 
ATOM      6  O   UNL     1       2.667  18.175  27.811  1.00  0.00    -0.550 OA
ATOM      7  O   UNL     1       2.373  16.020  27.090  1.00  0.00    -0.550 OA
ENDBRANCH   4   5
ENDBRANCH   3   4
ENDBRANCH   2   3
ENDBRANCH   1   2
BRANCH   1   8
ATOM      8  C   UNL     1       0.053  13.718  31.031  1.00  0.00     0.000 C 
BRANCH   8   9
ATOM      9  C   UNL     1      -1.201  13.289  30.261  1.00  0.00     0.006 C 
BRANCH   9  10
ATOM     10  C   UNL     1      -1.263  11.766  30.115  1.00  0.00     0.053 C 
BRANCH  10  11
ATOM     11  C   UNL     1      -1.766  11.139  31.376  1.00  0.00     0.041 C 
ATOM     12  O   UNL     1      -2.931  11.389  31.787  1.00  0.00    -0.550 OA
ATOM     13  O   UNL     1      -0.933  10.318  32.125  1.00  0.00    -0.550 OA
ENDBRANCH  10  11
ENDBRANCH   9  10
ENDBRANCH   8   9
ENDBRANCH   1   8
TORSDOF 8
ENDMDL
MODEL 4
REMARK VINA RESULT:    -3.731      4.799      7.059
REMARK INTER + INTRA:          -5.792
REMARK INTER:                  -5.270
REMARK INTRA:                  -0.522
REMARK UNBOUND:                -0.317
REMARK SMILES O=C([O-])CCCCCCCC(=O)[O-]
REMARK SMILES IDX 7 1 6 2 5 3 4 4 2 5 1 6 3 7 8 8 9 9 10 10 11 11 12 12 13 13
REMARK H PARENT
REMARK Flexibility Score: inf
ROOT
ATOM      1  C   UNL     1      -0.648  16.096  29.140  1.00  0.00     0.000 C 
ENDROOT
BRANCH   1   2
ATOM      2  C   UNL     1      -0.129  17.506  28.836  1.00  0.00     0.000 C 
BRANCH   2   3
ATOM      3  C   UNL     1       0.635  17.537  27.505  1.00  0.00     0.006 C 
BRANCH   3   4
ATOM      4  C   UNL     1       2.149  17.683  27.707  1.00  0.00     0.053 C 
BRANCH   4   5
ATOM      5  C   UNL     1       2.877  16.415  27.382  1.00  0.00     0.041 C 
ATOM      6  O   UNL     1       2.239  15.393  27.017  1.00  0.00    -0.550 OA
ATOM      7  O   UNL     1       4.264  16.372  27.449  1.00  0.00    -0.550 OA
ENDBRANCH   4   5
ENDBRANCH   3   4
ENDBRANCH   2   3
ENDBRANCH   1   2
BRANCH   1   8
ATOM      8  C   UNL     1       0.334  15.328  30.032  1.00  0.00     0.000 C 
BRANCH   8   9
ATOM      9  C   UNL     1       0.163  13.813  29.864  1.00  0.00     0.006 C 
BRANCH   9  10
ATOM     10  C   UNL     1      -1.315  13.417  29.916  1.00  0.00     0.053 C 
BRANCH  10  11
ATOM     11  C   UNL     1      -1.539  12.366  30.955  1.00  0.00     0.041 C 
ATOM     12  O   UNL     1      -2.145  12.649  32.023  1.00  0.00    -0.550 OA
ATOM     13  O   UNL     1      -1.036  11.085  30.768  1.00  0.00    -0.550 OA
ENDBRANCH  10  11
ENDBRANCH   9  10
ENDBRANCH   8   9
ENDBRANCH   1   8
TORSDOF 8
ENDMDL
MODEL 5
REMARK VINA RESULT:    -3.720      4.427      6.734
REMARK INTER + INTRA:          -5.776
REMARK INTER:                  -5.262
REMARK INTRA:                  -0.514
REMARK UNBOUND:                -0.317
REMARK SMILES O=C([O-])CCCCCCCC(=O)[O-]
REMARK SMILES IDX 7 1 6 2 5 3 4 4 2 5 1 6 3 7 8 8 9 9 10 10 11 11 12 12 13 13
REMARK H PARENT
REMARK Flexibility Score: inf
ROOT
ATOM      1  C   UNL     1       0.447  14.279  30.804  1.00  0.00     0.000 C 
ENDROOT
BRANCH   1   2
ATOM      2  C   UNL     1       0.566  13.352  29.588  1.00  0.00     0.000 C 
BRANCH   2   3
ATOM      3  C   UNL     1      -0.564  12.312  29.576  1.00  0.00     0.006 C 
BRANCH   3   4
ATOM      4  C   UNL     1      -1.647  12.619  30.619  1.00  0.00     0.053 C 
BRANCH   4   5
ATOM      5  C   UNL     1      -1.957  11.422  31.465  1.00  0.00     0.041 C 
ATOM      6  O   UNL     1      -3.125  11.238  31.900  1.00  0.00    -0.550 OA
ATOM      7  O   UNL     1      -0.964  10.493  31.746  1.00  0.00    -0.550 OA
ENDBRANCH   4   5
ENDBRANCH   3   4
ENDBRANCH   2   3
ENDBRANCH   1   2
BRANCH   1   8
ATOM      8  C   UNL     1       0.746  15.733  30.420  1.00  0.00     0.000 C 
BRANCH   8   9
ATOM      9  C   UNL     1      -0.051  16.151  29.179  1.00  0.00     0.006 C 
BRANCH   9  10
ATOM     10  C   UNL     1       0.488  17.459  28.594  1.00  0.00     0.053 C 
BRANCH  10  11
ATOM     11  C   UNL     1       1.723  17.203  27.790  1.00  0.00     0.041 C 
ATOM     12  O   UNL     1       2.605  18.096  27.681  1.00  0.00    -0.550 OA
ATOM     13  O   UNL     1       1.880  15.996  27.121  1.00  0.00    -0.550 OA
ENDBRANCH  10  11
ENDBRANCH   9  10
ENDBRANCH   8   9
ENDBRANCH   1   8
TORSDOF 8
ENDMDL
MODEL 6
REMARK VINA RESULT:    -3.704      5.118      6.842
REMARK INTER + INTRA:          -5.754
REMARK INTER:                  -5.300
REMARK INTRA:                  -0.453
REMARK UNBOUND:                -0.317
REMARK SMILES O=C([O-])CCCCCCCC(=O)[O-]
REMARK SMILES IDX 7 1 6 2 5 3 4 4 2 5 1 6 3 7 8 8 9 9 10 10 11 11 12 12 13 13
REMARK H PARENT
REMARK Flexibility Score: inf
ROOT
ATOM      1  C   UNL     1      -0.520  15.828  29.123  1.00  0.00     0.000 C 
ENDROOT
BRANCH   1   2
ATOM      2  C   UNL     1       0.235  14.925  30.106  1.00  0.00     0.000 C 
BRANCH   2   3
ATOM      3  C   UNL     1      -0.048  13.443  29.820  1.00  0.00     0.006 C 
BRANCH   3   4
ATOM      4  C   UNL     1      -1.495  13.053  30.152  1.00  0.00     0.053 C 
BRANCH   4   5
ATOM      5  C   UNL     1      -1.559  11.785  30.948  1.00  0.00     0.041 C 
ATOM      6  O   UNL     1      -0.522  11.092  31.121  1.00  0.00    -0.550 OA
ATOM      7  O   UNL     1      -2.758  11.387  31.525  1.00  0.00    -0.550 OA
ENDBRANCH   4   5
ENDBRANCH   3   4
ENDBRANCH   2   3
ENDBRANCH   1   2
BRANCH   1   8
ATOM      8  C   UNL     1       0.185  17.180  28.964  1.00  0.00     0.000 C 
BRANCH   8   9
ATOM      9  C   UNL     1       0.862  17.291  27.593  1.00  0.00     0.006 C 
BRANCH   9  10
ATOM     10  C   UNL     1       2.386  17.241  27.727  1.00  0.00     0.053 C 
BRANCH  10  11
ATOM     11  C   UNL     1       2.927  15.999  27.092  1.00  0.00     0.041 C 
ATOM     12  O   UNL     1       2.415  14.878  27.355  1.00  0.00    -0.550 OA
ATOM     13  O   UNL     1       4.027  16.073  26.247  1.00  0.00    -0.550 OA
ENDBRANCH  10  11
ENDBRANCH   9  10
ENDBRANCH   8   9
ENDBRANCH   1   8
TORSDOF 8
ENDMDL
MODEL 7
REMARK VINA RESULT:    -3.702      4.234      5.714
REMARK INTER + INTRA:          -5.751
REMARK INTER:                  -5.172
REMARK INTRA:                  -0.579
REMARK UNBOUND:                -0.317
REMARK SMILES O=C([O-])CCCCCCCC(=O)[O-]
REMARK SMILES IDX 7 1 6 2 5 3 4 4 2 5 1 6 3 7 8 8 9 9 10 10 11 11 12 12 13 13
REMARK H PARENT
REMARK Flexibility Score: inf
ROOT
ATOM      1  C   UNL     1       0.928  15.593  30.576  1.00  0.00     0.000 C 
ENDROOT
BRANCH   1   2
ATOM      2  C   UNL     1       0.720  14.140  31.021  1.00  0.00     0.000 C 
BRANCH   2   3
ATOM      3  C   UNL     1       0.008  13.327  29.931  1.00  0.00     0.006 C 
BRANCH   3   4
ATOM      4  C   UNL     1      -1.484  13.132  30.232  1.00  0.00     0.053 C 
BRANCH   4   5
ATOM      5  C   UNL     1      -1.718  11.968  31.146  1.00  0.00     0.041 C 
ATOM      6  O   UNL     1      -2.779  11.895  31.820  1.00  0.00    -0.550 OA
ATOM      7  O   UNL     1      -0.779  10.947  31.226  1.00  0.00    -0.550 OA
ENDBRANCH   4   5
ENDBRANCH   3   4
ENDBRANCH   2   3
ENDBRANCH   1   2
BRANCH   1   8
ATOM      8  C   UNL     1       1.229  15.672  29.075  1.00  0.00     0.000 C 
BRANCH   8   9
ATOM      9  C   UNL     1       0.689  16.974  28.472  1.00  0.00     0.006 C 
BRANCH   9  10
ATOM     10  C   UNL     1      -0.806  17.137  28.761  1.00  0.00     0.053 C 
BRANCH  10  11
ATOM     11  C   UNL     1      -1.103  18.531  29.212  1.00  0.00     0.041 C 
ATOM     12  O   UNL     1      -0.192  19.244  29.711  1.00  0.00    -0.550 OA
ATOM     13  O   UNL     1      -2.398  19.028  29.129  1.00  0.00    -0.550 OA
ENDBRANCH  10  11
ENDBRANCH   9  10
ENDBRANCH   8   9
ENDBRANCH   1   8
TORSDOF 8
ENDMDL
MODEL 8
REMARK VINA RESULT:    -3.678      4.142      7.531
REMARK INTER + INTRA:          -5.714
REMARK INTER:                  -5.297
REMARK INTRA:                  -0.417
REMARK UNBOUND:                -0.317
REMARK SMILES O=C([O-])CCCCCCCC(=O)[O-]
REMARK SMILES IDX 7 1 6 2 5 3 4 4 2 5 1 6 3 7 8 8 9 9 10 10 11 11 12 12 13 13
REMARK H PARENT
REMARK Flexibility Score: inf
ROOT
ATOM      1  C   UNL     1       0.654  15.349  29.343  1.00  0.00     0.000 C 
ENDROOT
BRANCH   1   2
ATOM      2  C   UNL     1      -0.334  16.491  29.073  1.00  0.00     0.000 C 
BRANCH   2   3
ATOM      3  C   UNL     1       0.155  17.381  27.921  1.00  0.00     0.006 C 
BRANCH   3   4
ATOM      4  C   UNL     1       1.679  17.327  27.752  1.00  0.00     0.053 C 
BRANCH   4   5
ATOM      5  C   UNL     1       2.341  18.561  28.285  1.00  0.00     0.041 C 
ATOM      6  O   UNL     1       2.100  18.954  29.457  1.00  0.00    -0.550 OA
ATOM      7  O   UNL     1       3.248  19.259  27.498  1.00  0.00    -0.550 OA
ENDBRANCH   4   5
ENDBRANCH   3   4
ENDBRANCH   2   3
ENDBRANCH   1   2
BRANCH   1   8
ATOM      8  C   UNL     1       0.073  14.344  30.345  1.00  0.00     0.000 C 
BRANCH   8   9
ATOM      9  C   UNL     1      -1.095  13.564  29.729  1.00  0.00     0.006 C 
BRANCH   9  10
ATOM     10  C   UNL     1      -0.851  12.055  29.811  1.00  0.00     0.053 C 
BRANCH  10  11
ATOM     11  C   UNL     1       0.479  11.706  29.223  1.00  0.00     0.041 C 
ATOM     12  O   UNL     1       0.658  11.767  27.978  1.00  0.00    -0.550 OA
ATOM     13  O   UNL     1       1.508  11.266  30.046  1.00  0.00    -0.550 OA
ENDBRANCH  10  11
ENDBRANCH   9  10
ENDBRANCH   8   9
ENDBRANCH   1   8
TORSDOF 8
ENDMDL
MODEL 9
REMARK VINA RESULT:    -3.633      3.069      5.525
REMARK INTER + INTRA:          -5.648
REMARK INTER:                  -4.860
REMARK INTRA:                  -0.789
REMARK UNBOUND:                -0.317
REMARK SMILES O=C([O-])CCCCCCCC(=O)[O-]
REMARK SMILES IDX 7 1 6 2 5 3 4 4 2 5 1 6 3 7 8 8 9 9 10 10 11 11 12 12 13 13
REMARK H PARENT
REMARK Flexibility Score: inf
ROOT
ATOM      1  C   UNL     1      -0.599  19.617  29.883  1.00  0.00     0.000 C 
ENDROOT
BRANCH   1   2
ATOM      2  C   UNL     1       0.832  19.517  30.425  1.00  0.00     0.000 C 
BRANCH   2   3
ATOM      3  C   UNL     1       1.675  20.721  29.981  1.00  0.00     0.006 C 
BRANCH   3   4
ATOM      4  C   UNL     1       3.179  20.413  29.995  1.00  0.00     0.053 C 
BRANCH   4   5
ATOM      5  C   UNL     1       3.537  19.352  29.000  1.00  0.00     0.041 C 
ATOM      6  O   UNL     1       4.006  18.250  29.389  1.00  0.00    -0.550 OA
ATOM      7  O   UNL     1       3.323  19.569  27.645  1.00  0.00    -0.550 OA
ENDBRANCH   4   5
ENDBRANCH   3   4
ENDBRANCH   2   3
ENDBRANCH   1   2
BRANCH   1   8
ATOM      8  C   UNL     1      -0.949  18.397  29.023  1.00  0.00     0.000 C 
BRANCH   8   9
ATOM      9  C   UNL     1       0.188  17.368  29.036  1.00  0.00     0.006 C 
BRANCH   9  10
ATOM     10  C   UNL     1       0.756  17.158  27.630  1.00  0.00     0.053 C 
BRANCH  10  11
ATOM     11  C   UNL     1       1.834  16.122  27.650  1.00  0.00     0.041 C 
ATOM     12  O   UNL     1       2.848  16.246  26.912  1.00  0.00    -0.550 OA
ATOM     13  O   UNL     1       1.697  14.992  28.447  1.00  0.00    -0.550 OA
ENDBRANCH  10  11
ENDBRANCH   9  10
ENDBRANCH   8   9
ENDBRANCH   1   8
TORSDOF 8
ENDMDL
