MODEL 1
REMARK VINA RESULT:    -3.947      0.000      0.000
REMARK INTER + INTRA:          -8.493
REMARK INTER:                  -6.947
REMARK INTRA:                  -1.546
REMARK UNBOUND:                -1.546
REMARK SMILES CCCCCCCCCCCCCCC(=O)[O-]
REMARK SMILES IDX 9 1 10 2 11 3 12 4 13 5 14 6 15 7 16 8 17 9 8 10 7 11 6 12
REMARK SMILES IDX 5 13 4 14 3 15 2 16 1 17
REMARK H PARENT
REMARK Flexibility Score: inf
ROOT
ATOM      1  C   UNL     1       5.029  10.207   7.001  1.00  0.00     0.000 C 
ENDROOT
BRANCH   1   2
ATOM      2  C   UNL     1       4.128  10.305   8.240  1.00  0.00     0.000 C 
BRANCH   2   3
ATOM      3  C   UNL     1       4.756   9.659   9.489  1.00  0.00     0.000 C 
BRANCH   3   4
ATOM      4  C   UNL     1       4.063   8.369   9.974  1.00  0.00     0.000 C 
BRANCH   4   5
ATOM      5  C   UNL     1       4.170   7.167   9.014  1.00  0.00     0.006 C 
BRANCH   5   6
ATOM      6  C   UNL     1       3.549   5.868   9.551  1.00  0.00     0.053 C 
BRANCH   6   7
ATOM      7  C   UNL     1       3.054   4.986   8.445  1.00  0.00     0.041 C 
ATOM      8  O   UNL     1       3.631   4.989   7.327  1.00  0.00    -0.550 OA
ATOM      9  O   UNL     1       1.936   4.185   8.641  1.00  0.00    -0.550 OA
ENDBRANCH   6   7
ENDBRANCH   5   6
ENDBRANCH   4   5
ENDBRANCH   3   4
ENDBRANCH   2   3
ENDBRANCH   1   2
BRANCH   1  10
ATOM     10  C   UNL     1       4.842  11.428   6.089  1.00  0.00     0.000 C 
BRANCH  10  11
ATOM     11  C   UNL     1       4.110  12.583   6.790  1.00  0.00    -0.000 C 
BRANCH  11  12
ATOM     12  C   UNL     1       4.673  13.962   6.400  1.00  0.00    -0.000 C 
BRANCH  12  13
ATOM     13  C   UNL     1       5.991  14.290   7.121  1.00  0.00    -0.000 C 
BRANCH  13  14
ATOM     14  C   UNL     1       6.096  13.608   8.496  1.00  0.00    -0.000 C 
BRANCH  14  15
ATOM     15  C   UNL     1       7.391  12.790   8.662  1.00  0.00    -0.000 C 
BRANCH  15  16
ATOM     16  C   UNL     1       8.171  12.539   7.360  1.00  0.00    -0.003 C 
ATOM     17  C   UNL     1       8.554  11.072   7.165  1.00  0.00     0.004 C 
ENDBRANCH  15  16
ENDBRANCH  14  15
ENDBRANCH  13  14
ENDBRANCH  12  13
ENDBRANCH  11  12
ENDBRANCH  10  11
ENDBRANCH   1  10
TORSDOF 13
ENDMDL
MODEL 2
REMARK VINA RESULT:    -3.737      3.544      7.670
REMARK INTER + INTRA:          -8.123
REMARK INTER:                  -7.059
REMARK INTRA:                  -1.064
REMARK UNBOUND:                -1.546
REMARK SMILES CCCCCCCCCCCCCCC(=O)[O-]
REMARK SMILES IDX 9 1 10 2 11 3 12 4 13 5 14 6 15 7 16 8 17 9 8 10 7 11 6 12
REMARK SMILES IDX 5 13 4 14 3 15 2 16 1 17
REMARK H PARENT
REMARK Flexibility Score: inf
ROOT
ATOM      1  C   UNL     1       5.183  10.120   7.194  1.00  0.00     0.000 C 
ENDROOT
BRANCH   1   2
ATOM      2  C   UNL     1       5.047  11.339   6.270  1.00  0.00     0.000 C 
BRANCH   2   3
ATOM      3  C   UNL     1       3.972  12.333   6.747  1.00  0.00     0.000 C 
BRANCH   3   4
ATOM      4  C   UNL     1       4.390  13.818   6.703  1.00  0.00     0.000 C 
BRANCH   4   5
ATOM      5  C   UNL     1       5.444  14.232   7.749  1.00  0.00     0.006 C 
BRANCH   5   6
ATOM      6  C   UNL     1       6.699  14.894   7.159  1.00  0.00     0.053 C 
BRANCH   6   7
ATOM      7  C   UNL     1       7.932  14.081   7.409  1.00  0.00     0.041 C 
ATOM      8  O   UNL     1       9.068  14.558   7.152  1.00  0.00    -0.550 OA
ATOM      9  O   UNL     1       7.824  12.785   7.896  1.00  0.00    -0.550 OA
ENDBRANCH   6   7
ENDBRANCH   5   6
ENDBRANCH   4   5
ENDBRANCH   3   4
ENDBRANCH   2   3
ENDBRANCH   1   2
BRANCH   1  10
ATOM     10  C   UNL     1       5.091  10.537   8.669  1.00  0.00     0.000 C 
BRANCH  10  11
ATOM     11  C   UNL     1       4.253   9.560   9.509  1.00  0.00    -0.000 C 
BRANCH  11  12
ATOM     12  C   UNL     1       4.041   8.208   8.804  1.00  0.00    -0.000 C 
BRANCH  12  13
ATOM     13  C   UNL     1       4.800   7.057   9.485  1.00  0.00    -0.000 C 
BRANCH  13  14
ATOM     14  C   UNL     1       4.413   5.680   8.920  1.00  0.00    -0.000 C 
BRANCH  14  15
ATOM     15  C   UNL     1       2.965   5.278   9.262  1.00  0.00    -0.000 C 
BRANCH  15  16
ATOM     16  C   UNL     1       2.394   4.126   8.416  1.00  0.00    -0.003 C 
ATOM     17  C   UNL     1       2.907   4.128   6.977  1.00  0.00     0.004 C 
ENDBRANCH  15  16
ENDBRANCH  14  15
ENDBRANCH  13  14
ENDBRANCH  12  13
ENDBRANCH  11  12
ENDBRANCH  10  11
ENDBRANCH   1  10
TORSDOF 13
ENDMDL
MODEL 3
REMARK VINA RESULT:    -3.687      1.276      2.670
REMARK INTER + INTRA:          -8.035
REMARK INTER:                  -6.750
REMARK INTRA:                  -1.286
REMARK UNBOUND:                -1.546
REMARK SMILES CCCCCCCCCCCCCCC(=O)[O-]
REMARK SMILES IDX 9 1 10 2 11 3 12 4 13 5 14 6 15 7 16 8 17 9 8 10 7 11 6 12
REMARK SMILES IDX 5 13 4 14 3 15 2 16 1 17
REMARK H PARENT
REMARK Flexibility Score: inf
ROOT
ATOM      1  C   UNL     1       5.728   9.467   8.728  1.00  0.00     0.000 C 
ENDROOT
BRANCH   1   2
ATOM      2  C   UNL     1       4.278   8.962   8.708  1.00  0.00     0.000 C 
BRANCH   2   3
ATOM      3  C   UNL     1       3.952   8.030   9.890  1.00  0.00     0.000 C 
BRANCH   3   4
ATOM      4  C   UNL     1       4.768   6.722   9.933  1.00  0.00     0.000 C 
BRANCH   4   5
ATOM      5  C   UNL     1       4.462   5.721   8.800  1.00  0.00     0.006 C 
BRANCH   5   6
ATOM      6  C   UNL     1       3.009   5.221   8.770  1.00  0.00     0.053 C 
BRANCH   6   7
ATOM      7  C   UNL     1       2.819   4.114   7.779  1.00  0.00     0.041 C 
ATOM      8  O   UNL     1       2.742   2.920   8.170  1.00  0.00    -0.550 OA
ATOM      9  O   UNL     1       2.759   4.398   6.421  1.00  0.00    -0.550 OA
ENDBRANCH   6   7
ENDBRANCH   5   6
ENDBRANCH   4   5
ENDBRANCH   3   4
ENDBRANCH   2   3
ENDBRANCH   1   2
BRANCH   1  10
ATOM     10  C   UNL     1       5.865  10.704   9.629  1.00  0.00     0.000 C 
BRANCH  10  11
ATOM     11  C   UNL     1       7.053  11.595   9.233  1.00  0.00    -0.000 C 
BRANCH  11  12
ATOM     12  C   UNL     1       6.765  13.092   9.447  1.00  0.00    -0.000 C 
BRANCH  12  13
ATOM     13  C   UNL     1       6.704  13.879   8.127  1.00  0.00    -0.000 C 
BRANCH  13  14
ATOM     14  C   UNL     1       5.293  14.414   7.825  1.00  0.00    -0.000 C 
BRANCH  14  15
ATOM     15  C   UNL     1       4.673  13.786   6.562  1.00  0.00    -0.000 C 
BRANCH  15  16
ATOM     16  C   UNL     1       4.162  12.345   6.737  1.00  0.00    -0.003 C 
ATOM     17  C   UNL     1       4.880  11.342   5.835  1.00  0.00     0.004 C 
ENDBRANCH  15  16
ENDBRANCH  14  15
ENDBRANCH  13  14
ENDBRANCH  12  13
ENDBRANCH  11  12
ENDBRANCH  10  11
ENDBRANCH   1  10
TORSDOF 13
ENDMDL
MODEL 4
REMARK VINA RESULT:    -3.665      1.376      2.388
REMARK INTER + INTRA:          -7.996
REMARK INTER:                  -6.434
REMARK INTRA:                  -1.562
REMARK UNBOUND:                -1.546
REMARK SMILES CCCCCCCCCCCCCCC(=O)[O-]
REMARK SMILES IDX 9 1 10 2 11 3 12 4 13 5 14 6 15 7 16 8 17 9 8 10 7 11 6 12
REMARK SMILES IDX 5 13 4 14 3 15 2 16 1 17
REMARK H PARENT
REMARK Flexibility Score: inf
ROOT
ATOM      1  C   UNL     1       4.081  12.170   6.732  1.00  0.00     0.000 C 
ENDROOT
BRANCH   1   2
ATOM      2  C   UNL     1       5.014  11.010   6.358  1.00  0.00     0.000 C 
BRANCH   2   3
ATOM      3  C   UNL     1       5.798  10.460   7.564  1.00  0.00     0.000 C 
BRANCH   3   4
ATOM      4  C   UNL     1       5.024  10.456   8.898  1.00  0.00     0.000 C 
BRANCH   4   5
ATOM      5  C   UNL     1       3.857   9.451   8.976  1.00  0.00     0.006 C 
BRANCH   5   6
ATOM      6  C   UNL     1       4.052   8.331  10.009  1.00  0.00     0.053 C 
BRANCH   6   7
ATOM      7  C   UNL     1       4.381   7.021   9.360  1.00  0.00     0.041 C 
ATOM      8  O   UNL     1       3.809   6.683   8.291  1.00  0.00    -0.550 OA
ATOM      9  O   UNL     1       5.294   6.160   9.954  1.00  0.00    -0.550 OA
ENDBRANCH   6   7
ENDBRANCH   5   6
ENDBRANCH   4   5
ENDBRANCH   3   4
ENDBRANCH   2   3
ENDBRANCH   1   2
BRANCH   1  10
ATOM     10  C   UNL     1       4.690  13.518   6.318  1.00  0.00     0.000 C 
BRANCH  10  11
ATOM     11  C   UNL     1       4.905  14.462   7.512  1.00  0.00    -0.000 C 
BRANCH  11  12
ATOM     12  C   UNL     1       6.117  14.057   8.372  1.00  0.00    -0.000 C 
BRANCH  12  13
ATOM     13  C   UNL     1       7.410  13.924   7.551  1.00  0.00    -0.000 C 
BRANCH  13  14
ATOM     14  C   UNL     1       8.475  13.073   8.264  1.00  0.00    -0.000 C 
BRANCH  14  15
ATOM     15  C   UNL     1       9.577  12.572   7.311  1.00  0.00    -0.000 C 
BRANCH  15  16
ATOM     16  C   UNL     1       9.111  11.547   6.261  1.00  0.00    -0.003 C 
ATOM     17  C   UNL     1       9.818  10.198   6.386  1.00  0.00     0.004 C 
ENDBRANCH  15  16
ENDBRANCH  14  15
ENDBRANCH  13  14
ENDBRANCH  12  13
ENDBRANCH  11  12
ENDBRANCH  10  11
ENDBRANCH   1  10
TORSDOF 13
ENDMDL
MODEL 5
REMARK VINA RESULT:    -3.590      3.642      5.643
REMARK INTER + INTRA:          -7.864
REMARK INTER:                  -7.266
REMARK INTRA:                  -0.597
REMARK UNBOUND:                -1.546
REMARK SMILES CCCCCCCCCCCCCCC(=O)[O-]
REMARK SMILES IDX 9 1 10 2 11 3 12 4 13 5 14 6 15 7 16 8 17 9 8 10 7 11 6 12
REMARK SMILES IDX 5 13 4 14 3 15 2 16 1 17
REMARK H PARENT
REMARK Flexibility Score: inf
ROOT
ATOM      1  C   UNL     1       3.530   5.746   8.679  1.00  0.00     0.000 C 
ENDROOT
BRANCH   1   2
ATOM      2  C   UNL     1       4.219   4.656   7.845  1.00  0.00     0.000 C 
BRANCH   2   3
ATOM      3  C   UNL     1       5.478   4.088   8.526  1.00  0.00     0.000 C 
BRANCH   3   4
ATOM      4  C   UNL     1       6.186   2.958   7.751  1.00  0.00     0.000 C 
BRANCH   4   5
ATOM      5  C   UNL     1       7.051   3.422   6.562  1.00  0.00     0.006 C 
BRANCH   5   6
ATOM      6  C   UNL     1       8.073   2.382   6.076  1.00  0.00     0.053 C 
BRANCH   6   7
ATOM      7  C   UNL     1       8.566   2.684   4.694  1.00  0.00     0.041 C 
ATOM      8  O   UNL     1       8.562   3.868   4.265  1.00  0.00    -0.550 OA
ATOM      9  O   UNL     1       8.998   1.655   3.868  1.00  0.00    -0.550 OA
ENDBRANCH   6   7
ENDBRANCH   5   6
ENDBRANCH   4   5
ENDBRANCH   3   4
ENDBRANCH   2   3
ENDBRANCH   1   2
BRANCH   1  10
ATOM     10  C   UNL     1       4.500   6.897   8.984  1.00  0.00     0.000 C 
BRANCH  10  11
ATOM     11  C   UNL     1       3.841   8.027   9.791  1.00  0.00    -0.000 C 
BRANCH  11  12
ATOM     12  C   UNL     1       3.918   9.387   9.074  1.00  0.00    -0.000 C 
BRANCH  12  13
ATOM     13  C   UNL     1       5.217   9.562   8.271  1.00  0.00    -0.000 C 
BRANCH  13  14
ATOM     14  C   UNL     1       5.005  10.365   6.975  1.00  0.00    -0.000 C 
BRANCH  14  15
ATOM     15  C   UNL     1       4.059  11.566   7.163  1.00  0.00    -0.000 C 
BRANCH  15  16
ATOM     16  C   UNL     1       4.480  12.847   6.422  1.00  0.00    -0.003 C 
ATOM     17  C   UNL     1       4.993  13.939   7.359  1.00  0.00     0.004 C 
ENDBRANCH  15  16
ENDBRANCH  14  15
ENDBRANCH  13  14
ENDBRANCH  12  13
ENDBRANCH  11  12
ENDBRANCH  10  11
ENDBRANCH   1  10
TORSDOF 13
ENDMDL
MODEL 6
REMARK VINA RESULT:    -3.563      1.064      1.889
REMARK INTER + INTRA:          -7.817
REMARK INTER:                  -6.589
REMARK INTRA:                  -1.228
REMARK UNBOUND:                -1.546
REMARK SMILES CCCCCCCCCCCCCCC(=O)[O-]
REMARK SMILES IDX 9 1 10 2 11 3 12 4 13 5 14 6 15 7 16 8 17 9 8 10 7 11 6 12
REMARK SMILES IDX 5 13 4 14 3 15 2 16 1 17
REMARK H PARENT
REMARK Flexibility Score: inf
ROOT
ATOM      1  C   UNL     1       4.183  10.044   8.816  1.00  0.00     0.000 C 
ENDROOT
BRANCH   1   2
ATOM      2  C   UNL     1       3.855   8.620   9.289  1.00  0.00     0.000 C 
BRANCH   2   3
ATOM      3  C   UNL     1       5.072   7.678   9.242  1.00  0.00     0.000 C 
BRANCH   3   4
ATOM      4  C   UNL     1       4.764   6.197   9.544  1.00  0.00     0.000 C 
BRANCH   4   5
ATOM      5  C   UNL     1       3.279   5.799   9.418  1.00  0.00     0.006 C 
BRANCH   5   6
ATOM      6  C   UNL     1       2.955   4.935   8.190  1.00  0.00     0.053 C 
BRANCH   6   7
ATOM      7  C   UNL     1       2.979   3.472   8.512  1.00  0.00     0.041 C 
ATOM      8  O   UNL     1       3.020   2.620   7.587  1.00  0.00    -0.550 OA
ATOM      9  O   UNL     1       2.922   3.049   9.834  1.00  0.00    -0.550 OA
ENDBRANCH   6   7
ENDBRANCH   5   6
ENDBRANCH   4   5
ENDBRANCH   3   4
ENDBRANCH   2   3
ENDBRANCH   1   2
BRANCH   1  10
ATOM     10  C   UNL     1       5.247  10.021   7.708  1.00  0.00     0.000 C 
BRANCH  10  11
ATOM     11  C   UNL     1       4.889  10.934   6.525  1.00  0.00    -0.000 C 
BRANCH  11  12
ATOM     12  C   UNL     1       3.967  12.097   6.935  1.00  0.00    -0.000 C 
BRANCH  12  13
ATOM     13  C   UNL     1       4.483  13.462   6.450  1.00  0.00    -0.000 C 
BRANCH  13  14
ATOM     14  C   UNL     1       5.189  14.255   7.563  1.00  0.00    -0.000 C 
BRANCH  14  15
ATOM     15  C   UNL     1       6.722  14.264   7.412  1.00  0.00    -0.000 C 
BRANCH  15  16
ATOM     16  C   UNL     1       7.452  13.117   8.132  1.00  0.00    -0.003 C 
ATOM     17  C   UNL     1       8.368  12.317   7.207  1.00  0.00     0.004 C 
ENDBRANCH  15  16
ENDBRANCH  14  15
ENDBRANCH  13  14
ENDBRANCH  12  13
ENDBRANCH  11  12
ENDBRANCH  10  11
ENDBRANCH   1  10
TORSDOF 13
ENDMDL
MODEL 7
REMARK VINA RESULT:    -3.561     15.163     16.457
REMARK INTER + INTRA:          -7.814
REMARK INTER:                  -6.988
REMARK INTRA:                  -0.825
REMARK UNBOUND:                -1.546
REMARK SMILES CCCCCCCCCCCCCCC(=O)[O-]
REMARK SMILES IDX 9 1 10 2 11 3 12 4 13 5 14 6 15 7 16 8 17 9 8 10 7 11 6 12
REMARK SMILES IDX 5 13 4 14 3 15 2 16 1 17
REMARK H PARENT
REMARK Flexibility Score: inf
ROOT
ATOM      1  C   UNL     1       1.960   5.783  -9.376  1.00  0.00     0.000 C 
ENDROOT
BRANCH   1   2
ATOM      2  C   UNL     1       2.488   4.342  -9.417  1.00  0.00     0.000 C 
BRANCH   2   3
ATOM      3  C   UNL     1       4.024   4.265  -9.332  1.00  0.00     0.000 C 
BRANCH   3   4
ATOM      4  C   UNL     1       4.607   2.837  -9.341  1.00  0.00     0.000 C 
BRANCH   4   5
ATOM      5  C   UNL     1       5.276   2.395  -8.024  1.00  0.00     0.006 C 
BRANCH   5   6
ATOM      6  C   UNL     1       5.012   0.931  -7.637  1.00  0.00     0.053 C 
BRANCH   6   7
ATOM      7  C   UNL     1       4.623   0.795  -6.197  1.00  0.00     0.041 C 
ATOM      8  O   UNL     1       3.561   0.196  -5.882  1.00  0.00    -0.550 OA
ATOM      9  O   UNL     1       5.415   1.358  -5.205  1.00  0.00    -0.550 OA
ENDBRANCH   6   7
ENDBRANCH   5   6
ENDBRANCH   4   5
ENDBRANCH   3   4
ENDBRANCH   2   3
ENDBRANCH   1   2
BRANCH   1  10
ATOM     10  C   UNL     1       3.116   6.792  -9.444  1.00  0.00     0.000 C 
BRANCH  10  11
ATOM     11  C   UNL     1       2.943   7.957  -8.457  1.00  0.00    -0.000 C 
BRANCH  11  12
ATOM     12  C   UNL     1       4.288   8.570  -8.025  1.00  0.00    -0.000 C 
BRANCH  12  13
ATOM     13  C   UNL     1       5.442   7.554  -8.062  1.00  0.00    -0.000 C 
BRANCH  13  14
ATOM     14  C   UNL     1       6.542   7.875  -7.036  1.00  0.00    -0.000 C 
BRANCH  14  15
ATOM     15  C   UNL     1       6.780   9.387  -6.866  1.00  0.00    -0.000 C 
BRANCH  15  16
ATOM     16  C   UNL     1       7.965   9.761  -5.958  1.00  0.00    -0.003 C 
ATOM     17  C   UNL     1       7.899   9.095  -4.584  1.00  0.00     0.004 C 
ENDBRANCH  15  16
ENDBRANCH  14  15
ENDBRANCH  13  14
ENDBRANCH  12  13
ENDBRANCH  11  12
ENDBRANCH  10  11
ENDBRANCH   1  10
TORSDOF 13
ENDMDL
MODEL 8
REMARK VINA RESULT:    -3.527      3.757      7.815
REMARK INTER + INTRA:          -7.753
REMARK INTER:                  -6.595
REMARK INTRA:                  -1.158
REMARK UNBOUND:                -1.546
REMARK SMILES CCCCCCCCCCCCCCC(=O)[O-]
REMARK SMILES IDX 9 1 10 2 11 3 12 4 13 5 14 6 15 7 16 8 17 9 8 10 7 11 6 12
REMARK SMILES IDX 5 13 4 14 3 15 2 16 1 17
REMARK H PARENT
REMARK Flexibility Score: inf
ROOT
ATOM      1  C   UNL     1       5.406   9.632   9.438  1.00  0.00     0.000 C 
ENDROOT
BRANCH   1   2
ATOM      2  C   UNL     1       5.801  10.947   8.751  1.00  0.00     0.000 C 
BRANCH   2   3
ATOM      3  C   UNL     1       6.289  10.743   7.305  1.00  0.00     0.000 C 
BRANCH   3   4
ATOM      4  C   UNL     1       5.401  11.387   6.219  1.00  0.00     0.000 C 
BRANCH   4   5
ATOM      5  C   UNL     1       4.271  12.292   6.750  1.00  0.00     0.006 C 
BRANCH   5   6
ATOM      6  C   UNL     1       4.484  13.791   6.490  1.00  0.00     0.053 C 
BRANCH   6   7
ATOM      7  C   UNL     1       5.501  14.381   7.418  1.00  0.00     0.041 C 
ATOM      8  O   UNL     1       5.266  14.454   8.652  1.00  0.00    -0.550 OA
ATOM      9  O   UNL     1       6.696  14.881   6.914  1.00  0.00    -0.550 OA
ENDBRANCH   6   7
ENDBRANCH   5   6
ENDBRANCH   4   5
ENDBRANCH   3   4
ENDBRANCH   2   3
ENDBRANCH   1   2
BRANCH   1  10
ATOM     10  C   UNL     1       4.157   9.025   8.782  1.00  0.00     0.000 C 
BRANCH  10  11
ATOM     11  C   UNL     1       3.750   7.684   9.413  1.00  0.00    -0.000 C 
BRANCH  11  12
ATOM     12  C   UNL     1       4.946   6.732   9.600  1.00  0.00    -0.000 C 
BRANCH  12  13
ATOM     13  C   UNL     1       4.516   5.267   9.777  1.00  0.00    -0.000 C 
BRANCH  13  14
ATOM     14  C   UNL     1       3.012   5.125  10.068  1.00  0.00    -0.000 C 
BRANCH  14  15
ATOM     15  C   UNL     1       2.302   4.161   9.098  1.00  0.00    -0.000 C 
BRANCH  15  16
ATOM     16  C   UNL     1       2.169   4.674   7.654  1.00  0.00    -0.003 C 
ATOM     17  C   UNL     1       3.081   3.939   6.671  1.00  0.00     0.004 C 
ENDBRANCH  15  16
ENDBRANCH  14  15
ENDBRANCH  13  14
ENDBRANCH  12  13
ENDBRANCH  11  12
ENDBRANCH  10  11
ENDBRANCH   1  10
TORSDOF 13
ENDMDL
MODEL 9
REMARK VINA RESULT:    -3.480     15.982     17.989
REMARK INTER + INTRA:          -7.670
REMARK INTER:                  -6.125
REMARK INTRA:                  -1.545
REMARK UNBOUND:                -1.546
REMARK SMILES CCCCCCCCCCCCCCC(=O)[O-]
REMARK SMILES IDX 9 1 10 2 11 3 12 4 13 5 14 6 15 7 16 8 17 9 8 10 7 11 6 12
REMARK SMILES IDX 5 13 4 14 3 15 2 16 1 17
REMARK H PARENT
REMARK Flexibility Score: inf
ROOT
ATOM      1  C   UNL     1       2.051   6.881  -9.291  1.00  0.00     0.000 C 
ENDROOT
BRANCH   1   2
ATOM      2  C   UNL     1       3.507   7.325  -9.490  1.00  0.00     0.000 C 
BRANCH   2   3
ATOM      3  C   UNL     1       4.092   8.030  -8.251  1.00  0.00     0.000 C 
BRANCH   3   4
ATOM      4  C   UNL     1       5.273   7.298  -7.581  1.00  0.00     0.000 C 
BRANCH   4   5
ATOM      5  C   UNL     1       6.155   6.468  -8.535  1.00  0.00     0.006 C 
BRANCH   5   6
ATOM      6  C   UNL     1       6.936   5.334  -7.852  1.00  0.00     0.053 C 
BRANCH   6   7
ATOM      7  C   UNL     1       8.337   5.745  -7.512  1.00  0.00     0.041 C 
ATOM      8  O   UNL     1       8.557   6.477  -6.513  1.00  0.00    -0.550 OA
ATOM      9  O   UNL     1       9.394   5.346  -8.320  1.00  0.00    -0.550 OA
ENDBRANCH   6   7
ENDBRANCH   5   6
ENDBRANCH   4   5
ENDBRANCH   3   4
ENDBRANCH   2   3
ENDBRANCH   1   2
BRANCH   1  10
ATOM     10  C   UNL     1       1.876   5.398  -9.654  1.00  0.00     0.000 C 
BRANCH  10  11
ATOM     11  C   UNL     1       3.214   4.698  -9.940  1.00  0.00    -0.000 C 
BRANCH  11  12
ATOM     12  C   UNL     1       3.593   3.682  -8.847  1.00  0.00    -0.000 C 
BRANCH  12  13
ATOM     13  C   UNL     1       4.738   2.749  -9.276  1.00  0.00    -0.000 C 
BRANCH  13  14
ATOM     14  C   UNL     1       4.892   1.537  -8.340  1.00  0.00    -0.000 C 
BRANCH  14  15
ATOM     15  C   UNL     1       5.605   1.887  -7.020  1.00  0.00    -0.000 C 
BRANCH  15  16
ATOM     16  C   UNL     1       4.832   1.510  -5.744  1.00  0.00    -0.003 C 
ATOM     17  C   UNL     1       3.845   0.362  -5.959  1.00  0.00     0.004 C 
ENDBRANCH  15  16
ENDBRANCH  14  15
ENDBRANCH  13  14
ENDBRANCH  12  13
ENDBRANCH  11  12
ENDBRANCH  10  11
ENDBRANCH   1  10
TORSDOF 13
ENDMDL
