MODEL 1
REMARK VINA RESULT:    -3.045      0.000      0.000
REMARK INTER + INTRA:          -3.435
REMARK INTER:                  -3.401
REMARK INTRA:                  -0.033
REMARK UNBOUND:                -0.033
REMARK SMILES CCCC(=O)[O-]
REMARK SMILES IDX 3 1 4 2 5 3 6 4 2 5 1 6
REMARK H PARENT
REMARK Flexibility Score: inf
ROOT
ATOM      1  C   UNL     1     -17.239  43.033  -4.028  1.00  0.00     0.052 C 
ENDROOT
BRANCH   1   2
ATOM      2  C   UNL     1     -17.005  43.341  -5.475  1.00  0.00     0.041 C 
ATOM      3  O   UNL     1     -15.835  43.344  -5.942  1.00  0.00    -0.550 OA
ATOM      4  O   UNL     1     -18.081  43.592  -6.315  1.00  0.00    -0.550 OA
ENDBRANCH   1   2
BRANCH   1   5
ATOM      5  C   UNL     1     -18.613  43.525  -3.559  1.00  0.00     0.003 C 
ATOM      6  C   UNL     1     -19.467  42.397  -2.979  1.00  0.00     0.004 C 
ENDBRANCH   1   5
TORSDOF 2
ENDMDL
MODEL 2
REMARK VINA RESULT:    -3.025      0.120      1.320
REMARK INTER + INTRA:          -3.411
REMARK INTER:                  -3.374
REMARK INTRA:                  -0.037
REMARK UNBOUND:                -0.033
REMARK SMILES CCCC(=O)[O-]
REMARK SMILES IDX 3 1 4 2 5 3 6 4 2 5 1 6
REMARK H PARENT
REMARK Flexibility Score: inf
ROOT
ATOM      1  C   UNL     1     -17.257  43.068  -4.025  1.00  0.00     0.052 C 
ENDROOT
BRANCH   1   2
ATOM      2  C   UNL     1     -17.071  43.291  -5.494  1.00  0.00     0.041 C 
ATOM      3  O   UNL     1     -18.070  43.363  -6.256  1.00  0.00    -0.550 OA
ATOM      4  O   UNL     1     -15.794  43.451  -6.016  1.00  0.00    -0.550 OA
ENDBRANCH   1   2
BRANCH   1   5
ATOM      5  C   UNL     1     -18.633  43.547  -3.548  1.00  0.00     0.003 C 
ATOM      6  C   UNL     1     -19.467  42.416  -2.945  1.00  0.00     0.004 C 
ENDBRANCH   1   5
TORSDOF 2
ENDMDL
MODEL 3
REMARK VINA RESULT:    -2.845      2.147      3.356
REMARK INTER + INTRA:          -3.210
REMARK INTER:                  -3.174
REMARK INTRA:                  -0.036
REMARK UNBOUND:                -0.033
REMARK SMILES CCCC(=O)[O-]
REMARK SMILES IDX 3 1 4 2 5 3 6 4 2 5 1 6
REMARK H PARENT
REMARK Flexibility Score: inf
ROOT
ATOM      1  C   UNL     1     -17.693  42.252  -4.370  1.00  0.00     0.052 C 
ENDROOT
BRANCH   1   2
ATOM      2  C   UNL     1     -18.802  42.935  -3.631  1.00  0.00     0.041 C 
ATOM      3  O   UNL     1     -19.125  44.117  -3.922  1.00  0.00    -0.550 OA
ATOM      4  O   UNL     1     -19.501  42.255  -2.642  1.00  0.00    -0.550 OA
ENDBRANCH   1   2
BRANCH   1   5
ATOM      5  C   UNL     1     -16.482  43.174  -4.555  1.00  0.00     0.003 C 
ATOM      6  C   UNL     1     -16.128  43.378  -6.028  1.00  0.00     0.004 C 
ENDBRANCH   1   5
TORSDOF 2
ENDMDL
MODEL 4
REMARK VINA RESULT:    -2.486      2.307      3.220
REMARK INTER + INTRA:          -2.810
REMARK INTER:                  -2.802
REMARK INTRA:                  -0.008
REMARK UNBOUND:                -0.033
REMARK SMILES CCCC(=O)[O-]
REMARK SMILES IDX 3 1 4 2 5 3 6 4 2 5 1 6
REMARK H PARENT
REMARK Flexibility Score: inf
ROOT
ATOM      1  C   UNL     1     -18.736  43.779  -4.956  1.00  0.00     0.052 C 
ENDROOT
BRANCH   1   2
ATOM      2  C   UNL     1     -18.264  43.074  -3.722  1.00  0.00     0.041 C 
ATOM      3  O   UNL     1     -17.034  43.018  -3.454  1.00  0.00    -0.550 OA
ATOM      4  O   UNL     1     -19.184  42.508  -2.850  1.00  0.00    -0.550 OA
ENDBRANCH   1   2
BRANCH   1   5
ATOM      5  C   UNL     1     -17.825  43.494  -6.156  1.00  0.00     0.003 C 
ATOM      6  C   UNL     1     -18.316  44.176  -7.433  1.00  0.00     0.004 C 
ENDBRANCH   1   5
TORSDOF 2
ENDMDL
MODEL 5
REMARK VINA RESULT:    -2.429      3.530      4.779
REMARK INTER + INTRA:          -2.746
REMARK INTER:                  -2.705
REMARK INTRA:                  -0.041
REMARK UNBOUND:                -0.033
REMARK SMILES CCCC(=O)[O-]
REMARK SMILES IDX 3 1 4 2 5 3 6 4 2 5 1 6
REMARK H PARENT
REMARK Flexibility Score: inf
ROOT
ATOM      1  C   UNL     1     -18.697  44.668  -8.808  1.00  0.00     0.052 C 
ENDROOT
BRANCH   1   2
ATOM      2  C   UNL     1     -18.751  44.545  -7.316  1.00  0.00     0.041 C 
ATOM      3  O   UNL     1     -19.617  45.180  -6.658  1.00  0.00    -0.550 OA
ATOM      4  O   UNL     1     -17.865  43.704  -6.656  1.00  0.00    -0.550 OA
ENDBRANCH   1   2
BRANCH   1   5
ATOM      5  C   UNL     1     -19.586  43.625  -9.496  1.00  0.00     0.003 C 
ATOM      6  C   UNL     1     -18.834  42.330  -9.800  1.00  0.00     0.004 C 
ENDBRANCH   1   5
TORSDOF 2
ENDMDL
MODEL 6
REMARK VINA RESULT:    -2.300      3.876      5.010
REMARK INTER + INTRA:          -2.602
REMARK INTER:                  -2.566
REMARK INTRA:                  -0.036
REMARK UNBOUND:                -0.033
REMARK SMILES CCCC(=O)[O-]
REMARK SMILES IDX 3 1 4 2 5 3 6 4 2 5 1 6
REMARK H PARENT
REMARK Flexibility Score: inf
ROOT
ATOM      1  C   UNL     1     -19.385  44.120  -9.173  1.00  0.00     0.052 C 
ENDROOT
BRANCH   1   2
ATOM      2  C   UNL     1     -18.740  44.566  -7.897  1.00  0.00     0.041 C 
ATOM      3  O   UNL     1     -17.487  44.527  -7.772  1.00  0.00    -0.550 OA
ATOM      4  O   UNL     1     -19.520  45.057  -6.858  1.00  0.00    -0.550 OA
ENDBRANCH   1   2
BRANCH   1   5
ATOM      5  C   UNL     1     -19.092  42.645  -9.470  1.00  0.00     0.003 C 
ATOM      6  C   UNL     1     -18.077  42.469 -10.600  1.00  0.00     0.004 C 
ENDBRANCH   1   5
TORSDOF 2
ENDMDL
MODEL 7
REMARK VINA RESULT:    -2.268      1.763      2.637
REMARK INTER + INTRA:          -2.566
REMARK INTER:                  -2.556
REMARK INTRA:                  -0.010
REMARK UNBOUND:                -0.033
REMARK SMILES CCCC(=O)[O-]
REMARK SMILES IDX 3 1 4 2 5 3 6 4 2 5 1 6
REMARK H PARENT
REMARK Flexibility Score: inf
ROOT
ATOM      1  C   UNL     1     -17.947  43.500  -6.076  1.00  0.00     0.052 C 
ENDROOT
BRANCH   1   2
ATOM      2  C   UNL     1     -17.562  43.905  -7.465  1.00  0.00     0.041 C 
ATOM      3  O   UNL     1     -18.425  43.927  -8.382  1.00  0.00    -0.550 OA
ATOM      4  O   UNL     1     -16.256  44.290  -7.740  1.00  0.00    -0.550 OA
ENDBRANCH   1   2
BRANCH   1   5
ATOM      5  C   UNL     1     -16.719  43.187  -5.214  1.00  0.00     0.003 C 
ATOM      6  C   UNL     1     -17.054  43.127  -3.724  1.00  0.00     0.004 C 
ENDBRANCH   1   5
TORSDOF 2
ENDMDL
MODEL 8
REMARK VINA RESULT:    -2.237      3.489      4.372
REMARK INTER + INTRA:          -2.532
REMARK INTER:                  -2.468
REMARK INTRA:                  -0.064
REMARK UNBOUND:                -0.033
REMARK SMILES CCCC(=O)[O-]
REMARK SMILES IDX 3 1 4 2 5 3 6 4 2 5 1 6
REMARK H PARENT
REMARK Flexibility Score: inf
ROOT
ATOM      1  C   UNL     1     -18.338  44.908  -8.710  1.00  0.00     0.052 C 
ENDROOT
BRANCH   1   2
ATOM      2  C   UNL     1     -17.506  44.203  -7.683  1.00  0.00     0.041 C 
ATOM      3  O   UNL     1     -16.265  44.075  -7.851  1.00  0.00    -0.550 OA
ATOM      4  O   UNL     1     -18.097  43.717  -6.524  1.00  0.00    -0.550 OA
ENDBRANCH   1   2
BRANCH   1   5
ATOM      5  C   UNL     1     -19.560  44.077  -9.117  1.00  0.00     0.003 C 
ATOM      6  C   UNL     1     -19.171  42.727  -9.720  1.00  0.00     0.004 C 
ENDBRANCH   1   5
TORSDOF 2
ENDMDL
MODEL 9
REMARK VINA RESULT:    -2.191      4.522      5.277
REMARK INTER + INTRA:          -2.480
REMARK INTER:                  -2.414
REMARK INTRA:                  -0.066
REMARK UNBOUND:                -0.033
REMARK SMILES CCCC(=O)[O-]
REMARK SMILES IDX 3 1 4 2 5 3 6 4 2 5 1 6
REMARK H PARENT
REMARK Flexibility Score: inf
ROOT
ATOM      1  C   UNL     1     -19.032  43.284  -9.389  1.00  0.00     0.052 C 
ENDROOT
BRANCH   1   2
ATOM      2  C   UNL     1     -19.298  44.438 -10.306  1.00  0.00     0.041 C 
ATOM      3  O   UNL     1     -18.341  45.107 -10.777  1.00  0.00    -0.550 OA
ATOM      4  O   UNL     1     -20.601  44.755 -10.666  1.00  0.00    -0.550 OA
ENDBRANCH   1   2
BRANCH   1   5
ATOM      5  C   UNL     1     -18.313  43.728  -8.111  1.00  0.00     0.003 C 
ATOM      6  C   UNL     1     -19.091  44.801  -7.349  1.00  0.00     0.004 C 
ENDBRANCH   1   5
TORSDOF 2
ENDMDL
