MODEL 1
REMARK VINA RESULT:    -3.735      0.000      0.000
REMARK INTER + INTRA:          -4.539
REMARK INTER:                  -4.390
REMARK INTRA:                  -0.149
REMARK UNBOUND:                -0.149
REMARK SMILES [NH3+][C@@H](CO)C(=O)[O-]
REMARK SMILES IDX 3 1 2 2 1 3 5 7 6 8 7 9 4 10
REMARK H PARENT 1 4 1 5 1 6 4 11
REMARK Flexibility Score: inf
ROOT
ATOM      1  C   UNL     1      13.872  35.546  12.954  1.00  0.00     0.227 C 
ENDROOT
BRANCH   1   2
ATOM      2  C   UNL     1      14.529  34.362  13.684  1.00  0.00     0.253 C 
BRANCH   2   3
ATOM      3  N   UNL     1      15.983  34.539  13.777  1.00  0.00    -0.348 N 
ATOM      4  H   UNL     1      16.301  35.244  13.074  1.00  0.00     0.345 HD
ATOM      5  H   UNL     1      16.237  34.893  14.728  1.00  0.00     0.345 HD
ATOM      6  H   UNL     1      16.479  33.634  13.605  1.00  0.00     0.345 HD
ENDBRANCH   2   3
BRANCH   2   7
ATOM      7  C   UNL     1      14.205  33.076  12.970  1.00  0.00     0.102 C 
ATOM      8  O   UNL     1      13.056  32.888  12.494  1.00  0.00    -0.544 OA
ATOM      9  O   UNL     1      15.179  32.096  12.818  1.00  0.00    -0.544 OA
ENDBRANCH   2   7
ENDBRANCH   1   2
BRANCH   1  10
ATOM     10  O   UNL     1      12.671  35.913  13.579  1.00  0.00    -0.390 OA
ATOM     11  H   UNL     1      11.959  35.347  13.178  1.00  0.00     0.210 HD
ENDBRANCH   1  10
TORSDOF 4
ENDMDL
MODEL 2
REMARK VINA RESULT:    -3.691      2.028      2.268
REMARK INTER + INTRA:          -4.487
REMARK INTER:                  -4.191
REMARK INTRA:                  -0.296
REMARK UNBOUND:                -0.149
REMARK SMILES [NH3+][C@@H](CO)C(=O)[O-]
REMARK SMILES IDX 3 1 2 2 1 3 5 7 6 8 7 9 4 10
REMARK H PARENT 1 4 1 5 1 6 4 11
REMARK Flexibility Score: inf
ROOT
ATOM      1  C   UNL     1      15.281  34.656  13.605  1.00  0.00     0.227 C 
ENDROOT
BRANCH   1   2
ATOM      2  C   UNL     1      13.854  34.421  13.079  1.00  0.00     0.253 C 
BRANCH   2   3
ATOM      3  N   UNL     1      12.860  35.090  13.927  1.00  0.00    -0.348 N 
ATOM      4  H   UNL     1      11.904  34.963  13.522  1.00  0.00     0.345 HD
ATOM      5  H   UNL     1      12.866  34.664  14.883  1.00  0.00     0.345 HD
ATOM      6  H   UNL     1      13.067  36.112  14.006  1.00  0.00     0.345 HD
ENDBRANCH   2   3
BRANCH   2   7
ATOM      7  C   UNL     1      13.570  32.944  13.009  1.00  0.00     0.102 C 
ATOM      8  O   UNL     1      12.874  32.390  13.899  1.00  0.00    -0.544 OA
ATOM      9  O   UNL     1      14.062  32.185  11.953  1.00  0.00    -0.544 OA
ENDBRANCH   2   7
ENDBRANCH   1   2
BRANCH   1  10
ATOM     10  O   UNL     1      16.026  33.468  13.574  1.00  0.00    -0.390 OA
ATOM     11  H   UNL     1      16.741  33.600  12.897  1.00  0.00     0.210 HD
ENDBRANCH   1  10
TORSDOF 4
ENDMDL
MODEL 3
REMARK VINA RESULT:    -3.608     14.719     15.136
REMARK INTER + INTRA:          -4.390
REMARK INTER:                  -3.999
REMARK INTRA:                  -0.390
REMARK UNBOUND:                -0.149
REMARK SMILES [NH3+][C@@H](CO)C(=O)[O-]
REMARK SMILES IDX 3 1 2 2 1 3 5 7 6 8 7 9 4 10
REMARK H PARENT 1 4 1 5 1 6 4 11
REMARK Flexibility Score: inf
ROOT
ATOM      1  C   UNL     1       4.028  44.586   9.524  1.00  0.00     0.227 C 
ENDROOT
BRANCH   1   2
ATOM      2  C   UNL     1       3.438  45.251  10.780  1.00  0.00     0.253 C 
BRANCH   2   3
ATOM      3  N   UNL     1       4.130  46.509  11.087  1.00  0.00    -0.348 N 
ATOM      4  H   UNL     1       5.078  46.306  11.480  1.00  0.00     0.345 HD
ATOM      5  H   UNL     1       4.256  47.067  10.211  1.00  0.00     0.345 HD
ATOM      6  H   UNL     1       3.586  47.073  11.779  1.00  0.00     0.345 HD
ENDBRANCH   2   3
BRANCH   2   7
ATOM      7  C   UNL     1       3.528  44.308  11.951  1.00  0.00     0.102 C 
ATOM      8  O   UNL     1       4.586  44.240  12.629  1.00  0.00    -0.544 OA
ATOM      9  O   UNL     1       2.439  43.518  12.299  1.00  0.00    -0.544 OA
ENDBRANCH   2   7
ENDBRANCH   1   2
BRANCH   1  10
ATOM     10  O   UNL     1       4.357  43.247   9.778  1.00  0.00    -0.390 OA
ATOM     11  H   UNL     1       4.791  42.900   8.954  1.00  0.00     0.210 HD
ENDBRANCH   1  10
TORSDOF 4
ENDMDL
MODEL 4
REMARK VINA RESULT:    -3.593     13.302     14.292
REMARK INTER + INTRA:          -4.371
REMARK INTER:                  -4.151
REMARK INTRA:                  -0.221
REMARK UNBOUND:                -0.149
REMARK SMILES [NH3+][C@@H](CO)C(=O)[O-]
REMARK SMILES IDX 3 1 2 2 1 3 5 7 6 8 7 9 4 10
REMARK H PARENT 1 4 1 5 1 6 4 11
REMARK Flexibility Score: inf
ROOT
ATOM      1  C   UNL     1       3.299  42.144  11.394  1.00  0.00     0.227 C 
ENDROOT
BRANCH   1   2
ATOM      2  C   UNL     1       3.513  43.379  10.500  1.00  0.00     0.253 C 
BRANCH   2   3
ATOM      3  N   UNL     1       4.258  43.029   9.285  1.00  0.00    -0.348 N 
ATOM      4  H   UNL     1       5.160  42.568   9.541  1.00  0.00     0.345 HD
ATOM      5  H   UNL     1       3.701  42.355   8.710  1.00  0.00     0.345 HD
ATOM      6  H   UNL     1       4.459  43.882   8.714  1.00  0.00     0.345 HD
ENDBRANCH   2   3
BRANCH   2   7
ATOM      7  C   UNL     1       4.243  44.448  11.269  1.00  0.00     0.102 C 
ATOM      8  O   UNL     1       4.608  45.505  10.693  1.00  0.00    -0.544 OA
ATOM      9  O   UNL     1       4.506  44.280  12.624  1.00  0.00    -0.544 OA
ENDBRANCH   2   7
ENDBRANCH   1   2
BRANCH   1  10
ATOM     10  O   UNL     1       4.527  41.590  11.781  1.00  0.00    -0.390 OA
ATOM     11  H   UNL     1       4.324  40.709  12.193  1.00  0.00     0.210 HD
ENDBRANCH   1  10
TORSDOF 4
ENDMDL
MODEL 5
REMARK VINA RESULT:    -3.534     14.858     15.387
REMARK INTER + INTRA:          -4.302
REMARK INTER:                  -3.951
REMARK INTRA:                  -0.351
REMARK UNBOUND:                -0.149
REMARK SMILES [NH3+][C@@H](CO)C(=O)[O-]
REMARK SMILES IDX 3 1 2 2 1 3 5 7 6 8 7 9 4 10
REMARK H PARENT 1 4 1 5 1 6 4 11
REMARK Flexibility Score: inf
ROOT
ATOM      1  C   UNL     1       2.502  43.211   9.242  1.00  0.00     0.227 C 
ENDROOT
BRANCH   1   2
ATOM      2  C   UNL     1       3.964  43.600   9.521  1.00  0.00     0.253 C 
BRANCH   2   3
ATOM      3  N   UNL     1       4.571  42.701  10.511  1.00  0.00    -0.348 N 
ATOM      4  H   UNL     1       5.554  42.997  10.705  1.00  0.00     0.345 HD
ATOM      5  H   UNL     1       4.035  42.748  11.408  1.00  0.00     0.345 HD
ATOM      6  H   UNL     1       4.572  41.714  10.164  1.00  0.00     0.345 HD
ENDBRANCH   2   3
BRANCH   2   7
ATOM      7  C   UNL     1       4.033  45.025  10.002  1.00  0.00     0.102 C 
ATOM      8  O   UNL     1       3.785  45.301  11.204  1.00  0.00    -0.544 OA
ATOM      9  O   UNL     1       4.388  46.043   9.124  1.00  0.00    -0.544 OA
ENDBRANCH   2   7
ENDBRANCH   1   2
BRANCH   1  10
ATOM     10  O   UNL     1       1.729  44.347   8.960  1.00  0.00    -0.390 OA
ATOM     11  H   UNL     1       0.797  44.129   9.225  1.00  0.00     0.210 HD
ENDBRANCH   1  10
TORSDOF 4
ENDMDL
MODEL 6
REMARK VINA RESULT:    -3.508     14.586     15.293
REMARK INTER + INTRA:          -4.272
REMARK INTER:                  -4.047
REMARK INTRA:                  -0.224
REMARK UNBOUND:                -0.149
REMARK SMILES [NH3+][C@@H](CO)C(=O)[O-]
REMARK SMILES IDX 3 1 2 2 1 3 5 7 6 8 7 9 4 10
REMARK H PARENT 1 4 1 5 1 6 4 11
REMARK Flexibility Score: inf
ROOT
ATOM      1  C   UNL     1       4.291  45.443  10.346  1.00  0.00     0.227 C 
ENDROOT
BRANCH   1   2
ATOM      2  C   UNL     1       4.102  44.196  11.228  1.00  0.00     0.253 C 
BRANCH   2   3
ATOM      3  N   UNL     1       4.623  42.995  10.565  1.00  0.00    -0.348 N 
ATOM      4  H   UNL     1       4.036  42.167  10.817  1.00  0.00     0.345 HD
ATOM      5  H   UNL     1       4.582  43.117   9.527  1.00  0.00     0.345 HD
ATOM      6  H   UNL     1       5.613  42.813  10.850  1.00  0.00     0.345 HD
ENDBRANCH   2   3
BRANCH   2   7
ATOM      7  C   UNL     1       2.643  44.018  11.557  1.00  0.00     0.102 C 
ATOM      8  O   UNL     1       2.243  42.959  12.106  1.00  0.00    -0.544 OA
ATOM      9  O   UNL     1       1.732  45.029  11.271  1.00  0.00    -0.544 OA
ENDBRANCH   2   7
ENDBRANCH   1   2
BRANCH   1  10
ATOM     10  O   UNL     1       4.118  46.615  11.096  1.00  0.00    -0.390 OA
ATOM     11  H   UNL     1       4.813  47.255  10.786  1.00  0.00     0.210 HD
ENDBRANCH   1  10
TORSDOF 4
ENDMDL
MODEL 7
REMARK VINA RESULT:    -3.460     14.268     14.598
REMARK INTER + INTRA:          -4.216
REMARK INTER:                  -3.837
REMARK INTRA:                  -0.379
REMARK UNBOUND:                -0.149
REMARK SMILES [NH3+][C@@H](CO)C(=O)[O-]
REMARK SMILES IDX 3 1 2 2 1 3 5 7 6 8 7 9 4 10
REMARK H PARENT 1 4 1 5 1 6 4 11
REMARK Flexibility Score: inf
ROOT
ATOM      1  C   UNL     1       3.885  44.448  11.983  1.00  0.00     0.227 C 
ENDROOT
BRANCH   1   2
ATOM      2  C   UNL     1       2.585  43.826  11.443  1.00  0.00     0.253 C 
BRANCH   2   3
ATOM      3  N   UNL     1       1.578  43.702  12.504  1.00  0.00    -0.348 N 
ATOM      4  H   UNL     1       0.643  44.000  12.144  1.00  0.00     0.345 HD
ATOM      5  H   UNL     1       1.505  42.703  12.808  1.00  0.00     0.345 HD
ATOM      6  H   UNL     1       1.833  44.292  13.329  1.00  0.00     0.345 HD
ENDBRANCH   2   3
BRANCH   2   7
ATOM      7  C   UNL     1       2.874  42.478  10.838  1.00  0.00     0.102 C 
ATOM      8  O   UNL     1       2.872  42.332   9.588  1.00  0.00    -0.544 OA
ATOM      9  O   UNL     1       3.159  41.391  11.655  1.00  0.00    -0.544 OA
ENDBRANCH   2   7
ENDBRANCH   1   2
BRANCH   1  10
ATOM     10  O   UNL     1       5.007  43.847  11.393  1.00  0.00    -0.390 OA
ATOM     11  H   UNL     1       4.685  43.015  10.955  1.00  0.00     0.210 HD
ENDBRANCH   1  10
TORSDOF 4
ENDMDL
MODEL 8
REMARK VINA RESULT:    -3.460     14.854     15.493
REMARK INTER + INTRA:          -4.216
REMARK INTER:                  -3.811
REMARK INTRA:                  -0.405
REMARK UNBOUND:                -0.149
REMARK SMILES [NH3+][C@@H](CO)C(=O)[O-]
REMARK SMILES IDX 3 1 2 2 1 3 5 7 6 8 7 9 4 10
REMARK H PARENT 1 4 1 5 1 6 4 11
REMARK Flexibility Score: inf
ROOT
ATOM      1  C   UNL     1       4.433  46.185   9.884  1.00  0.00     0.227 C 
ENDROOT
BRANCH   1   2
ATOM      2  C   UNL     1       4.083  44.700  10.088  1.00  0.00     0.253 C 
BRANCH   2   3
ATOM      3  N   UNL     1       3.075  44.256   9.118  1.00  0.00    -0.348 N 
ATOM      4  H   UNL     1       2.633  45.086   8.660  1.00  0.00     0.345 HD
ATOM      5  H   UNL     1       3.530  43.679   8.374  1.00  0.00     0.345 HD
ATOM      6  H   UNL     1       2.333  43.688   9.588  1.00  0.00     0.345 HD
ENDBRANCH   2   3
BRANCH   2   7
ATOM      7  C   UNL     1       3.588  44.479  11.493  1.00  0.00     0.102 C 
ATOM      8  O   UNL     1       2.354  44.482  11.737  1.00  0.00    -0.544 OA
ATOM      9  O   UNL     1       4.490  44.254  12.526  1.00  0.00    -0.544 OA
ENDBRANCH   2   7
ENDBRANCH   1   2
BRANCH   1  10
ATOM     10  O   UNL     1       4.153  46.927  11.041  1.00  0.00    -0.390 OA
ATOM     11  H   UNL     1       3.863  47.827  10.738  1.00  0.00     0.210 HD
ENDBRANCH   1  10
TORSDOF 4
ENDMDL
MODEL 9
REMARK VINA RESULT:    -3.443     14.058     14.500
REMARK INTER + INTRA:          -4.196
REMARK INTER:                  -3.839
REMARK INTRA:                  -0.357
REMARK UNBOUND:                -0.149
REMARK SMILES [NH3+][C@@H](CO)C(=O)[O-]
REMARK SMILES IDX 3 1 2 2 1 3 5 7 6 8 7 9 4 10
REMARK H PARENT 1 4 1 5 1 6 4 11
REMARK Flexibility Score: inf
ROOT
ATOM      1  C   UNL     1       4.368  44.263  12.238  1.00  0.00     0.227 C 
ENDROOT
BRANCH   1   2
ATOM      2  C   UNL     1       3.591  43.054  11.689  1.00  0.00     0.253 C 
BRANCH   2   3
ATOM      3  N   UNL     1       4.416  41.840  11.712  1.00  0.00    -0.348 N 
ATOM      4  H   UNL     1       4.891  41.715  10.789  1.00  0.00     0.345 HD
ATOM      5  H   UNL     1       5.155  41.928  12.447  1.00  0.00     0.345 HD
ATOM      6  H   UNL     1       3.831  40.997  11.914  1.00  0.00     0.345 HD
ENDBRANCH   2   3
BRANCH   2   7
ATOM      7  C   UNL     1       3.122  43.339  10.287  1.00  0.00     0.102 C 
ATOM      8  O   UNL     1       1.905  43.561  10.059  1.00  0.00    -0.544 OA
ATOM      9  O   UNL     1       4.034  43.374   9.238  1.00  0.00    -0.544 OA
ENDBRANCH   2   7
ENDBRANCH   1   2
BRANCH   1  10
ATOM     10  O   UNL     1       3.965  45.446  11.601  1.00  0.00    -0.390 OA
ATOM     11  H   UNL     1       3.042  45.288  11.268  1.00  0.00     0.210 HD
ENDBRANCH   1  10
TORSDOF 4
ENDMDL
