MODEL 1
REMARK VINA RESULT:    -3.894      0.000      0.000
REMARK INTER + INTRA:          -4.708
REMARK INTER:                  -4.690
REMARK INTRA:                  -0.017
REMARK UNBOUND:                -0.017
REMARK SMILES OCC(O)CO
REMARK SMILES IDX 3 1 5 2 6 3 2 5 1 6 4 8
REMARK H PARENT 6 4 1 7 4 9
REMARK Flexibility Score: inf
ROOT
ATOM      1  C   UNL     1     203.840 203.334 241.859  1.00  0.00     0.165 C 
ENDROOT
BRANCH   1   2
ATOM      2  C   UNL     1     204.186 204.446 242.863  1.00  0.00     0.190 C 
BRANCH   2   3
ATOM      3  O   UNL     1     205.047 205.385 242.277  1.00  0.00    -0.394 OA
ATOM      4  H   UNL     1     205.563 204.900 241.580  1.00  0.00     0.210 HD
ENDBRANCH   2   3
ENDBRANCH   1   2
BRANCH   1   5
ATOM      5  C   UNL     1     204.114 201.943 242.457  1.00  0.00     0.190 C 
BRANCH   5   6
ATOM      6  O   UNL     1     205.446 201.567 242.235  1.00  0.00    -0.394 OA
ATOM      7  H   UNL     1     205.558 201.489 241.251  1.00  0.00     0.210 HD
ENDBRANCH   5   6
ENDBRANCH   1   5
BRANCH   1   8
ATOM      8  O   UNL     1     202.503 203.440 241.439  1.00  0.00    -0.388 OA
ATOM      9  H   UNL     1     202.337 204.391 241.202  1.00  0.00     0.211 HD
ENDBRANCH   1   8
TORSDOF 5
ENDMDL
MODEL 2
REMARK VINA RESULT:    -3.883      1.766      2.742
REMARK INTER + INTRA:          -4.694
REMARK INTER:                  -4.471
REMARK INTRA:                  -0.223
REMARK UNBOUND:                -0.017
REMARK SMILES OCC(O)CO
REMARK SMILES IDX 3 1 5 2 6 3 2 5 1 6 4 8
REMARK H PARENT 6 4 1 7 4 9
REMARK Flexibility Score: inf
ROOT
ATOM      1  C   UNL     1     204.037 202.256 242.341  1.00  0.00     0.165 C 
ENDROOT
BRANCH   1   2
ATOM      2  C   UNL     1     203.524 202.757 240.980  1.00  0.00     0.190 C 
BRANCH   2   3
ATOM      3  O   UNL     1     202.344 203.497 241.144  1.00  0.00    -0.394 OA
ATOM      4  H   UNL     1     201.728 203.213 240.419  1.00  0.00     0.210 HD
ENDBRANCH   2   3
ENDBRANCH   1   2
BRANCH   1   5
ATOM      5  C   UNL     1     203.014 201.325 243.011  1.00  0.00     0.190 C 
BRANCH   5   6
ATOM      6  O   UNL     1     202.232 200.678 242.045  1.00  0.00    -0.394 OA
ATOM      7  H   UNL     1     202.802 200.580 241.238  1.00  0.00     0.210 HD
ENDBRANCH   5   6
ENDBRANCH   1   5
BRANCH   1   8
ATOM      8  O   UNL     1     205.278 201.611 242.198  1.00  0.00    -0.388 OA
ATOM      9  H   UNL     1     205.277 200.820 242.800  1.00  0.00     0.211 HD
ENDBRANCH   1   8
TORSDOF 5
ENDMDL
MODEL 3
REMARK VINA RESULT:    -3.865      1.319      3.332
REMARK INTER + INTRA:          -4.674
REMARK INTER:                  -4.453
REMARK INTRA:                  -0.221
REMARK UNBOUND:                -0.017
REMARK SMILES OCC(O)CO
REMARK SMILES IDX 3 1 5 2 6 3 2 5 1 6 4 8
REMARK H PARENT 6 4 1 7 4 9
REMARK Flexibility Score: inf
ROOT
ATOM      1  C   UNL     1     204.298 202.290 242.380  1.00  0.00     0.165 C 
ENDROOT
BRANCH   1   2
ATOM      2  C   UNL     1     203.265 201.554 243.250  1.00  0.00     0.190 C 
BRANCH   2   3
ATOM      3  O   UNL     1     202.049 201.422 242.562  1.00  0.00    -0.394 OA
ATOM      4  H   UNL     1     201.404 201.020 243.202  1.00  0.00     0.210 HD
ENDBRANCH   2   3
ENDBRANCH   1   2
BRANCH   1   5
ATOM      5  C   UNL     1     204.278 203.803 242.656  1.00  0.00     0.190 C 
BRANCH   5   6
ATOM      6  O   UNL     1     202.959 204.269 242.744  1.00  0.00    -0.394 OA
ATOM      7  H   UNL     1     202.541 204.105 241.858  1.00  0.00     0.210 HD
ENDBRANCH   5   6
ENDBRANCH   1   5
BRANCH   1   8
ATOM      8  O   UNL     1     205.585 201.764 242.584  1.00  0.00    -0.388 OA
ATOM      9  H   UNL     1     205.498 200.987 243.197  1.00  0.00     0.211 HD
ENDBRANCH   1   8
TORSDOF 5
ENDMDL
MODEL 4
REMARK VINA RESULT:    -3.850      1.114      2.447
REMARK INTER + INTRA:          -4.655
REMARK INTER:                  -4.433
REMARK INTRA:                  -0.222
REMARK UNBOUND:                -0.017
REMARK SMILES OCC(O)CO
REMARK SMILES IDX 3 1 5 2 6 3 2 5 1 6 4 8
REMARK H PARENT 6 4 1 7 4 9
REMARK Flexibility Score: inf
ROOT
ATOM      1  C   UNL     1     203.911 203.387 242.142  1.00  0.00     0.165 C 
ENDROOT
BRANCH   1   2
ATOM      2  C   UNL     1     203.540 202.716 240.810  1.00  0.00     0.190 C 
BRANCH   2   3
ATOM      3  O   UNL     1     202.757 201.574 241.037  1.00  0.00    -0.394 OA
ATOM      4  H   UNL     1     202.425 201.639 241.971  1.00  0.00     0.210 HD
ENDBRANCH   2   3
ENDBRANCH   1   2
BRANCH   1   5
ATOM      5  C   UNL     1     204.750 202.445 243.023  1.00  0.00     0.190 C 
BRANCH   5   6
ATOM      6  O   UNL     1     205.484 201.555 242.228  1.00  0.00    -0.394 OA
ATOM      7  H   UNL     1     206.193 202.090 241.784  1.00  0.00     0.210 HD
ENDBRANCH   5   6
ENDBRANCH   1   5
BRANCH   1   8
ATOM      8  O   UNL     1     204.593 204.596 241.918  1.00  0.00    -0.388 OA
ATOM      9  H   UNL     1     205.560 204.429 242.074  1.00  0.00     0.211 HD
ENDBRANCH   1   8
TORSDOF 5
ENDMDL
MODEL 5
REMARK VINA RESULT:    -3.849      1.271      2.188
REMARK INTER + INTRA:          -4.654
REMARK INTER:                  -4.434
REMARK INTRA:                  -0.220
REMARK UNBOUND:                -0.017
REMARK SMILES OCC(O)CO
REMARK SMILES IDX 3 1 5 2 6 3 2 5 1 6 4 8
REMARK H PARENT 6 4 1 7 4 9
REMARK Flexibility Score: inf
ROOT
ATOM      1  C   UNL     1     204.346 202.199 242.922  1.00  0.00     0.165 C 
ENDROOT
BRANCH   1   2
ATOM      2  C   UNL     1     204.304 203.713 242.650  1.00  0.00     0.190 C 
BRANCH   2   3
ATOM      3  O   UNL     1     204.249 203.961 241.271  1.00  0.00    -0.394 OA
ATOM      4  H   UNL     1     203.505 203.409 240.913  1.00  0.00     0.210 HD
ENDBRANCH   2   3
ENDBRANCH   1   2
BRANCH   1   5
ATOM      5  C   UNL     1     202.996 201.539 242.596  1.00  0.00     0.190 C 
BRANCH   5   6
ATOM      6  O   UNL     1     202.800 201.482 241.209  1.00  0.00    -0.394 OA
ATOM      7  H   UNL     1     202.471 200.568 241.007  1.00  0.00     0.210 HD
ENDBRANCH   5   6
ENDBRANCH   1   5
BRANCH   1   8
ATOM      8  O   UNL     1     205.386 201.592 242.196  1.00  0.00    -0.388 OA
ATOM      9  H   UNL     1     205.847 200.957 242.805  1.00  0.00     0.211 HD
ENDBRANCH   1   8
TORSDOF 5
ENDMDL
MODEL 6
REMARK VINA RESULT:    -3.835      1.279      2.588
REMARK INTER + INTRA:          -4.637
REMARK INTER:                  -4.414
REMARK INTRA:                  -0.223
REMARK UNBOUND:                -0.017
REMARK SMILES OCC(O)CO
REMARK SMILES IDX 3 1 5 2 6 3 2 5 1 6 4 8
REMARK H PARENT 6 4 1 7 4 9
REMARK Flexibility Score: inf
ROOT
ATOM      1  C   UNL     1     202.915 203.307 242.361  1.00  0.00     0.165 C 
ENDROOT
BRANCH   1   2
ATOM      2  C   UNL     1     203.260 202.837 240.938  1.00  0.00     0.190 C 
BRANCH   2   3
ATOM      3  O   UNL     1     204.467 202.123 240.937  1.00  0.00    -0.394 OA
ATOM      4  H   UNL     1     205.038 202.530 241.641  1.00  0.00     0.210 HD
ENDBRANCH   2   3
ENDBRANCH   1   2
BRANCH   1   5
ATOM      5  C   UNL     1     204.020 204.213 242.929  1.00  0.00     0.190 C 
BRANCH   5   6
ATOM      6  O   UNL     1     204.661 204.911 241.896  1.00  0.00    -0.394 OA
ATOM      7  H   UNL     1     204.564 205.877 242.105  1.00  0.00     0.210 HD
ENDBRANCH   5   6
ENDBRANCH   1   5
BRANCH   1   8
ATOM      8  O   UNL     1     201.672 203.964 242.381  1.00  0.00    -0.388 OA
ATOM      9  H   UNL     1     201.838 204.925 242.184  1.00  0.00     0.211 HD
ENDBRANCH   1   8
TORSDOF 5
ENDMDL
MODEL 7
REMARK VINA RESULT:    -3.812      1.962      2.761
REMARK INTER + INTRA:          -4.609
REMARK INTER:                  -4.388
REMARK INTRA:                  -0.221
REMARK UNBOUND:                -0.017
REMARK SMILES OCC(O)CO
REMARK SMILES IDX 3 1 5 2 6 3 2 5 1 6 4 8
REMARK H PARENT 6 4 1 7 4 9
REMARK Flexibility Score: inf
ROOT
ATOM      1  C   UNL     1     203.058 202.156 242.128  1.00  0.00     0.165 C 
ENDROOT
BRANCH   1   2
ATOM      2  C   UNL     1     203.427 202.924 240.847  1.00  0.00     0.190 C 
BRANCH   2   3
ATOM      3  O   UNL     1     204.257 204.013 241.150  1.00  0.00    -0.394 OA
ATOM      4  H   UNL     1     203.774 204.829 240.854  1.00  0.00     0.210 HD
ENDBRANCH   2   3
ENDBRANCH   1   2
BRANCH   1   5
ATOM      5  C   UNL     1     202.201 203.022 243.066  1.00  0.00     0.190 C 
BRANCH   5   6
ATOM      6  O   UNL     1     201.513 204.002 242.337  1.00  0.00    -0.394 OA
ATOM      7  H   UNL     1     200.757 204.301 242.908  1.00  0.00     0.210 HD
ENDBRANCH   5   6
ENDBRANCH   1   5
BRANCH   1   8
ATOM      8  O   UNL     1     202.396 200.956 241.815  1.00  0.00    -0.388 OA
ATOM      9  H   UNL     1     203.055 200.217 241.905  1.00  0.00     0.211 HD
ENDBRANCH   1   8
TORSDOF 5
ENDMDL
MODEL 8
REMARK VINA RESULT:    -3.760      1.352      2.364
REMARK INTER + INTRA:          -4.547
REMARK INTER:                  -4.323
REMARK INTRA:                  -0.224
REMARK UNBOUND:                -0.017
REMARK SMILES OCC(O)CO
REMARK SMILES IDX 3 1 5 2 6 3 2 5 1 6 4 8
REMARK H PARENT 6 4 1 7 4 9
REMARK Flexibility Score: inf
ROOT
ATOM      1  C   UNL     1     203.999 203.492 242.020  1.00  0.00     0.165 C 
ENDROOT
BRANCH   1   2
ATOM      2  C   UNL     1     204.698 202.522 242.987  1.00  0.00     0.190 C 
BRANCH   2   3
ATOM      3  O   UNL     1     205.436 201.565 242.274  1.00  0.00    -0.394 OA
ATOM      4  H   UNL     1     205.198 201.680 241.317  1.00  0.00     0.210 HD
ENDBRANCH   2   3
ENDBRANCH   1   2
BRANCH   1   5
ATOM      5  C   UNL     1     203.483 202.755 240.773  1.00  0.00     0.190 C 
BRANCH   5   6
ATOM      6  O   UNL     1     202.727 201.634 241.142  1.00  0.00    -0.394 OA
ATOM      7  H   UNL     1     201.959 201.592 240.515  1.00  0.00     0.210 HD
ENDBRANCH   5   6
ENDBRANCH   1   5
BRANCH   1   8
ATOM      8  O   UNL     1     202.950 204.169 242.667  1.00  0.00    -0.388 OA
ATOM      9  H   UNL     1     203.352 204.741 243.374  1.00  0.00     0.211 HD
ENDBRANCH   1   8
TORSDOF 5
ENDMDL
MODEL 9
REMARK VINA RESULT:    -3.735      1.958      2.126
REMARK INTER + INTRA:          -4.516
REMARK INTER:                  -4.513
REMARK INTRA:                  -0.003
REMARK UNBOUND:                -0.017
REMARK SMILES OCC(O)CO
REMARK SMILES IDX 3 1 5 2 6 3 2 5 1 6 4 8
REMARK H PARENT 6 4 1 7 4 9
REMARK Flexibility Score: inf
ROOT
ATOM      1  C   UNL     1     203.206 202.707 242.089  1.00  0.00     0.165 C 
ENDROOT
BRANCH   1   2
ATOM      2  C   UNL     1     202.102 203.203 243.039  1.00  0.00     0.190 C 
BRANCH   2   3
ATOM      3  O   UNL     1     201.260 204.111 242.380  1.00  0.00    -0.394 OA
ATOM      4  H   UNL     1     200.338 203.927 242.701  1.00  0.00     0.210 HD
ENDBRANCH   2   3
ENDBRANCH   1   2
BRANCH   1   5
ATOM      5  C   UNL     1     204.527 202.483 242.844  1.00  0.00     0.190 C 
BRANCH   5   6
ATOM      6  O   UNL     1     205.336 201.569 242.156  1.00  0.00    -0.394 OA
ATOM      7  H   UNL     1     205.282 200.712 242.655  1.00  0.00     0.210 HD
ENDBRANCH   5   6
ENDBRANCH   1   5
BRANCH   1   8
ATOM      8  O   UNL     1     202.804 201.531 241.431  1.00  0.00    -0.388 OA
ATOM      9  H   UNL     1     202.065 201.772 240.811  1.00  0.00     0.211 HD
ENDBRANCH   1   8
TORSDOF 5
ENDMDL
