MODEL 1
REMARK VINA RESULT:    -5.070      0.000      0.000
REMARK INTER + INTRA:          -6.276
REMARK INTER:                  -5.960
REMARK INTRA:                  -0.316
REMARK UNBOUND:                -0.316
REMARK SMILES O=c1cc(-c2ccc(O)c(O)c2)oc2cc(O)cc(O)c12
REMARK SMILES IDX 4 1 3 2 2 3 1 4 21 5 19 6 18 7 16 8 15 9 14 10 13 11 5 12
REMARK SMILES IDX 6 13 7 14 8 15 12 16 10 17 9 18 11 20 20 22 17 24
REMARK H PARENT 9 19 11 21 20 23 17 25
REMARK Flexibility Score: inf
ROOT
ATOM      1  C   UNL     1       4.161  -4.028  -6.375  1.00  0.00     0.138 A 
ATOM      2  C   UNL     1       3.446  -4.963  -7.137  1.00  0.00     0.100 A 
ATOM      3  C   UNL     1       2.572  -4.520  -8.131  1.00  0.00     0.197 A 
ATOM      4  O   UNL     1       1.993  -5.384  -8.840  1.00  0.00    -0.289 OA
ATOM      5  C   UNL     1       2.389  -3.132  -8.339  1.00  0.00     0.107 A 
ATOM      6  C   UNL     1       1.494  -2.565  -9.294  1.00  0.00     0.134 A 
ATOM      7  C   UNL     1       1.484  -1.179  -9.492  1.00  0.00     0.093 A 
ATOM      8  C   UNL     1       2.291  -0.335  -8.725  1.00  0.00     0.123 A 
ATOM      9  C   UNL     1       3.129  -0.875  -7.753  1.00  0.00     0.094 A 
ATOM     10  C   UNL     1       3.187  -2.256  -7.556  1.00  0.00     0.146 A 
ATOM     11  O   UNL     1       4.011  -2.732  -6.627  1.00  0.00    -0.456 OA
ENDROOT
BRANCH   1  12
ATOM     12  C   UNL     1       5.103  -4.444  -5.305  1.00  0.00     0.021 A 
ATOM     13  C   UNL     1       5.128  -5.763  -4.814  1.00  0.00     0.016 A 
ATOM     14  C   UNL     1       6.018  -6.125  -3.800  1.00  0.00     0.051 A 
ATOM     15  C   UNL     1       6.891  -5.175  -3.253  1.00  0.00     0.157 A 
ATOM     16  C   UNL     1       5.973  -3.495  -4.741  1.00  0.00     0.062 A 
ATOM     17  C   UNL     1       6.867  -3.855  -3.726  1.00  0.00     0.158 A 
BRANCH  15  18
ATOM     18  O   UNL     1       7.779  -5.541  -2.241  1.00  0.00    -0.504 OA
ATOM     19  H   UNL     1       7.549  -5.419  -1.262  1.00  0.00     0.293 HD
ENDBRANCH  15  18
BRANCH  17  20
ATOM     20  O   UNL     1       7.720  -2.885  -3.200  1.00  0.00    -0.504 OA
ATOM     21  H   UNL     1       7.386  -2.146  -2.594  1.00  0.00     0.293 HD
ENDBRANCH  17  20
ENDBRANCH   1  12
BRANCH   6  22
ATOM     22  O   UNL     1       0.585  -3.310 -10.051  1.00  0.00    -0.507 OA
ATOM     23  H   UNL     1      -0.376  -3.053 -10.216  1.00  0.00     0.293 HD
ENDBRANCH   6  22
BRANCH   8  24
ATOM     24  O   UNL     1       2.263   1.045  -8.919  1.00  0.00    -0.508 OA
ATOM     25  H   UNL     1       2.907   1.504  -9.553  1.00  0.00     0.293 HD
ENDBRANCH   8  24
TORSDOF 5
ENDMDL
MODEL 2
REMARK VINA RESULT:    -4.857      4.051      6.652
REMARK INTER + INTRA:          -6.025
REMARK INTER:                  -5.709
REMARK INTRA:                  -0.316
REMARK UNBOUND:                -0.316
REMARK SMILES O=c1cc(-c2ccc(O)c(O)c2)oc2cc(O)cc(O)c12
REMARK SMILES IDX 4 1 3 2 2 3 1 4 21 5 19 6 18 7 16 8 15 9 14 10 13 11 5 12
REMARK SMILES IDX 6 13 7 14 8 15 12 16 10 17 9 18 11 20 20 22 17 24
REMARK H PARENT 9 19 11 21 20 23 17 25
REMARK Flexibility Score: inf
ROOT
ATOM      1  C   UNL     1       2.415  -0.853  -8.847  1.00  0.00     0.138 A 
ATOM      2  C   UNL     1       3.215  -1.974  -8.585  1.00  0.00     0.100 A 
ATOM      3  C   UNL     1       2.624  -3.234  -8.483  1.00  0.00     0.197 A 
ATOM      4  O   UNL     1       3.375  -4.229  -8.310  1.00  0.00    -0.289 OA
ATOM      5  C   UNL     1       1.221  -3.366  -8.612  1.00  0.00     0.107 A 
ATOM      6  C   UNL     1       0.505  -4.594  -8.485  1.00  0.00     0.134 A 
ATOM      7  C   UNL     1      -0.870  -4.621  -8.749  1.00  0.00     0.093 A 
ATOM      8  C   UNL     1      -1.565  -3.454  -9.074  1.00  0.00     0.123 A 
ATOM      9  C   UNL     1      -0.885  -2.241  -9.147  1.00  0.00     0.094 A 
ATOM     10  C   UNL     1       0.493  -2.187  -8.924  1.00  0.00     0.146 A 
ATOM     11  O   UNL     1       1.107  -1.012  -9.018  1.00  0.00    -0.456 OA
ENDROOT
BRANCH   1  12
ATOM     12  C   UNL     1       2.990   0.512  -8.965  1.00  0.00     0.021 A 
ATOM     13  C   UNL     1       4.381   0.726  -9.005  1.00  0.00     0.016 A 
ATOM     14  C   UNL     1       4.895   2.021  -9.107  1.00  0.00     0.051 A 
ATOM     15  C   UNL     1       4.032   3.123  -9.160  1.00  0.00     0.157 A 
ATOM     16  C   UNL     1       2.132   1.624  -9.006  1.00  0.00     0.062 A 
ATOM     17  C   UNL     1       2.644   2.922  -9.108  1.00  0.00     0.158 A 
BRANCH  15  18
ATOM     18  O   UNL     1       4.550   4.414  -9.263  1.00  0.00    -0.504 OA
ATOM     19  H   UNL     1       5.179   4.791  -8.564  1.00  0.00     0.293 HD
ENDBRANCH  15  18
BRANCH  17  20
ATOM     20  O   UNL     1       1.758   3.999  -9.156  1.00  0.00    -0.504 OA
ATOM     21  H   UNL     1       1.926   4.808  -9.740  1.00  0.00     0.293 HD
ENDBRANCH  17  20
ENDBRANCH   1  12
BRANCH   6  22
ATOM     22  O   UNL     1       1.088  -5.800  -8.084  1.00  0.00    -0.507 OA
ATOM     23  H   UNL     1       2.070  -5.932  -7.897  1.00  0.00     0.293 HD
ENDBRANCH   6  22
BRANCH   8  24
ATOM     24  O   UNL     1      -2.937  -3.489  -9.320  1.00  0.00    -0.508 OA
ATOM     25  H   UNL     1      -3.459  -2.645  -9.527  1.00  0.00     0.293 HD
ENDBRANCH   8  24
TORSDOF 5
ENDMDL
MODEL 3
REMARK VINA RESULT:    -4.766      3.722      6.482
REMARK INTER + INTRA:          -5.919
REMARK INTER:                  -5.601
REMARK INTRA:                  -0.318
REMARK UNBOUND:                -0.316
REMARK SMILES O=c1cc(-c2ccc(O)c(O)c2)oc2cc(O)cc(O)c12
REMARK SMILES IDX 4 1 3 2 2 3 1 4 21 5 19 6 18 7 16 8 15 9 14 10 13 11 5 12
REMARK SMILES IDX 6 13 7 14 8 15 12 16 10 17 9 18 11 20 20 22 17 24
REMARK H PARENT 9 19 11 21 20 23 17 25
REMARK Flexibility Score: inf
ROOT
ATOM      1  C   UNL     1       1.722  -2.499  -8.585  1.00  0.00     0.138 A 
ATOM      2  C   UNL     1       2.987  -2.876  -8.112  1.00  0.00     0.100 A 
ATOM      3  C   UNL     1       4.021  -1.940  -8.086  1.00  0.00     0.197 A 
ATOM      4  O   UNL     1       5.126  -2.291  -7.597  1.00  0.00    -0.289 OA
ATOM      5  C   UNL     1       3.795  -0.628  -8.567  1.00  0.00     0.107 A 
ATOM      6  C   UNL     1       4.786   0.397  -8.628  1.00  0.00     0.134 A 
ATOM      7  C   UNL     1       4.416   1.691  -9.015  1.00  0.00     0.093 A 
ATOM      8  C   UNL     1       3.105   1.981  -9.402  1.00  0.00     0.123 A 
ATOM      9  C   UNL     1       2.144   0.975  -9.398  1.00  0.00     0.094 A 
ATOM     10  C   UNL     1       2.473  -0.318  -8.984  1.00  0.00     0.146 A 
ATOM     11  O   UNL     1       1.522  -1.247  -8.981  1.00  0.00    -0.456 OA
ENDROOT
BRANCH   1  12
ATOM     12  C   UNL     1       0.586  -3.456  -8.636  1.00  0.00     0.021 A 
ATOM     13  C   UNL     1       0.763  -4.828  -8.376  1.00  0.00     0.016 A 
ATOM     14  C   UNL     1      -0.322  -5.706  -8.440  1.00  0.00     0.051 A 
ATOM     15  C   UNL     1      -1.597  -5.232  -8.773  1.00  0.00     0.157 A 
ATOM     16  C   UNL     1      -0.695  -2.991  -8.982  1.00  0.00     0.062 A 
ATOM     17  C   UNL     1      -1.783  -3.869  -9.046  1.00  0.00     0.158 A 
BRANCH  15  18
ATOM     18  O   UNL     1      -2.677  -6.113  -8.835  1.00  0.00    -0.504 OA
ATOM     19  H   UNL     1      -2.705  -6.959  -8.279  1.00  0.00     0.293 HD
ENDBRANCH  15  18
BRANCH  17  20
ATOM     20  O   UNL     1      -3.040  -3.366  -9.384  1.00  0.00    -0.504 OA
ATOM     21  H   UNL     1      -3.211  -2.374  -9.489  1.00  0.00     0.293 HD
ENDBRANCH  17  20
ENDBRANCH   1  12
BRANCH   6  22
ATOM     22  O   UNL     1       6.139   0.193  -8.344  1.00  0.00    -0.507 OA
ATOM     23  H   UNL     1       6.898   0.725  -8.742  1.00  0.00     0.293 HD
ENDBRANCH   6  22
BRANCH   8  24
ATOM     24  O   UNL     1       2.750   3.269  -9.799  1.00  0.00    -0.508 OA
ATOM     25  H   UNL     1       3.402   3.869 -10.293  1.00  0.00     0.293 HD
ENDBRANCH   8  24
TORSDOF 5
ENDMDL
MODEL 4
REMARK VINA RESULT:    -4.752     17.174     18.094
REMARK INTER + INTRA:          -5.901
REMARK INTER:                  -5.583
REMARK INTRA:                  -0.318
REMARK UNBOUND:                -0.316
REMARK SMILES O=c1cc(-c2ccc(O)c(O)c2)oc2cc(O)cc(O)c12
REMARK SMILES IDX 4 1 3 2 2 3 1 4 21 5 19 6 18 7 16 8 15 9 14 10 13 11 5 12
REMARK SMILES IDX 6 13 7 14 8 15 12 16 10 17 9 18 11 20 20 22 17 24
REMARK H PARENT 9 19 11 21 20 23 17 25
REMARK Flexibility Score: inf
ROOT
ATOM      1  C   UNL     1     -12.069   4.238  -4.860  1.00  0.00     0.138 A 
ATOM      2  C   UNL     1     -12.066   5.430  -5.597  1.00  0.00     0.100 A 
ATOM      3  C   UNL     1     -12.042   5.380  -6.991  1.00  0.00     0.197 A 
ATOM      4  O   UNL     1     -12.104   6.464  -7.626  1.00  0.00    -0.289 OA
ATOM      5  C   UNL     1     -11.988   4.127  -7.649  1.00  0.00     0.107 A 
ATOM      6  C   UNL     1     -11.917   3.955  -9.064  1.00  0.00     0.134 A 
ATOM      7  C   UNL     1     -11.986   2.665  -9.605  1.00  0.00     0.093 A 
ATOM      8  C   UNL     1     -12.060   1.540  -8.781  1.00  0.00     0.123 A 
ATOM      9  C   UNL     1     -12.074   1.695  -7.398  1.00  0.00     0.094 A 
ATOM     10  C   UNL     1     -12.042   2.970  -6.828  1.00  0.00     0.146 A 
ATOM     11  O   UNL     1     -12.072   3.075  -5.503  1.00  0.00    -0.456 OA
ENDROOT
BRANCH   1  12
ATOM     12  C   UNL     1     -12.093   4.234  -3.375  1.00  0.00     0.021 A 
ATOM     13  C   UNL     1     -12.108   5.430  -2.632  1.00  0.00     0.016 A 
ATOM     14  C   UNL     1     -12.121   5.396  -1.236  1.00  0.00     0.051 A 
ATOM     15  C   UNL     1     -12.110   4.171  -0.557  1.00  0.00     0.157 A 
ATOM     16  C   UNL     1     -12.069   3.009  -2.685  1.00  0.00     0.062 A 
ATOM     17  C   UNL     1     -12.083   2.973  -1.286  1.00  0.00     0.158 A 
BRANCH  15  18
ATOM     18  O   UNL     1     -12.124   4.143   0.837  1.00  0.00    -0.504 OA
ATOM     19  H   UNL     1     -12.758   3.542   1.351  1.00  0.00     0.293 HD
ENDBRANCH  15  18
BRANCH  17  20
ATOM     20  O   UNL     1     -12.069   1.736  -0.641  1.00  0.00    -0.504 OA
ATOM     21  H   UNL     1     -11.943   1.654   0.360  1.00  0.00     0.293 HD
ENDBRANCH  17  20
ENDBRANCH   1  12
BRANCH   6  22
ATOM     22  O   UNL     1     -11.758   5.005  -9.972  1.00  0.00    -0.507 OA
ATOM     23  H   UNL     1     -10.920   5.558 -10.073  1.00  0.00     0.293 HD
ENDBRANCH   6  22
BRANCH   8  24
ATOM     24  O   UNL     1     -12.112   0.260  -9.330  1.00  0.00    -0.508 OA
ATOM     25  H   UNL     1     -12.843  -0.008  -9.979  1.00  0.00     0.293 HD
ENDBRANCH   8  24
TORSDOF 5
ENDMDL
MODEL 5
REMARK VINA RESULT:    -4.722      2.932      6.816
REMARK INTER + INTRA:          -5.866
REMARK INTER:                  -5.580
REMARK INTRA:                  -0.286
REMARK UNBOUND:                -0.316
REMARK SMILES O=c1cc(-c2ccc(O)c(O)c2)oc2cc(O)cc(O)c12
REMARK SMILES IDX 4 1 3 2 2 3 1 4 21 5 19 6 18 7 16 8 15 9 14 10 13 11 5 12
REMARK SMILES IDX 6 13 7 14 8 15 12 16 10 17 9 18 11 20 20 22 17 24
REMARK H PARENT 9 19 11 21 20 23 17 25
REMARK Flexibility Score: inf
ROOT
ATOM      1  C   UNL     1       1.610  -2.358  -8.596  1.00  0.00     0.138 A 
ATOM      2  C   UNL     1       1.596  -1.170  -9.340  1.00  0.00     0.100 A 
ATOM      3  C   UNL     1       2.652  -0.266  -9.217  1.00  0.00     0.197 A 
ATOM      4  O   UNL     1       2.642   0.761  -9.944  1.00  0.00    -0.289 OA
ATOM      5  C   UNL     1       3.711  -0.540  -8.319  1.00  0.00     0.107 A 
ATOM      6  C   UNL     1       4.818   0.328  -8.080  1.00  0.00     0.134 A 
ATOM      7  C   UNL     1       5.866  -0.102  -7.255  1.00  0.00     0.093 A 
ATOM      8  C   UNL     1       5.816  -1.341  -6.613  1.00  0.00     0.123 A 
ATOM      9  C   UNL     1       4.714  -2.172  -6.797  1.00  0.00     0.094 A 
ATOM     10  C   UNL     1       3.670  -1.787  -7.641  1.00  0.00     0.146 A 
ATOM     11  O   UNL     1       2.642  -2.616  -7.801  1.00  0.00    -0.456 OA
ENDROOT
BRANCH   1  12
ATOM     12  C   UNL     1       0.512  -3.354  -8.688  1.00  0.00     0.021 A 
ATOM     13  C   UNL     1       0.746  -4.731  -8.510  1.00  0.00     0.016 A 
ATOM     14  C   UNL     1      -0.304  -5.647  -8.611  1.00  0.00     0.051 A 
ATOM     15  C   UNL     1      -1.602  -5.206  -8.900  1.00  0.00     0.157 A 
ATOM     16  C   UNL     1      -0.791  -2.922  -8.990  1.00  0.00     0.062 A 
ATOM     17  C   UNL     1      -1.845  -3.838  -9.092  1.00  0.00     0.158 A 
BRANCH  15  18
ATOM     18  O   UNL     1      -2.648  -6.124  -8.999  1.00  0.00    -0.504 OA
ATOM     19  H   UNL     1      -2.611  -6.904  -9.644  1.00  0.00     0.293 HD
ENDBRANCH  15  18
BRANCH  17  20
ATOM     20  O   UNL     1      -3.125  -3.367  -9.384  1.00  0.00    -0.504 OA
ATOM     21  H   UNL     1      -3.951  -3.739  -8.932  1.00  0.00     0.293 HD
ENDBRANCH  17  20
ENDBRANCH   1  12
BRANCH   6  22
ATOM     22  O   UNL     1       4.926   1.619  -8.604  1.00  0.00    -0.507 OA
ATOM     23  H   UNL     1       4.783   1.862  -9.572  1.00  0.00     0.293 HD
ENDBRANCH   6  22
BRANCH   8  24
ATOM     24  O   UNL     1       6.856  -1.754  -5.782  1.00  0.00    -0.508 OA
ATOM     25  H   UNL     1       6.787  -1.687  -4.773  1.00  0.00     0.293 HD
ENDBRANCH   8  24
TORSDOF 5
ENDMDL
MODEL 6
REMARK VINA RESULT:    -4.696      4.087      7.577
REMARK INTER + INTRA:          -5.836
REMARK INTER:                  -5.559
REMARK INTRA:                  -0.277
REMARK UNBOUND:                -0.316
REMARK SMILES O=c1cc(-c2ccc(O)c(O)c2)oc2cc(O)cc(O)c12
REMARK SMILES IDX 4 1 3 2 2 3 1 4 21 5 19 6 18 7 16 8 15 9 14 10 13 11 5 12
REMARK SMILES IDX 6 13 7 14 8 15 12 16 10 17 9 18 11 20 20 22 17 24
REMARK H PARENT 9 19 11 21 20 23 17 25
REMARK Flexibility Score: inf
ROOT
ATOM      1  C   UNL     1       3.135   1.684  -9.074  1.00  0.00     0.138 A 
ATOM      2  C   UNL     1       4.492   2.035  -9.053  1.00  0.00     0.100 A 
ATOM      3  C   UNL     1       4.859   3.377  -9.165  1.00  0.00     0.197 A 
ATOM      4  O   UNL     1       6.081   3.666  -9.081  1.00  0.00    -0.289 OA
ATOM      5  C   UNL     1       3.862   4.368  -9.332  1.00  0.00     0.107 A 
ATOM      6  C   UNL     1       4.122   5.761  -9.498  1.00  0.00     0.134 A 
ATOM      7  C   UNL     1       3.050   6.662  -9.537  1.00  0.00     0.093 A 
ATOM      8  C   UNL     1       1.729   6.213  -9.478  1.00  0.00     0.123 A 
ATOM      9  C   UNL     1       1.464   4.851  -9.370  1.00  0.00     0.094 A 
ATOM     10  C   UNL     1       2.512   3.930  -9.294  1.00  0.00     0.146 A 
ATOM     11  O   UNL     1       2.217   2.639  -9.177  1.00  0.00    -0.456 OA
ENDROOT
BRANCH   1  12
ATOM     12  C   UNL     1       2.688   0.272  -8.959  1.00  0.00     0.021 A 
ATOM     13  C   UNL     1       1.641  -0.239  -9.750  1.00  0.00     0.016 A 
ATOM     14  C   UNL     1       1.235  -1.568  -9.615  1.00  0.00     0.051 A 
ATOM     15  C   UNL     1       1.860  -2.408  -8.683  1.00  0.00     0.157 A 
ATOM     16  C   UNL     1       3.300  -0.574  -8.018  1.00  0.00     0.062 A 
ATOM     17  C   UNL     1       2.896  -1.906  -7.881  1.00  0.00     0.158 A 
BRANCH  15  18
ATOM     18  O   UNL     1       1.452  -3.735  -8.553  1.00  0.00    -0.504 OA
ATOM     19  H   UNL     1       1.775  -4.318  -7.790  1.00  0.00     0.293 HD
ENDBRANCH  15  18
BRANCH  17  20
ATOM     20  O   UNL     1       3.536  -2.715  -6.941  1.00  0.00    -0.504 OA
ATOM     21  H   UNL     1       3.030  -3.174  -6.194  1.00  0.00     0.293 HD
ENDBRANCH  17  20
ENDBRANCH   1  12
BRANCH   6  22
ATOM     22  O   UNL     1       5.400   6.304  -9.653  1.00  0.00    -0.507 OA
ATOM     23  H   UNL     1       5.993   6.165 -10.457  1.00  0.00     0.293 HD
ENDBRANCH   6  22
BRANCH   8  24
ATOM     24  O   UNL     1       0.668   7.117  -9.532  1.00  0.00    -0.508 OA
ATOM     25  H   UNL     1       0.536   7.821  -8.816  1.00  0.00     0.293 HD
ENDBRANCH   8  24
TORSDOF 5
ENDMDL
MODEL 7
REMARK VINA RESULT:    -4.635     16.879     19.415
REMARK INTER + INTRA:          -5.764
REMARK INTER:                  -5.470
REMARK INTRA:                  -0.293
REMARK UNBOUND:                -0.316
REMARK SMILES O=c1cc(-c2ccc(O)c(O)c2)oc2cc(O)cc(O)c12
REMARK SMILES IDX 4 1 3 2 2 3 1 4 21 5 19 6 18 7 16 8 15 9 14 10 13 11 5 12
REMARK SMILES IDX 6 13 7 14 8 15 12 16 10 17 9 18 11 20 20 22 17 24
REMARK H PARENT 9 19 11 21 20 23 17 25
REMARK Flexibility Score: inf
ROOT
ATOM      1  C   UNL     1     -11.951   5.497  -4.654  1.00  0.00     0.138 A 
ATOM      2  C   UNL     1     -12.090   6.230  -3.467  1.00  0.00     0.100 A 
ATOM      3  C   UNL     1     -12.040   5.569  -2.239  1.00  0.00     0.197 A 
ATOM      4  O   UNL     1     -12.105   6.261  -1.190  1.00  0.00    -0.289 OA
ATOM      5  C   UNL     1     -11.882   4.163  -2.202  1.00  0.00     0.107 A 
ATOM      6  C   UNL     1     -11.859   3.379  -1.010  1.00  0.00     0.134 A 
ATOM      7  C   UNL     1     -11.579   2.009  -1.092  1.00  0.00     0.093 A 
ATOM      8  C   UNL     1     -11.384   1.385  -2.326  1.00  0.00     0.123 A 
ATOM      9  C   UNL     1     -11.459   2.132  -3.498  1.00  0.00     0.094 A 
ATOM     10  C   UNL     1     -11.701   3.506  -3.448  1.00  0.00     0.146 A 
ATOM     11  O   UNL     1     -11.750   4.186  -4.590  1.00  0.00    -0.456 OA
ENDROOT
BRANCH   1  12
ATOM     12  C   UNL     1     -11.998   6.149  -5.988  1.00  0.00     0.021 A 
ATOM     13  C   UNL     1     -12.081   5.398  -7.176  1.00  0.00     0.016 A 
ATOM     14  C   UNL     1     -12.114   6.037  -8.417  1.00  0.00     0.051 A 
ATOM     15  C   UNL     1     -12.057   7.435  -8.496  1.00  0.00     0.157 A 
ATOM     16  C   UNL     1     -11.928   7.551  -6.077  1.00  0.00     0.062 A 
ATOM     17  C   UNL     1     -11.962   8.193  -7.320  1.00  0.00     0.158 A 
BRANCH  15  18
ATOM     18  O   UNL     1     -12.092   8.068  -9.738  1.00  0.00    -0.504 OA
ATOM     19  H   UNL     1     -12.181   9.074  -9.819  1.00  0.00     0.293 HD
ENDBRANCH  15  18
BRANCH  17  20
ATOM     20  O   UNL     1     -11.900   9.586  -7.364  1.00  0.00    -0.504 OA
ATOM     21  H   UNL     1     -12.035  10.104  -8.223  1.00  0.00     0.293 HD
ENDBRANCH  17  20
ENDBRANCH   1  12
BRANCH   6  22
ATOM     22  O   UNL     1     -12.124   3.887   0.264  1.00  0.00    -0.507 OA
ATOM     23  H   UNL     1     -11.423   4.207   0.916  1.00  0.00     0.293 HD
ENDBRANCH   6  22
BRANCH   8  24
ATOM     24  O   UNL     1     -11.121   0.018  -2.397  1.00  0.00    -0.508 OA
ATOM     25  H   UNL     1     -11.343  -0.605  -1.629  1.00  0.00     0.293 HD
ENDBRANCH   8  24
TORSDOF 5
ENDMDL
MODEL 8
REMARK VINA RESULT:    -4.566     21.275     21.789
REMARK INTER + INTRA:          -5.684
REMARK INTER:                  -5.415
REMARK INTRA:                  -0.268
REMARK UNBOUND:                -0.316
REMARK SMILES O=c1cc(-c2ccc(O)c(O)c2)oc2cc(O)cc(O)c12
REMARK SMILES IDX 4 1 3 2 2 3 1 4 21 5 19 6 18 7 16 8 15 9 14 10 13 11 5 12
REMARK SMILES IDX 6 13 7 14 8 15 12 16 10 17 9 18 11 20 20 22 17 24
REMARK H PARENT 9 19 11 21 20 23 17 25
REMARK Flexibility Score: inf
ROOT
ATOM      1  C   UNL     1      -9.939   1.302   8.331  1.00  0.00     0.138 A 
ATOM      2  C   UNL     1      -8.804   1.607   9.096  1.00  0.00     0.100 A 
ATOM      3  C   UNL     1      -8.505   2.939   9.385  1.00  0.00     0.197 A 
ATOM      4  O   UNL     1      -7.516   3.177  10.125  1.00  0.00    -0.289 OA
ATOM      5  C   UNL     1      -9.330   3.971   8.878  1.00  0.00     0.107 A 
ATOM      6  C   UNL     1      -9.098   5.366   9.074  1.00  0.00     0.134 A 
ATOM      7  C   UNL     1     -10.047   6.292   8.623  1.00  0.00     0.093 A 
ATOM      8  C   UNL     1     -11.187   5.878   7.931  1.00  0.00     0.123 A 
ATOM      9  C   UNL     1     -11.395   4.523   7.687  1.00  0.00     0.094 A 
ATOM     10  C   UNL     1     -10.484   3.572   8.154  1.00  0.00     0.146 A 
ATOM     11  O   UNL     1     -10.727   2.287   7.913  1.00  0.00    -0.456 OA
ENDROOT
BRANCH   1  12
ATOM     12  C   UNL     1     -10.304  -0.098   7.993  1.00  0.00     0.021 A 
ATOM     13  C   UNL     1     -10.530  -0.502   6.664  1.00  0.00     0.016 A 
ATOM     14  C   UNL     1     -10.881  -1.823   6.375  1.00  0.00     0.051 A 
ATOM     15  C   UNL     1     -11.021  -2.760   7.407  1.00  0.00     0.157 A 
ATOM     16  C   UNL     1     -10.459  -1.041   9.024  1.00  0.00     0.062 A 
ATOM     17  C   UNL     1     -10.810  -2.366   8.737  1.00  0.00     0.158 A 
BRANCH  15  18
ATOM     18  O   UNL     1     -11.371  -4.078   7.114  1.00  0.00    -0.504 OA
ATOM     19  H   UNL     1     -11.086  -4.524   6.250  1.00  0.00     0.293 HD
ENDBRANCH  15  18
BRANCH  17  20
ATOM     20  O   UNL     1     -10.944  -3.273   9.788  1.00  0.00    -0.504 OA
ATOM     21  H   UNL     1     -11.343  -4.194   9.655  1.00  0.00     0.293 HD
ENDBRANCH  17  20
ENDBRANCH   1  12
BRANCH   6  22
ATOM     22  O   UNL     1      -7.952   5.890   9.678  1.00  0.00    -0.507 OA
ATOM     23  H   UNL     1      -7.177   6.304   9.182  1.00  0.00     0.293 HD
ENDBRANCH   6  22
BRANCH   8  24
ATOM     24  O   UNL     1     -12.119   6.808   7.473  1.00  0.00    -0.508 OA
ATOM     25  H   UNL     1     -11.916   7.802   7.468  1.00  0.00     0.293 HD
ENDBRANCH   8  24
TORSDOF 5
ENDMDL
