MODEL 1
REMARK VINA RESULT:    -3.300      0.000      0.000
REMARK INTER + INTRA:          -4.131
REMARK INTER:                  -3.975
REMARK INTRA:                  -0.156
REMARK UNBOUND:                -0.156
REMARK SMILES OCC(O)CO
REMARK SMILES IDX 3 1 5 2 6 3 2 5 1 6 4 8
REMARK H PARENT 6 4 1 7 4 9
REMARK Flexibility Score: inf
ROOT
ATOM      1  C   UNL     1       2.122  -0.886   8.548  1.00  0.00     0.165 C 
ENDROOT
BRANCH   1   2
ATOM      2  C   UNL     1       0.722  -0.441   9.003  1.00  0.00     0.190 C 
BRANCH   2   3
ATOM      3  O   UNL     1       0.607   0.955   8.952  1.00  0.00    -0.394 OA
ATOM      4  H   UNL     1       1.516   1.321   9.111  1.00  0.00     0.210 HD
ENDBRANCH   2   3
ENDBRANCH   1   2
BRANCH   1   5
ATOM      5  C   UNL     1       2.067  -1.462   7.128  1.00  0.00     0.190 C 
BRANCH   5   6
ATOM      6  O   UNL     1       0.852  -1.127   6.512  1.00  0.00    -0.394 OA
ATOM      7  H   UNL     1       0.782  -1.684   5.693  1.00  0.00     0.210 HD
ENDBRANCH   5   6
ENDBRANCH   1   5
BRANCH   1   8
ATOM      8  O   UNL     1       3.001   0.210   8.569  1.00  0.00    -0.388 OA
ATOM      9  H   UNL     1       2.554   0.947   8.076  1.00  0.00     0.211 HD
ENDBRANCH   1   8
TORSDOF 5
ENDMDL
MODEL 2
REMARK VINA RESULT:    -3.253      1.008      2.555
REMARK INTER + INTRA:          -4.074
REMARK INTER:                  -3.913
REMARK INTRA:                  -0.161
REMARK UNBOUND:                -0.156
REMARK SMILES OCC(O)CO
REMARK SMILES IDX 3 1 5 2 6 3 2 5 1 6 4 8
REMARK H PARENT 6 4 1 7 4 9
REMARK Flexibility Score: inf
ROOT
ATOM      1  C   UNL     1       2.218  -0.952   8.325  1.00  0.00     0.165 C 
ENDROOT
BRANCH   1   2
ATOM      2  C   UNL     1       2.070  -1.185   6.813  1.00  0.00     0.190 C 
BRANCH   2   3
ATOM      3  O   UNL     1       0.716  -1.215   6.448  1.00  0.00    -0.394 OA
ATOM      4  H   UNL     1       0.502  -0.318   6.080  1.00  0.00     0.210 HD
ENDBRANCH   2   3
ENDBRANCH   1   2
BRANCH   1   5
ATOM      5  C   UNL     1       0.879  -0.516   8.934  1.00  0.00     0.190 C 
BRANCH   5   6
ATOM      6  O   UNL     1       0.749   0.879   8.880  1.00  0.00    -0.394 OA
ATOM      7  H   UNL     1       0.432   1.173   9.774  1.00  0.00     0.210 HD
ENDBRANCH   5   6
ENDBRANCH   1   5
BRANCH   1   8
ATOM      8  O   UNL     1       2.648  -2.133   8.951  1.00  0.00    -0.388 OA
ATOM      9  H   UNL     1       2.249  -2.139   9.860  1.00  0.00     0.211 HD
ENDBRANCH   1   8
TORSDOF 5
ENDMDL
MODEL 3
REMARK VINA RESULT:    -3.226      9.057      9.782
REMARK INTER + INTRA:          -4.042
REMARK INTER:                  -3.828
REMARK INTRA:                  -0.214
REMARK UNBOUND:                -0.156
REMARK SMILES OCC(O)CO
REMARK SMILES IDX 3 1 5 2 6 3 2 5 1 6 4 8
REMARK H PARENT 6 4 1 7 4 9
REMARK Flexibility Score: inf
ROOT
ATOM      1  C   UNL     1      10.190   5.504   7.890  1.00  0.00     0.165 C 
ENDROOT
BRANCH   1   2
ATOM      2  C   UNL     1       9.725   5.121   9.304  1.00  0.00     0.190 C 
BRANCH   2   3
ATOM      3  O   UNL     1       8.587   5.856   9.666  1.00  0.00    -0.394 OA
ATOM      4  H   UNL     1       8.131   6.108   8.821  1.00  0.00     0.210 HD
ENDBRANCH   2   3
ENDBRANCH   1   2
BRANCH   1   5
ATOM      5  C   UNL     1       9.611   4.532   6.853  1.00  0.00     0.190 C 
BRANCH   5   6
ATOM      6  O   UNL     1       8.525   3.830   7.396  1.00  0.00    -0.394 OA
ATOM      7  H   UNL     1       8.716   3.708   8.363  1.00  0.00     0.210 HD
ENDBRANCH   5   6
ENDBRANCH   1   5
BRANCH   1   8
ATOM      8  O   UNL     1       9.767   6.809   7.586  1.00  0.00    -0.388 OA
ATOM      9  H   UNL     1      10.587   7.360   7.479  1.00  0.00     0.211 HD
ENDBRANCH   1   8
TORSDOF 5
ENDMDL
MODEL 4
REMARK VINA RESULT:    -3.214      9.762     10.520
REMARK INTER + INTRA:          -4.028
REMARK INTER:                  -4.025
REMARK INTRA:                  -0.002
REMARK UNBOUND:                -0.156
REMARK SMILES OCC(O)CO
REMARK SMILES IDX 3 1 5 2 6 3 2 5 1 6 4 8
REMARK H PARENT 6 4 1 7 4 9
REMARK Flexibility Score: inf
ROOT
ATOM      1  C   UNL     1      10.204   5.953   7.516  1.00  0.00     0.165 C 
ENDROOT
BRANCH   1   2
ATOM      2  C   UNL     1       9.558   4.879   8.406  1.00  0.00     0.190 C 
BRANCH   2   3
ATOM      3  O   UNL     1       8.747   5.471   9.385  1.00  0.00    -0.394 OA
ATOM      4  H   UNL     1       8.951   6.443   9.373  1.00  0.00     0.210 HD
ENDBRANCH   2   3
ENDBRANCH   1   2
BRANCH   1   5
ATOM      5  C   UNL     1      10.255   5.480   6.058  1.00  0.00     0.190 C 
BRANCH   5   6
ATOM      6  O   UNL     1      10.285   6.580   5.188  1.00  0.00    -0.394 OA
ATOM      7  H   UNL     1       9.835   6.296   4.350  1.00  0.00     0.210 HD
ENDBRANCH   5   6
ENDBRANCH   1   5
BRANCH   1   8
ATOM      8  O   UNL     1       9.463   7.143   7.591  1.00  0.00    -0.388 OA
ATOM      9  H   UNL     1       8.516   6.885   7.739  1.00  0.00     0.211 HD
ENDBRANCH   1   8
TORSDOF 5
ENDMDL
MODEL 5
REMARK VINA RESULT:    -3.209      0.720      2.523
REMARK INTER + INTRA:          -4.022
REMARK INTER:                  -3.822
REMARK INTRA:                  -0.200
REMARK UNBOUND:                -0.156
REMARK SMILES OCC(O)CO
REMARK SMILES IDX 3 1 5 2 6 3 2 5 1 6 4 8
REMARK H PARENT 6 4 1 7 4 9
REMARK Flexibility Score: inf
ROOT
ATOM      1  C   UNL     1       1.783  -1.165   7.957  1.00  0.00     0.165 C 
ENDROOT
BRANCH   1   2
ATOM      2  C   UNL     1       3.249  -0.964   8.373  1.00  0.00     0.190 C 
BRANCH   2   3
ATOM      3  O   UNL     1       3.548   0.402   8.482  1.00  0.00    -0.394 OA
ATOM      4  H   UNL     1       4.536   0.481   8.430  1.00  0.00     0.210 HD
ENDBRANCH   2   3
ENDBRANCH   1   2
BRANCH   1   5
ATOM      5  C   UNL     1       0.842  -0.498   8.970  1.00  0.00     0.190 C 
BRANCH   5   6
ATOM      6  O   UNL     1       0.856   0.894   8.805  1.00  0.00    -0.394 OA
ATOM      7  H   UNL     1       1.756   1.134   8.462  1.00  0.00     0.210 HD
ENDBRANCH   5   6
ENDBRANCH   1   5
BRANCH   1   8
ATOM      8  O   UNL     1       1.566  -0.606   6.687  1.00  0.00    -0.388 OA
ATOM      9  H   UNL     1       2.354  -0.841   6.131  1.00  0.00     0.211 HD
ENDBRANCH   1   8
TORSDOF 5
ENDMDL
MODEL 6
REMARK VINA RESULT:    -3.165      9.073     10.081
REMARK INTER + INTRA:          -3.968
REMARK INTER:                  -3.788
REMARK INTRA:                  -0.181
REMARK UNBOUND:                -0.156
REMARK SMILES OCC(O)CO
REMARK SMILES IDX 3 1 5 2 6 3 2 5 1 6 4 8
REMARK H PARENT 6 4 1 7 4 9
REMARK Flexibility Score: inf
ROOT
ATOM      1  C   UNL     1       9.762   4.497   8.041  1.00  0.00     0.165 C 
ENDROOT
BRANCH   1   2
ATOM      2  C   UNL     1      10.085   5.632   7.057  1.00  0.00     0.190 C 
BRANCH   2   3
ATOM      3  O   UNL     1      10.043   6.874   7.706  1.00  0.00    -0.394 OA
ATOM      4  H   UNL     1       9.210   6.884   8.247  1.00  0.00     0.210 HD
ENDBRANCH   2   3
ENDBRANCH   1   2
BRANCH   1   5
ATOM      5  C   UNL     1       9.713   5.030   9.478  1.00  0.00     0.190 C 
BRANCH   5   6
ATOM      6  O   UNL     1       8.550   5.788   9.679  1.00  0.00    -0.394 OA
ATOM      7  H   UNL     1       8.408   5.841  10.660  1.00  0.00     0.210 HD
ENDBRANCH   5   6
ENDBRANCH   1   5
BRANCH   1   8
ATOM      8  O   UNL     1       8.521   3.924   7.718  1.00  0.00    -0.388 OA
ATOM      9  H   UNL     1       8.145   3.556   8.561  1.00  0.00     0.211 HD
ENDBRANCH   1   8
TORSDOF 5
ENDMDL
MODEL 7
REMARK VINA RESULT:    -3.120     10.724     10.988
REMARK INTER + INTRA:          -3.914
REMARK INTER:                  -3.912
REMARK INTRA:                  -0.003
REMARK UNBOUND:                -0.156
REMARK SMILES OCC(O)CO
REMARK SMILES IDX 3 1 5 2 6 3 2 5 1 6 4 8
REMARK H PARENT 6 4 1 7 4 9
REMARK Flexibility Score: inf
ROOT
ATOM      1  C   UNL     1      10.783   5.581   6.149  1.00  0.00     0.165 C 
ENDROOT
BRANCH   1   2
ATOM      2  C   UNL     1       9.959   5.612   7.446  1.00  0.00     0.190 C 
BRANCH   2   3
ATOM      3  O   UNL     1       9.874   6.919   7.945  1.00  0.00    -0.394 OA
ATOM      4  H   UNL     1       8.917   7.181   7.893  1.00  0.00     0.210 HD
ENDBRANCH   2   3
ENDBRANCH   1   2
BRANCH   1   5
ATOM      5  C   UNL     1      10.427   4.341   5.318  1.00  0.00     0.190 C 
BRANCH   5   6
ATOM      6  O   UNL     1      11.569   3.558   5.097  1.00  0.00    -0.394 OA
ATOM      7  H   UNL     1      11.252   2.671   4.782  1.00  0.00     0.210 HD
ENDBRANCH   5   6
ENDBRANCH   1   5
BRANCH   1   8
ATOM      8  O   UNL     1      10.524   6.735   5.391  1.00  0.00    -0.388 OA
ATOM      9  H   UNL     1       9.972   6.453   4.615  1.00  0.00     0.211 HD
ENDBRANCH   1   8
TORSDOF 5
ENDMDL
MODEL 8
REMARK VINA RESULT:    -3.037      8.764      9.748
REMARK INTER + INTRA:          -3.814
REMARK INTER:                  -3.811
REMARK INTRA:                  -0.003
REMARK UNBOUND:                -0.156
REMARK SMILES OCC(O)CO
REMARK SMILES IDX 3 1 5 2 6 3 2 5 1 6 4 8
REMARK H PARENT 6 4 1 7 4 9
REMARK Flexibility Score: inf
ROOT
ATOM      1  C   UNL     1       9.698   4.862   8.810  1.00  0.00     0.165 C 
ENDROOT
BRANCH   1   2
ATOM      2  C   UNL     1       9.025   3.522   8.472  1.00  0.00     0.190 C 
BRANCH   2   3
ATOM      3  O   UNL     1       8.875   2.740   9.625  1.00  0.00    -0.394 OA
ATOM      4  H   UNL     1       9.717   2.224   9.731  1.00  0.00     0.210 HD
ENDBRANCH   2   3
ENDBRANCH   1   2
BRANCH   1   5
ATOM      5  C   UNL     1      10.001   5.649   7.529  1.00  0.00     0.190 C 
BRANCH   5   6
ATOM      6  O   UNL     1       9.626   6.992   7.681  1.00  0.00    -0.394 OA
ATOM      7  H   UNL     1       9.335   7.312   6.787  1.00  0.00     0.210 HD
ENDBRANCH   5   6
ENDBRANCH   1   5
BRANCH   1   8
ATOM      8  O   UNL     1       8.854   5.625   9.633  1.00  0.00    -0.388 OA
ATOM      9  H   UNL     1       8.370   4.987  10.220  1.00  0.00     0.211 HD
ENDBRANCH   1   8
TORSDOF 5
ENDMDL
MODEL 9
REMARK VINA RESULT:    -3.031      9.125      9.969
REMARK INTER + INTRA:          -3.807
REMARK INTER:                  -3.804
REMARK INTRA:                  -0.003
REMARK UNBOUND:                -0.156
REMARK SMILES OCC(O)CO
REMARK SMILES IDX 3 1 5 2 6 3 2 5 1 6 4 8
REMARK H PARENT 6 4 1 7 4 9
REMARK Flexibility Score: inf
ROOT
ATOM      1  C   UNL     1       9.273   4.988   9.409  1.00  0.00     0.165 C 
ENDROOT
BRANCH   1   2
ATOM      2  C   UNL     1       9.901   5.437   8.080  1.00  0.00     0.190 C 
BRANCH   2   3
ATOM      3  O   UNL     1       9.868   6.834   7.965  1.00  0.00    -0.394 OA
ATOM      4  H   UNL     1      10.433   7.193   8.698  1.00  0.00     0.210 HD
ENDBRANCH   2   3
ENDBRANCH   1   2
BRANCH   1   5
ATOM      5  C   UNL     1       9.976   3.729   9.935  1.00  0.00     0.190 C 
BRANCH   5   6
ATOM      6  O   UNL     1       9.082   2.649   9.967  1.00  0.00    -0.394 OA
ATOM      7  H   UNL     1       8.539   2.750  10.792  1.00  0.00     0.210 HD
ENDBRANCH   5   6
ENDBRANCH   1   5
BRANCH   1   8
ATOM      8  O   UNL     1       9.387   6.013  10.362  1.00  0.00    -0.388 OA
ATOM      9  H   UNL     1      10.078   6.643  10.027  1.00  0.00     0.211 HD
ENDBRANCH   1   8
TORSDOF 5
ENDMDL
