MODEL 1
REMARK VINA RESULT:    40.414      0.000      0.000
REMARK INTER + INTRA:          48.839
REMARK INTER:                  48.683
REMARK INTRA:                   0.156
REMARK UNBOUND:                 0.156
REMARK SMILES O=c1c(O)c(-c2ccc(O)c(O)c2)oc2cc(O)cc(O)c12
REMARK SMILES IDX 5 1 3 2 2 3 1 4 22 5 20 6 19 7 17 8 16 9 15 10 14 11 6 12
REMARK SMILES IDX 7 13 8 14 9 15 13 16 11 17 10 18 12 20 4 22 21 24 18 26
REMARK H PARENT 10 19 12 21 4 23 21 25 18 27
REMARK Flexibility Score: inf
ROOT
ATOM      1  C   UNL     1      18.020  24.516   7.311  1.00  0.00     0.180 A 
ATOM      2  C   UNL     1      18.120  25.881   6.988  1.00  0.00     0.208 A 
ATOM      3  C   UNL     1      18.985  26.276   5.955  1.00  0.00     0.238 A 
ATOM      4  O   UNL     1      19.125  27.505   5.722  1.00  0.00    -0.285 OA
ATOM      5  C   UNL     1      19.699  25.298   5.221  1.00  0.00     0.111 A 
ATOM      6  C   UNL     1      20.570  25.580   4.125  1.00  0.00     0.134 A 
ATOM      7  C   UNL     1      21.306  24.540   3.543  1.00  0.00     0.093 A 
ATOM      8  C   UNL     1      21.154  23.221   3.974  1.00  0.00     0.123 A 
ATOM      9  C   UNL     1      20.266  22.927   5.005  1.00  0.00     0.094 A 
ATOM     10  C   UNL     1      19.547  23.948   5.632  1.00  0.00     0.146 A 
ATOM     11  O   UNL     1      18.727  23.625   6.626  1.00  0.00    -0.452 OA
ENDROOT
BRANCH   1  12
ATOM     12  C   UNL     1      17.141  24.024   8.395  1.00  0.00     0.025 A 
ATOM     13  C   UNL     1      17.552  22.997   9.262  1.00  0.00     0.016 A 
ATOM     14  C   UNL     1      16.694  22.532  10.263  1.00  0.00     0.051 A 
ATOM     15  C   UNL     1      15.411  23.077  10.404  1.00  0.00     0.157 A 
ATOM     16  C   UNL     1      15.846  24.553   8.528  1.00  0.00     0.062 A 
ATOM     17  C   UNL     1      14.985  24.090   9.529  1.00  0.00     0.158 A 
BRANCH  15  18
ATOM     18  O   UNL     1      14.559  22.613  11.405  1.00  0.00    -0.504 OA
ATOM     19  H   UNL     1      13.593  22.914  11.460  1.00  0.00     0.293 HD
ENDBRANCH  15  18
BRANCH  17  20
ATOM     20  O   UNL     1      13.711  24.648   9.638  1.00  0.00    -0.504 OA
ATOM     21  H   UNL     1      12.967  24.422   8.989  1.00  0.00     0.293 HD
ENDBRANCH  17  20
ENDBRANCH   1  12
BRANCH   2  22
ATOM     22  O   UNL     1      17.349  26.824   7.674  1.00  0.00    -0.502 OA
ATOM     23  H   UNL     1      17.307  27.797   7.397  1.00  0.00     0.293 HD
ENDBRANCH   2  22
BRANCH   6  24
ATOM     24  O   UNL     1      20.730  26.848   3.559  1.00  0.00    -0.507 OA
ATOM     25  H   UNL     1      19.975  27.470   3.311  1.00  0.00     0.293 HD
ENDBRANCH   6  24
BRANCH   8  26
ATOM     26  O   UNL     1      21.878  22.191   3.376  1.00  0.00    -0.508 OA
ATOM     27  H   UNL     1      22.860  22.047   3.576  1.00  0.00     0.293 HD
ENDBRANCH   8  26
TORSDOF 6
ENDMDL
MODEL 2
REMARK VINA RESULT:    40.981      0.715      1.451
REMARK INTER + INTRA:          49.522
REMARK INTER:                  49.087
REMARK INTRA:                   0.434
REMARK UNBOUND:                 0.156
REMARK SMILES O=c1c(O)c(-c2ccc(O)c(O)c2)oc2cc(O)cc(O)c12
REMARK SMILES IDX 5 1 3 2 2 3 1 4 22 5 20 6 19 7 17 8 16 9 15 10 14 11 6 12
REMARK SMILES IDX 7 13 8 14 9 15 13 16 11 17 10 18 12 20 4 22 21 24 18 26
REMARK H PARENT 10 19 12 21 4 23 21 25 18 27
REMARK Flexibility Score: inf
ROOT
ATOM      1  C   UNL     1      18.146  24.507   7.140  1.00  0.00     0.180 A 
ATOM      2  C   UNL     1      18.260  25.862   6.785  1.00  0.00     0.208 A 
ATOM      3  C   UNL     1      19.137  26.224   5.750  1.00  0.00     0.238 A 
ATOM      4  O   UNL     1      19.289  27.446   5.489  1.00  0.00    -0.285 OA
ATOM      5  C   UNL     1      19.847  25.222   5.045  1.00  0.00     0.111 A 
ATOM      6  C   UNL     1      20.729  25.471   3.949  1.00  0.00     0.134 A 
ATOM      7  C   UNL     1      21.459  24.411   3.397  1.00  0.00     0.093 A 
ATOM      8  C   UNL     1      21.291  23.103   3.858  1.00  0.00     0.123 A 
ATOM      9  C   UNL     1      20.393  22.843   4.889  1.00  0.00     0.094 A 
ATOM     10  C   UNL     1      19.679  23.884   5.487  1.00  0.00     0.146 A 
ATOM     11  O   UNL     1      18.849  23.593   6.482  1.00  0.00    -0.452 OA
ENDROOT
BRANCH   1  12
ATOM     12  C   UNL     1      17.254  24.049   8.229  1.00  0.00     0.025 A 
ATOM     13  C   UNL     1      16.297  24.904   8.801  1.00  0.00     0.016 A 
ATOM     14  C   UNL     1      15.483  24.457   9.845  1.00  0.00     0.051 A 
ATOM     15  C   UNL     1      15.623  23.155  10.342  1.00  0.00     0.157 A 
ATOM     16  C   UNL     1      17.405  22.751   8.746  1.00  0.00     0.062 A 
ATOM     17  C   UNL     1      16.592  22.300   9.791  1.00  0.00     0.158 A 
BRANCH  15  18
ATOM     18  O   UNL     1      14.808  22.710  11.382  1.00  0.00    -0.504 OA
ATOM     19  H   UNL     1      14.193  21.912  11.271  1.00  0.00     0.293 HD
ENDBRANCH  15  18
BRANCH  17  20
ATOM     20  O   UNL     1      16.761  21.000  10.268  1.00  0.00    -0.504 OA
ATOM     21  H   UNL     1      17.089  20.247   9.675  1.00  0.00     0.293 HD
ENDBRANCH  17  20
ENDBRANCH   1  12
BRANCH   2  22
ATOM     22  O   UNL     1      17.493  26.828   7.443  1.00  0.00    -0.502 OA
ATOM     23  H   UNL     1      16.640  26.600   7.939  1.00  0.00     0.293 HD
ENDBRANCH   2  22
BRANCH   6  24
ATOM     24  O   UNL     1      20.904  26.723   3.354  1.00  0.00    -0.507 OA
ATOM     25  H   UNL     1      20.926  27.601   3.849  1.00  0.00     0.293 HD
ENDBRANCH   6  24
BRANCH   8  26
ATOM     26  O   UNL     1      22.010  22.052   3.290  1.00  0.00    -0.508 OA
ATOM     27  H   UNL     1      22.791  21.623   3.771  1.00  0.00     0.293 HD
ENDBRANCH   8  26
TORSDOF 6
ENDMDL
MODEL 3
REMARK VINA RESULT:    41.835      1.857      6.679
REMARK INTER + INTRA:          50.550
REMARK INTER:                  50.225
REMARK INTRA:                   0.325
REMARK UNBOUND:                 0.156
REMARK SMILES O=c1c(O)c(-c2ccc(O)c(O)c2)oc2cc(O)cc(O)c12
REMARK SMILES IDX 5 1 3 2 2 3 1 4 22 5 20 6 19 7 17 8 16 9 15 10 14 11 6 12
REMARK SMILES IDX 7 13 8 14 9 15 13 16 11 17 10 18 12 20 4 22 21 24 18 26
REMARK H PARENT 10 19 12 21 4 23 21 25 18 27
REMARK Flexibility Score: inf
ROOT
ATOM      1  C   UNL     1      20.186  24.107   4.932  1.00  0.00     0.180 A 
ATOM      2  C   UNL     1      20.060  25.442   4.511  1.00  0.00     0.208 A 
ATOM      3  C   UNL     1      19.328  26.341   5.304  1.00  0.00     0.238 A 
ATOM      4  O   UNL     1      19.157  27.515   4.884  1.00  0.00    -0.285 OA
ATOM      5  C   UNL     1      18.779  25.908   6.536  1.00  0.00     0.111 A 
ATOM      6  C   UNL     1      18.057  26.744   7.441  1.00  0.00     0.134 A 
ATOM      7  C   UNL     1      17.469  26.180   8.580  1.00  0.00     0.093 A 
ATOM      8  C   UNL     1      17.630  24.825   8.879  1.00  0.00     0.123 A 
ATOM      9  C   UNL     1      18.378  24.014   8.031  1.00  0.00     0.094 A 
ATOM     10  C   UNL     1      18.945  24.538   6.867  1.00  0.00     0.146 A 
ATOM     11  O   UNL     1      19.632  23.722   6.076  1.00  0.00    -0.452 OA
ENDROOT
BRANCH   1  12
ATOM     12  C   UNL     1      20.929  23.098   4.143  1.00  0.00     0.025 A 
ATOM     13  C   UNL     1      21.953  23.471   3.256  1.00  0.00     0.016 A 
ATOM     14  C   UNL     1      22.624  22.503   2.504  1.00  0.00     0.051 A 
ATOM     15  C   UNL     1      22.272  21.152   2.616  1.00  0.00     0.157 A 
ATOM     16  C   UNL     1      20.566  21.744   4.236  1.00  0.00     0.062 A 
ATOM     17  C   UNL     1      21.235  20.772   3.485  1.00  0.00     0.158 A 
BRANCH  15  18
ATOM     18  O   UNL     1      22.944  20.187   1.866  1.00  0.00    -0.504 OA
ATOM     19  H   UNL     1      23.625  20.444   1.161  1.00  0.00     0.293 HD
ENDBRANCH  15  18
BRANCH  17  20
ATOM     20  O   UNL     1      20.856  19.436   3.614  1.00  0.00    -0.504 OA
ATOM     21  H   UNL     1      21.240  18.835   4.333  1.00  0.00     0.293 HD
ENDBRANCH  17  20
ENDBRANCH   1  12
BRANCH   2  22
ATOM     22  O   UNL     1      20.674  25.868   3.329  1.00  0.00    -0.502 OA
ATOM     23  H   UNL     1      21.540  26.393   3.326  1.00  0.00     0.293 HD
ENDBRANCH   2  22
BRANCH   6  24
ATOM     24  O   UNL     1      17.911  28.125   7.285  1.00  0.00    -0.507 OA
ATOM     25  H   UNL     1      17.058  28.639   7.448  1.00  0.00     0.293 HD
ENDBRANCH   6  24
BRANCH   8  26
ATOM     26  O   UNL     1      17.054  24.278  10.025  1.00  0.00    -0.508 OA
ATOM     27  H   UNL     1      17.257  23.330  10.319  1.00  0.00     0.293 HD
ENDBRANCH   8  26
TORSDOF 6
ENDMDL
