MODEL 1
REMARK VINA RESULT:    -3.442      0.000      0.000
REMARK INTER + INTRA:          -5.956
REMARK INTER:                  -5.455
REMARK INTRA:                  -0.501
REMARK UNBOUND:                -0.501
REMARK SMILES CCCCCCCCCCCC(=O)[O-]
REMARK SMILES IDX 7 1 8 2 9 3 10 4 11 5 12 6 13 7 14 8 6 9 5 10 4 11 3 12 2 13
REMARK SMILES IDX 1 14
REMARK H PARENT
REMARK Flexibility Score: inf
ROOT
ATOM      1  C   UNL     1      12.598  -8.195   6.511  1.00  0.00     0.000 C 
ENDROOT
BRANCH   1   2
ATOM      2  C   UNL     1      14.113  -8.376   6.327  1.00  0.00     0.000 C 
BRANCH   2   3
ATOM      3  C   UNL     1      14.676  -7.516   5.183  1.00  0.00     0.000 C 
BRANCH   3   4
ATOM      4  C   UNL     1      15.961  -6.772   5.581  1.00  0.00     0.006 C 
BRANCH   4   5
ATOM      5  C   UNL     1      16.312  -6.949   7.064  1.00  0.00     0.053 C 
BRANCH   5   6
ATOM      6  C   UNL     1      17.782  -7.174   7.228  1.00  0.00     0.041 C 
ATOM      7  O   UNL     1      18.361  -6.828   8.292  1.00  0.00    -0.550 OA
ATOM      8  O   UNL     1      18.523  -7.721   6.188  1.00  0.00    -0.550 OA
ENDBRANCH   5   6
ENDBRANCH   4   5
ENDBRANCH   3   4
ENDBRANCH   2   3
ENDBRANCH   1   2
BRANCH   1   9
ATOM      9  C   UNL     1      11.928  -7.507   5.309  1.00  0.00     0.000 C 
BRANCH   9  10
ATOM     10  C   UNL     1      10.441  -7.899   5.169  1.00  0.00    -0.000 C 
BRANCH  10  11
ATOM     11  C   UNL     1       9.885  -8.655   6.388  1.00  0.00    -0.000 C 
BRANCH  11  12
ATOM     12  C   UNL     1       8.414  -9.068   6.214  1.00  0.00    -0.000 C 
BRANCH  12  13
ATOM     13  C   UNL     1       7.541  -8.656   7.410  1.00  0.00    -0.003 C 
ATOM     14  C   UNL     1       7.356  -9.785   8.424  1.00  0.00     0.004 C 
ENDBRANCH  12  13
ENDBRANCH  11  12
ENDBRANCH  10  11
ENDBRANCH   9  10
ENDBRANCH   1   9
TORSDOF 10
ENDMDL
MODEL 2
REMARK VINA RESULT:    -3.354      1.340      2.474
REMARK INTER + INTRA:          -5.817
REMARK INTER:                  -5.128
REMARK INTRA:                  -0.689
REMARK UNBOUND:                -0.501
REMARK SMILES CCCCCCCCCCCC(=O)[O-]
REMARK SMILES IDX 7 1 8 2 9 3 10 4 11 5 12 6 13 7 14 8 6 9 5 10 4 11 3 12 2 13
REMARK SMILES IDX 1 14
REMARK H PARENT
REMARK Flexibility Score: inf
ROOT
ATOM      1  C   UNL     1      15.354  -7.879   6.545  1.00  0.00     0.000 C 
ENDROOT
BRANCH   1   2
ATOM      2  C   UNL     1      15.758  -6.703   5.641  1.00  0.00     0.000 C 
BRANCH   2   3
ATOM      3  C   UNL     1      17.120  -6.923   4.959  1.00  0.00     0.000 C 
BRANCH   3   4
ATOM      4  C   UNL     1      17.956  -8.011   5.652  1.00  0.00     0.006 C 
BRANCH   4   5
ATOM      5  C   UNL     1      19.168  -7.439   6.400  1.00  0.00     0.053 C 
BRANCH   5   6
ATOM      6  C   UNL     1      18.977  -7.572   7.878  1.00  0.00     0.041 C 
ATOM      7  O   UNL     1      18.305  -6.714   8.510  1.00  0.00    -0.550 OA
ATOM      8  O   UNL     1      19.582  -8.616   8.567  1.00  0.00    -0.550 OA
ENDBRANCH   5   6
ENDBRANCH   4   5
ENDBRANCH   3   4
ENDBRANCH   2   3
ENDBRANCH   1   2
BRANCH   1   9
ATOM      9  C   UNL     1      13.863  -8.239   6.425  1.00  0.00     0.000 C 
BRANCH   9  10
ATOM     10  C   UNL     1      13.323  -8.009   4.997  1.00  0.00    -0.000 C 
BRANCH  10  11
ATOM     11  C   UNL     1      11.869  -7.507   4.959  1.00  0.00    -0.000 C 
BRANCH  11  12
ATOM     12  C   UNL     1      11.049  -7.961   6.179  1.00  0.00    -0.000 C 
BRANCH  12  13
ATOM     13  C   UNL     1       9.625  -8.395   5.802  1.00  0.00    -0.003 C 
ATOM     14  C   UNL     1       8.975  -9.282   6.863  1.00  0.00     0.004 C 
ENDBRANCH  12  13
ENDBRANCH  11  12
ENDBRANCH  10  11
ENDBRANCH   9  10
ENDBRANCH   1   9
TORSDOF 10
ENDMDL
MODEL 3
REMARK VINA RESULT:    -3.354      1.755      2.869
REMARK INTER + INTRA:          -5.815
REMARK INTER:                  -5.364
REMARK INTRA:                  -0.451
REMARK UNBOUND:                -0.501
REMARK SMILES CCCCCCCCCCCC(=O)[O-]
REMARK SMILES IDX 7 1 8 2 9 3 10 4 11 5 12 6 13 7 14 8 6 9 5 10 4 11 3 12 2 13
REMARK SMILES IDX 1 14
REMARK H PARENT
REMARK Flexibility Score: inf
ROOT
ATOM      1  C   UNL     1      10.787  -8.065   6.411  1.00  0.00     0.000 C 
ENDROOT
BRANCH   1   2
ATOM      2  C   UNL     1      11.524  -7.466   5.202  1.00  0.00     0.000 C 
BRANCH   2   3
ATOM      3  C   UNL     1      12.957  -8.005   5.056  1.00  0.00     0.000 C 
BRANCH   3   4
ATOM      4  C   UNL     1      13.630  -8.266   6.413  1.00  0.00     0.006 C 
BRANCH   4   5
ATOM      5  C   UNL     1      15.145  -8.473   6.292  1.00  0.00     0.053 C 
BRANCH   5   6
ATOM      6  C   UNL     1      15.860  -7.162   6.405  1.00  0.00     0.041 C 
ATOM      7  O   UNL     1      16.081  -6.471   5.376  1.00  0.00    -0.550 OA
ATOM      8  O   UNL     1      16.325  -6.728   7.640  1.00  0.00    -0.550 OA
ENDBRANCH   5   6
ENDBRANCH   4   5
ENDBRANCH   3   4
ENDBRANCH   2   3
ENDBRANCH   1   2
BRANCH   1   9
ATOM      9  C   UNL     1       9.494  -8.800   6.018  1.00  0.00     0.000 C 
BRANCH   9  10
ATOM     10  C   UNL     1       8.745  -9.356   7.249  1.00  0.00    -0.000 C 
BRANCH  10  11
ATOM     11  C   UNL     1       7.439  -8.608   7.566  1.00  0.00    -0.000 C 
BRANCH  11  12
ATOM     12  C   UNL     1       6.560  -8.389   6.323  1.00  0.00    -0.000 C 
BRANCH  12  13
ATOM     13  C   UNL     1       6.171  -6.915   6.130  1.00  0.00    -0.003 C 
ATOM     14  C   UNL     1       5.121  -6.717   5.037  1.00  0.00     0.004 C 
ENDBRANCH  12  13
ENDBRANCH  11  12
ENDBRANCH  10  11
ENDBRANCH   9  10
ENDBRANCH   1   9
TORSDOF 10
ENDMDL
MODEL 4
REMARK VINA RESULT:    -3.349      3.775      7.704
REMARK INTER + INTRA:          -5.808
REMARK INTER:                  -4.880
REMARK INTRA:                  -0.929
REMARK UNBOUND:                -0.501
REMARK SMILES CCCCCCCCCCCC(=O)[O-]
REMARK SMILES IDX 7 1 8 2 9 3 10 4 11 5 12 6 13 7 14 8 6 9 5 10 4 11 3 12 2 13
REMARK SMILES IDX 1 14
REMARK H PARENT
REMARK Flexibility Score: inf
ROOT
ATOM      1  C   UNL     1      16.085  -6.757   5.513  1.00  0.00     0.000 C 
ENDROOT
BRANCH   1   2
ATOM      2  C   UNL     1      15.481  -7.465   6.736  1.00  0.00     0.000 C 
BRANCH   2   3
ATOM      3  C   UNL     1      14.313  -8.394   6.365  1.00  0.00     0.000 C 
BRANCH   3   4
ATOM      4  C   UNL     1      13.379  -7.774   5.313  1.00  0.00     0.006 C 
BRANCH   4   5
ATOM      5  C   UNL     1      12.137  -8.634   5.044  1.00  0.00     0.053 C 
BRANCH   5   6
ATOM      6  C   UNL     1      10.898  -7.903   5.457  1.00  0.00     0.041 C 
ATOM      7  O   UNL     1      10.141  -8.389   6.339  1.00  0.00    -0.550 OA
ATOM      8  O   UNL     1      10.553  -6.711   4.834  1.00  0.00    -0.550 OA
ENDBRANCH   5   6
ENDBRANCH   4   5
ENDBRANCH   3   4
ENDBRANCH   2   3
ENDBRANCH   1   2
BRANCH   1   9
ATOM      9  C   UNL     1      17.184  -7.586   4.825  1.00  0.00     0.000 C 
BRANCH   9  10
ATOM     10  C   UNL     1      18.480  -6.772   4.616  1.00  0.00    -0.000 C 
BRANCH  10  11
ATOM     11  C   UNL     1      19.533  -6.995   5.715  1.00  0.00    -0.000 C 
BRANCH  11  12
ATOM     12  C   UNL     1      19.364  -8.341   6.440  1.00  0.00    -0.000 C 
BRANCH  12  13
ATOM     13  C   UNL     1      19.229  -8.177   7.961  1.00  0.00    -0.003 C 
ATOM     14  C   UNL     1      18.763  -6.779   8.367  1.00  0.00     0.004 C 
ENDBRANCH  12  13
ENDBRANCH  11  12
ENDBRANCH  10  11
ENDBRANCH   9  10
ENDBRANCH   1   9
TORSDOF 10
ENDMDL
MODEL 5
REMARK VINA RESULT:    -3.349      3.715      8.129
REMARK INTER + INTRA:          -5.808
REMARK INTER:                  -5.107
REMARK INTRA:                  -0.700
REMARK UNBOUND:                -0.501
REMARK SMILES CCCCCCCCCCCC(=O)[O-]
REMARK SMILES IDX 7 1 8 2 9 3 10 4 11 5 12 6 13 7 14 8 6 9 5 10 4 11 3 12 2 13
REMARK SMILES IDX 1 14
REMARK H PARENT
REMARK Flexibility Score: inf
ROOT
ATOM      1  C   UNL     1      16.025  -7.167   6.648  1.00  0.00     0.000 C 
ENDROOT
BRANCH   1   2
ATOM      2  C   UNL     1      14.755  -8.016   6.826  1.00  0.00     0.000 C 
BRANCH   2   3
ATOM      3  C   UNL     1      14.616  -9.105   5.750  1.00  0.00     0.000 C 
BRANCH   3   4
ATOM      4  C   UNL     1      13.251  -9.067   5.045  1.00  0.00     0.006 C 
BRANCH   4   5
ATOM      5  C   UNL     1      12.759  -7.637   4.784  1.00  0.00     0.053 C 
BRANCH   5   6
ATOM      6  C   UNL     1      11.405  -7.433   5.389  1.00  0.00     0.041 C 
ATOM      7  O   UNL     1      11.115  -7.975   6.488  1.00  0.00    -0.550 OA
ATOM      8  O   UNL     1      10.447  -6.687   4.715  1.00  0.00    -0.550 OA
ENDBRANCH   5   6
ENDBRANCH   4   5
ENDBRANCH   3   4
ENDBRANCH   2   3
ENDBRANCH   1   2
BRANCH   1   9
ATOM      9  C   UNL     1      16.156  -6.579   5.232  1.00  0.00     0.000 C 
BRANCH   9  10
ATOM     10  C   UNL     1      17.518  -6.915   4.587  1.00  0.00    -0.000 C 
BRANCH  10  11
ATOM     11  C   UNL     1      18.663  -7.060   5.603  1.00  0.00    -0.000 C 
BRANCH  11  12
ATOM     12  C   UNL     1      20.053  -6.898   4.964  1.00  0.00    -0.000 C 
BRANCH  12  13
ATOM     13  C   UNL     1      20.726  -5.571   5.347  1.00  0.00    -0.003 C 
ATOM     14  C   UNL     1      20.894  -4.628   4.156  1.00  0.00     0.004 C 
ENDBRANCH  12  13
ENDBRANCH  11  12
ENDBRANCH  10  11
ENDBRANCH   9  10
ENDBRANCH   1   9
TORSDOF 10
ENDMDL
MODEL 6
REMARK VINA RESULT:    -3.308      4.418      7.993
REMARK INTER + INTRA:          -5.744
REMARK INTER:                  -5.273
REMARK INTRA:                  -0.471
REMARK UNBOUND:                -0.501
REMARK SMILES CCCCCCCCCCCC(=O)[O-]
REMARK SMILES IDX 7 1 8 2 9 3 10 4 11 5 12 6 13 7 14 8 6 9 5 10 4 11 3 12 2 13
REMARK SMILES IDX 1 14
REMARK H PARENT
REMARK Flexibility Score: inf
ROOT
ATOM      1  C   UNL     1      12.644  -8.119   6.478  1.00  0.00     0.000 C 
ENDROOT
BRANCH   1   2
ATOM      2  C   UNL     1      11.863  -7.577   5.270  1.00  0.00     0.000 C 
BRANCH   2   3
ATOM      3  C   UNL     1      10.593  -8.394   4.973  1.00  0.00     0.000 C 
BRANCH   3   4
ATOM      4  C   UNL     1       9.761  -8.669   6.236  1.00  0.00     0.006 C 
BRANCH   4   5
ATOM      5  C   UNL     1       8.317  -9.075   5.915  1.00  0.00     0.053 C 
BRANCH   5   6
ATOM      6  C   UNL     1       7.368  -8.425   6.873  1.00  0.00     0.041 C 
ATOM      7  O   UNL     1       7.494  -8.609   8.113  1.00  0.00    -0.550 OA
ATOM      8  O   UNL     1       6.316  -7.654   6.395  1.00  0.00    -0.550 OA
ENDBRANCH   5   6
ENDBRANCH   4   5
ENDBRANCH   3   4
ENDBRANCH   2   3
ENDBRANCH   1   2
BRANCH   1   9
ATOM      9  C   UNL     1      14.123  -8.396   6.156  1.00  0.00     0.000 C 
BRANCH   9  10
ATOM     10  C   UNL     1      14.666  -7.452   5.061  1.00  0.00    -0.000 C 
BRANCH  10  11
ATOM     11  C   UNL     1      15.941  -6.696   5.474  1.00  0.00    -0.000 C 
BRANCH  11  12
ATOM     12  C   UNL     1      16.398  -7.034   6.903  1.00  0.00    -0.000 C 
BRANCH  12  13
ATOM     13  C   UNL     1      17.904  -7.328   6.985  1.00  0.00    -0.003 C 
ATOM     14  C   UNL     1      18.540  -6.807   8.274  1.00  0.00     0.004 C 
ENDBRANCH  12  13
ENDBRANCH  11  12
ENDBRANCH  10  11
ENDBRANCH   9  10
ENDBRANCH   1   9
TORSDOF 10
ENDMDL
MODEL 7
REMARK VINA RESULT:    -3.192      3.442      5.360
REMARK INTER + INTRA:          -5.559
REMARK INTER:                  -4.446
REMARK INTRA:                  -1.113
REMARK UNBOUND:                -0.501
REMARK SMILES CCCCCCCCCCCC(=O)[O-]
REMARK SMILES IDX 7 1 8 2 9 3 10 4 11 5 12 6 13 7 14 8 6 9 5 10 4 11 3 12 2 13
REMARK SMILES IDX 1 14
REMARK H PARENT
REMARK Flexibility Score: inf
ROOT
ATOM      1  C   UNL     1      18.040  -9.663   4.880  1.00  0.00     0.000 C 
ENDROOT
BRANCH   1   2
ATOM      2  C   UNL     1      18.549  -9.224   6.262  1.00  0.00     0.000 C 
BRANCH   2   3
ATOM      3  C   UNL     1      19.809  -8.346   6.176  1.00  0.00     0.000 C 
BRANCH   3   4
ATOM      4  C   UNL     1      19.479  -6.857   5.988  1.00  0.00     0.006 C 
BRANCH   4   5
ATOM      5  C   UNL     1      19.799  -6.353   4.575  1.00  0.00     0.053 C 
BRANCH   5   6
ATOM      6  C   UNL     1      21.018  -5.486   4.595  1.00  0.00     0.041 C 
ATOM      7  O   UNL     1      20.908  -4.236   4.480  1.00  0.00    -0.550 OA
ATOM      8  O   UNL     1      22.279  -6.059   4.690  1.00  0.00    -0.550 OA
ENDBRANCH   5   6
ENDBRANCH   4   5
ENDBRANCH   3   4
ENDBRANCH   2   3
ENDBRANCH   1   2
BRANCH   1   9
ATOM      9  C   UNL     1      16.546  -9.362   4.671  1.00  0.00     0.000 C 
BRANCH   9  10
ATOM     10  C   UNL     1      16.298  -7.885   4.292  1.00  0.00    -0.000 C 
BRANCH  10  11
ATOM     11  C   UNL     1      15.385  -7.139   5.279  1.00  0.00    -0.000 C 
BRANCH  11  12
ATOM     12  C   UNL     1      15.188  -7.899   6.602  1.00  0.00    -0.000 C 
BRANCH  12  13
ATOM     13  C   UNL     1      13.724  -8.302   6.838  1.00  0.00    -0.003 C 
ATOM     14  C   UNL     1      12.813  -7.931   5.668  1.00  0.00     0.004 C 
ENDBRANCH  12  13
ENDBRANCH  11  12
ENDBRANCH  10  11
ENDBRANCH   9  10
ENDBRANCH   1   9
TORSDOF 10
ENDMDL
MODEL 8
REMARK VINA RESULT:    -3.141      3.907      7.769
REMARK INTER + INTRA:          -5.479
REMARK INTER:                  -4.761
REMARK INTRA:                  -0.718
REMARK UNBOUND:                -0.501
REMARK SMILES CCCCCCCCCCCC(=O)[O-]
REMARK SMILES IDX 7 1 8 2 9 3 10 4 11 5 12 6 13 7 14 8 6 9 5 10 4 11 3 12 2 13
REMARK SMILES IDX 1 14
REMARK H PARENT
REMARK Flexibility Score: inf
ROOT
ATOM      1  C   UNL     1      15.336  -7.993   6.331  1.00  0.00     0.000 C 
ENDROOT
BRANCH   1   2
ATOM      2  C   UNL     1      13.835  -8.319   6.274  1.00  0.00     0.000 C 
BRANCH   2   3
ATOM      3  C   UNL     1      13.211  -7.994   4.906  1.00  0.00     0.000 C 
BRANCH   3   4
ATOM      4  C   UNL     1      11.812  -7.369   5.029  1.00  0.00     0.006 C 
BRANCH   4   5
ATOM      5  C   UNL     1      11.070  -7.825   6.291  1.00  0.00     0.053 C 
BRANCH   5   6
ATOM      6  C   UNL     1       9.848  -8.607   5.923  1.00  0.00     0.041 C 
ATOM      7  O   UNL     1       9.525  -8.745   4.713  1.00  0.00    -0.550 OA
ATOM      8  O   UNL     1       9.037  -9.142   6.916  1.00  0.00    -0.550 OA
ENDBRANCH   5   6
ENDBRANCH   4   5
ENDBRANCH   3   4
ENDBRANCH   2   3
ENDBRANCH   1   2
BRANCH   1   9
ATOM      9  C   UNL     1      15.999  -7.989   4.943  1.00  0.00     0.000 C 
BRANCH   9  10
ATOM     10  C   UNL     1      17.082  -6.895   4.820  1.00  0.00    -0.000 C 
BRANCH  10  11
ATOM     11  C   UNL     1      18.513  -7.451   4.719  1.00  0.00    -0.000 C 
BRANCH  11  12
ATOM     12  C   UNL     1      19.392  -7.060   5.919  1.00  0.00    -0.000 C 
BRANCH  12  13
ATOM     13  C   UNL     1      18.954  -7.750   7.219  1.00  0.00    -0.003 C 
ATOM     14  C   UNL     1      18.700  -6.763   8.358  1.00  0.00     0.004 C 
ENDBRANCH  12  13
ENDBRANCH  11  12
ENDBRANCH  10  11
ENDBRANCH   9  10
ENDBRANCH   1   9
TORSDOF 10
ENDMDL
MODEL 9
REMARK VINA RESULT:    -3.121      2.647      4.338
REMARK INTER + INTRA:          -5.446
REMARK INTER:                  -4.900
REMARK INTRA:                  -0.546
REMARK UNBOUND:                -0.501
REMARK SMILES CCCCCCCCCCCC(=O)[O-]
REMARK SMILES IDX 7 1 8 2 9 3 10 4 11 5 12 6 13 7 14 8 6 9 5 10 4 11 3 12 2 13
REMARK SMILES IDX 1 14
REMARK H PARENT
REMARK Flexibility Score: inf
ROOT
ATOM      1  C   UNL     1      16.088  -6.659   5.383  1.00  0.00     0.000 C 
ENDROOT
BRANCH   1   2
ATOM      2  C   UNL     1      17.419  -7.183   4.819  1.00  0.00     0.000 C 
BRANCH   2   3
ATOM      3  C   UNL     1      18.434  -7.528   5.922  1.00  0.00     0.000 C 
BRANCH   3   4
ATOM      4  C   UNL     1      19.689  -6.642   5.866  1.00  0.00     0.006 C 
BRANCH   4   5
ATOM      5  C   UNL     1      20.622  -7.010   4.705  1.00  0.00     0.053 C 
BRANCH   5   6
ATOM      6  C   UNL     1      21.769  -6.051   4.635  1.00  0.00     0.041 C 
ATOM      7  O   UNL     1      21.573  -4.853   4.297  1.00  0.00    -0.550 OA
ATOM      8  O   UNL     1      23.060  -6.491   4.894  1.00  0.00    -0.550 OA
ENDBRANCH   5   6
ENDBRANCH   4   5
ENDBRANCH   3   4
ENDBRANCH   2   3
ENDBRANCH   1   2
BRANCH   1   9
ATOM      9  C   UNL     1      15.650  -7.397   6.660  1.00  0.00     0.000 C 
BRANCH   9  10
ATOM     10  C   UNL     1      14.309  -8.140   6.471  1.00  0.00    -0.000 C 
BRANCH  10  11
ATOM     11  C   UNL     1      13.823  -8.174   5.012  1.00  0.00    -0.000 C 
BRANCH  11  12
ATOM     12  C   UNL     1      12.328  -7.845   4.872  1.00  0.00    -0.000 C 
BRANCH  12  13
ATOM     13  C   UNL     1      11.589  -7.878   6.219  1.00  0.00    -0.003 C 
ATOM     14  C   UNL     1      10.146  -8.363   6.091  1.00  0.00     0.004 C 
ENDBRANCH  12  13
ENDBRANCH  11  12
ENDBRANCH  10  11
ENDBRANCH   9  10
ENDBRANCH   1   9
TORSDOF 10
ENDMDL
