MODEL 1
REMARK VINA RESULT:    -3.226      0.000      0.000
REMARK INTER + INTRA:          -3.802
REMARK INTER:                  -3.698
REMARK INTRA:                  -0.104
REMARK UNBOUND:                -0.104
REMARK SMILES COc1cc(C(=O)[O-])ccc1O
REMARK SMILES IDX 5 1 9 2 4 3 10 4 3 5 11 6 6 7 7 8 8 9 2 10 1 11 12 12
REMARK H PARENT 12 13
REMARK Flexibility Score: inf
ROOT
ATOM      1  C   UNL     1       0.458  21.155  20.318  1.00  0.00     0.001 A 
ATOM      2  C   UNL     1       1.551  21.871  20.829  1.00  0.00     0.014 A 
ATOM      3  C   UNL     1      -0.846  21.588  20.619  1.00  0.00     0.060 A 
ATOM      4  C   UNL     1       1.346  23.000  21.625  1.00  0.00     0.051 A 
ATOM      5  C   UNL     1      -1.059  22.728  21.421  1.00  0.00     0.161 A 
ATOM      6  C   UNL     1       0.051  23.431  21.923  1.00  0.00     0.157 A 
ENDROOT
BRANCH   1   7
ATOM      7  C   UNL     1       0.681  19.957  19.476  1.00  0.00     0.072 C 
ATOM      8  O   UNL     1       1.829  19.452  19.370  1.00  0.00    -0.545 OA
ATOM      9  O   UNL     1      -0.378  19.372  18.790  1.00  0.00    -0.545 OA
ENDBRANCH   1   7
BRANCH   5  10
ATOM     10  O   UNL     1      -2.349  23.185  21.737  1.00  0.00    -0.493 OA
ATOM     11  C   UNL     1      -3.180  22.625  22.750  1.00  0.00     0.278 C 
ENDBRANCH   5  10
BRANCH   6  12
ATOM     12  O   UNL     1      -0.114  24.564  22.721  1.00  0.00    -0.504 OA
ATOM     13  H   UNL     1      -0.381  25.461  22.336  1.00  0.00     0.293 HD
ENDBRANCH   6  12
TORSDOF 3
ENDMDL
MODEL 2
REMARK VINA RESULT:    -3.124     19.444     20.706
REMARK INTER + INTRA:          -3.684
REMARK INTER:                  -3.588
REMARK INTRA:                  -0.096
REMARK UNBOUND:                -0.104
REMARK SMILES COc1cc(C(=O)[O-])ccc1O
REMARK SMILES IDX 5 1 9 2 4 3 10 4 3 5 11 6 6 7 7 8 8 9 2 10 1 11 12 12
REMARK H PARENT 12 13
REMARK Flexibility Score: inf
ROOT
ATOM      1  C   UNL     1     -17.159  29.184  28.753  1.00  0.00     0.001 A 
ATOM      2  C   UNL     1     -16.886  29.306  27.382  1.00  0.00     0.014 A 
ATOM      3  C   UNL     1     -17.471  30.337  29.495  1.00  0.00     0.060 A 
ATOM      4  C   UNL     1     -16.926  30.557  26.762  1.00  0.00     0.051 A 
ATOM      5  C   UNL     1     -17.513  31.603  28.875  1.00  0.00     0.161 A 
ATOM      6  C   UNL     1     -17.237  31.703  27.499  1.00  0.00     0.157 A 
ENDROOT
BRANCH   1   7
ATOM      7  C   UNL     1     -17.114  27.855  29.405  1.00  0.00     0.072 C 
ATOM      8  O   UNL     1     -18.102  27.076  29.342  1.00  0.00    -0.545 OA
ATOM      9  O   UNL     1     -15.978  27.447  30.095  1.00  0.00    -0.545 OA
ENDBRANCH   1   7
BRANCH   5  10
ATOM     10  O   UNL     1     -17.822  32.772  29.589  1.00  0.00    -0.493 OA
ATOM     11  C   UNL     1     -16.911  33.468  30.434  1.00  0.00     0.278 C 
ENDBRANCH   5  10
BRANCH   6  12
ATOM     12  O   UNL     1     -17.267  32.936  26.846  1.00  0.00    -0.504 OA
ATOM     13  H   UNL     1     -17.841  33.704  27.170  1.00  0.00     0.293 HD
ENDBRANCH   6  12
TORSDOF 3
ENDMDL
MODEL 3
REMARK VINA RESULT:    -3.108     19.898     21.027
REMARK INTER + INTRA:          -3.666
REMARK INTER:                  -3.590
REMARK INTRA:                  -0.076
REMARK UNBOUND:                -0.104
REMARK SMILES COc1cc(C(=O)[O-])ccc1O
REMARK SMILES IDX 5 1 9 2 4 3 10 4 3 5 11 6 6 7 7 8 8 9 2 10 1 11 12 12
REMARK H PARENT 12 13
REMARK Flexibility Score: inf
ROOT
ATOM      1  C   UNL     1     -17.195  30.068  29.227  1.00  0.00     0.001 A 
ATOM      2  C   UNL     1     -17.697  30.820  30.300  1.00  0.00     0.014 A 
ATOM      3  C   UNL     1     -16.944  30.708  28.000  1.00  0.00     0.060 A 
ATOM      4  C   UNL     1     -17.941  32.187  30.152  1.00  0.00     0.051 A 
ATOM      5  C   UNL     1     -17.188  32.088  27.844  1.00  0.00     0.161 A 
ATOM      6  C   UNL     1     -17.690  32.823  28.934  1.00  0.00     0.157 A 
ENDROOT
BRANCH   1   7
ATOM      7  C   UNL     1     -16.939  28.618  29.389  1.00  0.00     0.072 C 
ATOM      8  O   UNL     1     -16.004  28.211  30.127  1.00  0.00    -0.545 OA
ATOM      9  O   UNL     1     -17.729  27.685  28.727  1.00  0.00    -0.545 OA
ENDBRANCH   1   7
BRANCH   5  10
ATOM     10  O   UNL     1     -16.946  32.755  26.633  1.00  0.00    -0.493 OA
ATOM     11  C   UNL     1     -16.998  32.143  25.348  1.00  0.00     0.278 C 
ENDBRANCH   5  10
BRANCH   6  12
ATOM     12  O   UNL     1     -17.947  34.191  28.824  1.00  0.00    -0.504 OA
ATOM     13  H   UNL     1     -18.076  34.782  29.636  1.00  0.00     0.293 HD
ENDBRANCH   6  12
TORSDOF 3
ENDMDL
MODEL 4
REMARK VINA RESULT:    -3.103      2.056      3.158
REMARK INTER + INTRA:          -3.660
REMARK INTER:                  -3.562
REMARK INTRA:                  -0.097
REMARK UNBOUND:                -0.104
REMARK SMILES COc1cc(C(=O)[O-])ccc1O
REMARK SMILES IDX 5 1 9 2 4 3 10 4 3 5 11 6 6 7 7 8 8 9 2 10 1 11 12 12
REMARK H PARENT 12 13
REMARK Flexibility Score: inf
ROOT
ATOM      1  C   UNL     1      -0.038  19.986  21.002  1.00  0.00     0.001 A 
ATOM      2  C   UNL     1      -0.801  18.875  21.392  1.00  0.00     0.014 A 
ATOM      3  C   UNL     1      -0.670  21.233  20.849  1.00  0.00     0.060 A 
ATOM      4  C   UNL     1      -2.172  19.007  21.627  1.00  0.00     0.051 A 
ATOM      5  C   UNL     1      -2.053  21.373  21.085  1.00  0.00     0.161 A 
ATOM      6  C   UNL     1      -2.800  20.246  21.476  1.00  0.00     0.157 A 
ENDROOT
BRANCH   1   7
ATOM      7  C   UNL     1       1.415  19.840  20.753  1.00  0.00     0.072 C 
ATOM      8  O   UNL     1       2.125  19.119  21.502  1.00  0.00    -0.545 OA
ATOM      9  O   UNL     1       2.016  20.498  19.686  1.00  0.00    -0.545 OA
ENDBRANCH   1   7
BRANCH   5  10
ATOM     10  O   UNL     1      -2.712  22.604  20.942  1.00  0.00    -0.493 OA
ATOM     11  C   UNL     1      -2.802  23.597  21.959  1.00  0.00     0.278 C 
ENDBRANCH   5  10
BRANCH   6  12
ATOM     12  O   UNL     1      -4.171  20.339  21.720  1.00  0.00    -0.504 OA
ATOM     13  H   UNL     1      -4.766  19.522  21.770  1.00  0.00     0.293 HD
ENDBRANCH   6  12
TORSDOF 3
ENDMDL
MODEL 5
REMARK VINA RESULT:    -3.075      2.533      4.351
REMARK INTER + INTRA:          -3.628
REMARK INTER:                  -3.534
REMARK INTRA:                  -0.094
REMARK UNBOUND:                -0.104
REMARK SMILES COc1cc(C(=O)[O-])ccc1O
REMARK SMILES IDX 5 1 9 2 4 3 10 4 3 5 11 6 6 7 7 8 8 9 2 10 1 11 12 12
REMARK H PARENT 12 13
REMARK Flexibility Score: inf
ROOT
ATOM      1  C   UNL     1      -2.114  20.015  21.192  1.00  0.00     0.001 A 
ATOM      2  C   UNL     1      -1.394  18.892  21.628  1.00  0.00     0.014 A 
ATOM      3  C   UNL     1      -1.413  21.123  20.684  1.00  0.00     0.060 A 
ATOM      4  C   UNL     1       0.000  18.875  21.557  1.00  0.00     0.051 A 
ATOM      5  C   UNL     1      -0.005  21.112  20.609  1.00  0.00     0.161 A 
ATOM      6  C   UNL     1       0.697  19.976  21.051  1.00  0.00     0.157 A 
ENDROOT
BRANCH   1   7
ATOM      7  C   UNL     1      -3.593  20.027  21.271  1.00  0.00     0.072 C 
ATOM      8  O   UNL     1      -4.291  19.663  20.288  1.00  0.00    -0.545 OA
ATOM      9  O   UNL     1      -4.232  20.441  22.434  1.00  0.00    -0.545 OA
ENDBRANCH   1   7
BRANCH   5  10
ATOM     10  O   UNL     1       0.722  22.203  20.106  1.00  0.00    -0.493 OA
ATOM     11  C   UNL     1       0.781  22.571  18.731  1.00  0.00     0.278 C 
ENDBRANCH   5  10
BRANCH   6  12
ATOM     12  O   UNL     1       2.090  19.922  20.995  1.00  0.00    -0.504 OA
ATOM     13  H   UNL     1       2.621  20.412  20.286  1.00  0.00     0.293 HD
ENDBRANCH   6  12
TORSDOF 3
ENDMDL
MODEL 6
REMARK VINA RESULT:    -3.060      2.271      2.926
REMARK INTER + INTRA:          -3.610
REMARK INTER:                  -3.520
REMARK INTRA:                  -0.090
REMARK UNBOUND:                -0.104
REMARK SMILES COc1cc(C(=O)[O-])ccc1O
REMARK SMILES IDX 5 1 9 2 4 3 10 4 3 5 11 6 6 7 7 8 8 9 2 10 1 11 12 12
REMARK H PARENT 12 13
REMARK Flexibility Score: inf
ROOT
ATOM      1  C   UNL     1       0.115  20.116  20.963  1.00  0.00     0.001 A 
ATOM      2  C   UNL     1       0.066  21.517  20.906  1.00  0.00     0.014 A 
ATOM      3  C   UNL     1      -1.068  19.398  21.212  1.00  0.00     0.060 A 
ATOM      4  C   UNL     1      -1.143  22.190  21.093  1.00  0.00     0.051 A 
ATOM      5  C   UNL     1      -2.293  20.072  21.401  1.00  0.00     0.161 A 
ATOM      6  C   UNL     1      -2.320  21.477  21.339  1.00  0.00     0.157 A 
ENDROOT
BRANCH   1   7
ATOM      7  C   UNL     1       1.401  19.408  20.765  1.00  0.00     0.072 C 
ATOM      8  O   UNL     1       2.124  19.104  21.749  1.00  0.00    -0.545 OA
ATOM      9  O   UNL     1       1.826  19.067  19.485  1.00  0.00    -0.545 OA
ENDBRANCH   1   7
BRANCH   5  10
ATOM     10  O   UNL     1      -3.490  19.383  21.650  1.00  0.00    -0.493 OA
ATOM     11  C   UNL     1      -4.358  18.878  20.640  1.00  0.00     0.278 C 
ENDBRANCH   5  10
BRANCH   6  12
ATOM     12  O   UNL     1      -3.509  22.184  21.521  1.00  0.00    -0.504 OA
ATOM     13  H   UNL     1      -4.080  22.074  22.350  1.00  0.00     0.293 HD
ENDBRANCH   6  12
TORSDOF 3
ENDMDL
MODEL 7
REMARK VINA RESULT:    -3.021     19.733     21.533
REMARK INTER + INTRA:          -3.566
REMARK INTER:                  -3.480
REMARK INTRA:                  -0.086
REMARK UNBOUND:                -0.104
REMARK SMILES COc1cc(C(=O)[O-])ccc1O
REMARK SMILES IDX 5 1 9 2 4 3 10 4 3 5 11 6 6 7 7 8 8 9 2 10 1 11 12 12
REMARK H PARENT 12 13
REMARK Flexibility Score: inf
ROOT
ATOM      1  C   UNL     1     -17.291  31.601  30.157  1.00  0.00     0.001 A 
ATOM      2  C   UNL     1     -17.285  30.337  30.765  1.00  0.00     0.014 A 
ATOM      3  C   UNL     1     -17.318  31.686  28.753  1.00  0.00     0.060 A 
ATOM      4  C   UNL     1     -17.307  29.178  29.987  1.00  0.00     0.051 A 
ATOM      5  C   UNL     1     -17.342  30.519  27.961  1.00  0.00     0.161 A 
ATOM      6  C   UNL     1     -17.336  29.262  28.592  1.00  0.00     0.157 A 
ENDROOT
BRANCH   1   7
ATOM      7  C   UNL     1     -17.266  32.827  30.987  1.00  0.00     0.072 C 
ATOM      8  O   UNL     1     -17.612  33.937  30.504  1.00  0.00    -0.545 OA
ATOM      9  O   UNL     1     -16.860  32.769  32.316  1.00  0.00    -0.545 OA
ENDBRANCH   1   7
BRANCH   5  10
ATOM     10  O   UNL     1     -17.371  30.572  26.559  1.00  0.00    -0.493 OA
ATOM     11  C   UNL     1     -16.603  31.474  25.767  1.00  0.00     0.278 C 
ENDBRANCH   5  10
BRANCH   6  12
ATOM     12  O   UNL     1     -17.358  28.082  27.847  1.00  0.00    -0.504 OA
ATOM     13  H   UNL     1     -17.301  28.081  26.836  1.00  0.00     0.293 HD
ENDBRANCH   6  12
TORSDOF 3
ENDMDL
MODEL 8
REMARK VINA RESULT:    -3.019     19.905     21.104
REMARK INTER + INTRA:          -3.564
REMARK INTER:                  -3.467
REMARK INTRA:                  -0.097
REMARK UNBOUND:                -0.104
REMARK SMILES COc1cc(C(=O)[O-])ccc1O
REMARK SMILES IDX 5 1 9 2 4 3 10 4 3 5 11 6 6 7 7 8 8 9 2 10 1 11 12 12
REMARK H PARENT 12 13
REMARK Flexibility Score: inf
ROOT
ATOM      1  C   UNL     1     -16.826  31.996  28.814  1.00  0.00     0.001 A 
ATOM      2  C   UNL     1     -16.829  31.557  27.481  1.00  0.00     0.014 A 
ATOM      3  C   UNL     1     -17.061  31.065  29.842  1.00  0.00     0.060 A 
ATOM      4  C   UNL     1     -17.060  30.213  27.180  1.00  0.00     0.051 A 
ATOM      5  C   UNL     1     -17.295  29.707  29.545  1.00  0.00     0.161 A 
ATOM      6  C   UNL     1     -17.292  29.288  28.202  1.00  0.00     0.157 A 
ENDROOT
BRANCH   1   7
ATOM      7  C   UNL     1     -16.582  33.422  29.127  1.00  0.00     0.072 C 
ATOM      8  O   UNL     1     -15.461  33.947  28.895  1.00  0.00    -0.545 OA
ATOM      9  O   UNL     1     -17.589  34.204  29.682  1.00  0.00    -0.545 OA
ENDBRANCH   1   7
BRANCH   5  10
ATOM     10  O   UNL     1     -17.531  28.755  30.550  1.00  0.00    -0.493 OA
ATOM     11  C   UNL     1     -16.512  28.104  31.303  1.00  0.00     0.278 C 
ENDBRANCH   5  10
BRANCH   6  12
ATOM     12  O   UNL     1     -17.519  27.954  27.863  1.00  0.00    -0.504 OA
ATOM     13  H   UNL     1     -17.286  27.582  26.950  1.00  0.00     0.293 HD
ENDBRANCH   6  12
TORSDOF 3
ENDMDL
MODEL 9
REMARK VINA RESULT:    -2.954     11.079     13.315
REMARK INTER + INTRA:          -3.490
REMARK INTER:                  -3.389
REMARK INTRA:                  -0.101
REMARK UNBOUND:                -0.104
REMARK SMILES COc1cc(C(=O)[O-])ccc1O
REMARK SMILES IDX 5 1 9 2 4 3 10 4 3 5 11 6 6 7 7 8 8 9 2 10 1 11 12 12
REMARK H PARENT 12 13
REMARK Flexibility Score: inf
ROOT
ATOM      1  C   UNL     1      -1.880  24.458  34.402  1.00  0.00     0.001 A 
ATOM      2  C   UNL     1      -0.654  24.484  33.721  1.00  0.00     0.014 A 
ATOM      3  C   UNL     1      -3.076  24.499  33.662  1.00  0.00     0.060 A 
ATOM      4  C   UNL     1      -0.621  24.547  32.326  1.00  0.00     0.051 A 
ATOM      5  C   UNL     1      -3.049  24.563  32.254  1.00  0.00     0.161 A 
ATOM      6  C   UNL     1      -1.809  24.587  31.591  1.00  0.00     0.157 A 
ENDROOT
BRANCH   1   7
ATOM      7  C   UNL     1      -1.909  24.392  35.881  1.00  0.00     0.072 C 
ATOM      8  O   UNL     1      -0.935  23.915  36.521  1.00  0.00    -0.545 OA
ATOM      9  O   UNL     1      -3.014  24.857  36.585  1.00  0.00    -0.545 OA
ENDBRANCH   1   7
BRANCH   5  10
ATOM     10  O   UNL     1      -4.226  24.604  31.488  1.00  0.00    -0.493 OA
ATOM     11  C   UNL     1      -5.105  23.500  31.297  1.00  0.00     0.278 C 
ENDBRANCH   5  10
BRANCH   6  12
ATOM     12  O   UNL     1      -1.736  24.650  30.199  1.00  0.00    -0.504 OA
ATOM     13  H   UNL     1      -2.521  24.408  29.606  1.00  0.00     0.293 HD
ENDBRANCH   6  12
TORSDOF 3
ENDMDL
