MODEL 1
REMARK VINA RESULT:    -2.841      0.000      0.000
REMARK INTER + INTRA:          -4.282
REMARK INTER:                  -4.003
REMARK INTRA:                  -0.279
REMARK UNBOUND:                -0.279
REMARK SMILES C=CCCCCCCC(=O)[O-]
REMARK SMILES IDX 6 1 7 2 8 3 9 4 10 5 11 6 5 7 4 8 3 9 2 10 1 11
REMARK H PARENT
REMARK Flexibility Score: inf
ROOT
ATOM      1  C   UNL     1     -13.871  59.617  -9.567  1.00  0.00     0.000 C 
ENDROOT
BRANCH   1   2
ATOM      2  C   UNL     1     -14.607  60.868 -10.065  1.00  0.00     0.006 C 
BRANCH   2   3
ATOM      3  C   UNL     1     -13.776  62.130  -9.812  1.00  0.00     0.053 C 
BRANCH   3   4
ATOM      4  C   UNL     1     -14.567  63.131  -9.030  1.00  0.00     0.041 C 
ATOM      5  O   UNL     1     -13.987  63.918  -8.238  1.00  0.00    -0.550 OA
ATOM      6  O   UNL     1     -15.940  63.226  -9.213  1.00  0.00    -0.550 OA
ENDBRANCH   3   4
ENDBRANCH   2   3
ENDBRANCH   1   2
BRANCH   1   7
ATOM      7  C   UNL     1     -12.419  59.547 -10.065  1.00  0.00     0.000 C 
BRANCH   7   8
ATOM      8  C   UNL     1     -11.882  58.106 -10.125  1.00  0.00     0.004 C 
BRANCH   8   9
ATOM      9  C   UNL     1     -12.950  57.076  -9.727  1.00  0.00     0.027 C 
BRANCH   9  10
ATOM     10  C   UNL     1     -12.423  55.666  -9.754  1.00  0.00    -0.035 C 
ATOM     11  C   UNL     1     -11.945  55.071  -8.658  1.00  0.00     0.004 C 
ENDBRANCH   9  10
ENDBRANCH   8   9
ENDBRANCH   7   8
ENDBRANCH   1   7
TORSDOF 7
ENDMDL
MODEL 2
REMARK VINA RESULT:    -1.585     24.073     24.976
REMARK INTER + INTRA:          -2.513
REMARK INTER:                  -2.519
REMARK INTRA:                   0.005
REMARK UNBOUND:                -0.279
REMARK SMILES C=CCCCCCCC(=O)[O-]
REMARK SMILES IDX 6 1 7 2 8 3 9 4 10 5 11 6 5 7 4 8 3 9 2 10 1 11
REMARK H PARENT
REMARK Flexibility Score: inf
ROOT
ATOM      1  C   UNL     1     -28.469  58.039   9.200  1.00  0.00     0.000 C 
ENDROOT
BRANCH   1   2
ATOM      2  C   UNL     1     -27.278  57.750  10.124  1.00  0.00     0.006 C 
BRANCH   2   3
ATOM      3  C   UNL     1     -26.935  56.257  10.125  1.00  0.00     0.053 C 
BRANCH   3   4
ATOM      4  C   UNL     1     -25.471  56.054   9.896  1.00  0.00     0.041 C 
ATOM      5  O   UNL     1     -24.988  54.892   9.867  1.00  0.00    -0.550 OA
ATOM      6  O   UNL     1     -24.646  57.148   9.666  1.00  0.00    -0.550 OA
ENDBRANCH   3   4
ENDBRANCH   2   3
ENDBRANCH   1   2
BRANCH   1   7
ATOM      7  C   UNL     1     -29.798  58.149   9.965  1.00  0.00     0.000 C 
BRANCH   7   8
ATOM      8  C   UNL     1     -30.688  59.291   9.444  1.00  0.00     0.004 C 
BRANCH   8   9
ATOM      9  C   UNL     1     -32.073  58.789   9.010  1.00  0.00     0.027 C 
BRANCH   9  10
ATOM     10  C   UNL     1     -31.997  57.519   8.206  1.00  0.00    -0.035 C 
ATOM     11  C   UNL     1     -32.122  56.317   8.774  1.00  0.00     0.004 C 
ENDBRANCH   9  10
ENDBRANCH   8   9
ENDBRANCH   7   8
ENDBRANCH   1   7
TORSDOF 7
ENDMDL
MODEL 3
REMARK VINA RESULT:    -1.051      1.478      2.309
REMARK INTER + INTRA:          -1.759
REMARK INTER:                  -1.638
REMARK INTRA:                  -0.122
REMARK UNBOUND:                -0.279
REMARK SMILES C=CCCCCCCC(=O)[O-]
REMARK SMILES IDX 6 1 7 2 8 3 9 4 10 5 11 6 5 7 4 8 3 9 2 10 1 11
REMARK H PARENT
REMARK Flexibility Score: inf
ROOT
ATOM      1  C   UNL     1     -13.051  62.263  -8.693  1.00  0.00     0.000 C 
ENDROOT
BRANCH   1   2
ATOM      2  C   UNL     1     -13.413  62.688 -10.123  1.00  0.00     0.006 C 
BRANCH   2   3
ATOM      3  C   UNL     1     -14.530  63.735 -10.118  1.00  0.00     0.053 C 
BRANCH   3   4
ATOM      4  C   UNL     1     -15.635  63.318  -9.199  1.00  0.00     0.041 C 
ATOM      5  O   UNL     1     -16.564  62.580  -9.619  1.00  0.00    -0.550 OA
ATOM      6  O   UNL     1     -15.613  63.705  -7.866  1.00  0.00    -0.550 OA
ENDBRANCH   3   4
ENDBRANCH   2   3
ENDBRANCH   1   2
BRANCH   1   7
ATOM      7  C   UNL     1     -11.945  61.196  -8.655  1.00  0.00     0.000 C 
BRANCH   7   8
ATOM      8  C   UNL     1     -11.887  60.357  -9.943  1.00  0.00     0.004 C 
BRANCH   8   9
ATOM      9  C   UNL     1     -11.876  58.850  -9.650  1.00  0.00     0.027 C 
BRANCH   9  10
ATOM     10  C   UNL     1     -13.265  58.276  -9.548  1.00  0.00    -0.035 C 
ATOM     11  C   UNL     1     -13.481  56.959  -9.505  1.00  0.00     0.004 C 
ENDBRANCH   9  10
ENDBRANCH   8   9
ENDBRANCH   7   8
ENDBRANCH   1   7
TORSDOF 7
ENDMDL
