MODEL 1
REMARK VINA RESULT:    -3.619      0.000      0.000
REMARK INTER + INTRA:         -12.440
REMARK INTER:                  -9.119
REMARK INTRA:                  -3.321
REMARK UNBOUND:                -3.321
REMARK SMILES CCCCCCCCCCCCCCCCCCCCCCCCCCCC(=O)[O-]
REMARK SMILES IDX 15 1 16 2 17 3 18 4 19 5 20 6 21 7 22 8 23 9 24 10 25 11
REMARK SMILES IDX 26 12 27 13 28 14 29 15 30 16 14 17 13 18 12 19 11 20 10 21
REMARK SMILES IDX 9 22 8 23 7 24 6 25 5 26 4 27 3 28 2 29 1 30
REMARK H PARENT
REMARK Flexibility Score: inf
ROOT
ATOM      1  C   UNL     1      43.319  26.788   0.260  1.00  0.00     0.000 C 
ENDROOT
BRANCH   1   2
ATOM      2  C   UNL     1      43.009  27.447  -1.096  1.00  0.00     0.000 C 
BRANCH   2   3
ATOM      3  C   UNL     1      43.141  28.977  -1.056  1.00  0.00     0.000 C 
BRANCH   3   4
ATOM      4  C   UNL     1      43.212  29.602  -2.458  1.00  0.00     0.000 C 
BRANCH   4   5
ATOM      5  C   UNL     1      44.625  30.125  -2.756  1.00  0.00     0.000 C 
BRANCH   5   6
ATOM      6  C   UNL     1      45.661  29.671  -1.714  1.00  0.00     0.000 C 
BRANCH   6   7
ATOM      7  C   UNL     1      46.494  28.440  -2.120  1.00  0.00     0.000 C 
BRANCH   7   8
ATOM      8  C   UNL     1      46.651  28.267  -3.646  1.00  0.00     0.000 C 
BRANCH   8   9
ATOM      9  C   UNL     1      45.891  27.044  -4.182  1.00  0.00     0.000 C 
BRANCH   9  10
ATOM     10  C   UNL     1      45.443  27.269  -5.631  1.00  0.00     0.000 C 
BRANCH  10  11
ATOM     11  C   UNL     1      45.544  28.750  -6.018  1.00  0.00     0.000 C 
BRANCH  11  12
ATOM     12  C   UNL     1      44.369  29.165  -6.916  1.00  0.00     0.006 C 
BRANCH  12  13
ATOM     13  C   UNL     1      43.308  28.064  -7.039  1.00  0.00     0.053 C 
BRANCH  13  14
ATOM     14  C   UNL     1      42.068  28.384  -6.260  1.00  0.00     0.041 C 
ATOM     15  O   UNL     1      41.169  29.104  -6.768  1.00  0.00    -0.550 OA
ATOM     16  O   UNL     1      41.905  27.890  -4.969  1.00  0.00    -0.550 OA
ENDBRANCH  13  14
ENDBRANCH  12  13
ENDBRANCH  11  12
ENDBRANCH  10  11
ENDBRANCH   9  10
ENDBRANCH   8   9
ENDBRANCH   7   8
ENDBRANCH   6   7
ENDBRANCH   5   6
ENDBRANCH   4   5
ENDBRANCH   3   4
ENDBRANCH   2   3
ENDBRANCH   1   2
BRANCH   1  17
ATOM     17  C   UNL     1      44.543  27.407   0.951  1.00  0.00     0.000 C 
BRANCH  17  18
ATOM     18  C   UNL     1      44.172  28.178   2.230  1.00  0.00     0.000 C 
BRANCH  18  19
ATOM     19  C   UNL     1      44.583  29.658   2.166  1.00  0.00     0.000 C 
BRANCH  19  20
ATOM     20  C   UNL     1      46.045  29.847   1.728  1.00  0.00     0.000 C 
BRANCH  20  21
ATOM     21  C   UNL     1      47.054  29.240   2.721  1.00  0.00     0.000 C 
BRANCH  21  22
ATOM     22  C   UNL     1      46.821  29.608   4.197  1.00  0.00    -0.000 C 
BRANCH  22  23
ATOM     23  C   UNL     1      47.041  28.424   5.154  1.00  0.00    -0.000 C 
BRANCH  23  24
ATOM     24  C   UNL     1      46.437  27.110   4.627  1.00  0.00    -0.000 C 
BRANCH  24  25
ATOM     25  C   UNL     1      46.273  25.995   5.679  1.00  0.00    -0.000 C 
BRANCH  25  26
ATOM     26  C   UNL     1      46.622  26.402   7.125  1.00  0.00    -0.000 C 
BRANCH  26  27
ATOM     27  C   UNL     1      45.482  26.216   8.143  1.00  0.00    -0.000 C 
BRANCH  27  28
ATOM     28  C   UNL     1      45.242  27.466   9.003  1.00  0.00    -0.000 C 
BRANCH  28  29
ATOM     29  C   UNL     1      45.114  28.719   8.131  1.00  0.00    -0.003 C 
ATOM     30  C   UNL     1      44.834  29.954   8.983  1.00  0.00     0.004 C 
ENDBRANCH  28  29
ENDBRANCH  27  28
ENDBRANCH  26  27
ENDBRANCH  25  26
ENDBRANCH  24  25
ENDBRANCH  23  24
ENDBRANCH  22  23
ENDBRANCH  21  22
ENDBRANCH  20  21
ENDBRANCH  19  20
ENDBRANCH  18  19
ENDBRANCH  17  18
ENDBRANCH   1  17
TORSDOF 26
ENDMDL
MODEL 2
REMARK VINA RESULT:    -3.241      1.917      3.514
REMARK INTER + INTRA:         -11.489
REMARK INTER:                  -8.576
REMARK INTRA:                  -2.913
REMARK UNBOUND:                -3.321
REMARK SMILES CCCCCCCCCCCCCCCCCCCCCCCCCCCC(=O)[O-]
REMARK SMILES IDX 15 1 16 2 17 3 18 4 19 5 20 6 21 7 22 8 23 9 24 10 25 11
REMARK SMILES IDX 26 12 27 13 28 14 29 15 30 16 14 17 13 18 12 19 11 20 10 21
REMARK SMILES IDX 9 22 8 23 7 24 6 25 5 26 4 27 3 28 2 29 1 30
REMARK H PARENT
REMARK Flexibility Score: inf
ROOT
ATOM      1  C   UNL     1      43.357  28.082   0.569  1.00  0.00     0.000 C 
ENDROOT
BRANCH   1   2
ATOM      2  C   UNL     1      42.418  29.170   0.020  1.00  0.00     0.000 C 
BRANCH   2   3
ATOM      3  C   UNL     1      43.019  29.925  -1.174  1.00  0.00     0.000 C 
BRANCH   3   4
ATOM      4  C   UNL     1      42.170  29.792  -2.448  1.00  0.00     0.000 C 
BRANCH   4   5
ATOM      5  C   UNL     1      43.061  29.630  -3.688  1.00  0.00     0.000 C 
BRANCH   5   6
ATOM      6  C   UNL     1      42.802  28.316  -4.442  1.00  0.00     0.000 C 
BRANCH   6   7
ATOM      7  C   UNL     1      42.594  28.467  -5.960  1.00  0.00     0.000 C 
BRANCH   7   8
ATOM      8  C   UNL     1      43.832  28.088  -6.801  1.00  0.00     0.000 C 
BRANCH   8   9
ATOM      9  C   UNL     1      44.923  29.170  -6.765  1.00  0.00     0.000 C 
BRANCH   9  10
ATOM     10  C   UNL     1      46.311  28.543  -6.584  1.00  0.00     0.000 C 
BRANCH  10  11
ATOM     11  C   UNL     1      46.217  27.183  -5.880  1.00  0.00     0.000 C 
BRANCH  11  12
ATOM     12  C   UNL     1      46.960  27.207  -4.536  1.00  0.00     0.006 C 
BRANCH  12  13
ATOM     13  C   UNL     1      46.540  28.391  -3.656  1.00  0.00     0.053 C 
BRANCH  13  14
ATOM     14  C   UNL     1      46.041  27.949  -2.313  1.00  0.00     0.041 C 
ATOM     15  O   UNL     1      46.346  28.598  -1.279  1.00  0.00    -0.550 OA
ATOM     16  O   UNL     1      45.241  26.816  -2.202  1.00  0.00    -0.550 OA
ENDBRANCH  13  14
ENDBRANCH  12  13
ENDBRANCH  11  12
ENDBRANCH  10  11
ENDBRANCH   9  10
ENDBRANCH   8   9
ENDBRANCH   7   8
ENDBRANCH   6   7
ENDBRANCH   5   6
ENDBRANCH   4   5
ENDBRANCH   3   4
ENDBRANCH   2   3
ENDBRANCH   1   2
BRANCH   1  17
ATOM     17  C   UNL     1      43.500  28.141   2.097  1.00  0.00     0.000 C 
BRANCH  17  18
ATOM     18  C   UNL     1      44.909  28.575   2.542  1.00  0.00     0.000 C 
BRANCH  18  19
ATOM     19  C   UNL     1      45.988  27.548   2.166  1.00  0.00     0.000 C 
BRANCH  19  20
ATOM     20  C   UNL     1      45.702  26.151   2.744  1.00  0.00     0.000 C 
BRANCH  20  21
ATOM     21  C   UNL     1      45.226  26.192   4.208  1.00  0.00     0.000 C 
BRANCH  21  22
ATOM     22  C   UNL     1      46.330  25.993   5.261  1.00  0.00    -0.000 C 
BRANCH  22  23
ATOM     23  C   UNL     1      46.973  27.315   5.715  1.00  0.00    -0.000 C 
BRANCH  23  24
ATOM     24  C   UNL     1      45.976  28.487   5.736  1.00  0.00    -0.000 C 
BRANCH  24  25
ATOM     25  C   UNL     1      45.930  29.286   7.054  1.00  0.00    -0.000 C 
BRANCH  25  26
ATOM     26  C   UNL     1      45.155  28.610   8.203  1.00  0.00    -0.000 C 
BRANCH  26  27
ATOM     27  C   UNL     1      45.917  28.532   9.539  1.00  0.00    -0.000 C 
BRANCH  27  28
ATOM     28  C   UNL     1      47.093  27.545   9.497  1.00  0.00    -0.000 C 
BRANCH  28  29
ATOM     29  C   UNL     1      46.607  26.121   9.209  1.00  0.00    -0.003 C 
ATOM     30  C   UNL     1      46.463  25.318  10.498  1.00  0.00     0.004 C 
ENDBRANCH  28  29
ENDBRANCH  27  28
ENDBRANCH  26  27
ENDBRANCH  25  26
ENDBRANCH  24  25
ENDBRANCH  23  24
ENDBRANCH  22  23
ENDBRANCH  21  22
ENDBRANCH  20  21
ENDBRANCH  19  20
ENDBRANCH  18  19
ENDBRANCH  17  18
ENDBRANCH   1  17
TORSDOF 26
ENDMDL
MODEL 3
REMARK VINA RESULT:    -3.170      1.298      2.395
REMARK INTER + INTRA:         -11.309
REMARK INTER:                  -8.815
REMARK INTRA:                  -2.494
REMARK UNBOUND:                -3.321
REMARK SMILES CCCCCCCCCCCCCCCCCCCCCCCCCCCC(=O)[O-]
REMARK SMILES IDX 15 1 16 2 17 3 18 4 19 5 20 6 21 7 22 8 23 9 24 10 25 11
REMARK SMILES IDX 26 12 27 13 28 14 29 15 30 16 14 17 13 18 12 19 11 20 10 21
REMARK SMILES IDX 9 22 8 23 7 24 6 25 5 26 4 27 3 28 2 29 1 30
REMARK H PARENT
REMARK Flexibility Score: inf
ROOT
ATOM      1  C   UNL     1      42.546  27.664   0.738  1.00  0.00     0.000 C 
ENDROOT
BRANCH   1   2
ATOM      2  C   UNL     1      42.435  28.800  -0.294  1.00  0.00     0.000 C 
BRANCH   2   3
ATOM      3  C   UNL     1      43.492  29.895  -0.087  1.00  0.00     0.000 C 
BRANCH   3   4
ATOM      4  C   UNL     1      44.364  30.119  -1.333  1.00  0.00     0.000 C 
BRANCH   4   5
ATOM      5  C   UNL     1      45.559  29.154  -1.347  1.00  0.00     0.000 C 
BRANCH   5   6
ATOM      6  C   UNL     1      46.696  29.626  -2.267  1.00  0.00     0.000 C 
BRANCH   6   7
ATOM      7  C   UNL     1      47.118  28.616  -3.350  1.00  0.00     0.000 C 
BRANCH   7   8
ATOM      8  C   UNL     1      46.145  27.427  -3.510  1.00  0.00     0.000 C 
BRANCH   8   9
ATOM      9  C   UNL     1      46.269  26.744  -4.880  1.00  0.00     0.000 C 
BRANCH   9  10
ATOM     10  C   UNL     1      46.417  27.783  -5.999  1.00  0.00     0.000 C 
BRANCH  10  11
ATOM     11  C   UNL     1      45.049  28.187  -6.564  1.00  0.00     0.000 C 
BRANCH  11  12
ATOM     12  C   UNL     1      44.745  29.663  -6.265  1.00  0.00     0.006 C 
BRANCH  12  13
ATOM     13  C   UNL     1      43.251  29.917  -6.028  1.00  0.00     0.053 C 
BRANCH  13  14
ATOM     14  C   UNL     1      42.612  28.823  -5.225  1.00  0.00     0.041 C 
ATOM     15  O   UNL     1      42.963  28.625  -4.033  1.00  0.00    -0.550 OA
ATOM     16  O   UNL     1      41.630  28.019  -5.796  1.00  0.00    -0.550 OA
ENDBRANCH  13  14
ENDBRANCH  12  13
ENDBRANCH  11  12
ENDBRANCH  10  11
ENDBRANCH   9  10
ENDBRANCH   8   9
ENDBRANCH   7   8
ENDBRANCH   6   7
ENDBRANCH   5   6
ENDBRANCH   4   5
ENDBRANCH   3   4
ENDBRANCH   2   3
ENDBRANCH   1   2
BRANCH   1  17
ATOM     17  C   UNL     1      43.197  28.122   2.052  1.00  0.00     0.000 C 
BRANCH  17  18
ATOM     18  C   UNL     1      44.735  28.139   1.976  1.00  0.00     0.000 C 
BRANCH  18  19
ATOM     19  C   UNL     1      45.342  26.728   2.029  1.00  0.00     0.000 C 
BRANCH  19  20
ATOM     20  C   UNL     1      44.782  25.886   3.187  1.00  0.00     0.000 C 
BRANCH  20  21
ATOM     21  C   UNL     1      45.741  24.769   3.638  1.00  0.00     0.000 C 
BRANCH  21  22
ATOM     22  C   UNL     1      47.118  25.248   4.131  1.00  0.00    -0.000 C 
BRANCH  22  23
ATOM     23  C   UNL     1      47.023  26.289   5.259  1.00  0.00    -0.000 C 
BRANCH  23  24
ATOM     24  C   UNL     1      46.821  25.651   6.645  1.00  0.00    -0.000 C 
BRANCH  24  25
ATOM     25  C   UNL     1      45.660  26.236   7.474  1.00  0.00    -0.000 C 
BRANCH  25  26
ATOM     26  C   UNL     1      46.016  27.478   8.316  1.00  0.00    -0.000 C 
BRANCH  26  27
ATOM     27  C   UNL     1      45.110  28.701   8.082  1.00  0.00    -0.000 C 
BRANCH  27  28
ATOM     28  C   UNL     1      45.806  29.812   7.281  1.00  0.00    -0.000 C 
BRANCH  28  29
ATOM     29  C   UNL     1      45.687  29.563   5.774  1.00  0.00    -0.003 C 
ATOM     30  C   UNL     1      46.895  30.123   5.028  1.00  0.00     0.004 C 
ENDBRANCH  28  29
ENDBRANCH  27  28
ENDBRANCH  26  27
ENDBRANCH  25  26
ENDBRANCH  24  25
ENDBRANCH  23  24
ENDBRANCH  22  23
ENDBRANCH  21  22
ENDBRANCH  20  21
ENDBRANCH  19  20
ENDBRANCH  18  19
ENDBRANCH  17  18
ENDBRANCH   1  17
TORSDOF 26
ENDMDL
MODEL 4
REMARK VINA RESULT:    -3.064      4.154     11.083
REMARK INTER + INTRA:         -11.042
REMARK INTER:                  -7.733
REMARK INTRA:                  -3.310
REMARK UNBOUND:                -3.321
REMARK SMILES CCCCCCCCCCCCCCCCCCCCCCCCCCCC(=O)[O-]
REMARK SMILES IDX 15 1 16 2 17 3 18 4 19 5 20 6 21 7 22 8 23 9 24 10 25 11
REMARK SMILES IDX 26 12 27 13 28 14 29 15 30 16 14 17 13 18 12 19 11 20 10 21
REMARK SMILES IDX 9 22 8 23 7 24 6 25 5 26 4 27 3 28 2 29 1 30
REMARK H PARENT
REMARK Flexibility Score: inf
ROOT
ATOM      1  C   UNL     1      43.074  27.719  -0.505  1.00  0.00     0.000 C 
ENDROOT
BRANCH   1   2
ATOM      2  C   UNL     1      42.877  26.775   0.695  1.00  0.00     0.000 C 
BRANCH   2   3
ATOM      3  C   UNL     1      42.975  27.502   2.044  1.00  0.00     0.000 C 
BRANCH   3   4
ATOM      4  C   UNL     1      43.513  28.935   1.908  1.00  0.00     0.000 C 
BRANCH   4   5
ATOM      5  C   UNL     1      44.857  29.088   2.637  1.00  0.00     0.000 C 
BRANCH   5   6
ATOM      6  C   UNL     1      45.763  27.856   2.484  1.00  0.00     0.000 C 
BRANCH   6   7
ATOM      7  C   UNL     1      46.301  27.276   3.806  1.00  0.00     0.000 C 
BRANCH   7   8
ATOM      8  C   UNL     1      46.988  28.320   4.713  1.00  0.00     0.000 C 
BRANCH   8   9
ATOM      9  C   UNL     1      47.030  27.885   6.185  1.00  0.00     0.000 C 
BRANCH   9  10
ATOM     10  C   UNL     1      45.958  26.826   6.475  1.00  0.00     0.000 C 
BRANCH  10  11
ATOM     11  C   UNL     1      46.286  26.041   7.751  1.00  0.00     0.000 C 
BRANCH  11  12
ATOM     12  C   UNL     1      45.585  26.657   8.972  1.00  0.00     0.006 C 
BRANCH  12  13
ATOM     13  C   UNL     1      46.518  27.561   9.788  1.00  0.00     0.053 C 
BRANCH  13  14
ATOM     14  C   UNL     1      46.058  28.988   9.795  1.00  0.00     0.041 C 
ATOM     15  O   UNL     1      45.427  29.455   8.811  1.00  0.00    -0.550 OA
ATOM     16  O   UNL     1      46.331  29.806  10.887  1.00  0.00    -0.550 OA
ENDBRANCH  13  14
ENDBRANCH  12  13
ENDBRANCH  11  12
ENDBRANCH  10  11
ENDBRANCH   9  10
ENDBRANCH   8   9
ENDBRANCH   7   8
ENDBRANCH   6   7
ENDBRANCH   5   6
ENDBRANCH   4   5
ENDBRANCH   3   4
ENDBRANCH   2   3
ENDBRANCH   1   2
BRANCH   1  17
ATOM     17  C   UNL     1      44.379  27.443  -1.266  1.00  0.00     0.000 C 
BRANCH  17  18
ATOM     18  C   UNL     1      45.421  28.560  -1.077  1.00  0.00     0.000 C 
BRANCH  18  19
ATOM     19  C   UNL     1      44.895  29.936  -1.514  1.00  0.00     0.000 C 
BRANCH  19  20
ATOM     20  C   UNL     1      44.637  30.016  -3.029  1.00  0.00     0.000 C 
BRANCH  20  21
ATOM     21  C   UNL     1      43.139  29.986  -3.385  1.00  0.00     0.000 C 
BRANCH  21  22
ATOM     22  C   UNL     1      42.622  28.642  -3.929  1.00  0.00    -0.000 C 
BRANCH  22  23
ATOM     23  C   UNL     1      42.748  28.523  -5.457  1.00  0.00    -0.000 C 
BRANCH  23  24
ATOM     24  C   UNL     1      42.785  29.891  -6.162  1.00  0.00    -0.000 C 
BRANCH  24  25
ATOM     25  C   UNL     1      43.970  30.101  -7.125  1.00  0.00    -0.000 C 
BRANCH  25  26
ATOM     26  C   UNL     1      45.022  28.973  -7.125  1.00  0.00    -0.000 C 
BRANCH  26  27
ATOM     27  C   UNL     1      46.438  29.408  -6.704  1.00  0.00    -0.000 C 
BRANCH  27  28
ATOM     28  C   UNL     1      46.771  29.029  -5.254  1.00  0.00    -0.000 C 
BRANCH  28  29
ATOM     29  C   UNL     1      47.118  27.541  -5.139  1.00  0.00    -0.003 C 
ATOM     30  C   UNL     1      46.002  26.770  -4.441  1.00  0.00     0.004 C 
ENDBRANCH  28  29
ENDBRANCH  27  28
ENDBRANCH  26  27
ENDBRANCH  25  26
ENDBRANCH  24  25
ENDBRANCH  23  24
ENDBRANCH  22  23
ENDBRANCH  21  22
ENDBRANCH  20  21
ENDBRANCH  19  20
ENDBRANCH  18  19
ENDBRANCH  17  18
ENDBRANCH   1  17
TORSDOF 26
ENDMDL
MODEL 5
REMARK VINA RESULT:    -3.019      1.092      1.985
REMARK INTER + INTRA:         -10.930
REMARK INTER:                  -8.848
REMARK INTRA:                  -2.082
REMARK UNBOUND:                -3.321
REMARK SMILES CCCCCCCCCCCCCCCCCCCCCCCCCCCC(=O)[O-]
REMARK SMILES IDX 15 1 16 2 17 3 18 4 19 5 20 6 21 7 22 8 23 9 24 10 25 11
REMARK SMILES IDX 26 12 27 13 28 14 29 15 30 16 14 17 13 18 12 19 11 20 10 21
REMARK SMILES IDX 9 22 8 23 7 24 6 25 5 26 4 27 3 28 2 29 1 30
REMARK H PARENT
REMARK Flexibility Score: inf
ROOT
ATOM      1  C   UNL     1      42.302  27.410   0.494  1.00  0.00     0.000 C 
ENDROOT
BRANCH   1   2
ATOM      2  C   UNL     1      42.659  27.924  -0.912  1.00  0.00     0.000 C 
BRANCH   2   3
ATOM      3  C   UNL     1      42.617  29.456  -1.012  1.00  0.00     0.000 C 
BRANCH   3   4
ATOM      4  C   UNL     1      43.925  30.116  -0.547  1.00  0.00     0.000 C 
BRANCH   4   5
ATOM      5  C   UNL     1      45.085  29.762  -1.491  1.00  0.00     0.000 C 
BRANCH   5   6
ATOM      6  C   UNL     1      44.707  28.686  -2.522  1.00  0.00     0.000 C 
BRANCH   6   7
ATOM      7  C   UNL     1      45.801  27.638  -2.798  1.00  0.00     0.000 C 
BRANCH   7   8
ATOM      8  C   UNL     1      46.842  28.081  -3.848  1.00  0.00     0.000 C 
BRANCH   8   9
ATOM      9  C   UNL     1      46.933  27.110  -5.035  1.00  0.00     0.000 C 
BRANCH   9  10
ATOM     10  C   UNL     1      46.385  27.754  -6.314  1.00  0.00     0.000 C 
BRANCH  10  11
ATOM     11  C   UNL     1      45.814  29.149  -6.031  1.00  0.00     0.000 C 
BRANCH  11  12
ATOM     12  C   UNL     1      44.404  29.297  -6.622  1.00  0.00     0.006 C 
BRANCH  12  13
ATOM     13  C   UNL     1      43.729  27.943  -6.873  1.00  0.00     0.053 C 
BRANCH  13  14
ATOM     14  C   UNL     1      42.791  27.565  -5.766  1.00  0.00     0.041 C 
ATOM     15  O   UNL     1      43.146  26.731  -4.893  1.00  0.00    -0.550 OA
ATOM     16  O   UNL     1      41.522  28.130  -5.702  1.00  0.00    -0.550 OA
ENDBRANCH  13  14
ENDBRANCH  12  13
ENDBRANCH  11  12
ENDBRANCH  10  11
ENDBRANCH   9  10
ENDBRANCH   8   9
ENDBRANCH   7   8
ENDBRANCH   6   7
ENDBRANCH   5   6
ENDBRANCH   4   5
ENDBRANCH   3   4
ENDBRANCH   2   3
ENDBRANCH   1   2
BRANCH   1  17
ATOM     17  C   UNL     1      43.053  28.159   1.605  1.00  0.00     0.000 C 
BRANCH  17  18
ATOM     18  C   UNL     1      44.202  27.328   2.204  1.00  0.00     0.000 C 
BRANCH  18  19
ATOM     19  C   UNL     1      45.359  27.123   1.215  1.00  0.00     0.000 C 
BRANCH  19  20
ATOM     20  C   UNL     1      46.607  27.943   1.586  1.00  0.00     0.000 C 
BRANCH  20  21
ATOM     21  C   UNL     1      46.273  29.376   2.038  1.00  0.00     0.000 C 
BRANCH  21  22
ATOM     22  C   UNL     1      46.951  29.825   3.345  1.00  0.00    -0.000 C 
BRANCH  22  23
ATOM     23  C   UNL     1      47.102  28.685   4.367  1.00  0.00    -0.000 C 
BRANCH  23  24
ATOM     24  C   UNL     1      47.015  29.173   5.823  1.00  0.00    -0.000 C 
BRANCH  24  25
ATOM     25  C   UNL     1      45.605  29.584   6.294  1.00  0.00    -0.000 C 
BRANCH  25  26
ATOM     26  C   UNL     1      45.522  30.091   7.749  1.00  0.00    -0.000 C 
BRANCH  26  27
ATOM     27  C   UNL     1      44.839  29.123   8.733  1.00  0.00    -0.000 C 
BRANCH  27  28
ATOM     28  C   UNL     1      45.771  27.996   9.202  1.00  0.00    -0.000 C 
BRANCH  28  29
ATOM     29  C   UNL     1      45.237  26.625   8.774  1.00  0.00    -0.003 C 
ATOM     30  C   UNL     1      45.966  26.115   7.535  1.00  0.00     0.004 C 
ENDBRANCH  28  29
ENDBRANCH  27  28
ENDBRANCH  26  27
ENDBRANCH  25  26
ENDBRANCH  24  25
ENDBRANCH  23  24
ENDBRANCH  22  23
ENDBRANCH  21  22
ENDBRANCH  20  21
ENDBRANCH  19  20
ENDBRANCH  18  19
ENDBRANCH  17  18
ENDBRANCH   1  17
TORSDOF 26
ENDMDL
MODEL 6
REMARK VINA RESULT:    -2.849      4.356     10.277
REMARK INTER + INTRA:         -10.502
REMARK INTER:                  -8.306
REMARK INTRA:                  -2.196
REMARK UNBOUND:                -3.321
REMARK SMILES CCCCCCCCCCCCCCCCCCCCCCCCCCCC(=O)[O-]
REMARK SMILES IDX 15 1 16 2 17 3 18 4 19 5 20 6 21 7 22 8 23 9 24 10 25 11
REMARK SMILES IDX 26 12 27 13 28 14 29 15 30 16 14 17 13 18 12 19 11 20 10 21
REMARK SMILES IDX 9 22 8 23 7 24 6 25 5 26 4 27 3 28 2 29 1 30
REMARK H PARENT
REMARK Flexibility Score: inf
ROOT
ATOM      1  C   UNL     1      42.469  27.736   0.638  1.00  0.00     0.000 C 
ENDROOT
BRANCH   1   2
ATOM      2  C   UNL     1      42.903  27.988   2.092  1.00  0.00     0.000 C 
BRANCH   2   3
ATOM      3  C   UNL     1      43.933  29.121   2.216  1.00  0.00     0.000 C 
BRANCH   3   4
ATOM      4  C   UNL     1      44.635  29.431   0.884  1.00  0.00     0.000 C 
BRANCH   4   5
ATOM      5  C   UNL     1      46.149  29.195   0.994  1.00  0.00     0.000 C 
BRANCH   5   6
ATOM      6  C   UNL     1      46.509  27.715   1.199  1.00  0.00     0.000 C 
BRANCH   6   7
ATOM      7  C   UNL     1      46.492  27.239   2.664  1.00  0.00     0.000 C 
BRANCH   7   8
ATOM      8  C   UNL     1      45.863  25.842   2.861  1.00  0.00     0.000 C 
BRANCH   8   9
ATOM      9  C   UNL     1      46.721  24.929   3.748  1.00  0.00     0.000 C 
BRANCH   9  10
ATOM     10  C   UNL     1      47.118  25.642   5.047  1.00  0.00     0.000 C 
BRANCH  10  11
ATOM     11  C   UNL     1      46.096  26.725   5.418  1.00  0.00     0.000 C 
BRANCH  11  12
ATOM     12  C   UNL     1      46.604  27.582   6.587  1.00  0.00     0.006 C 
BRANCH  12  13
ATOM     13  C   UNL     1      45.504  27.884   7.613  1.00  0.00     0.053 C 
BRANCH  13  14
ATOM     14  C   UNL     1      46.064  28.199   8.968  1.00  0.00     0.041 C 
ATOM     15  O   UNL     1      45.836  29.315   9.503  1.00  0.00    -0.550 OA
ATOM     16  O   UNL     1      46.843  27.260   9.638  1.00  0.00    -0.550 OA
ENDBRANCH  13  14
ENDBRANCH  12  13
ENDBRANCH  11  12
ENDBRANCH  10  11
ENDBRANCH   9  10
ENDBRANCH   8   9
ENDBRANCH   7   8
ENDBRANCH   6   7
ENDBRANCH   5   6
ENDBRANCH   4   5
ENDBRANCH   3   4
ENDBRANCH   2   3
ENDBRANCH   1   2
BRANCH   1  17
ATOM     17  C   UNL     1      43.192  26.537   0.005  1.00  0.00     0.000 C 
BRANCH  17  18
ATOM     18  C   UNL     1      43.599  26.797  -1.456  1.00  0.00     0.000 C 
BRANCH  18  19
ATOM     19  C   UNL     1      43.031  28.117  -2.000  1.00  0.00     0.000 C 
BRANCH  19  20
ATOM     20  C   UNL     1      43.896  28.715  -3.123  1.00  0.00     0.000 C 
BRANCH  20  21
ATOM     21  C   UNL     1      43.075  29.505  -4.159  1.00  0.00     0.000 C 
BRANCH  21  22
ATOM     22  C   UNL     1      42.271  28.645  -5.150  1.00  0.00    -0.000 C 
BRANCH  22  23
ATOM     23  C   UNL     1      43.023  27.379  -5.596  1.00  0.00    -0.000 C 
BRANCH  23  24
ATOM     24  C   UNL     1      43.965  27.632  -6.785  1.00  0.00    -0.000 C 
BRANCH  24  25
ATOM     25  C   UNL     1      44.824  28.908  -6.682  1.00  0.00    -0.000 C 
BRANCH  25  26
ATOM     26  C   UNL     1      46.347  28.669  -6.616  1.00  0.00    -0.000 C 
BRANCH  26  27
ATOM     27  C   UNL     1      46.921  28.544  -5.193  1.00  0.00    -0.000 C 
BRANCH  27  28
ATOM     28  C   UNL     1      47.041  27.086  -4.726  1.00  0.00    -0.000 C 
BRANCH  28  29
ATOM     29  C   UNL     1      47.125  27.001  -3.198  1.00  0.00    -0.003 C 
ATOM     30  C   UNL     1      47.054  28.388  -2.567  1.00  0.00     0.004 C 
ENDBRANCH  28  29
ENDBRANCH  27  28
ENDBRANCH  26  27
ENDBRANCH  25  26
ENDBRANCH  24  25
ENDBRANCH  23  24
ENDBRANCH  22  23
ENDBRANCH  21  22
ENDBRANCH  20  21
ENDBRANCH  19  20
ENDBRANCH  18  19
ENDBRANCH  17  18
ENDBRANCH   1  17
TORSDOF 26
ENDMDL
MODEL 7
REMARK VINA RESULT:    -2.791      2.116      3.641
REMARK INTER + INTRA:         -10.355
REMARK INTER:                  -7.694
REMARK INTRA:                  -2.661
REMARK UNBOUND:                -3.321
REMARK SMILES CCCCCCCCCCCCCCCCCCCCCCCCCCCC(=O)[O-]
REMARK SMILES IDX 15 1 16 2 17 3 18 4 19 5 20 6 21 7 22 8 23 9 24 10 25 11
REMARK SMILES IDX 26 12 27 13 28 14 29 15 30 16 14 17 13 18 12 19 11 20 10 21
REMARK SMILES IDX 9 22 8 23 7 24 6 25 5 26 4 27 3 28 2 29 1 30
REMARK H PARENT
REMARK Flexibility Score: inf
ROOT
ATOM      1  C   UNL     1      45.253  30.034  -0.996  1.00  0.00     0.000 C 
ENDROOT
BRANCH   1   2
ATOM      2  C   UNL     1      45.927  29.274  -2.152  1.00  0.00     0.000 C 
BRANCH   2   3
ATOM      3  C   UNL     1      46.054  30.121  -3.426  1.00  0.00     0.000 C 
BRANCH   3   4
ATOM      4  C   UNL     1      47.105  29.570  -4.402  1.00  0.00     0.000 C 
BRANCH   4   5
ATOM      5  C   UNL     1      46.946  28.052  -4.580  1.00  0.00     0.000 C 
BRANCH   5   6
ATOM      6  C   UNL     1      46.316  27.672  -5.929  1.00  0.00     0.000 C 
BRANCH   6   7
ATOM      7  C   UNL     1      46.048  28.856  -6.878  1.00  0.00     0.000 C 
BRANCH   7   8
ATOM      8  C   UNL     1      44.607  29.406  -6.799  1.00  0.00     0.000 C 
BRANCH   8   9
ATOM      9  C   UNL     1      43.549  28.326  -7.075  1.00  0.00     0.000 C 
BRANCH   9  10
ATOM     10  C   UNL     1      42.476  28.318  -5.979  1.00  0.00     0.000 C 
BRANCH  10  11
ATOM     11  C   UNL     1      43.097  28.075  -4.598  1.00  0.00     0.000 C 
BRANCH  11  12
ATOM     12  C   UNL     1      42.994  26.595  -4.200  1.00  0.00     0.006 C 
BRANCH  12  13
ATOM     13  C   UNL     1      44.123  26.162  -3.257  1.00  0.00     0.053 C 
BRANCH  13  14
ATOM     14  C   UNL     1      43.608  25.748  -1.911  1.00  0.00     0.041 C 
ATOM     15  O   UNL     1      43.077  24.618  -1.756  1.00  0.00    -0.550 OA
ATOM     16  O   UNL     1      43.710  26.614  -0.826  1.00  0.00    -0.550 OA
ENDBRANCH  13  14
ENDBRANCH  12  13
ENDBRANCH  11  12
ENDBRANCH  10  11
ENDBRANCH   9  10
ENDBRANCH   8   9
ENDBRANCH   7   8
ENDBRANCH   6   7
ENDBRANCH   5   6
ENDBRANCH   4   5
ENDBRANCH   3   4
ENDBRANCH   2   3
ENDBRANCH   1   2
BRANCH   1  17
ATOM     17  C   UNL     1      43.813  29.565  -0.740  1.00  0.00     0.000 C 
BRANCH  17  18
ATOM     18  C   UNL     1      43.364  29.802   0.713  1.00  0.00     0.000 C 
BRANCH  18  19
ATOM     19  C   UNL     1      44.537  29.770   1.705  1.00  0.00     0.000 C 
BRANCH  19  20
ATOM     20  C   UNL     1      45.141  28.363   1.861  1.00  0.00     0.000 C 
BRANCH  20  21
ATOM     21  C   UNL     1      44.145  27.341   2.437  1.00  0.00     0.000 C 
BRANCH  21  22
ATOM     22  C   UNL     1      44.761  25.998   2.867  1.00  0.00    -0.000 C 
BRANCH  22  23
ATOM     23  C   UNL     1      46.298  25.993   2.805  1.00  0.00    -0.000 C 
BRANCH  23  24
ATOM     24  C   UNL     1      46.950  25.695   4.166  1.00  0.00    -0.000 C 
BRANCH  24  25
ATOM     25  C   UNL     1      46.058  25.965   5.395  1.00  0.00    -0.000 C 
BRANCH  25  26
ATOM     26  C   UNL     1      46.723  26.784   6.520  1.00  0.00    -0.000 C 
BRANCH  26  27
ATOM     27  C   UNL     1      45.742  27.478   7.482  1.00  0.00    -0.000 C 
BRANCH  27  28
ATOM     28  C   UNL     1      45.170  26.522   8.540  1.00  0.00    -0.000 C 
BRANCH  28  29
ATOM     29  C   UNL     1      46.290  25.868   9.356  1.00  0.00    -0.003 C 
ATOM     30  C   UNL     1      46.802  26.811  10.441  1.00  0.00     0.004 C 
ENDBRANCH  28  29
ENDBRANCH  27  28
ENDBRANCH  26  27
ENDBRANCH  25  26
ENDBRANCH  24  25
ENDBRANCH  23  24
ENDBRANCH  22  23
ENDBRANCH  21  22
ENDBRANCH  20  21
ENDBRANCH  19  20
ENDBRANCH  18  19
ENDBRANCH  17  18
ENDBRANCH   1  17
TORSDOF 26
ENDMDL
