MODEL 1
REMARK VINA RESULT:    -3.545      0.000      0.000
REMARK INTER + INTRA:          -4.608
REMARK INTER:                  -4.374
REMARK INTRA:                  -0.234
REMARK UNBOUND:                -0.234
REMARK SMILES CCCCCC(=O)[O-]
REMARK SMILES IDX 4 1 5 2 6 3 7 4 8 5 3 6 2 7 1 8
REMARK H PARENT
REMARK Flexibility Score: inf
ROOT
ATOM      1  C   UNL     1      39.367  20.175   6.084  1.00  0.00     0.006 C 
ENDROOT
BRANCH   1   2
ATOM      2  C   UNL     1      38.585  19.160   6.928  1.00  0.00     0.053 C 
BRANCH   2   3
ATOM      3  C   UNL     1      37.498  19.847   7.693  1.00  0.00     0.041 C 
ATOM      4  O   UNL     1      36.682  19.173   8.376  1.00  0.00    -0.550 OA
ATOM      5  O   UNL     1      37.416  21.233   7.691  1.00  0.00    -0.550 OA
ENDBRANCH   2   3
ENDBRANCH   1   2
BRANCH   1   6
ATOM      6  C   UNL     1      39.022  20.090   4.588  1.00  0.00     0.000 C 
BRANCH   6   7
ATOM      7  C   UNL     1      37.905  21.064   4.184  1.00  0.00    -0.003 C 
ATOM      8  C   UNL     1      36.604  20.319   3.897  1.00  0.00     0.004 C 
ENDBRANCH   6   7
ENDBRANCH   1   6
TORSDOF 4
ENDMDL
MODEL 2
REMARK VINA RESULT:    -3.490      1.334      1.914
REMARK INTER + INTRA:          -4.540
REMARK INTER:                  -4.460
REMARK INTRA:                  -0.079
REMARK UNBOUND:                -0.234
REMARK SMILES CCCCCC(=O)[O-]
REMARK SMILES IDX 4 1 5 2 6 3 7 4 8 5 3 6 2 7 1 8
REMARK H PARENT
REMARK Flexibility Score: inf
ROOT
ATOM      1  C   UNL     1      37.941  20.347   5.188  1.00  0.00     0.006 C 
ENDROOT
BRANCH   1   2
ATOM      2  C   UNL     1      37.791  20.765   6.657  1.00  0.00     0.053 C 
BRANCH   2   3
ATOM      3  C   UNL     1      37.767  19.559   7.542  1.00  0.00     0.041 C 
ATOM      4  O   UNL     1      38.747  18.770   7.565  1.00  0.00    -0.550 OA
ATOM      5  O   UNL     1      36.682  19.335   8.380  1.00  0.00    -0.550 OA
ENDBRANCH   2   3
ENDBRANCH   1   2
BRANCH   1   6
ATOM      6  C   UNL     1      36.586  20.120   4.497  1.00  0.00     0.000 C 
BRANCH   6   7
ATOM      7  C   UNL     1      36.507  20.792   3.119  1.00  0.00    -0.003 C 
ATOM      8  C   UNL     1      35.254  20.353   2.365  1.00  0.00     0.004 C 
ENDBRANCH   6   7
ENDBRANCH   1   6
TORSDOF 4
ENDMDL
MODEL 3
REMARK VINA RESULT:    -3.484      1.015      1.537
REMARK INTER + INTRA:          -4.533
REMARK INTER:                  -4.437
REMARK INTRA:                  -0.096
REMARK UNBOUND:                -0.234
REMARK SMILES CCCCCC(=O)[O-]
REMARK SMILES IDX 4 1 5 2 6 3 7 4 8 5 3 6 2 7 1 8
REMARK H PARENT
REMARK Flexibility Score: inf
ROOT
ATOM      1  C   UNL     1      37.984  20.431   4.962  1.00  0.00     0.006 C 
ENDROOT
BRANCH   1   2
ATOM      2  C   UNL     1      38.276  19.611   6.225  1.00  0.00     0.053 C 
BRANCH   2   3
ATOM      3  C   UNL     1      37.535  20.174   7.396  1.00  0.00     0.041 C 
ATOM      4  O   UNL     1      36.963  19.405   8.213  1.00  0.00    -0.550 OA
ATOM      5  O   UNL     1      37.517  21.545   7.613  1.00  0.00    -0.550 OA
ENDBRANCH   2   3
ENDBRANCH   1   2
BRANCH   1   6
ATOM      6  C   UNL     1      36.583  20.158   4.391  1.00  0.00     0.000 C 
BRANCH   6   7
ATOM      7  C   UNL     1      36.360  20.832   3.029  1.00  0.00    -0.003 C 
ATOM      8  C   UNL     1      35.178  20.205   2.293  1.00  0.00     0.004 C 
ENDBRANCH   6   7
ENDBRANCH   1   6
TORSDOF 4
ENDMDL
MODEL 4
REMARK VINA RESULT:    -3.307      1.904      2.265
REMARK INTER + INTRA:          -4.314
REMARK INTER:                  -4.169
REMARK INTRA:                  -0.145
REMARK UNBOUND:                -0.234
REMARK SMILES CCCCCC(=O)[O-]
REMARK SMILES IDX 4 1 5 2 6 3 7 4 8 5 3 6 2 7 1 8
REMARK H PARENT
REMARK Flexibility Score: inf
ROOT
ATOM      1  C   UNL     1      37.466  19.847   6.747  1.00  0.00     0.006 C 
ENDROOT
BRANCH   1   2
ATOM      2  C   UNL     1      38.886  19.271   6.677  1.00  0.00     0.053 C 
BRANCH   2   3
ATOM      3  C   UNL     1      39.862  20.213   7.308  1.00  0.00     0.041 C 
ATOM      4  O   UNL     1      40.803  19.769   8.017  1.00  0.00    -0.550 OA
ATOM      5  O   UNL     1      39.763  21.578   7.072  1.00  0.00    -0.550 OA
ENDBRANCH   2   3
ENDBRANCH   1   2
BRANCH   1   6
ATOM      6  C   UNL     1      36.807  19.967   5.364  1.00  0.00     0.000 C 
BRANCH   6   7
ATOM      7  C   UNL     1      37.788  20.442   4.282  1.00  0.00    -0.003 C 
ATOM      8  C   UNL     1      37.047  21.098   3.119  1.00  0.00     0.004 C 
ENDBRANCH   6   7
ENDBRANCH   1   6
TORSDOF 4
ENDMDL
MODEL 5
REMARK VINA RESULT:    -3.268      1.637      2.231
REMARK INTER + INTRA:          -4.266
REMARK INTER:                  -4.098
REMARK INTRA:                  -0.168
REMARK UNBOUND:                -0.234
REMARK SMILES CCCCCC(=O)[O-]
REMARK SMILES IDX 4 1 5 2 6 3 7 4 8 5 3 6 2 7 1 8
REMARK H PARENT
REMARK Flexibility Score: inf
ROOT
ATOM      1  C   UNL     1      38.494  19.969   5.476  1.00  0.00     0.006 C 
ENDROOT
BRANCH   1   2
ATOM      2  C   UNL     1      38.780  20.291   6.949  1.00  0.00     0.053 C 
BRANCH   2   3
ATOM      3  C   UNL     1      38.885  21.770   7.148  1.00  0.00     0.041 C 
ATOM      4  O   UNL     1      37.883  22.430   7.531  1.00  0.00    -0.550 OA
ATOM      5  O   UNL     1      40.101  22.412   6.961  1.00  0.00    -0.550 OA
ENDBRANCH   2   3
ENDBRANCH   1   2
BRANCH   1   6
ATOM      6  C   UNL     1      36.992  19.973   5.151  1.00  0.00     0.000 C 
BRANCH   6   7
ATOM      7  C   UNL     1      36.697  20.488   3.734  1.00  0.00    -0.003 C 
ATOM      8  C   UNL     1      37.690  21.573   3.325  1.00  0.00     0.004 C 
ENDBRANCH   6   7
ENDBRANCH   1   6
TORSDOF 4
ENDMDL
MODEL 6
REMARK VINA RESULT:    -3.217      2.648      3.888
REMARK INTER + INTRA:          -4.203
REMARK INTER:                  -3.968
REMARK INTRA:                  -0.235
REMARK UNBOUND:                -0.234
REMARK SMILES CCCCCC(=O)[O-]
REMARK SMILES IDX 4 1 5 2 6 3 7 4 8 5 3 6 2 7 1 8
REMARK H PARENT
REMARK Flexibility Score: inf
ROOT
ATOM      1  C   UNL     1      37.830  19.706   6.051  1.00  0.00     0.006 C 
ENDROOT
BRANCH   1   2
ATOM      2  C   UNL     1      36.758  20.025   5.001  1.00  0.00     0.053 C 
BRANCH   2   3
ATOM      3  C   UNL     1      37.383  20.636   3.787  1.00  0.00     0.041 C 
ATOM      4  O   UNL     1      38.636  20.726   3.696  1.00  0.00    -0.550 OA
ATOM      5  O   UNL     1      36.584  21.062   2.734  1.00  0.00    -0.550 OA
ENDBRANCH   2   3
ENDBRANCH   1   2
BRANCH   1   6
ATOM      6  C   UNL     1      37.611  20.465   7.369  1.00  0.00     0.000 C 
BRANCH   6   7
ATOM      7  C   UNL     1      38.066  21.929   7.290  1.00  0.00    -0.003 C 
ATOM      8  C   UNL     1      39.552  22.025   6.950  1.00  0.00     0.004 C 
ENDBRANCH   6   7
ENDBRANCH   1   6
TORSDOF 4
ENDMDL
MODEL 7
REMARK VINA RESULT:    -3.204      1.552      2.086
REMARK INTER + INTRA:          -4.187
REMARK INTER:                  -4.081
REMARK INTRA:                  -0.106
REMARK UNBOUND:                -0.234
REMARK SMILES CCCCCC(=O)[O-]
REMARK SMILES IDX 4 1 5 2 6 3 7 4 8 5 3 6 2 7 1 8
REMARK H PARENT
REMARK Flexibility Score: inf
ROOT
ATOM      1  C   UNL     1      37.116  19.958   5.026  1.00  0.00     0.006 C 
ENDROOT
BRANCH   1   2
ATOM      2  C   UNL     1      38.478  20.031   5.727  1.00  0.00     0.053 C 
BRANCH   2   3
ATOM      3  C   UNL     1      38.354  19.603   7.155  1.00  0.00     0.041 C 
ATOM      4  O   UNL     1      37.224  19.567   7.710  1.00  0.00    -0.550 OA
ATOM      5  O   UNL     1      39.480  19.196   7.859  1.00  0.00    -0.550 OA
ENDBRANCH   2   3
ENDBRANCH   1   2
BRANCH   1   6
ATOM      6  C   UNL     1      37.065  20.802   3.743  1.00  0.00     0.000 C 
BRANCH   6   7
ATOM      7  C   UNL     1      38.123  21.915   3.726  1.00  0.00    -0.003 C 
ATOM      8  C   UNL     1      37.738  23.024   2.750  1.00  0.00     0.004 C 
ENDBRANCH   6   7
ENDBRANCH   1   6
TORSDOF 4
ENDMDL
MODEL 8
REMARK VINA RESULT:    -3.186      2.482      3.871
REMARK INTER + INTRA:          -4.165
REMARK INTER:                  -3.951
REMARK INTRA:                  -0.215
REMARK UNBOUND:                -0.234
REMARK SMILES CCCCCC(=O)[O-]
REMARK SMILES IDX 4 1 5 2 6 3 7 4 8 5 3 6 2 7 1 8
REMARK H PARENT
REMARK Flexibility Score: inf
ROOT
ATOM      1  C   UNL     1      38.091  20.183   6.878  1.00  0.00     0.006 C 
ENDROOT
BRANCH   1   2
ATOM      2  C   UNL     1      37.420  19.825   5.545  1.00  0.00     0.053 C 
BRANCH   2   3
ATOM      3  C   UNL     1      38.140  20.477   4.407  1.00  0.00     0.041 C 
ATOM      4  O   UNL     1      37.675  21.521   3.879  1.00  0.00    -0.550 OA
ATOM      5  O   UNL     1      39.350  19.961   3.963  1.00  0.00    -0.550 OA
ENDBRANCH   2   3
ENDBRANCH   1   2
BRANCH   1   6
ATOM      6  C   UNL     1      39.133  19.141   7.315  1.00  0.00     0.000 C 
BRANCH   6   7
ATOM      7  C   UNL     1      40.468  19.778   7.726  1.00  0.00    -0.003 C 
ATOM      8  C   UNL     1      40.633  21.161   7.100  1.00  0.00     0.004 C 
ENDBRANCH   6   7
ENDBRANCH   1   6
TORSDOF 4
ENDMDL
MODEL 9
REMARK VINA RESULT:    -3.126      2.686      4.131
REMARK INTER + INTRA:          -4.091
REMARK INTER:                  -3.843
REMARK INTRA:                  -0.248
REMARK UNBOUND:                -0.234
REMARK SMILES CCCCCC(=O)[O-]
REMARK SMILES IDX 4 1 5 2 6 3 7 4 8 5 3 6 2 7 1 8
REMARK H PARENT
REMARK Flexibility Score: inf
ROOT
ATOM      1  C   UNL     1      37.378  19.933   5.439  1.00  0.00     0.006 C 
ENDROOT
BRANCH   1   2
ATOM      2  C   UNL     1      37.892  21.285   4.927  1.00  0.00     0.053 C 
BRANCH   2   3
ATOM      3  C   UNL     1      39.256  21.134   4.333  1.00  0.00     0.041 C 
ATOM      4  O   UNL     1      40.028  22.126   4.258  1.00  0.00    -0.550 OA
ATOM      5  O   UNL     1      39.694  19.887   3.907  1.00  0.00    -0.550 OA
ENDBRANCH   2   3
ENDBRANCH   1   2
BRANCH   1   6
ATOM      6  C   UNL     1      37.588  19.755   6.951  1.00  0.00     0.000 C 
BRANCH   6   7
ATOM      7  C   UNL     1      38.767  18.826   7.278  1.00  0.00    -0.003 C 
ATOM      8  C   UNL     1      40.031  19.628   7.577  1.00  0.00     0.004 C 
ENDBRANCH   6   7
ENDBRANCH   1   6
TORSDOF 4
ENDMDL
