MODEL 1
REMARK VINA RESULT:    29.020      0.000      0.000
REMARK INTER + INTRA:          32.005
REMARK INTER:                  31.564
REMARK INTRA:                   0.440
REMARK UNBOUND:                 0.440
REMARK SMILES CC(=O)[C@H]1CC[C@H]2[C@H]3CC=C4C[C@H](O)CC[C@@]4(C)[C@@H]3CC[C@@]12C
REMARK SMILES IDX 4 1 5 2 6 3 7 4 22 5 21 6 20 7 19 8 8 9 9 10 10 11 11 12
REMARK SMILES IDX 17 13 16 14 15 15 13 16 12 17 18 18 23 19 2 20 1 21 3 22
REMARK SMILES IDX 14 23
REMARK H PARENT 14 24
REMARK Flexibility Score: inf
ROOT
ATOM      1  C   UNL     1      -0.610  45.933  49.595  1.00  0.00     0.062 C 
ATOM      2  C   UNL     1       0.256  46.428  48.428  1.00  0.00     0.012 C 
ATOM      3  C   UNL     1       1.073  45.218  47.965  1.00  0.00     0.005 C 
ATOM      4  C   UNL     1       0.584  44.014  48.791  1.00  0.00    -0.001 C 
ATOM      5  C   UNL     1       0.054  44.629  50.104  1.00  0.00    -0.020 C 
ATOM      6  C   UNL     1       1.235  44.926  51.076  1.00  0.00     0.008 C 
ATOM      7  C   UNL     1       2.130  43.710  51.317  1.00  0.00     0.005 C 
ATOM      8  C   UNL     1       2.739  43.181  49.994  1.00  0.00     0.003 C 
ATOM      9  C   UNL     1       1.612  42.853  48.983  1.00  0.00     0.000 C 
ATOM     10  C   UNL     1       2.210  42.423  47.634  1.00  0.00     0.031 C 
ATOM     11  C   UNL     1       3.298  41.402  47.773  1.00  0.00    -0.027 C 
ATOM     12  C   UNL     1       4.083  41.296  48.865  1.00  0.00    -0.065 C 
ATOM     13  C   UNL     1       3.719  41.956  50.206  1.00  0.00    -0.008 C 
ATOM     14  C   UNL     1       5.031  42.477  50.876  1.00  0.00     0.014 C 
ATOM     15  C   UNL     1       6.168  41.443  50.902  1.00  0.00     0.033 C 
ATOM     16  C   UNL     1       6.492  40.953  49.484  1.00  0.00     0.118 C 
ATOM     17  C   UNL     1       5.257  40.335  48.815  1.00  0.00     0.063 C 
ATOM     18  C   UNL     1       3.079  40.867  51.112  1.00  0.00     0.016 C 
ATOM     19  C   UNL     1      -0.998  43.715  50.777  1.00  0.00     0.012 C 
ENDROOT
BRANCH   1  20
ATOM     20  C   UNL     1      -0.949  46.966  50.663  1.00  0.00     0.133 C 
ATOM     21  C   UNL     1      -1.125  46.646  52.123  1.00  0.00     0.088 C 
ATOM     22  O   UNL     1      -1.116  48.125  50.312  1.00  0.00    -0.300 OA
ENDBRANCH   1  20
BRANCH  16  23
ATOM     23  O   UNL     1       7.556  40.034  49.507  1.00  0.00    -0.393 OA
ATOM     24  H   UNL     1       8.177  40.273  48.770  1.00  0.00     0.210 HD
ENDBRANCH  16  23
TORSDOF 2
ENDMDL
