MODEL 1
REMARK VINA RESULT:    -4.628      0.000      0.000
REMARK INTER + INTRA:          -7.463
REMARK INTER:                  -7.063
REMARK INTRA:                  -0.401
REMARK UNBOUND:                -0.401
REMARK SMILES CC1=CCC[C@@H](C)C(=O)C[C@H](C(C)C)C(=O)C1
REMARK SMILES IDX 8 1 9 2 6 3 7 4 5 5 4 6 3 7 2 8 1 9 10 11 11 12 15 13 16 14
REMARK SMILES IDX 17 15 12 17 13 18 14 19
REMARK H PARENT
REMARK Flexibility Score: 70.00
ROOT
ATOM      1  C   UNL     1     -18.789 -36.998  -4.164  1.00  0.00     0.136 C 
ATOM      2  O   UNL     1     -18.989 -35.794  -4.237  1.00  0.00    -0.299 OA
ENDROOT
BRANCH   1   3
ATOM      3  C   UNL     1     -17.371 -37.530  -3.998  1.00  0.00     0.053 C 
ATOM      4  C   UNL     1     -16.376 -36.425  -3.611  1.00  0.00     0.016 C 
BRANCH   3   5
ATOM      5  C   UNL     1     -16.892 -38.301  -5.248  1.00  0.00     0.015 C 
BRANCH   5   6
ATOM      6  C   UNL     1     -16.756 -39.818  -5.012  1.00  0.00     0.028 C 
BRANCH   6   7
ATOM      7  C   UNL     1     -17.265 -40.646  -6.165  1.00  0.00    -0.028 C 
ATOM      8  C   UNL     1     -18.567 -40.905  -6.450  1.00  0.00    -0.070 CG0
ATOM      9  C   UNL     1     -18.856 -41.652  -7.730  1.00  0.00     0.039 C 
ATOM     10  G   UNL     1     -19.739 -40.560  -5.533  1.00  0.00     0.000 G0
ENDBRANCH   6   7
ENDBRANCH   5   6
ENDBRANCH   3   5
ENDBRANCH   1   3
BRANCH   1  11
ATOM     11  C   UNL     1     -19.968 -37.938  -4.218  1.00  0.00     0.087 C 
BRANCH  11  12
ATOM     12  C   UNL     1     -20.589 -38.057  -5.638  1.00  0.00     0.066 C 
BRANCH  12  13
ATOM     13  C   UNL     1     -20.690 -39.512  -6.086  1.00  0.00     0.140 C 
ATOM     14  O   UNL     1     -21.624 -39.849  -6.799  1.00  0.00    -0.299 OA
BRANCH  13  15
ATOM     15  C   UNL     1     -19.757 -40.567  -5.539  1.00  0.00     0.106 CG0
ATOM     16  G   UNL     1     -18.566 -40.901  -6.436  1.00  0.00     0.000 G0
ENDBRANCH  13  15
ENDBRANCH  12  13
BRANCH  12  17
ATOM     17  C   UNL     1     -21.980 -37.351  -5.746  1.00  0.00    -0.006 C 
ATOM     18  C   UNL     1     -21.921 -36.144  -6.701  1.00  0.00     0.008 C 
ATOM     19  C   UNL     1     -22.505 -36.873  -4.379  1.00  0.00     0.008 C 
ENDBRANCH  12  17
ENDBRANCH  11  12
ENDBRANCH   1  11
TORSDOF 1
ENDMDL
MODEL 2
REMARK VINA RESULT:    -4.403      2.174      5.634
REMARK INTER + INTRA:          -7.119
REMARK INTER:                  -6.748
REMARK INTRA:                  -0.371
REMARK UNBOUND:                -0.401
REMARK SMILES CC1=CCC[C@@H](C)C(=O)C[C@H](C(C)C)C(=O)C1
REMARK SMILES IDX 8 1 9 2 6 3 7 4 5 5 4 6 3 7 2 8 1 9 10 11 11 12 15 13 16 14
REMARK SMILES IDX 17 15 12 17 13 18 14 19
REMARK H PARENT
REMARK Flexibility Score: 70.00
ROOT
ATOM      1  C   UNL     1     -17.724 -40.797  -7.342  1.00  0.00     0.136 C 
ATOM      2  O   UNL     1     -16.925 -41.163  -8.193  1.00  0.00    -0.299 OA
ENDROOT
BRANCH   1   3
ATOM      3  C   UNL     1     -19.205 -40.685  -7.680  1.00  0.00     0.053 C 
ATOM      4  C   UNL     1     -19.505 -41.099  -9.129  1.00  0.00     0.016 C 
BRANCH   3   5
ATOM      5  C   UNL     1     -19.763 -39.278  -7.374  1.00  0.00     0.015 C 
BRANCH   5   6
ATOM      6  C   UNL     1     -20.579 -39.218  -6.068  1.00  0.00     0.028 C 
BRANCH   6   7
ATOM      7  C   UNL     1     -20.421 -37.912  -5.329  1.00  0.00    -0.028 C 
ATOM      8  C   UNL     1     -19.374 -37.561  -4.540  1.00  0.00    -0.070 CG0
ATOM      9  C   UNL     1     -19.361 -36.150  -4.000  1.00  0.00     0.039 C 
ATOM     10  G   UNL     1     -18.260 -38.512  -4.106  1.00  0.00     0.000 G0
ENDBRANCH   6   7
ENDBRANCH   5   6
ENDBRANCH   3   5
ENDBRANCH   1   3
BRANCH   1  11
ATOM     11  C   UNL     1     -17.220 -40.485  -5.954  1.00  0.00     0.087 C 
BRANCH  11  12
ATOM     12  C   UNL     1     -16.416 -39.156  -5.882  1.00  0.00     0.066 C 
BRANCH  12  13
ATOM     13  C   UNL     1     -16.911 -38.262  -4.749  1.00  0.00     0.140 C 
ATOM     14  O   UNL     1     -16.155 -37.422  -4.284  1.00  0.00    -0.299 OA
BRANCH  13  15
ATOM     15  C   UNL     1     -18.250 -38.502  -4.090  1.00  0.00     0.106 CG0
ATOM     16  G   UNL     1     -19.368 -37.566  -4.546  1.00  0.00     0.000 G0
ENDBRANCH  13  15
ENDBRANCH  12  13
BRANCH  12  17
ATOM     17  C   UNL     1     -14.875 -39.392  -5.762  1.00  0.00    -0.006 C 
ATOM     18  C   UNL     1     -14.136 -38.905  -7.023  1.00  0.00     0.008 C 
ATOM     19  C   UNL     1     -14.524 -40.873  -5.526  1.00  0.00     0.008 C 
ENDBRANCH  12  17
ENDBRANCH  11  12
ENDBRANCH   1  11
TORSDOF 1
ENDMDL
MODEL 3
REMARK VINA RESULT:    -4.364      2.226      4.356
REMARK INTER + INTRA:          -7.061
REMARK INTER:                  -6.807
REMARK INTRA:                  -0.255
REMARK UNBOUND:                -0.401
REMARK SMILES CC1=CCC[C@@H](C)C(=O)C[C@H](C(C)C)C(=O)C1
REMARK SMILES IDX 8 1 9 2 6 3 7 4 5 5 4 6 3 7 2 8 1 9 10 11 11 12 15 13 16 14
REMARK SMILES IDX 17 15 12 17 13 18 14 19
REMARK H PARENT
REMARK Flexibility Score: 70.00
ROOT
ATOM      1  C   UNL     1     -18.155 -39.655  -6.338  1.00  0.00     0.136 C 
ATOM      2  O   UNL     1     -17.574 -40.698  -6.606  1.00  0.00    -0.299 OA
ENDROOT
BRANCH   1   3
ATOM      3  C   UNL     1     -17.558 -38.685  -5.326  1.00  0.00     0.053 C 
ATOM      4  C   UNL     1     -16.252 -39.214  -4.712  1.00  0.00     0.016 C 
BRANCH   3   5
ATOM      5  C   UNL     1     -18.573 -38.295  -4.230  1.00  0.00     0.015 C 
BRANCH   5   6
ATOM      6  C   UNL     1     -18.913 -36.792  -4.222  1.00  0.00     0.028 C 
BRANCH   6   7
ATOM      7  C   UNL     1     -20.344 -36.509  -3.838  1.00  0.00    -0.028 C 
ATOM      8  C   UNL     1     -21.446 -36.843  -4.557  1.00  0.00    -0.070 CG0
ATOM      9  C   UNL     1     -22.789 -36.576  -3.921  1.00  0.00     0.039 C 
ATOM     10  G   UNL     1     -21.416 -37.394  -5.981  1.00  0.00     0.000 G0
ENDBRANCH   6   7
ENDBRANCH   5   6
ENDBRANCH   3   5
ENDBRANCH   1   3
BRANCH   1  11
ATOM     11  C   UNL     1     -19.451 -39.340  -7.042  1.00  0.00     0.087 C 
BRANCH  11  12
ATOM     12  C   UNL     1     -20.699 -39.902  -6.303  1.00  0.00     0.066 C 
BRANCH  12  13
ATOM     13  C   UNL     1     -21.785 -38.842  -6.150  1.00  0.00     0.140 C 
ATOM     14  O   UNL     1     -22.956 -39.170  -6.281  1.00  0.00    -0.299 OA
BRANCH  13  15
ATOM     15  C   UNL     1     -21.437 -37.379  -6.000  1.00  0.00     0.106 CG0
ATOM     16  G   UNL     1     -21.464 -36.855  -4.566  1.00  0.00     0.000 G0
ENDBRANCH  13  15
ENDBRANCH  12  13
BRANCH  12  17
ATOM     17  C   UNL     1     -21.275 -41.184  -6.989  1.00  0.00    -0.006 C 
ATOM     18  C   UNL     1     -20.928 -42.451  -6.184  1.00  0.00     0.008 C 
ATOM     19  C   UNL     1     -20.763 -41.360  -8.431  1.00  0.00     0.008 C 
ENDBRANCH  12  17
ENDBRANCH  11  12
ENDBRANCH   1  11
TORSDOF 1
ENDMDL
MODEL 4
REMARK VINA RESULT:    -4.298      2.117      4.331
REMARK INTER + INTRA:          -6.960
REMARK INTER:                  -7.015
REMARK INTRA:                   0.055
REMARK UNBOUND:                -0.401
REMARK SMILES CC1=CCC[C@@H](C)C(=O)C[C@H](C(C)C)C(=O)C1
REMARK SMILES IDX 8 1 9 2 6 3 7 4 5 5 4 6 3 7 2 8 1 9 10 11 11 12 15 13 16 14
REMARK SMILES IDX 17 15 12 17 13 18 14 19
REMARK H PARENT
REMARK Flexibility Score: 70.00
ROOT
ATOM      1  C   UNL     1     -16.615 -40.159  -7.967  1.00  0.00     0.136 C 
ATOM      2  O   UNL     1     -16.385 -40.753  -9.012  1.00  0.00    -0.299 OA
ENDROOT
BRANCH   1   3
ATOM      3  C   UNL     1     -15.631 -40.241  -6.807  1.00  0.00     0.053 C 
ATOM      4  C   UNL     1     -15.998 -41.351  -5.810  1.00  0.00     0.016 C 
BRANCH   3   5
ATOM      5  C   UNL     1     -15.463 -38.882  -6.094  1.00  0.00     0.015 C 
BRANCH   5   6
ATOM      6  C   UNL     1     -16.051 -38.866  -4.669  1.00  0.00     0.028 C 
BRANCH   6   7
ATOM      7  C   UNL     1     -16.915 -37.659  -4.398  1.00  0.00    -0.028 C 
ATOM      8  C   UNL     1     -18.267 -37.655  -4.274  1.00  0.00    -0.070 CG0
ATOM      9  C   UNL     1     -18.916 -36.352  -3.873  1.00  0.00     0.039 C 
ATOM     10  G   UNL     1     -19.168 -38.849  -4.583  1.00  0.00     0.000 G0
ENDBRANCH   6   7
ENDBRANCH   5   6
ENDBRANCH   3   5
ENDBRANCH   1   3
BRANCH   1  11
ATOM     11  C   UNL     1     -17.872 -39.332  -7.861  1.00  0.00     0.087 C 
BRANCH  11  12
ATOM     12  C   UNL     1     -18.958 -39.986  -6.961  1.00  0.00     0.066 C 
BRANCH  12  13
ATOM     13  C   UNL     1     -19.602 -38.965  -6.028  1.00  0.00     0.140 C 
ATOM     14  O   UNL     1     -20.382 -38.146  -6.492  1.00  0.00    -0.299 OA
BRANCH  13  15
ATOM     15  C   UNL     1     -19.177 -38.846  -4.582  1.00  0.00     0.106 CG0
ATOM     16  G   UNL     1     -18.257 -37.665  -4.277  1.00  0.00     0.000 G0
ENDBRANCH  13  15
ENDBRANCH  12  13
BRANCH  12  17
ATOM     17  C   UNL     1     -20.050 -40.738  -7.790  1.00  0.00    -0.006 C 
ATOM     18  C   UNL     1     -21.364 -40.866  -6.995  1.00  0.00     0.008 C 
ATOM     19  C   UNL     1     -19.596 -42.144  -8.222  1.00  0.00     0.008 C 
ENDBRANCH  12  17
ENDBRANCH  11  12
ENDBRANCH   1  11
TORSDOF 1
ENDMDL
MODEL 5
REMARK VINA RESULT:    -4.295      1.758      3.847
REMARK INTER + INTRA:          -6.955
REMARK INTER:                  -6.835
REMARK INTRA:                  -0.120
REMARK UNBOUND:                -0.401
REMARK SMILES CC1=CCC[C@@H](C)C(=O)C[C@H](C(C)C)C(=O)C1
REMARK SMILES IDX 8 1 9 2 6 3 7 4 5 5 4 6 3 7 2 8 1 9 10 11 11 12 15 13 16 14
REMARK SMILES IDX 17 15 12 17 13 18 14 19
REMARK H PARENT
REMARK Flexibility Score: 70.00
ROOT
ATOM      1  C   UNL     1     -18.847 -39.730  -7.285  1.00  0.00     0.136 C 
ATOM      2  O   UNL     1     -19.520 -40.735  -7.471  1.00  0.00    -0.299 OA
ENDROOT
BRANCH   1   3
ATOM      3  C   UNL     1     -17.343 -39.761  -7.521  1.00  0.00     0.053 C 
ATOM      4  C   UNL     1     -16.988 -40.107  -8.976  1.00  0.00     0.016 C 
BRANCH   3   5
ATOM      5  C   UNL     1     -16.621 -40.702  -6.531  1.00  0.00     0.015 C 
BRANCH   5   6
ATOM      6  C   UNL     1     -16.718 -40.234  -5.066  1.00  0.00     0.028 C 
BRANCH   6   7
ATOM      7  C   UNL     1     -16.386 -38.773  -4.887  1.00  0.00    -0.028 C 
ATOM      8  C   UNL     1     -17.104 -37.872  -4.169  1.00  0.00    -0.070 CG0
ATOM      9  C   UNL     1     -16.517 -36.489  -4.018  1.00  0.00     0.039 C 
ATOM     10  G   UNL     1     -18.485 -38.141  -3.575  1.00  0.00     0.000 G0
ENDBRANCH   6   7
ENDBRANCH   5   6
ENDBRANCH   3   5
ENDBRANCH   1   3
BRANCH   1  11
ATOM     11  C   UNL     1     -19.536 -38.462  -6.843  1.00  0.00     0.087 C 
BRANCH  11  12
ATOM     12  C   UNL     1     -20.261 -38.607  -5.475  1.00  0.00     0.066 C 
BRANCH  12  13
ATOM     13  C   UNL     1     -19.658 -37.686  -4.420  1.00  0.00     0.140 C 
ATOM     14  O   UNL     1     -20.046 -36.528  -4.352  1.00  0.00    -0.299 OA
BRANCH  13  15
ATOM     15  C   UNL     1     -18.486 -38.126  -3.572  1.00  0.00     0.106 CG0
ATOM     16  G   UNL     1     -17.113 -37.876  -4.192  1.00  0.00     0.000 G0
ENDBRANCH  13  15
ENDBRANCH  12  13
BRANCH  12  17
ATOM     17  C   UNL     1     -21.804 -38.378  -5.587  1.00  0.00    -0.006 C 
ATOM     18  C   UNL     1     -22.525 -39.656  -6.056  1.00  0.00     0.008 C 
ATOM     19  C   UNL     1     -22.160 -37.230  -6.549  1.00  0.00     0.008 C 
ENDBRANCH  12  17
ENDBRANCH  11  12
ENDBRANCH   1  11
TORSDOF 1
ENDMDL
MODEL 6
REMARK VINA RESULT:    -4.278      1.776      3.678
REMARK INTER + INTRA:          -6.929
REMARK INTER:                  -7.253
REMARK INTRA:                   0.324
REMARK UNBOUND:                -0.401
REMARK SMILES CC1=CCC[C@@H](C)C(=O)C[C@H](C(C)C)C(=O)C1
REMARK SMILES IDX 8 1 9 2 6 3 7 4 5 5 4 6 3 7 2 8 1 9 10 11 11 12 15 13 16 14
REMARK SMILES IDX 17 15 12 17 13 18 14 19
REMARK H PARENT
REMARK Flexibility Score: 70.00
ROOT
ATOM      1  C   UNL     1     -21.123 -37.714  -5.608  1.00  0.00     0.136 C 
ATOM      2  O   UNL     1     -21.738 -37.292  -6.578  1.00  0.00    -0.299 OA
ENDROOT
BRANCH   1   3
ATOM      3  C   UNL     1     -20.865 -36.807  -4.412  1.00  0.00     0.053 C 
ATOM      4  C   UNL     1     -21.676 -35.504  -4.483  1.00  0.00     0.016 C 
BRANCH   3   5
ATOM      5  C   UNL     1     -19.360 -36.519  -4.217  1.00  0.00     0.015 C 
BRANCH   5   6
ATOM      6  C   UNL     1     -18.588 -37.706  -3.608  1.00  0.00     0.028 C 
BRANCH   6   7
ATOM      7  C   UNL     1     -17.210 -37.881  -4.197  1.00  0.00    -0.028 C 
ATOM      8  C   UNL     1     -16.860 -38.770  -5.162  1.00  0.00    -0.070 CG0
ATOM      9  C   UNL     1     -15.450 -38.686  -5.696  1.00  0.00     0.039 C 
ATOM     10  G   UNL     1     -17.766 -39.885  -5.682  1.00  0.00     0.000 G0
ENDBRANCH   6   7
ENDBRANCH   5   6
ENDBRANCH   3   5
ENDBRANCH   1   3
BRANCH   1  11
ATOM     11  C   UNL     1     -20.649 -39.146  -5.611  1.00  0.00     0.087 C 
BRANCH  11  12
ATOM     12  C   UNL     1     -20.056 -39.589  -6.979  1.00  0.00     0.066 C 
BRANCH  12  13
ATOM     13  C   UNL     1     -18.531 -39.592  -6.954  1.00  0.00     0.140 C 
ATOM     14  O   UNL     1     -17.921 -39.469  -8.007  1.00  0.00    -0.299 OA
BRANCH  13  15
ATOM     15  C   UNL     1     -17.768 -39.901  -5.687  1.00  0.00     0.106 CG0
ATOM     16  G   UNL     1     -16.877 -38.769  -5.180  1.00  0.00     0.000 G0
ENDBRANCH  13  15
ENDBRANCH  12  13
BRANCH  12  17
ATOM     17  C   UNL     1     -20.600 -40.979  -7.447  1.00  0.00    -0.006 C 
ATOM     18  C   UNL     1     -20.156 -41.295  -8.888  1.00  0.00     0.008 C 
ATOM     19  C   UNL     1     -22.136 -41.064  -7.374  1.00  0.00     0.008 C 
ENDBRANCH  12  17
ENDBRANCH  11  12
ENDBRANCH   1  11
TORSDOF 1
ENDMDL
MODEL 7
REMARK VINA RESULT:    -4.269      2.064      3.892
REMARK INTER + INTRA:          -6.915
REMARK INTER:                  -6.935
REMARK INTRA:                   0.020
REMARK UNBOUND:                -0.401
REMARK SMILES CC1=CCC[C@@H](C)C(=O)C[C@H](C(C)C)C(=O)C1
REMARK SMILES IDX 8 1 9 2 6 3 7 4 5 5 4 6 3 7 2 8 1 9 10 11 11 12 15 13 16 14
REMARK SMILES IDX 17 15 12 17 13 18 14 19
REMARK H PARENT
REMARK Flexibility Score: 70.00
ROOT
ATOM      1  C   UNL     1     -16.101 -39.736  -6.141  1.00  0.00     0.136 C 
ATOM      2  O   UNL     1     -15.075 -39.276  -6.624  1.00  0.00    -0.299 OA
ENDROOT
BRANCH   1   3
ATOM      3  C   UNL     1     -16.831 -40.875  -6.837  1.00  0.00     0.053 C 
ATOM      4  C   UNL     1     -16.195 -42.243  -6.542  1.00  0.00     0.016 C 
BRANCH   3   5
ATOM      5  C   UNL     1     -16.961 -40.637  -8.358  1.00  0.00     0.015 C 
BRANCH   5   6
ATOM      6  C   UNL     1     -18.219 -39.834  -8.742  1.00  0.00     0.028 C 
BRANCH   6   7
ATOM      7  C   UNL     1     -19.494 -40.437  -8.207  1.00  0.00    -0.028 C 
ATOM      8  C   UNL     1     -20.305 -39.889  -7.265  1.00  0.00    -0.070 CG0
ATOM      9  C   UNL     1     -21.601 -40.606  -6.972  1.00  0.00     0.039 C 
ATOM     10  G   UNL     1     -19.959 -38.650  -6.441  1.00  0.00     0.000 G0
ENDBRANCH   6   7
ENDBRANCH   5   6
ENDBRANCH   3   5
ENDBRANCH   1   3
BRANCH   1  11
ATOM     11  C   UNL     1     -16.610 -39.170  -4.838  1.00  0.00     0.087 C 
BRANCH  11  12
ATOM     12  C   UNL     1     -17.779 -38.162  -5.026  1.00  0.00     0.066 C 
BRANCH  12  13
ATOM     13  C   UNL     1     -19.111 -38.878  -5.222  1.00  0.00     0.140 C 
ATOM     14  O   UNL     1     -19.426 -39.767  -4.444  1.00  0.00    -0.299 OA
BRANCH  13  15
ATOM     15  C   UNL     1     -19.967 -38.623  -6.442  1.00  0.00     0.106 CG0
ATOM     16  G   UNL     1     -20.305 -39.866  -7.262  1.00  0.00     0.000 G0
ENDBRANCH  13  15
ENDBRANCH  12  13
BRANCH  12  17
ATOM     17  C   UNL     1     -17.876 -37.131  -3.854  1.00  0.00    -0.006 C 
ATOM     18  C   UNL     1     -19.186 -36.322  -3.931  1.00  0.00     0.008 C 
ATOM     19  C   UNL     1     -16.691 -36.149  -3.833  1.00  0.00     0.008 C 
ENDBRANCH  12  17
ENDBRANCH  11  12
ENDBRANCH   1  11
TORSDOF 1
ENDMDL
MODEL 8
REMARK VINA RESULT:    -4.181      1.815      2.729
REMARK INTER + INTRA:          -6.781
REMARK INTER:                  -6.762
REMARK INTRA:                  -0.019
REMARK UNBOUND:                -0.401
REMARK SMILES CC1=CCC[C@@H](C)C(=O)C[C@H](C(C)C)C(=O)C1
REMARK SMILES IDX 8 1 9 2 6 3 7 4 5 5 4 6 3 7 2 8 1 9 10 11 11 12 15 13 16 14
REMARK SMILES IDX 17 15 12 17 13 18 14 19
REMARK H PARENT
REMARK Flexibility Score: 70.00
ROOT
ATOM      1  C   UNL     1     -16.192 -38.716  -4.960  1.00  0.00     0.136 C 
ATOM      2  O   UNL     1     -16.008 -37.562  -4.598  1.00  0.00    -0.299 OA
ENDROOT
BRANCH   1   3
ATOM      3  C   UNL     1     -15.087 -39.479  -5.679  1.00  0.00     0.053 C 
ATOM      4  C   UNL     1     -14.244 -38.567  -6.585  1.00  0.00     0.016 C 
BRANCH   3   5
ATOM      5  C   UNL     1     -15.635 -40.691  -6.463  1.00  0.00     0.015 C 
BRANCH   5   6
ATOM      6  C   UNL     1     -16.143 -40.326  -7.871  1.00  0.00     0.028 C 
BRANCH   6   7
ATOM      7  C   UNL     1     -17.114 -41.336  -8.432  1.00  0.00    -0.028 C 
ATOM      8  C   UNL     1     -18.461 -41.189  -8.517  1.00  0.00    -0.070 CG0
ATOM      9  C   UNL     1     -19.228 -42.275  -9.233  1.00  0.00     0.039 C 
ATOM     10  G   UNL     1     -19.249 -40.047  -7.877  1.00  0.00     0.000 G0
ENDBRANCH   6   7
ENDBRANCH   5   6
ENDBRANCH   3   5
ENDBRANCH   1   3
BRANCH   1  11
ATOM     11  C   UNL     1     -17.519 -39.371  -4.662  1.00  0.00     0.087 C 
BRANCH  11  12
ATOM     12  C   UNL     1     -18.667 -38.871  -5.582  1.00  0.00     0.066 C 
BRANCH  12  13
ATOM     13  C   UNL     1     -19.292 -40.016  -6.372  1.00  0.00     0.140 C 
ATOM     14  O   UNL     1     -19.706 -40.996  -5.769  1.00  0.00    -0.299 OA
BRANCH  13  15
ATOM     15  C   UNL     1     -19.265 -40.033  -7.883  1.00  0.00     0.106 CG0
ATOM     16  G   UNL     1     -18.462 -41.177  -8.500  1.00  0.00     0.000 G0
ENDBRANCH  13  15
ENDBRANCH  12  13
BRANCH  12  17
ATOM     17  C   UNL     1     -19.765 -38.082  -4.796  1.00  0.00    -0.006 C 
ATOM     18  C   UNL     1     -20.923 -37.665  -5.723  1.00  0.00     0.008 C 
ATOM     19  C   UNL     1     -19.206 -36.823  -4.108  1.00  0.00     0.008 C 
ENDBRANCH  12  17
ENDBRANCH  11  12
ENDBRANCH   1  11
TORSDOF 1
ENDMDL
MODEL 9
REMARK VINA RESULT:    -3.991      2.223      4.677
REMARK INTER + INTRA:          -6.491
REMARK INTER:                  -6.200
REMARK INTRA:                  -0.291
REMARK UNBOUND:                -0.401
REMARK SMILES CC1=CCC[C@@H](C)C(=O)C[C@H](C(C)C)C(=O)C1
REMARK SMILES IDX 8 1 9 2 6 3 7 4 5 5 4 6 3 7 2 8 1 9 10 11 11 12 15 13 16 14
REMARK SMILES IDX 17 15 12 17 13 18 14 19
REMARK H PARENT
REMARK Flexibility Score: 70.00
ROOT
ATOM      1  C   UNL     1     -19.381 -38.999  -6.103  1.00  0.00     0.136 C 
ATOM      2  O   UNL     1     -19.384 -38.134  -5.238  1.00  0.00    -0.299 OA
ENDROOT
BRANCH   1   3
ATOM      3  C   UNL     1     -20.516 -40.012  -6.177  1.00  0.00     0.053 C 
ATOM      4  C   UNL     1     -21.895 -39.354  -6.010  1.00  0.00     0.016 C 
BRANCH   3   5
ATOM      5  C   UNL     1     -20.324 -41.171  -5.175  1.00  0.00     0.015 C 
BRANCH   5   6
ATOM      6  C   UNL     1     -19.799 -42.462  -5.831  1.00  0.00     0.028 C 
BRANCH   6   7
ATOM      7  C   UNL     1     -19.961 -42.473  -7.331  1.00  0.00    -0.028 C 
ATOM      8  C   UNL     1     -18.958 -42.554  -8.243  1.00  0.00    -0.070 CG0
ATOM      9  C   UNL     1     -19.356 -42.680  -9.694  1.00  0.00     0.039 C 
ATOM     10  G   UNL     1     -17.472 -42.452  -7.907  1.00  0.00     0.000 G0
ENDBRANCH   6   7
ENDBRANCH   5   6
ENDBRANCH   3   5
ENDBRANCH   1   3
BRANCH   1  11
ATOM     11  C   UNL     1     -18.249 -39.028  -7.101  1.00  0.00     0.087 C 
BRANCH  11  12
ATOM     12  C   UNL     1     -17.160 -40.084  -6.758  1.00  0.00     0.066 C 
BRANCH  12  13
ATOM     13  C   UNL     1     -16.915 -41.036  -7.924  1.00  0.00     0.140 C 
ATOM     14  O   UNL     1     -16.375 -40.609  -8.934  1.00  0.00    -0.299 OA
BRANCH  13  15
ATOM     15  C   UNL     1     -17.467 -42.443  -7.916  1.00  0.00     0.106 CG0
ATOM     16  G   UNL     1     -18.952 -42.554  -8.258  1.00  0.00     0.000 G0
ENDBRANCH  13  15
ENDBRANCH  12  13
BRANCH  12  17
ATOM     17  C   UNL     1     -15.818 -39.431  -6.291  1.00  0.00    -0.006 C 
ATOM     18  C   UNL     1     -14.806 -40.500  -5.838  1.00  0.00     0.008 C 
ATOM     19  C   UNL     1     -16.021 -38.425  -5.143  1.00  0.00     0.008 C 
ENDBRANCH  12  17
ENDBRANCH  11  12
ENDBRANCH   1  11
TORSDOF 1
ENDMDL
