MODEL 1
REMARK VINA RESULT:    -6.076      0.000      0.000
REMARK INTER + INTRA:         -10.002
REMARK INTER:                  -8.029
REMARK INTRA:                  -1.973
REMARK UNBOUND:                -1.973
REMARK SMILES CC(C)=CCC[C@@H](C(=O)[O-])[C@H]1CC[C@@]2(C)C3=C(CC[C@@]12C)[C@]1(C)CC[C@@H](O)C(C)(C)[C@@H]1CC3
REMARK SMILES IDX 6 1 7 2 8 3 9 4 10 5 11 6 12 7 20 8 13 9 14 10 19 11 21 12
REMARK SMILES IDX 15 13 16 14 18 15 17 16 33 17 22 18 32 19 31 20 24 21 23 22
REMARK SMILES IDX 28 23 25 24 26 25 29 26 30 27 27 28 5 30 4 31 2 32 1 33 3 34
REMARK H PARENT 27 29
REMARK Flexibility Score: inf
ROOT
ATOM      1  C   UNL     1     166.529 176.487 179.044  1.00  0.00     0.014 C 
ENDROOT
BRANCH   1   2
ATOM      2  C   UNL     1     167.358 177.584 179.767  1.00  0.00     0.039 C 
BRANCH   2   3
ATOM      3  C   UNL     1     166.428 178.542 180.468  1.00  0.00     0.045 C 
ATOM      4  O   UNL     1     166.646 179.780 180.412  1.00  0.00    -0.550 OA
ATOM      5  O   UNL     1     165.291 178.082 181.125  1.00  0.00    -0.550 OA
ENDBRANCH   2   3
BRANCH   2   6
ATOM      6  C   UNL     1     168.468 177.018 180.717  1.00  0.00     0.004 C 
ATOM      7  C   UNL     1     168.920 175.609 180.300  1.00  0.00     0.006 C 
ATOM      8  C   UNL     1     169.795 177.843 180.855  1.00  0.00    -0.020 C 
ATOM      9  C   UNL     1     170.405 175.482 180.627  1.00  0.00     0.012 C 
ATOM     10  C   UNL     1     170.837 176.776 181.345  1.00  0.00    -0.006 C 
ATOM     11  C   UNL     1     170.248 178.399 179.482  1.00  0.00     0.012 C 
ATOM     12  C   UNL     1     169.631 179.028 181.852  1.00  0.00     0.012 C 
ATOM     13  C   UNL     1     170.737 176.553 182.887  1.00  0.00     0.017 C 
ATOM     14  C   UNL     1     172.308 177.094 180.984  1.00  0.00    -0.064 C 
ATOM     15  C   UNL     1     171.627 179.040 179.561  1.00  0.00     0.032 C 
ATOM     16  C   UNL     1     172.681 178.114 180.150  1.00  0.00    -0.064 C 
ATOM     17  C   UNL     1     173.380 176.144 181.484  1.00  0.00     0.032 C 
ATOM     18  C   UNL     1     174.189 178.478 180.013  1.00  0.00    -0.008 C 
ATOM     19  C   UNL     1     174.389 175.879 180.381  1.00  0.00     0.009 C 
ATOM     20  C   UNL     1     175.121 177.180 179.958  1.00  0.00     0.007 C 
ATOM     21  C   UNL     1     174.436 179.408 178.777  1.00  0.00     0.014 C 
ATOM     22  C   UNL     1     174.546 179.310 181.278  1.00  0.00     0.016 C 
ATOM     23  C   UNL     1     175.921 176.984 178.617  1.00  0.00    -0.006 C 
ATOM     24  C   UNL     1     175.909 179.605 178.424  1.00  0.00     0.033 C 
ATOM     25  C   UNL     1     176.720 178.297 178.292  1.00  0.00     0.120 C 
ATOM     26  C   UNL     1     174.980 176.592 177.433  1.00  0.00     0.014 C 
ATOM     27  C   UNL     1     176.951 175.828 178.768  1.00  0.00     0.014 C 
BRANCH  25  28
ATOM     28  O   UNL     1     177.845 178.410 179.139  1.00  0.00    -0.393 OA
ATOM     29  H   UNL     1     177.828 179.317 179.544  1.00  0.00     0.210 HD
ENDBRANCH  25  28
ENDBRANCH   2   6
ENDBRANCH   1   2
BRANCH   1  30
ATOM     30  C   UNL     1     166.585 176.538 177.506  1.00  0.00     0.028 C 
BRANCH  30  31
ATOM     31  C   UNL     1     167.899 177.116 177.042  1.00  0.00    -0.028 C 
ATOM     32  C   UNL     1     168.952 176.378 176.628  1.00  0.00    -0.080 C 
ATOM     33  C   UNL     1     170.192 177.093 176.160  1.00  0.00     0.039 C 
ATOM     34  C   UNL     1     168.921 174.867 176.635  1.00  0.00     0.039 C 
ENDBRANCH  30  31
ENDBRANCH   1  30
TORSDOF 6
ENDMDL
MODEL 2
REMARK VINA RESULT:    -6.052      4.261      7.572
REMARK INTER + INTRA:          -9.971
REMARK INTER:                  -8.396
REMARK INTRA:                  -1.575
REMARK UNBOUND:                -1.973
REMARK SMILES CC(C)=CCC[C@@H](C(=O)[O-])[C@H]1CC[C@@]2(C)C3=C(CC[C@@]12C)[C@]1(C)CC[C@@H](O)C(C)(C)[C@@H]1CC3
REMARK SMILES IDX 6 1 7 2 8 3 9 4 10 5 11 6 12 7 20 8 13 9 14 10 19 11 21 12
REMARK SMILES IDX 15 13 16 14 18 15 17 16 33 17 22 18 32 19 31 20 24 21 23 22
REMARK SMILES IDX 28 23 25 24 26 25 29 26 30 27 27 28 5 30 4 31 2 32 1 33 3 34
REMARK H PARENT 27 29
REMARK Flexibility Score: inf
ROOT
ATOM      1  C   UNL     1     160.982 173.911 181.739  1.00  0.00     0.014 C 
ENDROOT
BRANCH   1   2
ATOM      2  C   UNL     1     161.564 174.103 180.311  1.00  0.00     0.039 C 
BRANCH   2   3
ATOM      3  C   UNL     1     160.563 173.630 179.289  1.00  0.00     0.045 C 
ATOM      4  O   UNL     1     160.257 172.410 179.231  1.00  0.00    -0.550 OA
ATOM      5  O   UNL     1     159.921 174.531 178.446  1.00  0.00    -0.550 OA
ENDBRANCH   2   3
BRANCH   2   6
ATOM      6  C   UNL     1     162.076 175.557 180.025  1.00  0.00     0.004 C 
ATOM      7  C   UNL     1     162.351 176.336 181.321  1.00  0.00     0.006 C 
ATOM      8  C   UNL     1     163.385 175.711 179.176  1.00  0.00    -0.020 C 
ATOM      9  C   UNL     1     163.532 177.267 181.061  1.00  0.00     0.012 C 
ATOM     10  C   UNL     1     163.910 177.136 179.572  1.00  0.00    -0.006 C 
ATOM     11  C   UNL     1     164.440 174.652 179.584  1.00  0.00     0.012 C 
ATOM     12  C   UNL     1     163.098 175.577 177.651  1.00  0.00     0.012 C 
ATOM     13  C   UNL     1     163.177 178.254 178.766  1.00  0.00     0.017 C 
ATOM     14  C   UNL     1     165.438 177.332 179.414  1.00  0.00    -0.064 C 
ATOM     15  C   UNL     1     165.781 174.902 178.908  1.00  0.00     0.032 C 
ATOM     16  C   UNL     1     166.307 176.312 179.132  1.00  0.00    -0.064 C 
ATOM     17  C   UNL     1     166.009 178.705 179.712  1.00  0.00     0.032 C 
ATOM     18  C   UNL     1     167.791 176.644 178.792  1.00  0.00    -0.008 C 
ATOM     19  C   UNL     1     167.288 178.566 180.518  1.00  0.00     0.009 C 
ATOM     20  C   UNL     1     168.380 177.802 179.724  1.00  0.00     0.007 C 
ATOM     21  C   UNL     1     168.684 175.358 178.849  1.00  0.00     0.014 C 
ATOM     22  C   UNL     1     167.794 177.127 177.313  1.00  0.00     0.016 C 
ATOM     23  C   UNL     1     169.577 177.373 180.651  1.00  0.00    -0.006 C 
ATOM     24  C   UNL     1     170.185 175.633 178.777  1.00  0.00     0.033 C 
ATOM     25  C   UNL     1     170.693 176.695 179.777  1.00  0.00     0.120 C 
ATOM     26  C   UNL     1     169.109 176.424 181.800  1.00  0.00     0.014 C 
ATOM     27  C   UNL     1     170.204 178.623 181.332  1.00  0.00     0.014 C 
BRANCH  25  28
ATOM     28  O   UNL     1     171.399 177.670 179.038  1.00  0.00    -0.393 OA
ATOM     29  H   UNL     1     170.829 178.483 178.990  1.00  0.00     0.210 HD
ENDBRANCH  25  28
ENDBRANCH   2   6
ENDBRANCH   1   2
BRANCH   1  30
ATOM     30  C   UNL     1     161.436 172.627 182.458  1.00  0.00     0.028 C 
BRANCH  30  31
ATOM     31  C   UNL     1     162.767 172.162 181.923  1.00  0.00    -0.028 C 
ATOM     32  C   UNL     1     163.908 172.125 182.645  1.00  0.00    -0.080 C 
ATOM     33  C   UNL     1     165.159 171.603 181.987  1.00  0.00     0.039 C 
ATOM     34  C   UNL     1     163.963 172.599 184.079  1.00  0.00     0.039 C 
ENDBRANCH  30  31
ENDBRANCH   1  30
TORSDOF 6
ENDMDL
MODEL 3
REMARK VINA RESULT:    -6.033      3.041      5.758
REMARK INTER + INTRA:          -9.946
REMARK INTER:                  -8.461
REMARK INTRA:                  -1.485
REMARK UNBOUND:                -1.973
REMARK SMILES CC(C)=CCC[C@@H](C(=O)[O-])[C@H]1CC[C@@]2(C)C3=C(CC[C@@]12C)[C@]1(C)CC[C@@H](O)C(C)(C)[C@@H]1CC3
REMARK SMILES IDX 6 1 7 2 8 3 9 4 10 5 11 6 12 7 20 8 13 9 14 10 19 11 21 12
REMARK SMILES IDX 15 13 16 14 18 15 17 16 33 17 22 18 32 19 31 20 24 21 23 22
REMARK SMILES IDX 28 23 25 24 26 25 29 26 30 27 27 28 5 30 4 31 2 32 1 33 3 34
REMARK H PARENT 27 29
REMARK Flexibility Score: inf
ROOT
ATOM      1  C   UNL     1     171.181 178.980 181.666  1.00  0.00     0.014 C 
ENDROOT
BRANCH   1   2
ATOM      2  C   UNL     1     171.495 178.537 180.210  1.00  0.00     0.039 C 
BRANCH   2   3
ATOM      3  C   UNL     1     170.728 179.401 179.242  1.00  0.00     0.045 C 
ATOM      4  O   UNL     1     171.350 180.125 178.422  1.00  0.00    -0.550 OA
ATOM      5  O   UNL     1     169.339 179.363 179.196  1.00  0.00    -0.550 OA
ENDBRANCH   2   3
BRANCH   2   6
ATOM      6  C   UNL     1     173.026 178.474 179.881  1.00  0.00     0.004 C 
ATOM      7  C   UNL     1     173.889 178.485 181.153  1.00  0.00     0.006 C 
ATOM      8  C   UNL     1     173.541 177.246 179.054  1.00  0.00    -0.020 C 
ATOM      9  C   UNL     1     175.124 177.630 180.883  1.00  0.00     0.012 C 
ATOM     10  C   UNL     1     175.069 177.184 179.408  1.00  0.00    -0.006 C 
ATOM     11  C   UNL     1     172.860 175.936 179.523  1.00  0.00     0.012 C 
ATOM     12  C   UNL     1     173.282 177.432 177.530  1.00  0.00     0.012 C 
ATOM     13  C   UNL     1     175.891 178.193 178.547  1.00  0.00     0.017 C 
ATOM     14  C   UNL     1     175.709 175.781 179.275  1.00  0.00    -0.064 C 
ATOM     15  C   UNL     1     173.481 174.710 178.867  1.00  0.00     0.032 C 
ATOM     16  C   UNL     1     174.990 174.638 179.049  1.00  0.00    -0.064 C 
ATOM     17  C   UNL     1     177.198 175.656 179.534  1.00  0.00     0.032 C 
ATOM     18  C   UNL     1     175.741 173.312 178.728  1.00  0.00    -0.008 C 
ATOM     19  C   UNL     1     177.474 174.420 180.371  1.00  0.00     0.009 C 
ATOM     20  C   UNL     1     177.049 173.125 179.628  1.00  0.00     0.007 C 
ATOM     21  C   UNL     1     174.786 172.077 178.851  1.00  0.00     0.014 C 
ATOM     22  C   UNL     1     176.160 173.408 177.233  1.00  0.00     0.016 C 
ATOM     23  C   UNL     1     177.027 171.884 180.596  1.00  0.00    -0.006 C 
ATOM     24  C   UNL     1     175.496 170.726 178.801  1.00  0.00     0.033 C 
ATOM     25  C   UNL     1     176.690 170.590 179.771  1.00  0.00     0.120 C 
ATOM     26  C   UNL     1     176.016 172.082 181.770  1.00  0.00     0.014 C 
ATOM     27  C   UNL     1     178.427 171.682 181.243  1.00  0.00     0.014 C 
BRANCH  25  28
ATOM     28  O   UNL     1     177.810 170.186 179.012  1.00  0.00    -0.393 OA
ATOM     29  H   UNL     1     178.552 170.817 179.208  1.00  0.00     0.210 HD
ENDBRANCH  25  28
ENDBRANCH   2   6
ENDBRANCH   1   2
BRANCH   1  30
ATOM     30  C   UNL     1     169.973 178.277 182.313  1.00  0.00     0.028 C 
BRANCH  30  31
ATOM     31  C   UNL     1     169.869 176.852 181.834  1.00  0.00    -0.028 C 
ATOM     32  C   UNL     1     170.152 175.770 182.592  1.00  0.00    -0.080 C 
ATOM     33  C   UNL     1     169.970 174.401 181.990  1.00  0.00     0.039 C 
ATOM     34  C   UNL     1     170.652 175.898 184.013  1.00  0.00     0.039 C 
ENDBRANCH  30  31
ENDBRANCH   1  30
TORSDOF 6
ENDMDL
MODEL 4
REMARK VINA RESULT:    -5.925      9.637     13.462
REMARK INTER + INTRA:          -9.802
REMARK INTER:                  -8.125
REMARK INTRA:                  -1.678
REMARK UNBOUND:                -1.973
REMARK SMILES CC(C)=CCC[C@@H](C(=O)[O-])[C@H]1CC[C@@]2(C)C3=C(CC[C@@]12C)[C@]1(C)CC[C@@H](O)C(C)(C)[C@@H]1CC3
REMARK SMILES IDX 6 1 7 2 8 3 9 4 10 5 11 6 12 7 20 8 13 9 14 10 19 11 21 12
REMARK SMILES IDX 15 13 16 14 18 15 17 16 33 17 22 18 32 19 31 20 24 21 23 22
REMARK SMILES IDX 28 23 25 24 26 25 29 26 30 27 27 28 5 30 4 31 2 32 1 33 3 34
REMARK H PARENT 27 29
REMARK Flexibility Score: inf
ROOT
ATOM      1  C   UNL     1     179.012 170.965 181.730  1.00  0.00     0.014 C 
ENDROOT
BRANCH   1   2
ATOM      2  C   UNL     1     178.654 170.550 180.276  1.00  0.00     0.039 C 
BRANCH   2   3
ATOM      3  C   UNL     1     179.198 171.571 179.310  1.00  0.00     0.045 C 
ATOM      4  O   UNL     1     180.124 171.253 178.520  1.00  0.00    -0.550 OA
ATOM      5  O   UNL     1     178.647 172.845 179.231  1.00  0.00    -0.550 OA
ENDBRANCH   2   3
BRANCH   2   6
ATOM      6  C   UNL     1     179.081 169.086 179.911  1.00  0.00     0.004 C 
ATOM      7  C   UNL     1     179.398 168.250 181.161  1.00  0.00     0.006 C 
ATOM      8  C   UNL     1     178.065 168.218 179.091  1.00  0.00    -0.020 C 
ATOM      9  C   UNL     1     178.980 166.810 180.874  1.00  0.00     0.012 C 
ATOM     10  C   UNL     1     178.507 166.745 179.408  1.00  0.00    -0.006 C 
ATOM     11  C   UNL     1     176.617 168.432 179.597  1.00  0.00     0.012 C 
ATOM     12  C   UNL     1     178.124 168.550 177.571  1.00  0.00     0.012 C 
ATOM     13  C   UNL     1     179.707 166.308 178.511  1.00  0.00     0.017 C 
ATOM     14  C   UNL     1     177.382 165.689 179.281  1.00  0.00    -0.064 C 
ATOM     15  C   UNL     1     175.642 167.460 178.944  1.00  0.00     0.032 C 
ATOM     16  C   UNL     1     176.064 166.005 179.091  1.00  0.00    -0.064 C 
ATOM     17  C   UNL     1     177.749 164.235 179.505  1.00  0.00     0.032 C 
ATOM     18  C   UNL     1     175.043 164.873 178.772  1.00  0.00    -0.008 C 
ATOM     19  C   UNL     1     176.687 163.560 180.355  1.00  0.00     0.009 C 
ATOM     20  C   UNL     1     175.308 163.558 179.643  1.00  0.00     0.007 C 
ATOM     21  C   UNL     1     173.569 165.377 178.938  1.00  0.00     0.014 C 
ATOM     22  C   UNL     1     175.235 164.534 177.266  1.00  0.00     0.016 C 
ATOM     23  C   UNL     1     174.148 163.162 180.630  1.00  0.00    -0.006 C 
ATOM     24  C   UNL     1     172.518 164.270 178.891  1.00  0.00     0.033 C 
ATOM     25  C   UNL     1     172.796 163.078 179.834  1.00  0.00     0.120 C 
ATOM     26  C   UNL     1     174.037 164.161 181.825  1.00  0.00     0.014 C 
ATOM     27  C   UNL     1     174.422 161.760 181.246  1.00  0.00     0.014 C 
BRANCH  25  28
ATOM     28  O   UNL     1     172.757 161.902 179.054  1.00  0.00    -0.393 OA
ATOM     29  H   UNL     1     172.434 162.151 178.148  1.00  0.00     0.210 HD
ENDBRANCH  25  28
ENDBRANCH   2   6
ENDBRANCH   1   2
BRANCH   1  30
ATOM     30  C   UNL     1     177.907 171.735 182.476  1.00  0.00     0.028 C 
BRANCH  30  31
ATOM     31  C   UNL     1     176.681 170.873 182.645  1.00  0.00    -0.028 C 
ATOM     32  C   UNL     1     175.501 171.097 182.026  1.00  0.00    -0.080 C 
ATOM     33  C   UNL     1     174.370 170.130 182.263  1.00  0.00     0.039 C 
ATOM     34  C   UNL     1     175.287 172.287 181.120  1.00  0.00     0.039 C 
ENDBRANCH  30  31
ENDBRANCH   1  30
TORSDOF 6
ENDMDL
MODEL 5
REMARK VINA RESULT:    -5.919      7.531     11.094
REMARK INTER + INTRA:          -9.795
REMARK INTER:                  -8.031
REMARK INTRA:                  -1.765
REMARK UNBOUND:                -1.973
REMARK SMILES CC(C)=CCC[C@@H](C(=O)[O-])[C@H]1CC[C@@]2(C)C3=C(CC[C@@]12C)[C@]1(C)CC[C@@H](O)C(C)(C)[C@@H]1CC3
REMARK SMILES IDX 6 1 7 2 8 3 9 4 10 5 11 6 12 7 20 8 13 9 14 10 19 11 21 12
REMARK SMILES IDX 15 13 16 14 18 15 17 16 33 17 22 18 32 19 31 20 24 21 23 22
REMARK SMILES IDX 28 23 25 24 26 25 29 26 30 27 27 28 5 30 4 31 2 32 1 33 3 34
REMARK H PARENT 27 29
REMARK Flexibility Score: inf
ROOT
ATOM      1  C   UNL     1     161.874 176.524 181.500  1.00  0.00     0.014 C 
ENDROOT
BRANCH   1   2
ATOM      2  C   UNL     1     162.276 177.657 180.516  1.00  0.00     0.039 C 
BRANCH   2   3
ATOM      3  C   UNL     1     162.612 178.906 181.291  1.00  0.00     0.045 C 
ATOM      4  O   UNL     1     161.762 179.829 181.389  1.00  0.00    -0.550 OA
ATOM      5  O   UNL     1     163.826 179.028 181.958  1.00  0.00    -0.550 OA
ENDBRANCH   2   3
BRANCH   2   6
ATOM      6  C   UNL     1     163.406 177.252 179.508  1.00  0.00     0.004 C 
ATOM      7  C   UNL     1     163.745 175.755 179.594  1.00  0.00     0.006 C 
ATOM      8  C   UNL     1     163.151 177.521 177.985  1.00  0.00    -0.020 C 
ATOM      9  C   UNL     1     164.125 175.284 178.193  1.00  0.00     0.012 C 
ATOM     10  C   UNL     1     164.125 176.518 177.270  1.00  0.00    -0.006 C 
ATOM     11  C   UNL     1     161.692 177.173 177.596  1.00  0.00     0.012 C 
ATOM     12  C   UNL     1     163.434 179.006 177.610  1.00  0.00     0.012 C 
ATOM     13  C   UNL     1     165.575 177.092 177.197  1.00  0.00     0.017 C 
ATOM     14  C   UNL     1     163.687 176.092 175.848  1.00  0.00    -0.064 C 
ATOM     15  C   UNL     1     161.477 177.246 176.091  1.00  0.00     0.032 C 
ATOM     16  C   UNL     1     162.469 176.401 175.305  1.00  0.00    -0.064 C 
ATOM     17  C   UNL     1     164.613 175.179 175.067  1.00  0.00     0.032 C 
ATOM     18  C   UNL     1     162.204 176.104 173.799  1.00  0.00    -0.008 C 
ATOM     19  C   UNL     1     163.805 174.095 174.376  1.00  0.00     0.009 C 
ATOM     20  C   UNL     1     162.814 174.698 173.345  1.00  0.00     0.007 C 
ATOM     21  C   UNL     1     160.676 176.195 173.465  1.00  0.00     0.014 C 
ATOM     22  C   UNL     1     162.905 177.244 173.008  1.00  0.00     0.016 C 
ATOM     23  C   UNL     1     161.760 173.632 172.865  1.00  0.00    -0.006 C 
ATOM     24  C   UNL     1     160.305 175.675 172.079  1.00  0.00     0.033 C 
ATOM     25  C   UNL     1     160.851 174.267 171.752  1.00  0.00     0.120 C 
ATOM     26  C   UNL     1     160.901 173.091 174.052  1.00  0.00     0.014 C 
ATOM     27  C   UNL     1     162.483 172.403 172.241  1.00  0.00     0.014 C 
BRANCH  25  28
ATOM     28  O   UNL     1     161.558 174.359 170.533  1.00  0.00    -0.393 OA
ATOM     29  H   UNL     1     161.100 173.774 169.873  1.00  0.00     0.210 HD
ENDBRANCH  25  28
ENDBRANCH   2   6
ENDBRANCH   1   2
BRANCH   1  30
ATOM     30  C   UNL     1     160.610 175.738 181.104  1.00  0.00     0.028 C 
BRANCH  30  31
ATOM     31  C   UNL     1     160.846 174.255 181.232  1.00  0.00    -0.028 C 
ATOM     32  C   UNL     1     160.873 173.395 180.191  1.00  0.00    -0.080 C 
ATOM     33  C   UNL     1     161.154 171.940 180.466  1.00  0.00     0.039 C 
ATOM     34  C   UNL     1     160.619 173.849 178.772  1.00  0.00     0.039 C 
ENDBRANCH  30  31
ENDBRANCH   1  30
TORSDOF 6
ENDMDL
MODEL 6
REMARK VINA RESULT:    -5.905      3.587      7.281
REMARK INTER + INTRA:          -9.777
REMARK INTER:                  -7.969
REMARK INTRA:                  -1.808
REMARK UNBOUND:                -1.973
REMARK SMILES CC(C)=CCC[C@@H](C(=O)[O-])[C@H]1CC[C@@]2(C)C3=C(CC[C@@]12C)[C@]1(C)CC[C@@H](O)C(C)(C)[C@@H]1CC3
REMARK SMILES IDX 6 1 7 2 8 3 9 4 10 5 11 6 12 7 20 8 13 9 14 10 19 11 21 12
REMARK SMILES IDX 15 13 16 14 18 15 17 16 33 17 22 18 32 19 31 20 24 21 23 22
REMARK SMILES IDX 28 23 25 24 26 25 29 26 30 27 27 28 5 30 4 31 2 32 1 33 3 34
REMARK H PARENT 27 29
REMARK Flexibility Score: inf
ROOT
ATOM      1  C   UNL     1     174.067 178.689 181.441  1.00  0.00     0.014 C 
ENDROOT
BRANCH   1   2
ATOM      2  C   UNL     1     175.235 178.565 180.424  1.00  0.00     0.039 C 
BRANCH   2   3
ATOM      3  C   UNL     1     176.548 178.515 181.164  1.00  0.00     0.045 C 
ATOM      4  O   UNL     1     176.907 179.496 181.866  1.00  0.00    -0.550 OA
ATOM      5  O   UNL     1     177.341 177.373 181.136  1.00  0.00    -0.550 OA
ENDBRANCH   2   3
BRANCH   2   6
ATOM      6  C   UNL     1     175.071 177.381 179.409  1.00  0.00     0.004 C 
ATOM      7  C   UNL     1     173.684 176.725 179.509  1.00  0.00     0.006 C 
ATOM      8  C   UNL     1     175.257 177.701 177.885  1.00  0.00    -0.020 C 
ATOM      9  C   UNL     1     173.287 176.263 178.110  1.00  0.00     0.012 C 
ATOM     10  C   UNL     1     174.480 176.538 177.172  1.00  0.00    -0.006 C 
ATOM     11  C   UNL     1     174.595 179.052 177.517  1.00  0.00     0.012 C 
ATOM     12  C   UNL     1     176.762 177.751 177.490  1.00  0.00     0.012 C 
ATOM     13  C   UNL     1     175.353 175.248 177.076  1.00  0.00     0.017 C 
ATOM     14  C   UNL     1     173.949 176.884 175.760  1.00  0.00    -0.064 C 
ATOM     15  C   UNL     1     174.599 179.291 176.013  1.00  0.00     0.032 C 
ATOM     16  C   UNL     1     173.978 178.145 175.227  1.00  0.00    -0.064 C 
ATOM     17  C   UNL     1     173.247 175.788 174.981  1.00  0.00     0.032 C 
ATOM     18  C   UNL     1     173.609 178.351 173.727  1.00  0.00    -0.008 C 
ATOM     19  C   UNL     1     172.005 176.347 174.311  1.00  0.00     0.009 C 
ATOM     20  C   UNL     1     172.363 177.453 173.283  1.00  0.00     0.007 C 
ATOM     21  C   UNL     1     173.362 179.864 173.409  1.00  0.00     0.014 C 
ATOM     22  C   UNL     1     174.864 177.920 172.915  1.00  0.00     0.016 C 
ATOM     23  C   UNL     1     171.087 178.255 172.828  1.00  0.00    -0.006 C 
ATOM     24  C   UNL     1     172.754 180.125 172.032  1.00  0.00     0.033 C 
ATOM     25  C   UNL     1     171.494 179.289 171.717  1.00  0.00     0.120 C 
ATOM     26  C   UNL     1     170.389 178.966 174.030  1.00  0.00     0.014 C 
ATOM     27  C   UNL     1     170.036 177.287 172.211  1.00  0.00     0.014 C 
BRANCH  25  28
ATOM     28  O   UNL     1     171.721 178.628 170.489  1.00  0.00    -0.393 OA
ATOM     29  H   UNL     1     172.604 178.177 170.548  1.00  0.00     0.210 HD
ENDBRANCH  25  28
ENDBRANCH   2   6
ENDBRANCH   1   2
BRANCH   1  30
ATOM     30  C   UNL     1     173.016 179.759 181.094  1.00  0.00     0.028 C 
BRANCH  30  31
ATOM     31  C   UNL     1     171.623 179.201 181.238  1.00  0.00    -0.028 C 
ATOM     32  C   UNL     1     170.769 179.008 180.209  1.00  0.00    -0.080 C 
ATOM     33  C   UNL     1     169.417 178.409 180.498  1.00  0.00     0.039 C 
ATOM     34  C   UNL     1     171.128 179.387 178.791  1.00  0.00     0.039 C 
ENDBRANCH  30  31
ENDBRANCH   1  30
TORSDOF 6
ENDMDL
MODEL 7
REMARK VINA RESULT:    -5.894      7.300     10.761
REMARK INTER + INTRA:          -9.762
REMARK INTER:                  -8.050
REMARK INTRA:                  -1.712
REMARK UNBOUND:                -1.973
REMARK SMILES CC(C)=CCC[C@@H](C(=O)[O-])[C@H]1CC[C@@]2(C)C3=C(CC[C@@]12C)[C@]1(C)CC[C@@H](O)C(C)(C)[C@@H]1CC3
REMARK SMILES IDX 6 1 7 2 8 3 9 4 10 5 11 6 12 7 20 8 13 9 14 10 19 11 21 12
REMARK SMILES IDX 15 13 16 14 18 15 17 16 33 17 22 18 32 19 31 20 24 21 23 22
REMARK SMILES IDX 28 23 25 24 26 25 29 26 30 27 27 28 5 30 4 31 2 32 1 33 3 34
REMARK H PARENT 27 29
REMARK Flexibility Score: inf
ROOT
ATOM      1  C   UNL     1     163.235 174.981 171.437  1.00  0.00     0.014 C 
ENDROOT
BRANCH   1   2
ATOM      2  C   UNL     1     162.129 174.753 172.504  1.00  0.00     0.039 C 
BRANCH   2   3
ATOM      3  C   UNL     1     161.015 173.929 171.910  1.00  0.00     0.045 C 
ATOM      4  O   UNL     1     160.851 172.738 172.282  1.00  0.00    -0.550 OA
ATOM      5  O   UNL     1     160.122 174.484 171.000  1.00  0.00    -0.550 OA
ENDBRANCH   2   3
BRANCH   2   6
ATOM      6  C   UNL     1     162.661 174.162 173.854  1.00  0.00     0.004 C 
ATOM      7  C   UNL     1     164.181 174.340 174.001  1.00  0.00     0.006 C 
ATOM      8  C   UNL     1     162.058 174.733 175.184  1.00  0.00    -0.020 C 
ATOM      9  C   UNL     1     164.483 174.555 175.481  1.00  0.00     0.012 C 
ATOM     10  C   UNL     1     163.157 174.401 176.254  1.00  0.00    -0.006 C 
ATOM     11  C   UNL     1     161.883 176.270 175.099  1.00  0.00     0.012 C 
ATOM     12  C   UNL     1     160.681 174.085 175.513  1.00  0.00     0.012 C 
ATOM     13  C   UNL     1     163.035 172.927 176.754  1.00  0.00     0.017 C 
ATOM     14  C   UNL     1     163.171 175.342 177.483  1.00  0.00    -0.064 C 
ATOM     15  C   UNL     1     161.478 176.867 176.441  1.00  0.00     0.032 C 
ATOM     16  C   UNL     1     162.423 176.485 177.571  1.00  0.00    -0.064 C 
ATOM     17  C   UNL     1     164.161 175.041 178.593  1.00  0.00     0.032 C 
ATOM     18  C   UNL     1     162.351 177.251 178.926  1.00  0.00    -0.008 C 
ATOM     19  C   UNL     1     164.813 176.329 179.064  1.00  0.00     0.009 C 
ATOM     20  C   UNL     1     163.769 177.308 179.663  1.00  0.00     0.007 C 
ATOM     21  C   UNL     1     161.754 178.686 178.733  1.00  0.00     0.014 C 
ATOM     22  C   UNL     1     161.346 176.462 179.812  1.00  0.00     0.016 C 
ATOM     23  C   UNL     1     164.370 178.750 179.853  1.00  0.00    -0.006 C 
ATOM     24  C   UNL     1     161.881 179.589 179.957  1.00  0.00     0.033 C 
ATOM     25  C   UNL     1     163.304 179.668 180.553  1.00  0.00     0.120 C 
ATOM     26  C   UNL     1     164.838 179.366 178.496  1.00  0.00     0.014 C 
ATOM     27  C   UNL     1     165.623 178.693 180.773  1.00  0.00     0.014 C 
BRANCH  25  28
ATOM     28  O   UNL     1     163.207 179.348 181.926  1.00  0.00    -0.393 OA
ATOM     29  H   UNL     1     164.129 179.317 182.295  1.00  0.00     0.210 HD
ENDBRANCH  25  28
ENDBRANCH   2   6
ENDBRANCH   1   2
BRANCH   1  30
ATOM     30  C   UNL     1     163.212 176.366 170.763  1.00  0.00     0.028 C 
BRANCH  30  31
ATOM     31  C   UNL     1     163.256 177.461 171.799  1.00  0.00    -0.028 C 
ATOM     32  C   UNL     1     162.250 178.332 172.031  1.00  0.00    -0.080 C 
ATOM     33  C   UNL     1     162.422 179.355 173.123  1.00  0.00     0.039 C 
ATOM     34  C   UNL     1     160.974 178.313 171.222  1.00  0.00     0.039 C 
ENDBRANCH  30  31
ENDBRANCH   1  30
TORSDOF 6
ENDMDL
MODEL 8
REMARK VINA RESULT:    -5.861      1.353      2.352
REMARK INTER + INTRA:          -9.718
REMARK INTER:                  -8.675
REMARK INTRA:                  -1.043
REMARK UNBOUND:                -1.973
REMARK SMILES CC(C)=CCC[C@@H](C(=O)[O-])[C@H]1CC[C@@]2(C)C3=C(CC[C@@]12C)[C@]1(C)CC[C@@H](O)C(C)(C)[C@@H]1CC3
REMARK SMILES IDX 6 1 7 2 8 3 9 4 10 5 11 6 12 7 20 8 13 9 14 10 19 11 21 12
REMARK SMILES IDX 15 13 16 14 18 15 17 16 33 17 22 18 32 19 31 20 24 21 23 22
REMARK SMILES IDX 28 23 25 24 26 25 29 26 30 27 27 28 5 30 4 31 2 32 1 33 3 34
REMARK H PARENT 27 29
REMARK Flexibility Score: inf
ROOT
ATOM      1  C   UNL     1     166.568 176.851 178.907  1.00  0.00     0.014 C 
ENDROOT
BRANCH   1   2
ATOM      2  C   UNL     1     167.376 177.861 179.768  1.00  0.00     0.039 C 
BRANCH   2   3
ATOM      3  C   UNL     1     166.426 178.750 180.529  1.00  0.00     0.045 C 
ATOM      4  O   UNL     1     166.616 179.994 180.551  1.00  0.00    -0.550 OA
ATOM      5  O   UNL     1     165.303 178.223 181.158  1.00  0.00    -0.550 OA
ENDBRANCH   2   3
BRANCH   2   6
ATOM      6  C   UNL     1     168.448 177.190 180.695  1.00  0.00     0.004 C 
ATOM      7  C   UNL     1     168.789 175.762 180.240  1.00  0.00     0.006 C 
ATOM      8  C   UNL     1     169.833 177.910 180.840  1.00  0.00    -0.020 C 
ATOM      9  C   UNL     1     170.263 175.516 180.551  1.00  0.00     0.012 C 
ATOM     10  C   UNL     1     170.796 176.756 181.296  1.00  0.00    -0.006 C 
ATOM     11  C   UNL     1     170.317 178.464 179.477  1.00  0.00     0.012 C 
ATOM     12  C   UNL     1     169.766 179.079 181.866  1.00  0.00     0.012 C 
ATOM     13  C   UNL     1     170.690 176.504 182.833  1.00  0.00     0.017 C 
ATOM     14  C   UNL     1     172.284 176.972 180.929  1.00  0.00    -0.064 C 
ATOM     15  C   UNL     1     171.741 178.997 179.558  1.00  0.00     0.032 C 
ATOM     16  C   UNL     1     172.727 177.981 180.117  1.00  0.00    -0.064 C 
ATOM     17  C   UNL     1     173.285 175.932 181.397  1.00  0.00     0.032 C 
ATOM     18  C   UNL     1     174.257 178.234 179.975  1.00  0.00    -0.008 C 
ATOM     19  C   UNL     1     174.264 175.620 180.280  1.00  0.00     0.009 C 
ATOM     20  C   UNL     1     175.089 176.872 179.881  1.00  0.00     0.007 C 
ATOM     21  C   UNL     1     174.564 179.173 178.759  1.00  0.00     0.014 C 
ATOM     22  C   UNL     1     174.684 179.006 181.256  1.00  0.00     0.016 C 
ATOM     23  C   UNL     1     175.861 176.649 178.528  1.00  0.00    -0.006 C 
ATOM     24  C   UNL     1     176.045 179.268 178.397  1.00  0.00     0.033 C 
ATOM     25  C   UNL     1     176.755 177.906 178.228  1.00  0.00     0.120 C 
ATOM     26  C   UNL     1     174.886 176.357 177.344  1.00  0.00     0.014 C 
ATOM     27  C   UNL     1     176.804 175.416 178.644  1.00  0.00     0.014 C 
BRANCH  25  28
ATOM     28  O   UNL     1     177.891 177.914 179.067  1.00  0.00    -0.393 OA
ATOM     29  H   UNL     1     178.678 178.150 178.508  1.00  0.00     0.210 HD
ENDBRANCH  25  28
ENDBRANCH   2   6
ENDBRANCH   1   2
BRANCH   1  30
ATOM     30  C   UNL     1     165.701 177.486 177.804  1.00  0.00     0.028 C 
BRANCH  30  31
ATOM     31  C   UNL     1     164.267 177.036 177.931  1.00  0.00    -0.028 C 
ATOM     32  C   UNL     1     163.227 177.864 178.169  1.00  0.00    -0.080 C 
ATOM     33  C   UNL     1     161.841 177.276 178.238  1.00  0.00     0.039 C 
ATOM     34  C   UNL     1     163.418 179.348 178.379  1.00  0.00     0.039 C 
ENDBRANCH  30  31
ENDBRANCH   1  30
TORSDOF 6
ENDMDL
MODEL 9
REMARK VINA RESULT:    -5.800      9.035     12.691
REMARK INTER + INTRA:          -9.638
REMARK INTER:                  -8.700
REMARK INTRA:                  -0.938
REMARK UNBOUND:                -1.973
REMARK SMILES CC(C)=CCC[C@@H](C(=O)[O-])[C@H]1CC[C@@]2(C)C3=C(CC[C@@]12C)[C@]1(C)CC[C@@H](O)C(C)(C)[C@@H]1CC3
REMARK SMILES IDX 6 1 7 2 8 3 9 4 10 5 11 6 12 7 20 8 13 9 14 10 19 11 21 12
REMARK SMILES IDX 15 13 16 14 18 15 17 16 33 17 22 18 32 19 31 20 24 21 23 22
REMARK SMILES IDX 28 23 25 24 26 25 29 26 30 27 27 28 5 30 4 31 2 32 1 33 3 34
REMARK H PARENT 27 29
REMARK Flexibility Score: inf
ROOT
ATOM      1  C   UNL     1     161.434 177.396 178.049  1.00  0.00     0.014 C 
ENDROOT
BRANCH   1   2
ATOM      2  C   UNL     1     162.227 176.173 177.513  1.00  0.00     0.039 C 
BRANCH   2   3
ATOM      3  C   UNL     1     162.553 175.242 178.653  1.00  0.00     0.045 C 
ATOM      4  O   UNL     1     161.675 174.979 179.516  1.00  0.00    -0.550 OA
ATOM      5  O   UNL     1     163.791 174.614 178.732  1.00  0.00    -0.550 OA
ENDBRANCH   2   3
BRANCH   2   6
ATOM      6  C   UNL     1     161.531 175.439 176.315  1.00  0.00     0.004 C 
ATOM      7  C   UNL     1     160.122 175.991 176.043  1.00  0.00     0.006 C 
ATOM      8  C   UNL     1     162.254 175.473 174.925  1.00  0.00    -0.020 C 
ATOM      9  C   UNL     1     159.875 175.909 174.539  1.00  0.00     0.012 C 
ATOM     10  C   UNL     1     161.091 175.206 173.904  1.00  0.00    -0.006 C 
ATOM     11  C   UNL     1     162.860 176.871 174.647  1.00  0.00     0.012 C 
ATOM     12  C   UNL     1     163.385 174.406 174.841  1.00  0.00     0.012 C 
ATOM     13  C   UNL     1     160.783 173.681 173.782  1.00  0.00     0.017 C 
ATOM     14  C   UNL     1     161.330 175.779 172.486  1.00  0.00    -0.064 C 
ATOM     15  C   UNL     1     163.399 176.981 173.227  1.00  0.00     0.032 C 
ATOM     16  C   UNL     1     162.370 176.611 172.169  1.00  0.00    -0.064 C 
ATOM     17  C   UNL     1     160.281 175.502 171.426  1.00  0.00     0.032 C 
ATOM     18  C   UNL     1     162.639 176.967 170.677  1.00  0.00    -0.008 C 
ATOM     19  C   UNL     1     160.015 176.762 170.622  1.00  0.00     0.009 C 
ATOM     20  C   UNL     1     161.286 177.232 169.866  1.00  0.00     0.007 C 
ATOM     21  C   UNL     1     163.622 178.180 170.553  1.00  0.00     0.014 C 
ATOM     22  C   UNL     1     163.367 175.735 170.066  1.00  0.00     0.016 C 
ATOM     23  C   UNL     1     161.117 178.691 169.301  1.00  0.00    -0.006 C 
ATOM     24  C   UNL     1     163.740 178.751 169.142  1.00  0.00     0.033 C 
ATOM     25  C   UNL     1     162.390 179.073 168.463  1.00  0.00     0.120 C 
ATOM     26  C   UNL     1     160.862 179.728 170.440  1.00  0.00     0.014 C 
ATOM     27  C   UNL     1     159.887 178.760 168.351  1.00  0.00     0.014 C 
BRANCH  25  28
ATOM     28  O   UNL     1     162.375 178.410 167.216  1.00  0.00    -0.393 OA
ATOM     29  H   UNL     1     161.479 178.551 166.810  1.00  0.00     0.210 HD
ENDBRANCH  25  28
ENDBRANCH   2   6
ENDBRANCH   1   2
BRANCH   1  30
ATOM     30  C   UNL     1     162.269 178.673 178.254  1.00  0.00     0.028 C 
BRANCH  30  31
ATOM     31  C   UNL     1     163.070 178.585 179.529  1.00  0.00    -0.028 C 
ATOM     32  C   UNL     1     162.738 179.206 180.681  1.00  0.00    -0.080 C 
ATOM     33  C   UNL     1     163.616 179.000 181.889  1.00  0.00     0.039 C 
ATOM     34  C   UNL     1     161.527 180.105 180.786  1.00  0.00     0.039 C 
ENDBRANCH  30  31
ENDBRANCH   1  30
TORSDOF 6
ENDMDL
