MODEL 1
REMARK VINA RESULT:    -3.109      0.000      0.000
REMARK INTER + INTRA:          -7.238
REMARK INTER:                  -5.472
REMARK INTRA:                  -1.766
REMARK UNBOUND:                -1.766
REMARK SMILES CCCCCCCCCCCCCCC(=O)[O-]
REMARK SMILES IDX 9 1 10 2 11 3 12 4 13 5 14 6 15 7 16 8 17 9 8 10 7 11 6 12
REMARK SMILES IDX 5 13 4 14 3 15 2 16 1 17
REMARK H PARENT
REMARK Flexibility Score: inf
ROOT
ATOM      1  C   UNL     1      -0.849  -3.624   7.125  1.00  0.00     0.000 C 
ENDROOT
BRANCH   1   2
ATOM      2  C   UNL     1      -0.176  -2.244   7.062  1.00  0.00     0.000 C 
BRANCH   2   3
ATOM      3  C   UNL     1      -0.514  -1.364   8.276  1.00  0.00     0.000 C 
BRANCH   3   4
ATOM      4  C   UNL     1       0.749  -0.711   8.848  1.00  0.00     0.000 C 
BRANCH   4   5
ATOM      5  C   UNL     1       1.204   0.467   7.973  1.00  0.00     0.006 C 
BRANCH   5   6
ATOM      6  C   UNL     1       0.143   1.571   7.888  1.00  0.00     0.053 C 
BRANCH   6   7
ATOM      7  C   UNL     1      -0.333   1.779   6.483  1.00  0.00     0.041 C 
ATOM      8  O   UNL     1      -1.399   2.410   6.261  1.00  0.00    -0.550 OA
ATOM      9  O   UNL     1       0.421   1.303   5.417  1.00  0.00    -0.550 OA
ENDBRANCH   6   7
ENDBRANCH   5   6
ENDBRANCH   4   5
ENDBRANCH   3   4
ENDBRANCH   2   3
ENDBRANCH   1   2
BRANCH   1  10
ATOM     10  C   UNL     1      -1.486  -3.911   8.493  1.00  0.00     0.000 C 
BRANCH  10  11
ATOM     11  C   UNL     1      -1.173  -5.339   8.956  1.00  0.00    -0.000 C 
BRANCH  11  12
ATOM     12  C   UNL     1      -0.792  -6.233   7.766  1.00  0.00    -0.000 C 
BRANCH  12  13
ATOM     13  C   UNL     1       0.318  -7.242   8.109  1.00  0.00    -0.000 C 
BRANCH  13  14
ATOM     14  C   UNL     1       1.612  -7.094   7.283  1.00  0.00    -0.000 C 
BRANCH  14  15
ATOM     15  C   UNL     1       2.135  -5.651   7.136  1.00  0.00    -0.000 C 
BRANCH  15  16
ATOM     16  C   UNL     1       3.010  -5.159   8.302  1.00  0.00    -0.003 C 
ATOM     17  C   UNL     1       2.370  -4.012   9.083  1.00  0.00     0.004 C 
ENDBRANCH  15  16
ENDBRANCH  14  15
ENDBRANCH  13  14
ENDBRANCH  12  13
ENDBRANCH  11  12
ENDBRANCH  10  11
ENDBRANCH   1  10
TORSDOF 13
ENDMDL
MODEL 2
REMARK VINA RESULT:    -3.067      1.011      3.081
REMARK INTER + INTRA:          -7.165
REMARK INTER:                  -5.580
REMARK INTRA:                  -1.585
REMARK UNBOUND:                -1.766
REMARK SMILES CCCCCCCCCCCCCCC(=O)[O-]
REMARK SMILES IDX 9 1 10 2 11 3 12 4 13 5 14 6 15 7 16 8 17 9 8 10 7 11 6 12
REMARK SMILES IDX 5 13 4 14 3 15 2 16 1 17
REMARK H PARENT
REMARK Flexibility Score: inf
ROOT
ATOM      1  C   UNL     1       2.523  -3.646   9.671  1.00  0.00     0.000 C 
ENDROOT
BRANCH   1   2
ATOM      2  C   UNL     1       1.544  -2.830   8.813  1.00  0.00     0.000 C 
BRANCH   2   3
ATOM      3  C   UNL     1       0.932  -1.646   9.577  1.00  0.00     0.000 C 
BRANCH   3   4
ATOM      4  C   UNL     1       0.887  -0.391   8.699  1.00  0.00     0.000 C 
BRANCH   4   5
ATOM      5  C   UNL     1       0.373  -0.722   7.290  1.00  0.00     0.006 C 
BRANCH   5   6
ATOM      6  C   UNL     1      -0.884   0.078   6.928  1.00  0.00     0.053 C 
BRANCH   6   7
ATOM      7  C   UNL     1      -0.547   1.353   6.216  1.00  0.00     0.041 C 
ATOM      8  O   UNL     1       0.537   1.459   5.586  1.00  0.00    -0.550 OA
ATOM      9  O   UNL     1      -1.446   2.411   6.224  1.00  0.00    -0.550 OA
ENDBRANCH   6   7
ENDBRANCH   5   6
ENDBRANCH   4   5
ENDBRANCH   3   4
ENDBRANCH   2   3
ENDBRANCH   1   2
BRANCH   1  10
ATOM     10  C   UNL     1       3.126  -4.837   8.911  1.00  0.00     0.000 C 
BRANCH  10  11
ATOM     11  C   UNL     1       2.284  -5.185   7.677  1.00  0.00    -0.000 C 
BRANCH  11  12
ATOM     12  C   UNL     1       1.977  -6.690   7.627  1.00  0.00    -0.000 C 
BRANCH  12  13
ATOM     13  C   UNL     1       0.468  -6.993   7.660  1.00  0.00    -0.000 C 
BRANCH  13  14
ATOM     14  C   UNL     1      -0.373  -6.027   8.520  1.00  0.00    -0.000 C 
BRANCH  14  15
ATOM     15  C   UNL     1      -1.568  -5.376   7.796  1.00  0.00    -0.000 C 
BRANCH  15  16
ATOM     16  C   UNL     1      -1.232  -4.085   7.029  1.00  0.00    -0.003 C 
ATOM     17  C   UNL     1      -2.474  -3.271   6.663  1.00  0.00     0.004 C 
ENDBRANCH  15  16
ENDBRANCH  14  15
ENDBRANCH  13  14
ENDBRANCH  12  13
ENDBRANCH  11  12
ENDBRANCH  10  11
ENDBRANCH   1  10
TORSDOF 13
ENDMDL
MODEL 3
REMARK VINA RESULT:    -3.056      2.907      5.439
REMARK INTER + INTRA:          -7.144
REMARK INTER:                  -5.199
REMARK INTRA:                  -1.945
REMARK UNBOUND:                -1.766
REMARK SMILES CCCCCCCCCCCCCCC(=O)[O-]
REMARK SMILES IDX 9 1 10 2 11 3 12 4 13 5 14 6 15 7 16 8 17 9 8 10 7 11 6 12
REMARK SMILES IDX 5 13 4 14 3 15 2 16 1 17
REMARK H PARENT
REMARK Flexibility Score: inf
ROOT
ATOM      1  C   UNL     1      -2.027   2.498   6.762  1.00  0.00     0.000 C 
ENDROOT
BRANCH   1   2
ATOM      2  C   UNL     1      -2.900   1.233   6.770  1.00  0.00     0.000 C 
BRANCH   2   3
ATOM      3  C   UNL     1      -3.011   0.598   8.165  1.00  0.00     0.000 C 
BRANCH   3   4
ATOM      4  C   UNL     1      -2.989  -0.932   8.074  1.00  0.00     0.000 C 
BRANCH   4   5
ATOM      5  C   UNL     1      -2.606  -1.394   6.659  1.00  0.00     0.006 C 
BRANCH   5   6
ATOM      6  C   UNL     1      -3.366  -2.657   6.236  1.00  0.00     0.053 C 
BRANCH   6   7
ATOM      7  C   UNL     1      -4.328  -2.380   5.120  1.00  0.00     0.041 C 
ATOM      8  O   UNL     1      -5.077  -1.370   5.165  1.00  0.00    -0.550 OA
ATOM      9  O   UNL     1      -4.371  -3.222   4.016  1.00  0.00    -0.550 OA
ENDBRANCH   6   7
ENDBRANCH   5   6
ENDBRANCH   4   5
ENDBRANCH   3   4
ENDBRANCH   2   3
ENDBRANCH   1   2
BRANCH   1  10
ATOM     10  C   UNL     1      -0.568   2.212   7.147  1.00  0.00     0.000 C 
BRANCH  10  11
ATOM     11  C   UNL     1       0.084   1.244   6.152  1.00  0.00    -0.000 C 
BRANCH  11  12
ATOM     12  C   UNL     1       1.095   0.327   6.857  1.00  0.00    -0.000 C 
BRANCH  12  13
ATOM     13  C   UNL     1       0.728   0.052   8.326  1.00  0.00    -0.000 C 
BRANCH  13  14
ATOM     14  C   UNL     1       0.858  -1.421   8.766  1.00  0.00    -0.000 C 
BRANCH  14  15
ATOM     15  C   UNL     1       0.430  -2.460   7.711  1.00  0.00    -0.000 C 
BRANCH  15  16
ATOM     16  C   UNL     1       0.937  -3.890   7.969  1.00  0.00    -0.003 C 
ATOM     17  C   UNL     1      -0.085  -4.961   7.586  1.00  0.00     0.004 C 
ENDBRANCH  15  16
ENDBRANCH  14  15
ENDBRANCH  13  14
ENDBRANCH  12  13
ENDBRANCH  11  12
ENDBRANCH  10  11
ENDBRANCH   1  10
TORSDOF 13
ENDMDL
MODEL 4
REMARK VINA RESULT:    -3.044      0.782      1.419
REMARK INTER + INTRA:          -7.123
REMARK INTER:                  -5.682
REMARK INTRA:                  -1.442
REMARK UNBOUND:                -1.766
REMARK SMILES CCCCCCCCCCCCCCC(=O)[O-]
REMARK SMILES IDX 9 1 10 2 11 3 12 4 13 5 14 6 15 7 16 8 17 9 8 10 7 11 6 12
REMARK SMILES IDX 5 13 4 14 3 15 2 16 1 17
REMARK H PARENT
REMARK Flexibility Score: inf
ROOT
ATOM      1  C   UNL     1      -0.465  -3.085   6.876  1.00  0.00     0.000 C 
ENDROOT
BRANCH   1   2
ATOM      2  C   UNL     1       0.123  -1.739   7.327  1.00  0.00     0.000 C 
BRANCH   2   3
ATOM      3  C   UNL     1       0.159  -1.591   8.856  1.00  0.00     0.000 C 
BRANCH   3   4
ATOM      4  C   UNL     1       0.634  -0.190   9.260  1.00  0.00     0.000 C 
BRANCH   4   5
ATOM      5  C   UNL     1       1.153   0.588   8.041  1.00  0.00     0.006 C 
BRANCH   5   6
ATOM      6  C   UNL     1       0.334   1.857   7.772  1.00  0.00     0.053 C 
BRANCH   6   7
ATOM      7  C   UNL     1      -0.278   1.845   6.404  1.00  0.00     0.041 C 
ATOM      8  O   UNL     1       0.354   1.357   5.431  1.00  0.00    -0.550 OA
ATOM      9  O   UNL     1      -1.560   2.343   6.213  1.00  0.00    -0.550 OA
ENDBRANCH   6   7
ENDBRANCH   5   6
ENDBRANCH   4   5
ENDBRANCH   3   4
ENDBRANCH   2   3
ENDBRANCH   1   2
BRANCH   1  10
ATOM     10  C   UNL     1      -2.000  -3.071   6.817  1.00  0.00     0.000 C 
BRANCH  10  11
ATOM     11  C   UNL     1      -2.578  -4.433   7.223  1.00  0.00    -0.000 C 
BRANCH  11  12
ATOM     12  C   UNL     1      -1.803  -5.030   8.407  1.00  0.00    -0.000 C 
BRANCH  12  13
ATOM     13  C   UNL     1      -1.083  -6.342   8.049  1.00  0.00    -0.000 C 
BRANCH  13  14
ATOM     14  C   UNL     1       0.414  -6.387   8.417  1.00  0.00    -0.000 C 
BRANCH  14  15
ATOM     15  C   UNL     1       1.383  -6.408   7.218  1.00  0.00    -0.000 C 
BRANCH  15  16
ATOM     16  C   UNL     1       2.585  -5.455   7.342  1.00  0.00    -0.003 C 
ATOM     17  C   UNL     1       2.488  -4.532   8.556  1.00  0.00     0.004 C 
ENDBRANCH  15  16
ENDBRANCH  14  15
ENDBRANCH  13  14
ENDBRANCH  12  13
ENDBRANCH  11  12
ENDBRANCH  10  11
ENDBRANCH   1  10
TORSDOF 13
ENDMDL
MODEL 5
REMARK VINA RESULT:    -2.952      1.478      2.463
REMARK INTER + INTRA:          -6.961
REMARK INTER:                  -5.640
REMARK INTRA:                  -1.321
REMARK UNBOUND:                -1.766
REMARK SMILES CCCCCCCCCCCCCCC(=O)[O-]
REMARK SMILES IDX 9 1 10 2 11 3 12 4 13 5 14 6 15 7 16 8 17 9 8 10 7 11 6 12
REMARK SMILES IDX 5 13 4 14 3 15 2 16 1 17
REMARK H PARENT
REMARK Flexibility Score: inf
ROOT
ATOM      1  C   UNL     1      -1.223  -4.600   7.433  1.00  0.00     0.000 C 
ENDROOT
BRANCH   1   2
ATOM      2  C   UNL     1      -0.249  -3.433   7.214  1.00  0.00     0.000 C 
BRANCH   2   3
ATOM      3  C   UNL     1       0.325  -2.885   8.530  1.00  0.00     0.000 C 
BRANCH   3   4
ATOM      4  C   UNL     1       0.844  -1.454   8.348  1.00  0.00     0.000 C 
BRANCH   4   5
ATOM      5  C   UNL     1       0.268  -0.817   7.074  1.00  0.00     0.006 C 
BRANCH   5   6
ATOM      6  C   UNL     1      -0.680   0.348   7.385  1.00  0.00     0.053 C 
BRANCH   6   7
ATOM      7  C   UNL     1      -0.534   1.464   6.396  1.00  0.00     0.041 C 
ATOM      8  O   UNL     1       0.562   1.649   5.806  1.00  0.00    -0.550 OA
ATOM      9  O   UNL     1      -1.620   2.278   6.104  1.00  0.00    -0.550 OA
ENDBRANCH   6   7
ENDBRANCH   5   6
ENDBRANCH   4   5
ENDBRANCH   3   4
ENDBRANCH   2   3
ENDBRANCH   1   2
BRANCH   1  10
ATOM     10  C   UNL     1      -0.686  -5.642   8.425  1.00  0.00     0.000 C 
BRANCH  10  11
ATOM     11  C   UNL     1      -0.306  -6.942   7.706  1.00  0.00    -0.000 C 
BRANCH  11  12
ATOM     12  C   UNL     1       1.112  -7.390   8.090  1.00  0.00    -0.000 C 
BRANCH  12  13
ATOM     13  C   UNL     1       2.091  -6.212   8.242  1.00  0.00    -0.000 C 
BRANCH  13  14
ATOM     14  C   UNL     1       2.679  -5.677   6.920  1.00  0.00    -0.000 C 
BRANCH  14  15
ATOM     15  C   UNL     1       3.692  -6.612   6.228  1.00  0.00    -0.000 C 
BRANCH  15  16
ATOM     16  C   UNL     1       3.303  -7.044   4.803  1.00  0.00    -0.003 C 
ATOM     17  C   UNL     1       2.839  -8.498   4.730  1.00  0.00     0.004 C 
ENDBRANCH  15  16
ENDBRANCH  14  15
ENDBRANCH  13  14
ENDBRANCH  12  13
ENDBRANCH  11  12
ENDBRANCH  10  11
ENDBRANCH   1  10
TORSDOF 13
ENDMDL
MODEL 6
REMARK VINA RESULT:    -2.949      1.763      3.898
REMARK INTER + INTRA:          -6.956
REMARK INTER:                  -4.910
REMARK INTRA:                  -2.046
REMARK UNBOUND:                -1.766
REMARK SMILES CCCCCCCCCCCCCCC(=O)[O-]
REMARK SMILES IDX 9 1 10 2 11 3 12 4 13 5 14 6 15 7 16 8 17 9 8 10 7 11 6 12
REMARK SMILES IDX 5 13 4 14 3 15 2 16 1 17
REMARK H PARENT
REMARK Flexibility Score: inf
ROOT
ATOM      1  C   UNL     1      -0.587  -3.318   6.762  1.00  0.00     0.000 C 
ENDROOT
BRANCH   1   2
ATOM      2  C   UNL     1       0.254  -2.105   7.189  1.00  0.00     0.000 C 
BRANCH   2   3
ATOM      3  C   UNL     1       0.469  -2.039   8.709  1.00  0.00     0.000 C 
BRANCH   3   4
ATOM      4  C   UNL     1       0.651  -0.590   9.175  1.00  0.00     0.000 C 
BRANCH   4   5
ATOM      5  C   UNL     1       1.141   0.301   8.022  1.00  0.00     0.006 C 
BRANCH   5   6
ATOM      6  C   UNL     1       0.290   1.568   7.867  1.00  0.00     0.053 C 
BRANCH   6   7
ATOM      7  C   UNL     1      -0.221   1.727   6.467  1.00  0.00     0.041 C 
ATOM      8  O   UNL     1       0.428   1.255   5.498  1.00  0.00    -0.550 OA
ATOM      9  O   UNL     1      -1.432   2.367   6.239  1.00  0.00    -0.550 OA
ENDBRANCH   6   7
ENDBRANCH   5   6
ENDBRANCH   4   5
ENDBRANCH   3   4
ENDBRANCH   2   3
ENDBRANCH   1   2
BRANCH   1  10
ATOM     10  C   UNL     1      -0.275  -4.576   7.587  1.00  0.00     0.000 C 
BRANCH  10  11
ATOM     11  C   UNL     1      -1.556  -5.352   7.912  1.00  0.00    -0.000 C 
BRANCH  11  12
ATOM     12  C   UNL     1      -2.780  -4.695   7.256  1.00  0.00    -0.000 C 
BRANCH  12  13
ATOM     13  C   UNL     1      -3.884  -4.343   8.269  1.00  0.00    -0.000 C 
BRANCH  13  14
ATOM     14  C   UNL     1      -4.181  -2.836   8.414  1.00  0.00    -0.000 C 
BRANCH  14  15
ATOM     15  C   UNL     1      -4.243  -2.051   7.088  1.00  0.00    -0.000 C 
BRANCH  15  16
ATOM     16  C   UNL     1      -3.241  -0.888   6.979  1.00  0.00    -0.003 C 
ATOM     17  C   UNL     1      -2.949  -0.227   8.326  1.00  0.00     0.004 C 
ENDBRANCH  15  16
ENDBRANCH  14  15
ENDBRANCH  13  14
ENDBRANCH  12  13
ENDBRANCH  11  12
ENDBRANCH  10  11
ENDBRANCH   1  10
TORSDOF 13
ENDMDL
MODEL 7
REMARK VINA RESULT:    -2.933      2.771      4.675
REMARK INTER + INTRA:          -6.928
REMARK INTER:                  -4.771
REMARK INTRA:                  -2.157
REMARK UNBOUND:                -1.766
REMARK SMILES CCCCCCCCCCCCCCC(=O)[O-]
REMARK SMILES IDX 9 1 10 2 11 3 12 4 13 5 14 6 15 7 16 8 17 9 8 10 7 11 6 12
REMARK SMILES IDX 5 13 4 14 3 15 2 16 1 17
REMARK H PARENT
REMARK Flexibility Score: inf
ROOT
ATOM      1  C   UNL     1       1.263   0.311   8.275  1.00  0.00     0.000 C 
ENDROOT
BRANCH   1   2
ATOM      2  C   UNL     1       0.968   0.328   6.767  1.00  0.00     0.000 C 
BRANCH   2   3
ATOM      3  C   UNL     1       0.009   1.459   6.364  1.00  0.00     0.000 C 
BRANCH   3   4
ATOM      4  C   UNL     1      -0.247   2.407   7.541  1.00  0.00     0.000 C 
BRANCH   4   5
ATOM      5  C   UNL     1      -1.748   2.702   7.692  1.00  0.00     0.006 C 
BRANCH   5   6
ATOM      6  C   UNL     1      -2.509   2.530   6.372  1.00  0.00     0.053 C 
BRANCH   6   7
ATOM      7  C   UNL     1      -3.747   3.373   6.329  1.00  0.00     0.041 C 
ATOM      8  O   UNL     1      -4.849   2.865   5.995  1.00  0.00    -0.550 OA
ATOM      9  O   UNL     1      -3.687   4.713   6.690  1.00  0.00    -0.550 OA
ENDBRANCH   6   7
ENDBRANCH   5   6
ENDBRANCH   4   5
ENDBRANCH   3   4
ENDBRANCH   2   3
ENDBRANCH   1   2
BRANCH   1  10
ATOM     10  C   UNL     1       0.524  -0.816   9.011  1.00  0.00     0.000 C 
BRANCH  10  11
ATOM     11  C   UNL     1       1.084  -2.189   8.619  1.00  0.00    -0.000 C 
BRANCH  11  12
ATOM     12  C   UNL     1      -0.049  -3.183   8.323  1.00  0.00    -0.000 C 
BRANCH  12  13
ATOM     13  C   UNL     1      -0.599  -3.054   6.892  1.00  0.00    -0.000 C 
BRANCH  13  14
ATOM     14  C   UNL     1      -2.104  -2.730   6.798  1.00  0.00    -0.000 C 
BRANCH  14  15
ATOM     15  C   UNL     1      -2.450  -1.228   6.757  1.00  0.00    -0.000 C 
BRANCH  15  16
ATOM     16  C   UNL     1      -3.566  -0.796   7.725  1.00  0.00    -0.003 C 
ATOM     17  C   UNL     1      -3.046  -0.476   9.126  1.00  0.00     0.004 C 
ENDBRANCH  15  16
ENDBRANCH  14  15
ENDBRANCH  13  14
ENDBRANCH  12  13
ENDBRANCH  11  12
ENDBRANCH  10  11
ENDBRANCH   1  10
TORSDOF 13
ENDMDL
MODEL 8
REMARK VINA RESULT:    -2.908      3.247      6.607
REMARK INTER + INTRA:          -6.884
REMARK INTER:                  -4.796
REMARK INTRA:                  -2.088
REMARK UNBOUND:                -1.766
REMARK SMILES CCCCCCCCCCCCCCC(=O)[O-]
REMARK SMILES IDX 9 1 10 2 11 3 12 4 13 5 14 6 15 7 16 8 17 9 8 10 7 11 6 12
REMARK SMILES IDX 5 13 4 14 3 15 2 16 1 17
REMARK H PARENT
REMARK Flexibility Score: inf
ROOT
ATOM      1  C   UNL     1       0.070  -1.648   8.434  1.00  0.00     0.000 C 
ENDROOT
BRANCH   1   2
ATOM      2  C   UNL     1       0.239  -2.721   7.348  1.00  0.00     0.000 C 
BRANCH   2   3
ATOM      3  C   UNL     1      -1.105  -3.257   6.830  1.00  0.00     0.000 C 
BRANCH   3   4
ATOM      4  C   UNL     1      -2.231  -2.968   7.828  1.00  0.00     0.000 C 
BRANCH   4   5
ATOM      5  C   UNL     1      -3.598  -2.945   7.125  1.00  0.00     0.006 C 
BRANCH   5   6
ATOM      6  C   UNL     1      -3.487  -3.282   5.633  1.00  0.00     0.053 C 
BRANCH   6   7
ATOM      7  C   UNL     1      -4.547  -2.595   4.827  1.00  0.00     0.041 C 
ATOM      8  O   UNL     1      -5.399  -1.861   5.394  1.00  0.00    -0.550 OA
ATOM      9  O   UNL     1      -4.573  -2.740   3.446  1.00  0.00    -0.550 OA
ENDBRANCH   6   7
ENDBRANCH   5   6
ENDBRANCH   4   5
ENDBRANCH   3   4
ENDBRANCH   2   3
ENDBRANCH   1   2
BRANCH   1  10
ATOM     10  C   UNL     1       0.790  -0.336   8.088  1.00  0.00     0.000 C 
BRANCH  10  11
ATOM     11  C   UNL     1       0.747  -0.067   6.579  1.00  0.00    -0.000 C 
BRANCH  11  12
ATOM     12  C   UNL     1       0.472   1.417   6.291  1.00  0.00    -0.000 C 
BRANCH  12  13
ATOM     13  C   UNL     1       0.098   2.211   7.555  1.00  0.00    -0.000 C 
BRANCH  13  14
ATOM     14  C   UNL     1      -1.372   2.674   7.623  1.00  0.00    -0.000 C 
BRANCH  14  15
ATOM     15  C   UNL     1      -2.239   1.949   8.673  1.00  0.00    -0.000 C 
BRANCH  15  16
ATOM     16  C   UNL     1      -2.877   0.635   8.188  1.00  0.00    -0.003 C 
ATOM     17  C   UNL     1      -3.150   0.627   6.684  1.00  0.00     0.004 C 
ENDBRANCH  15  16
ENDBRANCH  14  15
ENDBRANCH  13  14
ENDBRANCH  12  13
ENDBRANCH  11  12
ENDBRANCH  10  11
ENDBRANCH   1  10
TORSDOF 13
ENDMDL
MODEL 9
REMARK VINA RESULT:    -2.856      1.591      2.896
REMARK INTER + INTRA:          -6.792
REMARK INTER:                  -4.987
REMARK INTRA:                  -1.806
REMARK UNBOUND:                -1.766
REMARK SMILES CCCCCCCCCCCCCCC(=O)[O-]
REMARK SMILES IDX 9 1 10 2 11 3 12 4 13 5 14 6 15 7 16 8 17 9 8 10 7 11 6 12
REMARK SMILES IDX 5 13 4 14 3 15 2 16 1 17
REMARK H PARENT
REMARK Flexibility Score: inf
ROOT
ATOM      1  C   UNL     1      -3.206  -3.915   7.172  1.00  0.00     0.000 C 
ENDROOT
BRANCH   1   2
ATOM      2  C   UNL     1      -3.450  -2.705   6.257  1.00  0.00     0.000 C 
BRANCH   2   3
ATOM      3  C   UNL     1      -3.621  -1.394   7.040  1.00  0.00     0.000 C 
BRANCH   3   4
ATOM      4  C   UNL     1      -2.479  -0.419   6.733  1.00  0.00     0.000 C 
BRANCH   4   5
ATOM      5  C   UNL     1      -1.957   0.239   8.019  1.00  0.00     0.006 C 
BRANCH   5   6
ATOM      6  C   UNL     1      -0.598   0.920   7.811  1.00  0.00     0.053 C 
BRANCH   6   7
ATOM      7  C   UNL     1      -0.565   1.721   6.546  1.00  0.00     0.041 C 
ATOM      8  O   UNL     1       0.287   1.465   5.655  1.00  0.00    -0.550 OA
ATOM      9  O   UNL     1      -1.497   2.730   6.338  1.00  0.00    -0.550 OA
ENDBRANCH   6   7
ENDBRANCH   5   6
ENDBRANCH   4   5
ENDBRANCH   3   4
ENDBRANCH   2   3
ENDBRANCH   1   2
BRANCH   1  10
ATOM     10  C   UNL     1      -1.819  -3.891   7.830  1.00  0.00     0.000 C 
BRANCH  10  11
ATOM     11  C   UNL     1      -0.714  -3.742   6.777  1.00  0.00    -0.000 C 
BRANCH  11  12
ATOM     12  C   UNL     1       0.311  -2.678   7.200  1.00  0.00    -0.000 C 
BRANCH  12  13
ATOM     13  C   UNL     1       0.492  -2.597   8.726  1.00  0.00    -0.000 C 
BRANCH  13  14
ATOM     14  C   UNL     1       1.858  -3.089   9.247  1.00  0.00    -0.000 C 
BRANCH  14  15
ATOM     15  C   UNL     1       2.022  -4.621   9.312  1.00  0.00    -0.000 C 
BRANCH  15  16
ATOM     16  C   UNL     1       2.995  -5.210   8.276  1.00  0.00    -0.003 C 
ATOM     17  C   UNL     1       2.280  -5.908   7.119  1.00  0.00     0.004 C 
ENDBRANCH  15  16
ENDBRANCH  14  15
ENDBRANCH  13  14
ENDBRANCH  12  13
ENDBRANCH  11  12
ENDBRANCH  10  11
ENDBRANCH   1  10
TORSDOF 13
ENDMDL
