MODEL 1
REMARK VINA RESULT:    -4.949      0.000      0.000
REMARK INTER + INTRA:         -11.313
REMARK INTER:                  -8.999
REMARK INTRA:                  -2.315
REMARK UNBOUND:                -2.315
REMARK SMILES CCCCCCCCCCCCCC[C@@H](C)C(=O)[O-]
REMARK SMILES IDX 9 1 10 2 11 3 12 4 13 5 14 6 15 7 16 8 17 9 18 10 19 11 8 12
REMARK SMILES IDX 7 13 6 14 5 15 4 16 3 17 2 18 1 19
REMARK H PARENT
REMARK Flexibility Score: inf
ROOT
ATOM      1  C   UNL     1      76.615   9.851  18.795  1.00  0.00     0.000 C 
ENDROOT
BRANCH   1   2
ATOM      2  C   UNL     1      76.693  10.748  20.047  1.00  0.00     0.000 C 
BRANCH   2   3
ATOM      3  C   UNL     1      75.783  11.989  20.014  1.00  0.00     0.000 C 
BRANCH   3   4
ATOM      4  C   UNL     1      74.524  11.784  19.158  1.00  0.00     0.000 C 
BRANCH   4   5
ATOM      5  C   UNL     1      73.970  13.129  18.665  1.00  0.00     0.001 C 
BRANCH   5   6
ATOM      6  C   UNL     1      74.391  13.461  17.221  1.00  0.00     0.009 C 
BRANCH   6   7
ATOM      7  C   UNL     1      74.789  14.936  16.980  1.00  0.00     0.032 C 
ATOM      8  C   UNL     1      75.959  15.382  17.868  1.00  0.00     0.014 C 
BRANCH   7   9
ATOM      9  C   UNL     1      75.153  15.126  15.533  1.00  0.00     0.044 C 
ATOM     10  O   UNL     1      75.718  14.199  14.895  1.00  0.00    -0.550 OA
ATOM     11  O   UNL     1      74.880  16.330  14.892  1.00  0.00    -0.550 OA
ENDBRANCH   7   9
ENDBRANCH   6   7
ENDBRANCH   5   6
ENDBRANCH   4   5
ENDBRANCH   3   4
ENDBRANCH   2   3
ENDBRANCH   1   2
BRANCH   1  12
ATOM     12  C   UNL     1      77.780  10.016  17.801  1.00  0.00     0.000 C 
BRANCH  12  13
ATOM     13  C   UNL     1      77.492  10.943  16.603  1.00  0.00    -0.000 C 
BRANCH  13  14
ATOM     14  C   UNL     1      77.904  12.414  16.796  1.00  0.00    -0.000 C 
BRANCH  14  15
ATOM     15  C   UNL     1      79.032  12.587  17.828  1.00  0.00    -0.000 C 
BRANCH  15  16
ATOM     16  C   UNL     1      78.754  13.721  18.833  1.00  0.00    -0.000 C 
BRANCH  16  17
ATOM     17  C   UNL     1      79.508  13.610  20.171  1.00  0.00    -0.000 C 
BRANCH  17  18
ATOM     18  C   UNL     1      80.239  14.904  20.556  1.00  0.00    -0.003 C 
ATOM     19  C   UNL     1      79.633  16.110  19.844  1.00  0.00     0.004 C 
ENDBRANCH  17  18
ENDBRANCH  16  17
ENDBRANCH  15  16
ENDBRANCH  14  15
ENDBRANCH  13  14
ENDBRANCH  12  13
ENDBRANCH   1  12
TORSDOF 14
ENDMDL
MODEL 2
REMARK VINA RESULT:    -4.921      1.652      2.457
REMARK INTER + INTRA:         -11.264
REMARK INTER:                  -9.148
REMARK INTRA:                  -2.115
REMARK UNBOUND:                -2.315
REMARK SMILES CCCCCCCCCCCCCC[C@@H](C)C(=O)[O-]
REMARK SMILES IDX 9 1 10 2 11 3 12 4 13 5 14 6 15 7 16 8 17 9 18 10 19 11 8 12
REMARK SMILES IDX 7 13 6 14 5 15 4 16 3 17 2 18 1 19
REMARK H PARENT
REMARK Flexibility Score: inf
ROOT
ATOM      1  C   UNL     1      76.604  11.614  20.106  1.00  0.00     0.000 C 
ENDROOT
BRANCH   1   2
ATOM      2  C   UNL     1      75.106  11.970  20.029  1.00  0.00     0.000 C 
BRANCH   2   3
ATOM      3  C   UNL     1      74.593  12.318  18.620  1.00  0.00     0.000 C 
BRANCH   3   4
ATOM      4  C   UNL     1      74.041  13.748  18.521  1.00  0.00     0.000 C 
BRANCH   4   5
ATOM      5  C   UNL     1      75.045  14.676  17.822  1.00  0.00     0.001 C 
BRANCH   5   6
ATOM      6  C   UNL     1      75.396  14.219  16.393  1.00  0.00     0.009 C 
BRANCH   6   7
ATOM      7  C   UNL     1      75.516  15.358  15.354  1.00  0.00     0.032 C 
ATOM      8  C   UNL     1      74.445  16.441  15.543  1.00  0.00     0.014 C 
BRANCH   7   9
ATOM      9  C   UNL     1      76.884  15.978  15.448  1.00  0.00     0.044 C 
ATOM     10  O   UNL     1      77.866  15.435  14.877  1.00  0.00    -0.550 OA
ATOM     11  O   UNL     1      77.077  17.148  16.175  1.00  0.00    -0.550 OA
ENDBRANCH   7   9
ENDBRANCH   6   7
ENDBRANCH   5   6
ENDBRANCH   4   5
ENDBRANCH   3   4
ENDBRANCH   2   3
ENDBRANCH   1   2
BRANCH   1  12
ATOM     12  C   UNL     1      77.567  12.794  19.873  1.00  0.00     0.000 C 
BRANCH  12  13
ATOM     13  C   UNL     1      78.231  12.831  18.481  1.00  0.00    -0.000 C 
BRANCH  13  14
ATOM     14  C   UNL     1      78.863  14.180  18.091  1.00  0.00    -0.000 C 
BRANCH  14  15
ATOM     15  C   UNL     1      78.477  15.320  19.049  1.00  0.00    -0.000 C 
BRANCH  15  16
ATOM     16  C   UNL     1      79.618  15.709  20.008  1.00  0.00    -0.000 C 
BRANCH  16  17
ATOM     17  C   UNL     1      80.975  15.985  19.335  1.00  0.00    -0.000 C 
BRANCH  17  18
ATOM     18  C   UNL     1      82.085  15.042  19.819  1.00  0.00    -0.003 C 
ATOM     19  C   UNL     1      81.576  14.108  20.913  1.00  0.00     0.004 C 
ENDBRANCH  17  18
ENDBRANCH  16  17
ENDBRANCH  15  16
ENDBRANCH  14  15
ENDBRANCH  13  14
ENDBRANCH  12  13
ENDBRANCH   1  12
TORSDOF 14
ENDMDL
MODEL 3
REMARK VINA RESULT:    -4.918      2.589      5.533
REMARK INTER + INTRA:         -11.258
REMARK INTER:                  -9.058
REMARK INTRA:                  -2.200
REMARK UNBOUND:                -2.315
REMARK SMILES CCCCCCCCCCCCCC[C@@H](C)C(=O)[O-]
REMARK SMILES IDX 9 1 10 2 11 3 12 4 13 5 14 6 15 7 16 8 17 9 18 10 19 11 8 12
REMARK SMILES IDX 7 13 6 14 5 15 4 16 3 17 2 18 1 19
REMARK H PARENT
REMARK Flexibility Score: inf
ROOT
ATOM      1  C   UNL     1      75.313  11.953  19.950  1.00  0.00     0.000 C 
ENDROOT
BRANCH   1   2
ATOM      2  C   UNL     1      76.315  10.931  19.377  1.00  0.00     0.000 C 
BRANCH   2   3
ATOM      3  C   UNL     1      77.792  11.213  19.711  1.00  0.00     0.000 C 
BRANCH   3   4
ATOM      4  C   UNL     1      78.096  12.712  19.854  1.00  0.00     0.000 C 
BRANCH   4   5
ATOM      5  C   UNL     1      79.197  13.144  18.875  1.00  0.00     0.001 C 
BRANCH   5   6
ATOM      6  C   UNL     1      80.602  13.140  19.507  1.00  0.00     0.009 C 
BRANCH   6   7
ATOM      7  C   UNL     1      80.879  14.299  20.493  1.00  0.00     0.032 C 
ATOM      8  C   UNL     1      82.285  14.229  21.103  1.00  0.00     0.014 C 
BRANCH   7   9
ATOM      9  C   UNL     1      80.702  15.613  19.781  1.00  0.00     0.044 C 
ATOM     10  O   UNL     1      79.847  16.443  20.186  1.00  0.00    -0.550 OA
ATOM     11  O   UNL     1      81.472  15.915  18.663  1.00  0.00    -0.550 OA
ENDBRANCH   7   9
ENDBRANCH   6   7
ENDBRANCH   5   6
ENDBRANCH   4   5
ENDBRANCH   3   4
ENDBRANCH   2   3
ENDBRANCH   1   2
BRANCH   1  12
ATOM     12  C   UNL     1      73.955  12.011  19.225  1.00  0.00     0.000 C 
BRANCH  12  13
ATOM     13  C   UNL     1      73.666  13.330  18.481  1.00  0.00    -0.000 C 
BRANCH  13  14
ATOM     14  C   UNL     1      74.892  14.229  18.238  1.00  0.00    -0.000 C 
BRANCH  14  15
ATOM     15  C   UNL     1      75.292  14.305  16.754  1.00  0.00    -0.000 C 
BRANCH  15  16
ATOM     16  C   UNL     1      76.518  13.435  16.419  1.00  0.00    -0.000 C 
BRANCH  16  17
ATOM     17  C   UNL     1      76.197  12.044  15.842  1.00  0.00    -0.000 C 
BRANCH  17  18
ATOM     18  C   UNL     1      77.448  11.283  15.382  1.00  0.00    -0.003 C 
ATOM     19  C   UNL     1      77.541   9.919  16.059  1.00  0.00     0.004 C 
ENDBRANCH  17  18
ENDBRANCH  16  17
ENDBRANCH  15  16
ENDBRANCH  14  15
ENDBRANCH  13  14
ENDBRANCH  12  13
ENDBRANCH   1  12
TORSDOF 14
ENDMDL
MODEL 4
REMARK VINA RESULT:    -4.911      1.650      2.632
REMARK INTER + INTRA:         -11.245
REMARK INTER:                  -9.319
REMARK INTRA:                  -1.925
REMARK UNBOUND:                -2.315
REMARK SMILES CCCCCCCCCCCCCC[C@@H](C)C(=O)[O-]
REMARK SMILES IDX 9 1 10 2 11 3 12 4 13 5 14 6 15 7 16 8 17 9 18 10 19 11 8 12
REMARK SMILES IDX 7 13 6 14 5 15 4 16 3 17 2 18 1 19
REMARK H PARENT
REMARK Flexibility Score: inf
ROOT
ATOM      1  C   UNL     1      75.602  11.433  19.367  1.00  0.00     0.000 C 
ENDROOT
BRANCH   1   2
ATOM      2  C   UNL     1      74.280  12.226  19.397  1.00  0.00     0.000 C 
BRANCH   2   3
ATOM      3  C   UNL     1      74.129  13.277  18.282  1.00  0.00     0.000 C 
BRANCH   3   4
ATOM      4  C   UNL     1      74.557  12.750  16.904  1.00  0.00     0.000 C 
BRANCH   4   5
ATOM      5  C   UNL     1      75.278  13.842  16.100  1.00  0.00     0.001 C 
BRANCH   5   6
ATOM      6  C   UNL     1      75.221  15.226  16.775  1.00  0.00     0.009 C 
BRANCH   6   7
ATOM      7  C   UNL     1      76.236  16.259  16.234  1.00  0.00     0.032 C 
ATOM      8  C   UNL     1      77.441  15.597  15.551  1.00  0.00     0.014 C 
BRANCH   7   9
ATOM      9  C   UNL     1      75.546  17.177  15.262  1.00  0.00     0.044 C 
ATOM     10  O   UNL     1      74.347  16.969  14.937  1.00  0.00    -0.550 OA
ATOM     11  O   UNL     1      76.229  18.252  14.705  1.00  0.00    -0.550 OA
ENDBRANCH   7   9
ENDBRANCH   6   7
ENDBRANCH   5   6
ENDBRANCH   4   5
ENDBRANCH   3   4
ENDBRANCH   2   3
ENDBRANCH   1   2
BRANCH   1  12
ATOM     12  C   UNL     1      76.597  11.782  20.491  1.00  0.00     0.000 C 
BRANCH  12  13
ATOM     13  C   UNL     1      77.911  12.437  20.022  1.00  0.00    -0.000 C 
BRANCH  13  14
ATOM     14  C   UNL     1      77.805  13.272  18.732  1.00  0.00    -0.000 C 
BRANCH  14  15
ATOM     15  C   UNL     1      78.191  14.746  18.942  1.00  0.00    -0.000 C 
BRANCH  15  16
ATOM     16  C   UNL     1      79.427  14.920  19.844  1.00  0.00    -0.000 C 
BRANCH  16  17
ATOM     17  C   UNL     1      79.888  16.374  20.053  1.00  0.00    -0.000 C 
BRANCH  17  18
ATOM     18  C   UNL     1      80.613  16.954  18.830  1.00  0.00    -0.003 C 
ATOM     19  C   UNL     1      79.794  18.065  18.180  1.00  0.00     0.004 C 
ENDBRANCH  17  18
ENDBRANCH  16  17
ENDBRANCH  15  16
ENDBRANCH  14  15
ENDBRANCH  13  14
ENDBRANCH  12  13
ENDBRANCH   1  12
TORSDOF 14
ENDMDL
MODEL 5
REMARK VINA RESULT:    -4.895      2.791      5.438
REMARK INTER + INTRA:         -11.216
REMARK INTER:                 -10.013
REMARK INTRA:                  -1.204
REMARK UNBOUND:                -2.315
REMARK SMILES CCCCCCCCCCCCCC[C@@H](C)C(=O)[O-]
REMARK SMILES IDX 9 1 10 2 11 3 12 4 13 5 14 6 15 7 16 8 17 9 18 10 19 11 8 12
REMARK SMILES IDX 7 13 6 14 5 15 4 16 3 17 2 18 1 19
REMARK H PARENT
REMARK Flexibility Score: inf
ROOT
ATOM      1  C   UNL     1      74.552  11.947  18.967  1.00  0.00     0.000 C 
ENDROOT
BRANCH   1   2
ATOM      2  C   UNL     1      75.497  12.007  20.184  1.00  0.00     0.000 C 
BRANCH   2   3
ATOM      3  C   UNL     1      76.780  11.166  20.051  1.00  0.00     0.000 C 
BRANCH   3   4
ATOM      4  C   UNL     1      77.854  11.849  19.191  1.00  0.00     0.000 C 
BRANCH   4   5
ATOM      5  C   UNL     1      78.380  13.119  19.876  1.00  0.00     0.001 C 
BRANCH   5   6
ATOM      6  C   UNL     1      79.891  13.336  19.667  1.00  0.00     0.009 C 
BRANCH   6   7
ATOM      7  C   UNL     1      80.523  14.431  20.557  1.00  0.00     0.032 C 
ATOM      8  C   UNL     1      81.909  14.033  21.083  1.00  0.00     0.014 C 
BRANCH   7   9
ATOM      9  C   UNL     1      80.628  15.712  19.776  1.00  0.00     0.044 C 
ATOM     10  O   UNL     1      81.341  15.766  18.740  1.00  0.00    -0.550 OA
ATOM     11  O   UNL     1      79.948  16.850  20.198  1.00  0.00    -0.550 OA
ENDBRANCH   7   9
ENDBRANCH   6   7
ENDBRANCH   5   6
ENDBRANCH   4   5
ENDBRANCH   3   4
ENDBRANCH   2   3
ENDBRANCH   1   2
BRANCH   1  12
ATOM     12  C   UNL     1      73.914  13.293  18.571  1.00  0.00     0.000 C 
BRANCH  12  13
ATOM     13  C   UNL     1      74.838  14.249  17.790  1.00  0.00    -0.000 C 
BRANCH  13  14
ATOM     14  C   UNL     1      75.081  13.871  16.317  1.00  0.00    -0.000 C 
BRANCH  14  15
ATOM     15  C   UNL     1      75.714  15.013  15.504  1.00  0.00    -0.000 C 
BRANCH  15  16
ATOM     16  C   UNL     1      74.722  16.150  15.194  1.00  0.00    -0.000 C 
BRANCH  16  17
ATOM     17  C   UNL     1      75.206  17.562  15.566  1.00  0.00    -0.000 C 
BRANCH  17  18
ATOM     18  C   UNL     1      76.552  17.559  16.305  1.00  0.00    -0.003 C 
ATOM     19  C   UNL     1      77.513  18.580  15.701  1.00  0.00     0.004 C 
ENDBRANCH  17  18
ENDBRANCH  16  17
ENDBRANCH  15  16
ENDBRANCH  14  15
ENDBRANCH  13  14
ENDBRANCH  12  13
ENDBRANCH   1  12
TORSDOF 14
ENDMDL
MODEL 6
REMARK VINA RESULT:    -4.894      2.755      5.035
REMARK INTER + INTRA:         -11.215
REMARK INTER:                  -9.176
REMARK INTRA:                  -2.039
REMARK UNBOUND:                -2.315
REMARK SMILES CCCCCCCCCCCCCC[C@@H](C)C(=O)[O-]
REMARK SMILES IDX 9 1 10 2 11 3 12 4 13 5 14 6 15 7 16 8 17 9 18 10 19 11 8 12
REMARK SMILES IDX 7 13 6 14 5 15 4 16 3 17 2 18 1 19
REMARK H PARENT
REMARK Flexibility Score: inf
ROOT
ATOM      1  C   UNL     1      75.502  12.006  20.081  1.00  0.00     0.000 C 
ENDROOT
BRANCH   1   2
ATOM      2  C   UNL     1      76.556  11.029  19.524  1.00  0.00     0.000 C 
BRANCH   2   3
ATOM      3  C   UNL     1      78.011  11.524  19.613  1.00  0.00     0.000 C 
BRANCH   3   4
ATOM      4  C   UNL     1      78.114  13.046  19.797  1.00  0.00     0.000 C 
BRANCH   4   5
ATOM      5  C   UNL     1      78.331  13.748  18.448  1.00  0.00     0.001 C 
BRANCH   5   6
ATOM      6  C   UNL     1      78.117  15.272  18.520  1.00  0.00     0.009 C 
BRANCH   6   7
ATOM      7  C   UNL     1      79.272  16.121  17.940  1.00  0.00     0.032 C 
ATOM      8  C   UNL     1      78.777  17.422  17.293  1.00  0.00     0.014 C 
BRANCH   7   9
ATOM      9  C   UNL     1      80.254  16.443  19.034  1.00  0.00     0.044 C 
ATOM     10  O   UNL     1      79.874  16.487  20.233  1.00  0.00    -0.550 OA
ATOM     11  O   UNL     1      81.584  16.707  18.727  1.00  0.00    -0.550 OA
ENDBRANCH   7   9
ENDBRANCH   6   7
ENDBRANCH   5   6
ENDBRANCH   4   5
ENDBRANCH   3   4
ENDBRANCH   2   3
ENDBRANCH   1   2
BRANCH   1  12
ATOM     12  C   UNL     1      74.136  11.966  19.369  1.00  0.00     0.000 C 
BRANCH  12  13
ATOM     13  C   UNL     1      73.745  13.262  18.630  1.00  0.00    -0.000 C 
BRANCH  13  14
ATOM     14  C   UNL     1      74.842  13.863  17.732  1.00  0.00    -0.000 C 
BRANCH  14  15
ATOM     15  C   UNL     1      75.011  13.103  16.405  1.00  0.00    -0.000 C 
BRANCH  15  16
ATOM     16  C   UNL     1      75.522  13.999  15.262  1.00  0.00    -0.000 C 
BRANCH  16  17
ATOM     17  C   UNL     1      75.941  15.420  15.680  1.00  0.00    -0.000 C 
BRANCH  17  18
ATOM     18  C   UNL     1      74.908  16.488  15.293  1.00  0.00    -0.003 C 
ATOM     19  C   UNL     1      74.794  17.559  16.374  1.00  0.00     0.004 C 
ENDBRANCH  17  18
ENDBRANCH  16  17
ENDBRANCH  15  16
ENDBRANCH  14  15
ENDBRANCH  13  14
ENDBRANCH  12  13
ENDBRANCH   1  12
TORSDOF 14
ENDMDL
MODEL 7
REMARK VINA RESULT:    -4.885      1.617      2.665
REMARK INTER + INTRA:         -11.198
REMARK INTER:                  -9.445
REMARK INTRA:                  -1.753
REMARK UNBOUND:                -2.315
REMARK SMILES CCCCCCCCCCCCCC[C@@H](C)C(=O)[O-]
REMARK SMILES IDX 9 1 10 2 11 3 12 4 13 5 14 6 15 7 16 8 17 9 18 10 19 11 8 12
REMARK SMILES IDX 7 13 6 14 5 15 4 16 3 17 2 18 1 19
REMARK H PARENT
REMARK Flexibility Score: inf
ROOT
ATOM      1  C   UNL     1      77.955  11.816  19.197  1.00  0.00     0.000 C 
ENDROOT
BRANCH   1   2
ATOM      2  C   UNL     1      76.791  11.127  19.939  1.00  0.00     0.000 C 
BRANCH   2   3
ATOM      3  C   UNL     1      75.532  11.993  20.117  1.00  0.00     0.000 C 
BRANCH   3   4
ATOM      4  C   UNL     1      74.447  11.693  19.071  1.00  0.00     0.000 C 
BRANCH   4   5
ATOM      5  C   UNL     1      73.791  12.989  18.573  1.00  0.00     0.001 C 
BRANCH   5   6
ATOM      6  C   UNL     1      74.815  14.076  18.192  1.00  0.00     0.009 C 
BRANCH   6   7
ATOM      7  C   UNL     1      74.752  14.545  16.720  1.00  0.00     0.032 C 
ATOM      8  C   UNL     1      75.203  16.002  16.548  1.00  0.00     0.014 C 
BRANCH   7   9
ATOM      9  C   UNL     1      75.610  13.647  15.871  1.00  0.00     0.044 C 
ATOM     10  O   UNL     1      75.094  12.683  15.246  1.00  0.00    -0.550 OA
ATOM     11  O   UNL     1      76.980  13.865  15.782  1.00  0.00    -0.550 OA
ENDBRANCH   7   9
ENDBRANCH   6   7
ENDBRANCH   5   6
ENDBRANCH   4   5
ENDBRANCH   3   4
ENDBRANCH   2   3
ENDBRANCH   1   2
BRANCH   1  12
ATOM     12  C   UNL     1      78.428  13.144  19.819  1.00  0.00     0.000 C 
BRANCH  12  13
ATOM     13  C   UNL     1      78.062  14.409  19.017  1.00  0.00    -0.000 C 
BRANCH  13  14
ATOM     14  C   UNL     1      79.161  15.485  18.949  1.00  0.00    -0.000 C 
BRANCH  14  15
ATOM     15  C   UNL     1      79.971  15.593  20.252  1.00  0.00    -0.000 C 
BRANCH  15  16
ATOM     16  C   UNL     1      81.469  15.295  20.052  1.00  0.00    -0.000 C 
BRANCH  16  17
ATOM     17  C   UNL     1      82.042  14.181  20.947  1.00  0.00    -0.000 C 
BRANCH  17  18
ATOM     18  C   UNL     1      82.205  12.845  20.210  1.00  0.00    -0.003 C 
ATOM     19  C   UNL     1      82.127  13.038  18.698  1.00  0.00     0.004 C 
ENDBRANCH  17  18
ENDBRANCH  16  17
ENDBRANCH  15  16
ENDBRANCH  14  15
ENDBRANCH  13  14
ENDBRANCH  12  13
ENDBRANCH   1  12
TORSDOF 14
ENDMDL
MODEL 8
REMARK VINA RESULT:    -4.881      1.285      2.288
REMARK INTER + INTRA:         -11.191
REMARK INTER:                  -8.807
REMARK INTRA:                  -2.384
REMARK UNBOUND:                -2.315
REMARK SMILES CCCCCCCCCCCCCC[C@@H](C)C(=O)[O-]
REMARK SMILES IDX 9 1 10 2 11 3 12 4 13 5 14 6 15 7 16 8 17 9 18 10 19 11 8 12
REMARK SMILES IDX 7 13 6 14 5 15 4 16 3 17 2 18 1 19
REMARK H PARENT
REMARK Flexibility Score: inf
ROOT
ATOM      1  C   UNL     1      75.735  12.014  20.079  1.00  0.00     0.000 C 
ENDROOT
BRANCH   1   2
ATOM      2  C   UNL     1      74.381  11.863  19.357  1.00  0.00     0.000 C 
BRANCH   2   3
ATOM      3  C   UNL     1      73.869  13.139  18.664  1.00  0.00     0.000 C 
BRANCH   3   4
ATOM      4  C   UNL     1      74.930  13.800  17.771  1.00  0.00     0.000 C 
BRANCH   4   5
ATOM      5  C   UNL     1      74.956  13.152  16.379  1.00  0.00     0.001 C 
BRANCH   5   6
ATOM      6  C   UNL     1      75.548  14.074  15.296  1.00  0.00     0.009 C 
BRANCH   6   7
ATOM      7  C   UNL     1      76.130  15.408  15.819  1.00  0.00     0.032 C 
ATOM      8  C   UNL     1      77.594  15.613  15.404  1.00  0.00     0.014 C 
BRANCH   7   9
ATOM      9  C   UNL     1      75.295  16.551  15.310  1.00  0.00     0.044 C 
ATOM     10  O   UNL     1      75.849  17.579  14.839  1.00  0.00    -0.550 OA
ATOM     11  O   UNL     1      73.907  16.487  15.368  1.00  0.00    -0.550 OA
ENDBRANCH   7   9
ENDBRANCH   6   7
ENDBRANCH   5   6
ENDBRANCH   4   5
ENDBRANCH   3   4
ENDBRANCH   2   3
ENDBRANCH   1   2
BRANCH   1  12
ATOM     12  C   UNL     1      76.670  10.794  19.971  1.00  0.00     0.000 C 
BRANCH  12  13
ATOM     13  C   UNL     1      76.559   9.998  18.655  1.00  0.00    -0.000 C 
BRANCH  13  14
ATOM     14  C   UNL     1      77.354  10.576  17.469  1.00  0.00    -0.000 C 
BRANCH  14  15
ATOM     15  C   UNL     1      78.849  10.757  17.784  1.00  0.00    -0.000 C 
BRANCH  15  16
ATOM     16  C   UNL     1      79.279  12.236  17.820  1.00  0.00    -0.000 C 
BRANCH  16  17
ATOM     17  C   UNL     1      79.952  12.692  19.127  1.00  0.00    -0.000 C 
BRANCH  17  18
ATOM     18  C   UNL     1      79.115  13.715  19.907  1.00  0.00    -0.003 C 
ATOM     19  C   UNL     1      78.266  14.563  18.965  1.00  0.00     0.004 C 
ENDBRANCH  17  18
ENDBRANCH  16  17
ENDBRANCH  15  16
ENDBRANCH  14  15
ENDBRANCH  13  14
ENDBRANCH  12  13
ENDBRANCH   1  12
TORSDOF 14
ENDMDL
MODEL 9
REMARK VINA RESULT:    -4.797      2.216      4.727
REMARK INTER + INTRA:         -11.038
REMARK INTER:                  -9.121
REMARK INTRA:                  -1.918
REMARK UNBOUND:                -2.315
REMARK SMILES CCCCCCCCCCCCCC[C@@H](C)C(=O)[O-]
REMARK SMILES IDX 9 1 10 2 11 3 12 4 13 5 14 6 15 7 16 8 17 9 18 10 19 11 8 12
REMARK SMILES IDX 7 13 6 14 5 15 4 16 3 17 2 18 1 19
REMARK H PARENT
REMARK Flexibility Score: inf
ROOT
ATOM      1  C   UNL     1      74.585  16.305  15.816  1.00  0.00     0.000 C 
ENDROOT
BRANCH   1   2
ATOM      2  C   UNL     1      75.132  15.064  15.083  1.00  0.00     0.000 C 
BRANCH   2   3
ATOM      3  C   UNL     1      75.152  13.772  15.920  1.00  0.00     0.000 C 
BRANCH   3   4
ATOM      4  C   UNL     1      74.818  14.014  17.399  1.00  0.00     0.000 C 
BRANCH   4   5
ATOM      5  C   UNL     1      73.915  12.899  17.946  1.00  0.00     0.001 C 
BRANCH   5   6
ATOM      6  C   UNL     1      74.519  12.177  19.166  1.00  0.00     0.009 C 
BRANCH   6   7
ATOM      7  C   UNL     1      76.058  12.030  19.141  1.00  0.00     0.032 C 
ATOM      8  C   UNL     1      76.656  11.873  20.547  1.00  0.00     0.014 C 
BRANCH   7   9
ATOM      9  C   UNL     1      76.434  10.843  18.297  1.00  0.00     0.044 C 
ATOM     10  O   UNL     1      76.272   9.675  18.738  1.00  0.00    -0.550 OA
ATOM     11  O   UNL     1      76.974  11.026  17.029  1.00  0.00    -0.550 OA
ENDBRANCH   7   9
ENDBRANCH   6   7
ENDBRANCH   5   6
ENDBRANCH   4   5
ENDBRANCH   3   4
ENDBRANCH   2   3
ENDBRANCH   1   2
BRANCH   1  12
ATOM     12  C   UNL     1      75.482  17.556  15.738  1.00  0.00     0.000 C 
BRANCH  12  13
ATOM     13  C   UNL     1      76.974  17.275  15.472  1.00  0.00    -0.000 C 
BRANCH  13  14
ATOM     14  C   UNL     1      77.849  17.125  16.730  1.00  0.00    -0.000 C 
BRANCH  14  15
ATOM     15  C   UNL     1      78.268  15.669  16.997  1.00  0.00    -0.000 C 
BRANCH  15  16
ATOM     16  C   UNL     1      78.060  15.245  18.463  1.00  0.00    -0.000 C 
BRANCH  16  17
ATOM     17  C   UNL     1      79.247  15.529  19.401  1.00  0.00    -0.000 C 
BRANCH  17  18
ATOM     18  C   UNL     1      79.598  14.336  20.302  1.00  0.00    -0.003 C 
ATOM     19  C   UNL     1      81.015  14.461  20.853  1.00  0.00     0.004 C 
ENDBRANCH  17  18
ENDBRANCH  16  17
ENDBRANCH  15  16
ENDBRANCH  14  15
ENDBRANCH  13  14
ENDBRANCH  12  13
ENDBRANCH   1  12
TORSDOF 14
ENDMDL
