MODEL 1
REMARK VINA RESULT:    -4.023      0.000      0.000
REMARK INTER + INTRA:          -6.519
REMARK INTER:                  -5.551
REMARK INTRA:                  -0.968
REMARK UNBOUND:                -0.968
REMARK SMILES OC[C@@H](O)[C@H](O)[C@@H](O)CO
REMARK SMILES IDX 5 1 7 2 9 3 10 4 8 6 3 8 2 9 1 10 4 12 6 14
REMARK H PARENT 10 5 8 7 1 11 4 13 6 15
REMARK Flexibility Score: inf
ROOT
ATOM      1  C   UNL     1      -3.890   0.929  20.154  1.00  0.00     0.176 C 
ENDROOT
BRANCH   1   2
ATOM      2  C   UNL     1      -4.841   1.277  21.334  1.00  0.00     0.171 C 
BRANCH   2   3
ATOM      3  C   UNL     1      -4.481   2.599  22.039  1.00  0.00     0.190 C 
BRANCH   3   4
ATOM      4  O   UNL     1      -3.407   2.410  22.920  1.00  0.00    -0.394 OA
ATOM      5  H   UNL     1      -3.532   3.057  23.663  1.00  0.00     0.210 HD
ENDBRANCH   3   4
ENDBRANCH   2   3
BRANCH   2   6
ATOM      6  O   UNL     1      -4.857   0.226  22.271  1.00  0.00    -0.388 OA
ATOM      7  H   UNL     1      -4.037  -0.315  22.124  1.00  0.00     0.211 HD
ENDBRANCH   2   6
ENDBRANCH   1   2
BRANCH   1   8
ATOM      8  C   UNL     1      -4.414  -0.257  19.283  1.00  0.00     0.171 C 
BRANCH   8   9
ATOM      9  C   UNL     1      -3.544  -1.522  19.440  1.00  0.00     0.190 C 
BRANCH   9  10
ATOM     10  O   UNL     1      -3.598  -2.009  20.756  1.00  0.00    -0.394 OA
ATOM     11  H   UNL     1      -4.464  -2.484  20.851  1.00  0.00     0.210 HD
ENDBRANCH   9  10
ENDBRANCH   8   9
BRANCH   8  12
ATOM     12  O   UNL     1      -5.742  -0.567  19.631  1.00  0.00    -0.388 OA
ATOM     13  H   UNL     1      -6.026  -1.323  19.052  1.00  0.00     0.211 HD
ENDBRANCH   8  12
ENDBRANCH   1   8
BRANCH   1  14
ATOM     14  O   UNL     1      -2.629   0.594  20.683  1.00  0.00    -0.388 OA
ATOM     15  H   UNL     1      -2.398   1.285  21.358  1.00  0.00     0.211 HD
ENDBRANCH   1  14
TORSDOF 9
ENDMDL
MODEL 2
REMARK VINA RESULT:    -3.901      6.983      8.563
REMARK INTER + INTRA:          -6.352
REMARK INTER:                  -5.683
REMARK INTRA:                  -0.669
REMARK UNBOUND:                -0.968
REMARK SMILES OC[C@@H](O)[C@H](O)[C@@H](O)CO
REMARK SMILES IDX 5 1 7 2 9 3 10 4 8 6 3 8 2 9 1 10 4 12 6 14
REMARK H PARENT 10 5 8 7 1 11 4 13 6 15
REMARK Flexibility Score: inf
ROOT
ATOM      1  C   UNL     1       0.891  -1.160  14.691  1.00  0.00     0.176 C 
ENDROOT
BRANCH   1   2
ATOM      2  C   UNL     1       2.384  -0.857  15.007  1.00  0.00     0.171 C 
BRANCH   2   3
ATOM      3  C   UNL     1       3.340  -1.986  14.576  1.00  0.00     0.190 C 
BRANCH   3   4
ATOM      4  O   UNL     1       2.643  -2.977  13.870  1.00  0.00    -0.394 OA
ATOM      5  H   UNL     1       3.294  -3.703  13.682  1.00  0.00     0.210 HD
ENDBRANCH   3   4
ENDBRANCH   2   3
BRANCH   2   6
ATOM      6  O   UNL     1       2.545  -0.592  16.379  1.00  0.00    -0.388 OA
ATOM      7  H   UNL     1       3.205   0.146  16.465  1.00  0.00     0.211 HD
ENDBRANCH   2   6
ENDBRANCH   1   2
BRANCH   1   8
ATOM      8  C   UNL     1      -0.014   0.111  14.763  1.00  0.00     0.171 C 
BRANCH   8   9
ATOM      9  C   UNL     1      -1.397  -0.123  14.121  1.00  0.00     0.190 C 
BRANCH   9  10
ATOM     10  O   UNL     1      -1.930  -1.362  14.512  1.00  0.00    -0.394 OA
ATOM     11  H   UNL     1      -1.535  -2.048  13.912  1.00  0.00     0.210 HD
ENDBRANCH   9  10
ENDBRANCH   8   9
BRANCH   8  12
ATOM     12  O   UNL     1      -0.189   0.508  16.101  1.00  0.00    -0.388 OA
ATOM     13  H   UNL     1       0.040   1.474  16.152  1.00  0.00     0.211 HD
ENDBRANCH   8  12
ENDBRANCH   1   8
BRANCH   1  14
ATOM     14  O   UNL     1       0.426  -2.113  15.618  1.00  0.00    -0.388 OA
ATOM     15  H   UNL     1       0.341  -1.656  16.496  1.00  0.00     0.211 HD
ENDBRANCH   1  14
TORSDOF 9
ENDMDL
MODEL 3
REMARK VINA RESULT:    -3.899      7.388      8.742
REMARK INTER + INTRA:          -6.348
REMARK INTER:                  -5.565
REMARK INTRA:                  -0.783
REMARK UNBOUND:                -0.968
REMARK SMILES OC[C@@H](O)[C@H](O)[C@@H](O)CO
REMARK SMILES IDX 5 1 7 2 9 3 10 4 8 6 3 8 2 9 1 10 4 12 6 14
REMARK H PARENT 10 5 8 7 1 11 4 13 6 15
REMARK Flexibility Score: inf
ROOT
ATOM      1  C   UNL     1       1.531  -1.510  15.713  1.00  0.00     0.176 C 
ENDROOT
BRANCH   1   2
ATOM      2  C   UNL     1       1.273  -0.565  14.505  1.00  0.00     0.171 C 
BRANCH   2   3
ATOM      3  C   UNL     1       0.248   0.545  14.807  1.00  0.00     0.190 C 
BRANCH   3   4
ATOM      4  O   UNL     1      -0.107   0.531  16.163  1.00  0.00    -0.394 OA
ATOM      5  H   UNL     1      -0.184  -0.424  16.427  1.00  0.00     0.210 HD
ENDBRANCH   3   4
ENDBRANCH   2   3
BRANCH   2   6
ATOM      6  O   UNL     1       0.856  -1.310  13.387  1.00  0.00    -0.388 OA
ATOM      7  H   UNL     1       1.226  -2.227  13.484  1.00  0.00     0.211 HD
ENDBRANCH   2   6
ENDBRANCH   1   2
BRANCH   1   8
ATOM      8  C   UNL     1       2.895  -2.264  15.613  1.00  0.00     0.171 C 
BRANCH   8   9
ATOM      9  C   UNL     1       2.720  -3.795  15.686  1.00  0.00     0.190 C 
BRANCH   9  10
ATOM     10  O   UNL     1       2.375  -4.322  14.431  1.00  0.00    -0.394 OA
ATOM     11  H   UNL     1       2.051  -5.248  14.587  1.00  0.00     0.210 HD
ENDBRANCH   9  10
ENDBRANCH   8   9
BRANCH   8  12
ATOM     12  O   UNL     1       3.547  -1.933  14.411  1.00  0.00    -0.388 OA
ATOM     13  H   UNL     1       4.014  -2.752  14.097  1.00  0.00     0.211 HD
ENDBRANCH   8  12
ENDBRANCH   1   8
BRANCH   1  14
ATOM     14  O   UNL     1       0.484  -2.451  15.772  1.00  0.00    -0.388 OA
ATOM     15  H   UNL     1       0.818  -3.234  16.285  1.00  0.00     0.211 HD
ENDBRANCH   1  14
TORSDOF 9
ENDMDL
MODEL 4
REMARK VINA RESULT:    -3.840      4.765      5.948
REMARK INTER + INTRA:          -6.267
REMARK INTER:                  -5.297
REMARK INTRA:                  -0.971
REMARK UNBOUND:                -0.968
REMARK SMILES OC[C@@H](O)[C@H](O)[C@@H](O)CO
REMARK SMILES IDX 5 1 7 2 9 3 10 4 8 6 3 8 2 9 1 10 4 12 6 14
REMARK H PARENT 10 5 8 7 1 11 4 13 6 15
REMARK Flexibility Score: inf
ROOT
ATOM      1  C   UNL     1      -1.107  -0.205  16.287  1.00  0.00     0.176 C 
ENDROOT
BRANCH   1   2
ATOM      2  C   UNL     1      -1.077  -0.887  17.684  1.00  0.00     0.171 C 
BRANCH   2   3
ATOM      3  C   UNL     1      -2.263  -0.487  18.584  1.00  0.00     0.190 C 
BRANCH   3   4
ATOM      4  O   UNL     1      -2.118   0.835  19.028  1.00  0.00    -0.394 OA
ATOM      5  H   UNL     1      -2.948   1.061  19.525  1.00  0.00     0.210 HD
ENDBRANCH   3   4
ENDBRANCH   2   3
BRANCH   2   6
ATOM      6  O   UNL     1       0.136  -0.602  18.338  1.00  0.00    -0.388 OA
ATOM      7  H   UNL     1       0.182  -1.180  19.145  1.00  0.00     0.211 HD
ENDBRANCH   2   6
ENDBRANCH   1   2
BRANCH   1   8
ATOM      8  C   UNL     1      -0.194  -0.922  15.243  1.00  0.00     0.171 C 
BRANCH   8   9
ATOM      9  C   UNL     1       1.076  -0.105  14.922  1.00  0.00     0.190 C 
BRANCH   9  10
ATOM     10  O   UNL     1       1.990  -0.160  15.986  1.00  0.00    -0.394 OA
ATOM     11  H   UNL     1       1.560   0.292  16.759  1.00  0.00     0.210 HD
ENDBRANCH   9  10
ENDBRANCH   8   9
BRANCH   8  12
ATOM     12  O   UNL     1       0.184  -2.192  15.717  1.00  0.00    -0.388 OA
ATOM     13  H   UNL     1       0.484  -2.720  14.931  1.00  0.00     0.211 HD
ENDBRANCH   8  12
ENDBRANCH   1   8
BRANCH   1  14
ATOM     14  O   UNL     1      -0.682   1.130  16.435  1.00  0.00    -0.388 OA
ATOM     15  H   UNL     1       0.305   1.141  16.318  1.00  0.00     0.211 HD
ENDBRANCH   1  14
TORSDOF 9
ENDMDL
MODEL 5
REMARK VINA RESULT:    -3.784      6.908      7.997
REMARK INTER + INTRA:          -6.190
REMARK INTER:                  -5.240
REMARK INTRA:                  -0.950
REMARK UNBOUND:                -0.968
REMARK SMILES OC[C@@H](O)[C@H](O)[C@@H](O)CO
REMARK SMILES IDX 5 1 7 2 9 3 10 4 8 6 3 8 2 9 1 10 4 12 6 14
REMARK H PARENT 10 5 8 7 1 11 4 13 6 15
REMARK Flexibility Score: inf
ROOT
ATOM      1  C   UNL     1       0.976  -0.154  15.250  1.00  0.00     0.176 C 
ENDROOT
BRANCH   1   2
ATOM      2  C   UNL     1       0.105  -0.028  13.968  1.00  0.00     0.171 C 
BRANCH   2   3
ATOM      3  C   UNL     1      -1.409  -0.060  14.253  1.00  0.00     0.190 C 
BRANCH   3   4
ATOM      4  O   UNL     1      -1.814  -1.352  14.615  1.00  0.00    -0.394 OA
ATOM      5  H   UNL     1      -1.440  -1.970  13.934  1.00  0.00     0.210 HD
ENDBRANCH   3   4
ENDBRANCH   2   3
BRANCH   2   6
ATOM      6  O   UNL     1       0.439  -1.043  13.052  1.00  0.00    -0.388 OA
ATOM      7  H   UNL     1       0.517  -0.621  12.155  1.00  0.00     0.211 HD
ENDBRANCH   2   6
ENDBRANCH   1   2
BRANCH   1   8
ATOM      8  C   UNL     1       1.661  -1.551  15.383  1.00  0.00     0.171 C 
BRANCH   8   9
ATOM      9  C   UNL     1       2.721  -1.575  16.503  1.00  0.00     0.190 C 
BRANCH   9  10
ATOM     10  O   UNL     1       2.168  -1.169  17.727  1.00  0.00    -0.394 OA
ATOM     11  H   UNL     1       2.809  -0.529  18.135  1.00  0.00     0.210 HD
ENDBRANCH   9  10
ENDBRANCH   8   9
BRANCH   8  12
ATOM     12  O   UNL     1       0.697  -2.543  15.641  1.00  0.00    -0.388 OA
ATOM     13  H   UNL     1       0.957  -3.346  15.118  1.00  0.00     0.211 HD
ENDBRANCH   8  12
ENDBRANCH   1   8
BRANCH   1  14
ATOM     14  O   UNL     1       0.152   0.066  16.370  1.00  0.00    -0.388 OA
ATOM     15  H   UNL     1      -0.776   0.188  16.037  1.00  0.00     0.211 HD
ENDBRANCH   1  14
TORSDOF 9
ENDMDL
MODEL 6
REMARK VINA RESULT:    -3.773     12.785     14.031
REMARK INTER + INTRA:          -6.174
REMARK INTER:                  -5.192
REMARK INTRA:                  -0.982
REMARK UNBOUND:                -0.968
REMARK SMILES OC[C@@H](O)[C@H](O)[C@@H](O)CO
REMARK SMILES IDX 5 1 7 2 9 3 10 4 8 6 3 8 2 9 1 10 4 12 6 14
REMARK H PARENT 10 5 8 7 1 11 4 13 6 15
REMARK Flexibility Score: inf
ROOT
ATOM      1  C   UNL     1      -0.177   4.795   8.415  1.00  0.00     0.176 C 
ENDROOT
BRANCH   1   2
ATOM      2  C   UNL     1      -0.069   4.004   7.080  1.00  0.00     0.171 C 
BRANCH   2   3
ATOM      3  C   UNL     1      -0.669   2.587   7.161  1.00  0.00     0.190 C 
BRANCH   3   4
ATOM      4  O   UNL     1       0.120   1.765   7.979  1.00  0.00    -0.394 OA
ATOM      5  H   UNL     1      -0.505   1.267   8.568  1.00  0.00     0.210 HD
ENDBRANCH   3   4
ENDBRANCH   2   3
BRANCH   2   6
ATOM      6  O   UNL     1       1.273   3.932   6.666  1.00  0.00    -0.388 OA
ATOM      7  H   UNL     1       1.288   4.056   5.680  1.00  0.00     0.211 HD
ENDBRANCH   2   6
ENDBRANCH   1   2
BRANCH   1   8
ATOM      8  C   UNL     1       1.202   4.980   9.123  1.00  0.00     0.171 C 
BRANCH   8   9
ATOM      9  C   UNL     1       1.126   5.985  10.291  1.00  0.00     0.190 C 
BRANCH   9  10
ATOM     10  O   UNL     1       0.638   5.369  11.454  1.00  0.00    -0.394 OA
ATOM     11  H   UNL     1       0.542   4.402  11.249  1.00  0.00     0.210 HD
ENDBRANCH   9  10
ENDBRANCH   8   9
BRANCH   8  12
ATOM     12  O   UNL     1       1.668   3.745   9.610  1.00  0.00    -0.388 OA
ATOM     13  H   UNL     1       0.883   3.138   9.666  1.00  0.00     0.211 HD
ENDBRANCH   8  12
ENDBRANCH   1   8
BRANCH   1  14
ATOM     14  O   UNL     1      -1.050   4.100   9.274  1.00  0.00    -0.388 OA
ATOM     15  H   UNL     1      -0.935   3.130   9.092  1.00  0.00     0.211 HD
ENDBRANCH   1  14
TORSDOF 9
ENDMDL
MODEL 7
REMARK VINA RESULT:    -3.771      5.312      6.877
REMARK INTER + INTRA:          -6.172
REMARK INTER:                  -5.228
REMARK INTRA:                  -0.944
REMARK UNBOUND:                -0.968
REMARK SMILES OC[C@@H](O)[C@H](O)[C@@H](O)CO
REMARK SMILES IDX 5 1 7 2 9 3 10 4 8 6 3 8 2 9 1 10 4 12 6 14
REMARK H PARENT 10 5 8 7 1 11 4 13 6 15
REMARK Flexibility Score: inf
ROOT
ATOM      1  C   UNL     1      -1.291  -0.057  15.793  1.00  0.00     0.176 C 
ENDROOT
BRANCH   1   2
ATOM      2  C   UNL     1      -0.063   0.677  15.182  1.00  0.00     0.171 C 
BRANCH   2   3
ATOM      3  C   UNL     1       0.014   0.564  13.648  1.00  0.00     0.190 C 
BRANCH   3   4
ATOM      4  O   UNL     1      -0.769  -0.507  13.193  1.00  0.00    -0.394 OA
ATOM      5  H   UNL     1      -0.331  -1.337  13.517  1.00  0.00     0.210 HD
ENDBRANCH   3   4
ENDBRANCH   2   3
BRANCH   2   6
ATOM      6  O   UNL     1       1.126   0.193  15.758  1.00  0.00    -0.388 OA
ATOM      7  H   UNL     1       0.971   0.107  16.735  1.00  0.00     0.211 HD
ENDBRANCH   2   6
ENDBRANCH   1   2
BRANCH   1   8
ATOM      8  C   UNL     1      -1.681   0.485  17.204  1.00  0.00     0.171 C 
BRANCH   8   9
ATOM      9  C   UNL     1      -1.304  -0.500  18.330  1.00  0.00     0.190 C 
BRANCH   9  10
ATOM     10  O   UNL     1       0.083  -0.506  18.549  1.00  0.00    -0.394 OA
ATOM     11  H   UNL     1       0.261   0.142  19.280  1.00  0.00     0.210 HD
ENDBRANCH   9  10
ENDBRANCH   8   9
BRANCH   8  12
ATOM     12  O   UNL     1      -1.050   1.720  17.443  1.00  0.00    -0.388 OA
ATOM     13  H   UNL     1      -0.960   2.176  16.565  1.00  0.00     0.211 HD
ENDBRANCH   8  12
ENDBRANCH   1   8
BRANCH   1  14
ATOM     14  O   UNL     1      -0.986  -1.428  15.891  1.00  0.00    -0.388 OA
ATOM     15  H   UNL     1      -0.778  -1.618  16.843  1.00  0.00     0.211 HD
ENDBRANCH   1  14
TORSDOF 9
ENDMDL
MODEL 8
REMARK VINA RESULT:    -3.762     12.092     13.316
REMARK INTER + INTRA:          -6.159
REMARK INTER:                  -5.203
REMARK INTRA:                  -0.956
REMARK UNBOUND:                -0.968
REMARK SMILES OC[C@@H](O)[C@H](O)[C@@H](O)CO
REMARK SMILES IDX 5 1 7 2 9 3 10 4 8 6 3 8 2 9 1 10 4 12 6 14
REMARK H PARENT 10 5 8 7 1 11 4 13 6 15
REMARK Flexibility Score: inf
ROOT
ATOM      1  C   UNL     1       1.932   5.186   9.972  1.00  0.00     0.176 C 
ENDROOT
BRANCH   1   2
ATOM      2  C   UNL     1       1.375   4.323  11.140  1.00  0.00     0.171 C 
BRANCH   2   3
ATOM      3  C   UNL     1       0.501   3.145  10.665  1.00  0.00     0.190 C 
BRANCH   3   4
ATOM      4  O   UNL     1       0.649   2.948   9.285  1.00  0.00    -0.394 OA
ATOM      5  H   UNL     1       1.020   3.792   8.915  1.00  0.00     0.210 HD
ENDBRANCH   3   4
ENDBRANCH   2   3
BRANCH   2   6
ATOM      6  O   UNL     1       0.646   5.128  12.034  1.00  0.00    -0.388 OA
ATOM      7  H   UNL     1      -0.314   5.049  11.792  1.00  0.00     0.211 HD
ENDBRANCH   2   6
ENDBRANCH   1   2
BRANCH   1   8
ATOM      8  C   UNL     1       3.093   6.130  10.417  1.00  0.00     0.171 C 
BRANCH   8   9
ATOM      9  C   UNL     1       2.669   7.614  10.412  1.00  0.00     0.190 C 
BRANCH   9  10
ATOM     10  O   UNL     1       1.922   7.927  11.559  1.00  0.00    -0.394 OA
ATOM     11  H   UNL     1       1.637   8.874  11.467  1.00  0.00     0.210 HD
ENDBRANCH   9  10
ENDBRANCH   8   9
BRANCH   8  12
ATOM     12  O   UNL     1       3.536   5.783  11.707  1.00  0.00    -0.388 OA
ATOM     13  H   UNL     1       3.076   6.388  12.346  1.00  0.00     0.211 HD
ENDBRANCH   8  12
ENDBRANCH   1   8
BRANCH   1  14
ATOM     14  O   UNL     1       0.878   5.961   9.451  1.00  0.00    -0.388 OA
ATOM     15  H   UNL     1       1.273   6.803   9.103  1.00  0.00     0.211 HD
ENDBRANCH   1  14
TORSDOF 9
ENDMDL
MODEL 9
REMARK VINA RESULT:    -3.706     12.483     13.368
REMARK INTER + INTRA:          -6.082
REMARK INTER:                  -5.098
REMARK INTRA:                  -0.983
REMARK UNBOUND:                -0.968
REMARK SMILES OC[C@@H](O)[C@H](O)[C@@H](O)CO
REMARK SMILES IDX 5 1 7 2 9 3 10 4 8 6 3 8 2 9 1 10 4 12 6 14
REMARK H PARENT 10 5 8 7 1 11 4 13 6 15
REMARK Flexibility Score: inf
ROOT
ATOM      1  C   UNL     1      -0.554   3.994   9.098  1.00  0.00     0.176 C 
ENDROOT
BRANCH   1   2
ATOM      2  C   UNL     1       0.554   3.583  10.109  1.00  0.00     0.171 C 
BRANCH   2   3
ATOM      3  C   UNL     1       0.409   4.264  11.483  1.00  0.00     0.190 C 
BRANCH   3   4
ATOM      4  O   UNL     1       0.896   5.578  11.434  1.00  0.00    -0.394 OA
ATOM      5  H   UNL     1       0.105   6.177  11.481  1.00  0.00     0.210 HD
ENDBRANCH   3   4
ENDBRANCH   2   3
BRANCH   2   6
ATOM      6  O   UNL     1       1.826   3.855   9.572  1.00  0.00    -0.388 OA
ATOM      7  H   UNL     1       2.175   4.664  10.031  1.00  0.00     0.211 HD
ENDBRANCH   2   6
ENDBRANCH   1   2
BRANCH   1   8
ATOM      8  C   UNL     1      -0.607   3.064   7.845  1.00  0.00     0.171 C 
BRANCH   8   9
ATOM      9  C   UNL     1      -0.074   3.764   6.578  1.00  0.00     0.190 C 
BRANCH   9  10
ATOM     10  O   UNL     1       1.318   3.936   6.646  1.00  0.00    -0.394 OA
ATOM     11  H   UNL     1       1.610   4.274   5.759  1.00  0.00     0.210 HD
ENDBRANCH   9  10
ENDBRANCH   8   9
BRANCH   8  12
ATOM     12  O   UNL     1       0.143   1.895   8.074  1.00  0.00    -0.388 OA
ATOM     13  H   UNL     1      -0.482   1.127   7.996  1.00  0.00     0.211 HD
ENDBRANCH   8  12
ENDBRANCH   1   8
BRANCH   1  14
ATOM     14  O   UNL     1      -0.308   5.317   8.683  1.00  0.00    -0.388 OA
ATOM     15  H   UNL     1       0.673   5.465   8.730  1.00  0.00     0.211 HD
ENDBRANCH   1  14
TORSDOF 9
ENDMDL
