MODEL 1
REMARK VINA RESULT:    -3.399      0.000      0.000
REMARK INTER + INTRA:          -5.633
REMARK INTER:                  -5.188
REMARK INTRA:                  -0.445
REMARK UNBOUND:                -0.445
REMARK SMILES O=C([O-])CCCCCCCCC(=O)[O-]
REMARK SMILES IDX 7 1 6 2 5 3 4 4 2 5 1 6 3 7 8 8 9 9 10 10 11 11 12 12 13 13
REMARK SMILES IDX 14 14
REMARK H PARENT
REMARK Flexibility Score: inf
ROOT
ATOM      1  C   UNL     1      15.594  -7.217   6.839  1.00  0.00     0.000 C 
ENDROOT
BRANCH   1   2
ATOM      2  C   UNL     1      16.507  -6.604   5.762  1.00  0.00     0.000 C 
BRANCH   2   3
ATOM      3  C   UNL     1      17.744  -7.480   5.473  1.00  0.00     0.006 C 
BRANCH   3   4
ATOM      4  C   UNL     1      19.047  -6.914   6.059  1.00  0.00     0.053 C 
BRANCH   4   5
ATOM      5  C   UNL     1      19.223  -7.263   7.503  1.00  0.00     0.041 C 
ATOM      6  O   UNL     1      19.761  -8.353   7.831  1.00  0.00    -0.550 OA
ATOM      7  O   UNL     1      18.819  -6.371   8.489  1.00  0.00    -0.550 OA
ENDBRANCH   4   5
ENDBRANCH   3   4
ENDBRANCH   2   3
ENDBRANCH   1   2
BRANCH   1   8
ATOM      8  C   UNL     1      14.329  -7.867   6.248  1.00  0.00     0.000 C 
BRANCH   8   9
ATOM      9  C   UNL     1      13.949  -7.389   4.832  1.00  0.00     0.000 C 
BRANCH   9  10
ATOM     10  C   UNL     1      12.441  -7.215   4.584  1.00  0.00     0.006 C 
BRANCH  10  11
ATOM     11  C   UNL     1      11.618  -7.235   5.879  1.00  0.00     0.053 C 
BRANCH  11  12
ATOM     12  C   UNL     1      10.155  -7.212   5.569  1.00  0.00     0.041 C 
ATOM     13  O   UNL     1       9.442  -8.221   5.811  1.00  0.00    -0.550 OA
ATOM     14  O   UNL     1       9.570  -6.061   5.057  1.00  0.00    -0.550 OA
ENDBRANCH  11  12
ENDBRANCH  10  11
ENDBRANCH   9  10
ENDBRANCH   8   9
ENDBRANCH   1   8
TORSDOF 9
ENDMDL
MODEL 2
REMARK VINA RESULT:    -3.322      0.246      7.512
REMARK INTER + INTRA:          -5.515
REMARK INTER:                  -5.069
REMARK INTRA:                  -0.446
REMARK UNBOUND:                -0.445
REMARK SMILES O=C([O-])CCCCCCCCC(=O)[O-]
REMARK SMILES IDX 7 1 6 2 5 3 4 4 2 5 1 6 3 7 8 8 9 9 10 10 11 11 12 12 13 13
REMARK SMILES IDX 14 14
REMARK H PARENT
REMARK Flexibility Score: inf
ROOT
ATOM      1  C   UNL     1      14.131  -7.856   6.185  1.00  0.00     0.000 C 
ENDROOT
BRANCH   1   2
ATOM      2  C   UNL     1      13.865  -7.290   4.779  1.00  0.00     0.000 C 
BRANCH   2   3
ATOM      3  C   UNL     1      12.363  -7.068   4.509  1.00  0.00     0.006 C 
BRANCH   3   4
ATOM      4  C   UNL     1      11.489  -7.184   5.768  1.00  0.00     0.053 C 
BRANCH   4   5
ATOM      5  C   UNL     1      10.033  -7.009   5.471  1.00  0.00     0.041 C 
ATOM      6  O   UNL     1       9.626  -5.971   4.883  1.00  0.00    -0.550 OA
ATOM      7  O   UNL     1       9.127  -8.003   5.816  1.00  0.00    -0.550 OA
ENDBRANCH   4   5
ENDBRANCH   3   4
ENDBRANCH   2   3
ENDBRANCH   1   2
BRANCH   1   8
ATOM      8  C   UNL     1      15.535  -7.505   6.713  1.00  0.00     0.000 C 
BRANCH   8   9
ATOM      9  C   UNL     1      16.397  -6.652   5.760  1.00  0.00     0.000 C 
BRANCH   9  10
ATOM     10  C   UNL     1      17.710  -7.311   5.301  1.00  0.00     0.006 C 
BRANCH  10  11
ATOM     11  C   UNL     1      18.952  -6.666   5.930  1.00  0.00     0.053 C 
BRANCH  11  12
ATOM     12  C   UNL     1      19.180  -7.205   7.307  1.00  0.00     0.041 C 
ATOM     13  O   UNL     1      19.658  -8.359   7.462  1.00  0.00    -0.550 OA
ATOM     14  O   UNL     1      18.911  -6.415   8.417  1.00  0.00    -0.550 OA
ENDBRANCH  11  12
ENDBRANCH  10  11
ENDBRANCH   9  10
ENDBRANCH   8   9
ENDBRANCH   1   8
TORSDOF 9
ENDMDL
MODEL 3
REMARK VINA RESULT:    -3.116      1.261      1.910
REMARK INTER + INTRA:          -5.201
REMARK INTER:                  -4.994
REMARK INTRA:                  -0.207
REMARK UNBOUND:                -0.445
REMARK SMILES O=C([O-])CCCCCCCCC(=O)[O-]
REMARK SMILES IDX 7 1 6 2 5 3 4 4 2 5 1 6 3 7 8 8 9 9 10 10 11 11 12 12 13 13
REMARK SMILES IDX 14 14
REMARK H PARENT
REMARK Flexibility Score: inf
ROOT
ATOM      1  C   UNL     1      14.277  -7.886   5.900  1.00  0.00     0.000 C 
ENDROOT
BRANCH   1   2
ATOM      2  C   UNL     1      15.428  -6.949   5.491  1.00  0.00     0.000 C 
BRANCH   2   3
ATOM      3  C   UNL     1      16.447  -6.738   6.630  1.00  0.00     0.006 C 
BRANCH   3   4
ATOM      4  C   UNL     1      17.910  -6.868   6.177  1.00  0.00     0.053 C 
BRANCH   4   5
ATOM      5  C   UNL     1      18.836  -7.167   7.314  1.00  0.00     0.041 C 
ATOM      6  O   UNL     1      19.623  -8.148   7.249  1.00  0.00    -0.550 OA
ATOM      7  O   UNL     1      18.851  -6.345   8.433  1.00  0.00    -0.550 OA
ENDBRANCH   4   5
ENDBRANCH   3   4
ENDBRANCH   2   3
ENDBRANCH   1   2
BRANCH   1   8
ATOM      8  C   UNL     1      12.945  -7.526   5.217  1.00  0.00     0.000 C 
BRANCH   8   9
ATOM      9  C   UNL     1      11.768  -7.261   6.178  1.00  0.00     0.000 C 
BRANCH   9  10
ATOM     10  C   UNL     1      10.382  -7.203   5.513  1.00  0.00     0.006 C 
BRANCH  10  11
ATOM     11  C   UNL     1       9.759  -8.590   5.309  1.00  0.00     0.053 C 
BRANCH  11  12
ATOM     12  C   UNL     1       8.580  -8.771   6.212  1.00  0.00     0.041 C 
ATOM     13  O   UNL     1       8.749  -9.116   7.411  1.00  0.00    -0.550 OA
ATOM     14  O   UNL     1       7.299  -8.511   5.744  1.00  0.00    -0.550 OA
ENDBRANCH  11  12
ENDBRANCH  10  11
ENDBRANCH   9  10
ENDBRANCH   8   9
ENDBRANCH   1   8
TORSDOF 9
ENDMDL
MODEL 4
REMARK VINA RESULT:    -3.107      2.698      3.803
REMARK INTER + INTRA:          -5.187
REMARK INTER:                  -4.267
REMARK INTRA:                  -0.920
REMARK UNBOUND:                -0.445
REMARK SMILES O=C([O-])CCCCCCCCC(=O)[O-]
REMARK SMILES IDX 7 1 6 2 5 3 4 4 2 5 1 6 3 7 8 8 9 9 10 10 11 11 12 12 13 13
REMARK SMILES IDX 14 14
REMARK H PARENT
REMARK Flexibility Score: inf
ROOT
ATOM      1  C   UNL     1      19.148  -8.637   4.037  1.00  0.00     0.000 C 
ENDROOT
BRANCH   1   2
ATOM      2  C   UNL     1      19.526  -9.649   5.133  1.00  0.00     0.000 C 
BRANCH   2   3
ATOM      3  C   UNL     1      18.851  -9.332   6.484  1.00  0.00     0.006 C 
BRANCH   3   4
ATOM      4  C   UNL     1      19.746  -8.535   7.445  1.00  0.00     0.053 C 
BRANCH   4   5
ATOM      5  C   UNL     1      19.400  -7.080   7.473  1.00  0.00     0.041 C 
ATOM      6  O   UNL     1      18.787  -6.593   8.460  1.00  0.00    -0.550 OA
ATOM      7  O   UNL     1      19.781  -6.253   6.424  1.00  0.00    -0.550 OA
ENDBRANCH   4   5
ENDBRANCH   3   4
ENDBRANCH   2   3
ENDBRANCH   1   2
BRANCH   1   8
ATOM      8  C   UNL     1      17.662  -8.236   4.082  1.00  0.00     0.000 C 
BRANCH   8   9
ATOM      9  C   UNL     1      17.390  -6.721   3.992  1.00  0.00     0.000 C 
BRANCH   9  10
ATOM     10  C   UNL     1      16.170  -6.228   4.791  1.00  0.00     0.006 C 
BRANCH  10  11
ATOM     11  C   UNL     1      16.064  -6.876   6.177  1.00  0.00     0.053 C 
BRANCH  11  12
ATOM     12  C   UNL     1      14.779  -7.631   6.303  1.00  0.00     0.041 C 
ATOM     13  O   UNL     1      14.151  -7.988   5.272  1.00  0.00    -0.550 OA
ATOM     14  O   UNL     1      14.300  -7.984   7.559  1.00  0.00    -0.550 OA
ENDBRANCH  11  12
ENDBRANCH  10  11
ENDBRANCH   9  10
ENDBRANCH   8   9
ENDBRANCH   1   8
TORSDOF 9
ENDMDL
MODEL 5
REMARK VINA RESULT:    -3.015      2.541      4.090
REMARK INTER + INTRA:          -5.046
REMARK INTER:                  -4.674
REMARK INTRA:                  -0.372
REMARK UNBOUND:                -0.445
REMARK SMILES O=C([O-])CCCCCCCCC(=O)[O-]
REMARK SMILES IDX 7 1 6 2 5 3 4 4 2 5 1 6 3 7 8 8 9 9 10 10 11 11 12 12 13 13
REMARK SMILES IDX 14 14
REMARK H PARENT
REMARK Flexibility Score: inf
ROOT
ATOM      1  C   UNL     1      11.999  -7.485   5.738  1.00  0.00     0.000 C 
ENDROOT
BRANCH   1   2
ATOM      2  C   UNL     1      12.570  -7.085   4.367  1.00  0.00     0.000 C 
BRANCH   2   3
ATOM      3  C   UNL     1      14.113  -7.115   4.341  1.00  0.00     0.006 C 
BRANCH   3   4
ATOM      4  C   UNL     1      14.742  -7.497   5.689  1.00  0.00     0.053 C 
BRANCH   4   5
ATOM      5  C   UNL     1      16.002  -6.740   5.967  1.00  0.00     0.041 C 
ATOM      6  O   UNL     1      16.693  -6.288   5.015  1.00  0.00    -0.550 OA
ATOM      7  O   UNL     1      16.400  -6.506   7.277  1.00  0.00    -0.550 OA
ENDBRANCH   4   5
ENDBRANCH   3   4
ENDBRANCH   2   3
ENDBRANCH   1   2
BRANCH   1   8
ATOM      8  C   UNL     1      10.497  -7.171   5.873  1.00  0.00     0.000 C 
BRANCH   8   9
ATOM      9  C   UNL     1       9.565  -8.059   5.024  1.00  0.00     0.000 C 
BRANCH   9  10
ATOM     10  C   UNL     1       8.951  -9.258   5.768  1.00  0.00     0.006 C 
BRANCH  10  11
ATOM     11  C   UNL     1       8.766  -8.998   7.268  1.00  0.00     0.053 C 
BRANCH  11  12
ATOM     12  C   UNL     1       7.432  -9.499   7.724  1.00  0.00     0.041 C 
ATOM     13  O   UNL     1       7.197  -9.646   8.952  1.00  0.00    -0.550 OA
ATOM     14  O   UNL     1       6.431  -9.757   6.795  1.00  0.00    -0.550 OA
ENDBRANCH  11  12
ENDBRANCH  10  11
ENDBRANCH   9  10
ENDBRANCH   8   9
ENDBRANCH   1   8
TORSDOF 9
ENDMDL
MODEL 6
REMARK VINA RESULT:    -3.007      2.486      8.036
REMARK INTER + INTRA:          -5.034
REMARK INTER:                  -4.714
REMARK INTRA:                  -0.320
REMARK UNBOUND:                -0.445
REMARK SMILES O=C([O-])CCCCCCCCC(=O)[O-]
REMARK SMILES IDX 7 1 6 2 5 3 4 4 2 5 1 6 3 7 8 8 9 9 10 10 11 11 12 12 13 13
REMARK SMILES IDX 14 14
REMARK H PARENT
REMARK Flexibility Score: inf
ROOT
ATOM      1  C   UNL     1      11.002  -7.312   6.173  1.00  0.00     0.000 C 
ENDROOT
BRANCH   1   2
ATOM      2  C   UNL     1       9.730  -7.564   5.346  1.00  0.00     0.000 C 
BRANCH   2   3
ATOM      3  C   UNL     1       8.972  -8.828   5.802  1.00  0.00     0.006 C 
BRANCH   3   4
ATOM      4  C   UNL     1       8.839  -8.946   7.329  1.00  0.00     0.053 C 
BRANCH   4   5
ATOM      5  C   UNL     1       7.466  -9.363   7.752  1.00  0.00     0.041 C 
ATOM      6  O   UNL     1       7.220  -9.596   8.965  1.00  0.00    -0.550 OA
ATOM      7  O   UNL     1       6.449  -9.467   6.812  1.00  0.00    -0.550 OA
ENDBRANCH   4   5
ENDBRANCH   3   4
ENDBRANCH   2   3
ENDBRANCH   1   2
BRANCH   1   8
ATOM      8  C   UNL     1      12.291  -7.457   5.343  1.00  0.00     0.000 C 
BRANCH   8   9
ATOM      9  C   UNL     1      13.554  -7.815   6.153  1.00  0.00     0.000 C 
BRANCH   9  10
ATOM     10  C   UNL     1      14.671  -8.505   5.351  1.00  0.00     0.006 C 
BRANCH  10  11
ATOM     11  C   UNL     1      16.057  -8.323   5.981  1.00  0.00     0.053 C 
BRANCH  11  12
ATOM     12  C   UNL     1      16.362  -6.869   6.162  1.00  0.00     0.041 C 
ATOM     13  O   UNL     1      16.523  -6.396   7.317  1.00  0.00    -0.550 OA
ATOM     14  O   UNL     1      16.515  -6.047   5.053  1.00  0.00    -0.550 OA
ENDBRANCH  11  12
ENDBRANCH  10  11
ENDBRANCH   9  10
ENDBRANCH   8   9
ENDBRANCH   1   8
TORSDOF 9
ENDMDL
MODEL 7
REMARK VINA RESULT:    -2.964      2.851      7.947
REMARK INTER + INTRA:          -4.968
REMARK INTER:                  -4.651
REMARK INTRA:                  -0.316
REMARK UNBOUND:                -0.445
REMARK SMILES O=C([O-])CCCCCCCCC(=O)[O-]
REMARK SMILES IDX 7 1 6 2 5 3 4 4 2 5 1 6 3 7 8 8 9 9 10 10 11 11 12 12 13 13
REMARK SMILES IDX 14 14
REMARK H PARENT
REMARK Flexibility Score: inf
ROOT
ATOM      1  C   UNL     1      17.294  -6.920   6.456  1.00  0.00     0.000 C 
ENDROOT
BRANCH   1   2
ATOM      2  C   UNL     1      15.865  -6.771   5.906  1.00  0.00     0.000 C 
BRANCH   2   3
ATOM      3  C   UNL     1      14.869  -7.732   6.588  1.00  0.00     0.006 C 
BRANCH   3   4
ATOM      4  C   UNL     1      13.853  -8.353   5.618  1.00  0.00     0.053 C 
BRANCH   4   5
ATOM      5  C   UNL     1      12.701  -7.440   5.335  1.00  0.00     0.041 C 
ATOM      6  O   UNL     1      11.765  -7.324   6.169  1.00  0.00    -0.550 OA
ATOM      7  O   UNL     1      12.675  -6.696   4.163  1.00  0.00    -0.550 OA
ENDBRANCH   4   5
ENDBRANCH   3   4
ENDBRANCH   2   3
ENDBRANCH   1   2
BRANCH   1   8
ATOM      8  C   UNL     1      18.297  -7.393   5.388  1.00  0.00     0.000 C 
BRANCH   8   9
ATOM      9  C   UNL     1      19.732  -7.637   5.900  1.00  0.00     0.000 C 
BRANCH   9  10
ATOM     10  C   UNL     1      20.846  -7.022   5.036  1.00  0.00     0.006 C 
BRANCH  10  11
ATOM     11  C   UNL     1      20.373  -5.804   4.232  1.00  0.00     0.053 C 
BRANCH  11  12
ATOM     12  C   UNL     1      21.478  -4.804   4.100  1.00  0.00     0.041 C 
ATOM     13  O   UNL     1      22.656  -5.188   3.875  1.00  0.00    -0.550 OA
ATOM     14  O   UNL     1      21.199  -3.445   4.178  1.00  0.00    -0.550 OA
ENDBRANCH  11  12
ENDBRANCH  10  11
ENDBRANCH   9  10
ENDBRANCH   8   9
ENDBRANCH   1   8
TORSDOF 9
ENDMDL
MODEL 8
REMARK VINA RESULT:    -2.925      4.855      8.826
REMARK INTER + INTRA:          -4.909
REMARK INTER:                  -4.410
REMARK INTRA:                  -0.499
REMARK UNBOUND:                -0.445
REMARK SMILES O=C([O-])CCCCCCCCC(=O)[O-]
REMARK SMILES IDX 7 1 6 2 5 3 4 4 2 5 1 6 3 7 8 8 9 9 10 10 11 11 12 12 13 13
REMARK SMILES IDX 14 14
REMARK H PARENT
REMARK Flexibility Score: inf
ROOT
ATOM      1  C   UNL     1       6.081  -7.067   4.845  1.00  0.00     0.000 C 
ENDROOT
BRANCH   1   2
ATOM      2  C   UNL     1       5.363  -8.317   5.385  1.00  0.00     0.000 C 
BRANCH   2   3
ATOM      3  C   UNL     1       6.339  -9.475   5.680  1.00  0.00     0.006 C 
BRANCH   3   4
ATOM      4  C   UNL     1       6.124 -10.124   7.056  1.00  0.00     0.053 C 
BRANCH   4   5
ATOM      5  C   UNL     1       7.205  -9.772   8.029  1.00  0.00     0.041 C 
ATOM      6  O   UNL     1       8.290  -9.280   7.620  1.00  0.00    -0.550 OA
ATOM      7  O   UNL     1       7.005  -9.961   9.390  1.00  0.00    -0.550 OA
ENDBRANCH   4   5
ENDBRANCH   3   4
ENDBRANCH   2   3
ENDBRANCH   1   2
BRANCH   1   8
ATOM      8  C   UNL     1       7.582  -7.304   4.596  1.00  0.00     0.000 C 
BRANCH   8   9
ATOM      9  C   UNL     1       8.326  -6.132   3.924  1.00  0.00     0.000 C 
BRANCH   9  10
ATOM     10  C   UNL     1       9.649  -5.727   4.597  1.00  0.00     0.006 C 
BRANCH  10  11
ATOM     11  C   UNL     1      10.868  -6.434   3.991  1.00  0.00     0.053 C 
BRANCH  11  12
ATOM     12  C   UNL     1      11.719  -7.025   5.070  1.00  0.00     0.041 C 
ATOM     13  O   UNL     1      12.914  -7.339   4.832  1.00  0.00    -0.550 OA
ATOM     14  O   UNL     1      11.206  -7.185   6.351  1.00  0.00    -0.550 OA
ENDBRANCH  11  12
ENDBRANCH  10  11
ENDBRANCH   9  10
ENDBRANCH   8   9
ENDBRANCH   1   8
TORSDOF 9
ENDMDL
MODEL 9
REMARK VINA RESULT:    -2.892      2.395      3.129
REMARK INTER + INTRA:          -4.859
REMARK INTER:                  -4.302
REMARK INTRA:                  -0.557
REMARK UNBOUND:                -0.445
REMARK SMILES O=C([O-])CCCCCCCCC(=O)[O-]
REMARK SMILES IDX 7 1 6 2 5 3 4 4 2 5 1 6 3 7 8 8 9 9 10 10 11 11 12 12 13 13
REMARK SMILES IDX 14 14
REMARK H PARENT
REMARK Flexibility Score: inf
ROOT
ATOM      1  C   UNL     1      17.723  -6.743   7.177  1.00  0.00     0.000 C 
ENDROOT
BRANCH   1   2
ATOM      2  C   UNL     1      19.155  -7.146   6.785  1.00  0.00     0.000 C 
BRANCH   2   3
ATOM      3  C   UNL     1      19.258  -7.592   5.312  1.00  0.00     0.006 C 
BRANCH   3   4
ATOM      4  C   UNL     1      19.703  -6.472   4.360  1.00  0.00     0.053 C 
BRANCH   4   5
ATOM      5  C   UNL     1      21.004  -5.857   4.771  1.00  0.00     0.041 C 
ATOM      6  O   UNL     1      22.043  -6.565   4.850  1.00  0.00    -0.550 OA
ATOM      7  O   UNL     1      21.078  -4.496   5.039  1.00  0.00    -0.550 OA
ENDBRANCH   4   5
ENDBRANCH   3   4
ENDBRANCH   2   3
ENDBRANCH   1   2
BRANCH   1   8
ATOM      8  C   UNL     1      16.666  -7.256   6.183  1.00  0.00     0.000 C 
BRANCH   8   9
ATOM      9  C   UNL     1      16.076  -6.185   5.243  1.00  0.00     0.000 C 
BRANCH   9  10
ATOM     10  C   UNL     1      15.380  -6.732   3.985  1.00  0.00     0.006 C 
BRANCH  10  11
ATOM     11  C   UNL     1      14.370  -7.843   4.298  1.00  0.00     0.053 C 
BRANCH  11  12
ATOM     12  C   UNL     1      13.057  -7.255   4.709  1.00  0.00     0.041 C 
ATOM     13  O   UNL     1      12.362  -6.617   3.876  1.00  0.00    -0.550 OA
ATOM     14  O   UNL     1      12.579  -7.453   5.998  1.00  0.00    -0.550 OA
ENDBRANCH  11  12
ENDBRANCH  10  11
ENDBRANCH   9  10
ENDBRANCH   8   9
ENDBRANCH   1   8
TORSDOF 9
ENDMDL
