MODEL 1
REMARK VINA RESULT:    -4.647      0.000      0.000
REMARK INTER + INTRA:          -6.052
REMARK INTER:                  -6.549
REMARK INTRA:                   0.497
REMARK UNBOUND:                 0.497
REMARK SMILES CC1=CCC(=C(C)C)C(=O)CC(C)=CCC1
REMARK SMILES IDX 12 1 14 2 13 3 15 4 16 5 2 6 1 7 3 8 11 10 9 11 10 12 5 13
REMARK SMILES IDX 6 14 7 15 8 16 4 17
REMARK H PARENT
REMARK Flexibility Score: 60.00
ROOT
ATOM      1  C   UNL     1      19.484  -9.628  64.919  1.00  0.00    -0.070 C 
ATOM      2  C   UNL     1      19.769  -9.646  66.240  1.00  0.00    -0.027 C 
ATOM      3  C   UNL     1      20.637  -9.599  63.948  1.00  0.00     0.039 C 
ENDROOT
BRANCH   2   4
ATOM      4  C   UNL     1      18.757  -9.580  67.363  1.00  0.00     0.032 C 
BRANCH   4   5
ATOM      5  C   UNL     1      18.768 -10.793  68.317  1.00  0.00     0.034 C 
BRANCH   5   6
ATOM      6  C   UNL     1      18.681 -12.124  67.591  1.00  0.00    -0.077 C 
ATOM      7  C   UNL     1      19.809 -13.105  67.788  1.00  0.00     0.039 C 
ATOM      8  C   UNL     1      17.692 -12.458  66.726  1.00  0.00    -0.023 CG0
ATOM      9  G   UNL     1      16.457 -11.646  66.389  1.00  0.00     0.000 G0
ENDBRANCH   5   6
ENDBRANCH   4   5
ENDBRANCH   2   4
BRANCH   1  10
ATOM     10  C   UNL     1      18.072  -9.544  64.375  1.00  0.00     0.111 C 
BRANCH  10  11
ATOM     11  C   UNL     1      17.479 -10.911  64.153  1.00  0.00     0.163 C 
ATOM     12  O   UNL     1      17.990 -11.642  63.262  1.00  0.00    -0.294 OA
BRANCH  11  13
ATOM     13  C   UNL     1      16.284 -11.397  64.902  1.00  0.00    -0.002 C 
ATOM     14  C   UNL     1      15.075 -11.534  64.279  1.00  0.00    -0.069 C 
ATOM     15  C   UNL     1      13.814 -11.872  65.042  1.00  0.00     0.039 C 
ATOM     16  C   UNL     1      14.940 -11.351  62.783  1.00  0.00     0.039 C 
BRANCH  13  17
ATOM     17  C   UNL     1      16.449 -11.638  66.395  1.00  0.00     0.066 CG0
ATOM     18  G   UNL     1      17.692 -12.446  66.713  1.00  0.00     0.000 G0
ENDBRANCH  13  17
ENDBRANCH  11  13
ENDBRANCH  10  11
ENDBRANCH   1  10
TORSDOF 0
ENDMDL
MODEL 2
REMARK VINA RESULT:    -4.485      1.547      4.128
REMARK INTER + INTRA:          -5.823
REMARK INTER:                  -6.381
REMARK INTRA:                   0.558
REMARK UNBOUND:                 0.497
REMARK SMILES CC1=CCC(=C(C)C)C(=O)CC(C)=CCC1
REMARK SMILES IDX 12 1 14 2 13 3 15 4 16 5 2 6 1 7 3 8 11 10 9 11 10 12 5 13
REMARK SMILES IDX 6 14 7 15 8 16 4 17
REMARK H PARENT
REMARK Flexibility Score: 60.00
ROOT
ATOM      1  C   UNL     1      19.877  -9.942  65.082  1.00  0.00    -0.070 C 
ATOM      2  C   UNL     1      19.256  -9.997  63.884  1.00  0.00    -0.027 C 
ATOM      3  C   UNL     1      21.234 -10.589  65.204  1.00  0.00     0.039 C 
ENDROOT
BRANCH   2   4
ATOM      4  C   UNL     1      17.859  -9.495  63.589  1.00  0.00     0.032 C 
BRANCH   4   5
ATOM      5  C   UNL     1      16.884 -10.565  63.056  1.00  0.00     0.034 C 
BRANCH   5   6
ATOM      6  C   UNL     1      15.867 -11.014  64.090  1.00  0.00    -0.077 C 
ATOM      7  C   UNL     1      14.443 -10.545  63.923  1.00  0.00     0.039 C 
ATOM      8  C   UNL     1      16.168 -11.750  65.188  1.00  0.00    -0.023 CG0
ATOM      9  G   UNL     1      17.515 -12.343  65.550  1.00  0.00     0.000 G0
ENDBRANCH   5   6
ENDBRANCH   4   5
ENDBRANCH   2   4
BRANCH   1  10
ATOM     10  C   UNL     1      19.242  -9.346  66.322  1.00  0.00     0.111 C 
BRANCH  10  11
ATOM     11  C   UNL     1      18.120 -10.206  66.840  1.00  0.00     0.163 C 
ATOM     12  O   UNL     1      17.143  -9.636  67.396  1.00  0.00    -0.294 OA
BRANCH  11  13
ATOM     13  C   UNL     1      18.156 -11.697  66.774  1.00  0.00    -0.002 C 
ATOM     14  C   UNL     1      18.813 -12.425  67.726  1.00  0.00    -0.069 C 
ATOM     15  C   UNL     1      19.002 -13.920  67.603  1.00  0.00     0.039 C 
ATOM     16  C   UNL     1      19.391 -11.762  68.958  1.00  0.00     0.039 C 
BRANCH  13  17
ATOM     17  C   UNL     1      17.516 -12.354  65.561  1.00  0.00     0.066 CG0
ATOM     18  G   UNL     1      16.185 -11.724  65.199  1.00  0.00     0.000 G0
ENDBRANCH  13  17
ENDBRANCH  11  13
ENDBRANCH  10  11
ENDBRANCH   1  10
TORSDOF 0
ENDMDL
MODEL 3
REMARK VINA RESULT:    -4.465      2.225      4.213
REMARK INTER + INTRA:          -5.795
REMARK INTER:                  -6.270
REMARK INTRA:                   0.474
REMARK UNBOUND:                 0.497
REMARK SMILES CC1=CCC(=C(C)C)C(=O)CC(C)=CCC1
REMARK SMILES IDX 12 1 14 2 13 3 15 4 16 5 2 6 1 7 3 8 11 10 9 11 10 12 5 13
REMARK SMILES IDX 6 14 7 15 8 16 4 17
REMARK H PARENT
REMARK Flexibility Score: 60.00
ROOT
ATOM      1  C   UNL     1      14.708 -12.231  64.661  1.00  0.00    -0.070 C 
ATOM      2  C   UNL     1      15.200 -11.513  65.694  1.00  0.00    -0.027 C 
ATOM      3  C   UNL     1      13.211 -12.304  64.502  1.00  0.00     0.039 C 
ENDROOT
BRANCH   2   4
ATOM      4  C   UNL     1      16.661 -11.399  66.075  1.00  0.00     0.032 C 
BRANCH   4   5
ATOM      5  C   UNL     1      17.314 -10.042  65.742  1.00  0.00     0.034 C 
BRANCH   5   6
ATOM      6  C   UNL     1      18.060 -10.048  64.419  1.00  0.00    -0.077 C 
ATOM      7  C   UNL     1      19.559 -10.203  64.460  1.00  0.00     0.039 C 
ATOM      8  C   UNL     1      17.474  -9.856  63.211  1.00  0.00    -0.023 CG0
ATOM      9  G   UNL     1      15.993  -9.700  62.927  1.00  0.00     0.000 G0
ENDBRANCH   5   6
ENDBRANCH   4   5
ENDBRANCH   2   4
BRANCH   1  10
ATOM     10  C   UNL     1      15.579 -13.034  63.717  1.00  0.00     0.111 C 
BRANCH  10  11
ATOM     11  C   UNL     1      15.975 -12.232  62.506  1.00  0.00     0.163 C 
ATOM     12  O   UNL     1      16.873 -12.697  61.753  1.00  0.00    -0.294 OA
BRANCH  11  13
ATOM     13  C   UNL     1      15.389 -10.892  62.206  1.00  0.00    -0.002 C 
ATOM     14  C   UNL     1      14.409 -10.751  61.263  1.00  0.00    -0.069 C 
ATOM     15  C   UNL     1      13.909  -9.393  60.825  1.00  0.00     0.039 C 
ATOM     16  C   UNL     1      13.775 -11.958  60.607  1.00  0.00     0.039 C 
BRANCH  13  17
ATOM     17  C   UNL     1      15.995  -9.693  62.919  1.00  0.00     0.066 CG0
ATOM     18  G   UNL     1      17.478  -9.868  63.182  1.00  0.00     0.000 G0
ENDBRANCH  13  17
ENDBRANCH  11  13
ENDBRANCH  10  11
ENDBRANCH   1  10
TORSDOF 0
ENDMDL
MODEL 4
REMARK VINA RESULT:    -4.377      2.199      5.077
REMARK INTER + INTRA:          -5.670
REMARK INTER:                  -6.182
REMARK INTRA:                   0.512
REMARK UNBOUND:                 0.497
REMARK SMILES CC1=CCC(=C(C)C)C(=O)CC(C)=CCC1
REMARK SMILES IDX 12 1 14 2 13 3 15 4 16 5 2 6 1 7 3 8 11 10 9 11 10 12 5 13
REMARK SMILES IDX 6 14 7 15 8 16 4 17
REMARK H PARENT
REMARK Flexibility Score: 60.00
ROOT
ATOM      1  C   UNL     1      18.450 -11.841  67.482  1.00  0.00    -0.070 C 
ATOM      2  C   UNL     1      17.141 -11.515  67.393  1.00  0.00    -0.027 C 
ATOM      3  C   UNL     1      19.101 -11.779  68.841  1.00  0.00     0.039 C 
ENDROOT
BRANCH   2   4
ATOM      4  C   UNL     1      16.339 -11.423  66.113  1.00  0.00     0.032 C 
BRANCH   4   5
ATOM      5  C   UNL     1      16.527 -10.111  65.323  1.00  0.00     0.034 C 
BRANCH   5   6
ATOM      6  C   UNL     1      17.090 -10.330  63.929  1.00  0.00    -0.077 C 
ATOM      7  C   UNL     1      16.180 -10.942  62.894  1.00  0.00     0.039 C 
ATOM      8  C   UNL     1      18.373 -10.073  63.575  1.00  0.00    -0.023 CG0
ATOM      9  G   UNL     1      19.452  -9.445  64.435  1.00  0.00     0.000 G0
ENDBRANCH   5   6
ENDBRANCH   4   5
ENDBRANCH   2   4
BRANCH   1  10
ATOM     10  C   UNL     1      19.308 -12.173  66.279  1.00  0.00     0.111 C 
BRANCH  10  11
ATOM     11  C   UNL     1      20.407 -11.163  66.083  1.00  0.00     0.163 C 
ATOM     12  O   UNL     1      21.176 -10.927  67.054  1.00  0.00    -0.294 OA
BRANCH  11  13
ATOM     13  C   UNL     1      20.574 -10.396  64.814  1.00  0.00    -0.002 C 
ATOM     14  C   UNL     1      21.721 -10.504  64.077  1.00  0.00    -0.069 C 
ATOM     15  C   UNL     1      21.985  -9.625  62.875  1.00  0.00     0.039 C 
ATOM     16  C   UNL     1      22.789 -11.515  64.433  1.00  0.00     0.039 C 
BRANCH  13  17
ATOM     17  C   UNL     1      19.464  -9.428  64.435  1.00  0.00     0.066 CG0
ATOM     18  G   UNL     1      18.395 -10.084  63.584  1.00  0.00     0.000 G0
ENDBRANCH  13  17
ENDBRANCH  11  13
ENDBRANCH  10  11
ENDBRANCH   1  10
TORSDOF 0
ENDMDL
MODEL 5
REMARK VINA RESULT:    -4.332     15.478     17.165
REMARK INTER + INTRA:          -5.607
REMARK INTER:                  -5.911
REMARK INTRA:                   0.304
REMARK UNBOUND:                 0.497
REMARK SMILES CC1=CCC(=C(C)C)C(=O)CC(C)=CCC1
REMARK SMILES IDX 12 1 14 2 13 3 15 4 16 5 2 6 1 7 3 8 11 10 9 11 10 12 5 13
REMARK SMILES IDX 6 14 7 15 8 16 4 17
REMARK H PARENT
REMARK Flexibility Score: 60.00
ROOT
ATOM      1  C   UNL     1      14.429   4.021  55.410  1.00  0.00    -0.070 C 
ATOM      2  C   UNL     1      13.472   4.925  55.716  1.00  0.00    -0.027 C 
ATOM      3  C   UNL     1      15.339   4.322  54.247  1.00  0.00     0.039 C 
ENDROOT
BRANCH   2   4
ATOM      4  C   UNL     1      12.408   4.760  56.779  1.00  0.00     0.032 C 
BRANCH   4   5
ATOM      5  C   UNL     1      11.209   3.883  56.365  1.00  0.00     0.034 C 
BRANCH   5   6
ATOM      6  C   UNL     1      10.731   2.963  57.475  1.00  0.00    -0.077 C 
ATOM      7  C   UNL     1      10.138   3.599  58.707  1.00  0.00     0.039 C 
ATOM      8  C   UNL     1      10.866   1.614  57.459  1.00  0.00    -0.023 CG0
ATOM      9  G   UNL     1      11.410   0.761  56.330  1.00  0.00     0.000 G0
ENDBRANCH   5   6
ENDBRANCH   4   5
ENDBRANCH   2   4
BRANCH   1  10
ATOM     10  C   UNL     1      14.570   2.688  56.117  1.00  0.00     0.111 C 
BRANCH  10  11
ATOM     11  C   UNL     1      13.678   1.639  55.508  1.00  0.00     0.163 C 
ATOM     12  O   UNL     1      13.528   1.641  54.256  1.00  0.00    -0.294 OA
BRANCH  11  13
ATOM     13  C   UNL     1      12.927   0.647  56.333  1.00  0.00    -0.002 C 
ATOM     14  C   UNL     1      13.583  -0.352  56.996  1.00  0.00    -0.069 C 
ATOM     15  C   UNL     1      12.841  -1.461  57.708  1.00  0.00     0.039 C 
ATOM     16  C   UNL     1      15.094  -0.398  57.046  1.00  0.00     0.039 C 
BRANCH  13  17
ATOM     17  C   UNL     1      11.409   0.743  56.323  1.00  0.00     0.066 CG0
ATOM     18  G   UNL     1      10.880   1.605  57.453  1.00  0.00     0.000 G0
ENDBRANCH  13  17
ENDBRANCH  11  13
ENDBRANCH  10  11
ENDBRANCH   1  10
TORSDOF 0
ENDMDL
MODEL 6
REMARK VINA RESULT:    -4.203      2.404      3.448
REMARK INTER + INTRA:          -5.425
REMARK INTER:                  -5.674
REMARK INTRA:                   0.249
REMARK UNBOUND:                 0.497
REMARK SMILES CC1=CCC(=C(C)C)C(=O)CC(C)=CCC1
REMARK SMILES IDX 12 1 14 2 13 3 15 4 16 5 2 6 1 7 3 8 11 10 9 11 10 12 5 13
REMARK SMILES IDX 6 14 7 15 8 16 4 17
REMARK H PARENT
REMARK Flexibility Score: 60.00
ROOT
ATOM      1  C   UNL     1      21.756 -10.362  64.083  1.00  0.00    -0.070 C 
ATOM      2  C   UNL     1      22.829 -11.133  64.364  1.00  0.00    -0.027 C 
ATOM      3  C   UNL     1      21.739  -9.630  62.765  1.00  0.00     0.039 C 
ENDROOT
BRANCH   2   4
ATOM      4  C   UNL     1      23.075 -11.865  65.667  1.00  0.00     0.032 C 
BRANCH   4   5
ATOM      5  C   UNL     1      22.489 -13.290  65.730  1.00  0.00     0.034 C 
BRANCH   5   6
ATOM      6  C   UNL     1      21.657 -13.539  66.976  1.00  0.00    -0.077 C 
ATOM      7  C   UNL     1      22.389 -13.806  68.266  1.00  0.00     0.039 C 
ATOM      8  C   UNL     1      20.303 -13.603  66.989  1.00  0.00    -0.023 CG0
ATOM      9  G   UNL     1      19.363 -13.350  65.826  1.00  0.00     0.000 G0
ENDBRANCH   5   6
ENDBRANCH   4   5
ENDBRANCH   2   4
BRANCH   1  10
ATOM     10  C   UNL     1      20.623 -10.127  65.060  1.00  0.00     0.111 C 
BRANCH  10  11
ATOM     11  C   UNL     1      19.442 -11.014  64.766  1.00  0.00     0.163 C 
ATOM     12  O   UNL     1      18.917 -10.944  63.621  1.00  0.00    -0.294 OA
BRANCH  11  13
ATOM     13  C   UNL     1      18.841 -11.917  65.791  1.00  0.00    -0.002 C 
ATOM     14  C   UNL     1      17.936 -11.441  66.699  1.00  0.00    -0.069 C 
ATOM     15  C   UNL     1      17.431 -12.289  67.845  1.00  0.00     0.039 C 
ATOM     16  C   UNL     1      17.395 -10.032  66.601  1.00  0.00     0.039 C 
BRANCH  13  17
ATOM     17  C   UNL     1      19.349 -13.350  65.839  1.00  0.00     0.066 CG0
ATOM     18  G   UNL     1      20.290 -13.589  67.004  1.00  0.00     0.000 G0
ENDBRANCH  13  17
ENDBRANCH  11  13
ENDBRANCH  10  11
ENDBRANCH   1  10
TORSDOF 0
ENDMDL
MODEL 7
REMARK VINA RESULT:    -4.183      2.397      4.721
REMARK INTER + INTRA:          -5.398
REMARK INTER:                  -5.867
REMARK INTRA:                   0.469
REMARK UNBOUND:                 0.497
REMARK SMILES CC1=CCC(=C(C)C)C(=O)CC(C)=CCC1
REMARK SMILES IDX 12 1 14 2 13 3 15 4 16 5 2 6 1 7 3 8 11 10 9 11 10 12 5 13
REMARK SMILES IDX 6 14 7 15 8 16 4 17
REMARK H PARENT
REMARK Flexibility Score: 60.00
ROOT
ATOM      1  C   UNL     1      17.815 -11.044  65.350  1.00  0.00    -0.070 C 
ATOM      2  C   UNL     1      17.734 -12.083  66.210  1.00  0.00    -0.027 C 
ATOM      3  C   UNL     1      16.709 -10.019  65.376  1.00  0.00     0.039 C 
ENDROOT
BRANCH   2   4
ATOM      4  C   UNL     1      18.688 -13.256  66.271  1.00  0.00     0.032 C 
BRANCH   4   5
ATOM      5  C   UNL     1      19.525 -13.345  67.563  1.00  0.00     0.034 C 
BRANCH   5   6
ATOM      6  C   UNL     1      20.054 -11.998  68.025  1.00  0.00    -0.077 C 
ATOM      7  C   UNL     1      19.431 -11.383  69.252  1.00  0.00     0.039 C 
ATOM      8  C   UNL     1      21.002 -11.285  67.368  1.00  0.00    -0.023 CG0
ATOM      9  G   UNL     1      21.776 -11.709  66.135  1.00  0.00     0.000 G0
ENDBRANCH   5   6
ENDBRANCH   4   5
ENDBRANCH   2   4
BRANCH   1  10
ATOM     10  C   UNL     1      18.906 -10.909  64.309  1.00  0.00     0.111 C 
BRANCH  10  11
ATOM     11  C   UNL     1      20.121 -10.212  64.862  1.00  0.00     0.163 C 
ATOM     12  O   UNL     1      19.995  -9.019  65.251  1.00  0.00    -0.294 OA
BRANCH  11  13
ATOM     13  C   UNL     1      21.465 -10.858  64.908  1.00  0.00    -0.002 C 
ATOM     14  C   UNL     1      22.329 -10.752  63.854  1.00  0.00    -0.069 C 
ATOM     15  C   UNL     1      23.630 -11.522  63.804  1.00  0.00     0.039 C 
ATOM     16  C   UNL     1      22.021  -9.854  62.676  1.00  0.00     0.039 C 
BRANCH  13  17
ATOM     17  C   UNL     1      21.787 -11.708  66.127  1.00  0.00     0.066 CG0
ATOM     18  G   UNL     1      21.006 -11.276  67.353  1.00  0.00     0.000 G0
ENDBRANCH  13  17
ENDBRANCH  11  13
ENDBRANCH  10  11
ENDBRANCH   1  10
TORSDOF 0
ENDMDL
MODEL 8
REMARK VINA RESULT:    -4.177      1.825      3.444
REMARK INTER + INTRA:          -5.389
REMARK INTER:                  -5.914
REMARK INTRA:                   0.524
REMARK UNBOUND:                 0.497
REMARK SMILES CC1=CCC(=C(C)C)C(=O)CC(C)=CCC1
REMARK SMILES IDX 12 1 14 2 13 3 15 4 16 5 2 6 1 7 3 8 11 10 9 11 10 12 5 13
REMARK SMILES IDX 6 14 7 15 8 16 4 17
REMARK H PARENT
REMARK Flexibility Score: 60.00
ROOT
ATOM      1  C   UNL     1      16.542 -11.711  66.053  1.00  0.00    -0.070 C 
ATOM      2  C   UNL     1      17.513 -11.128  66.791  1.00  0.00    -0.027 C 
ATOM      3  C   UNL     1      15.112 -11.516  66.488  1.00  0.00     0.039 C 
ENDROOT
BRANCH   2   4
ATOM      4  C   UNL     1      19.003 -11.286  66.574  1.00  0.00     0.032 C 
BRANCH   4   5
ATOM      5  C   UNL     1      19.720 -10.022  66.057  1.00  0.00     0.034 C 
BRANCH   5   6
ATOM      6  C   UNL     1      19.940 -10.032  64.555  1.00  0.00    -0.077 C 
ATOM      7  C   UNL     1      21.321 -10.368  64.051  1.00  0.00     0.039 C 
ATOM      8  C   UNL     1      18.995  -9.695  63.643  1.00  0.00    -0.023 CG0
ATOM      9  G   UNL     1      17.545  -9.344  63.913  1.00  0.00     0.000 G0
ENDBRANCH   5   6
ENDBRANCH   4   5
ENDBRANCH   2   4
BRANCH   1  10
ATOM     10  C   UNL     1      16.826 -12.620  64.875  1.00  0.00     0.111 C 
BRANCH  10  11
ATOM     11  C   UNL     1      16.999 -11.840  63.599  1.00  0.00     0.163 C 
ATOM     12  O   UNL     1      17.579 -12.404  62.632  1.00  0.00    -0.294 OA
BRANCH  11  13
ATOM     13  C   UNL     1      16.566 -10.418  63.464  1.00  0.00    -0.002 C 
ATOM     14  C   UNL     1      15.378 -10.101  62.866  1.00  0.00    -0.069 C 
ATOM     15  C   UNL     1      14.986  -8.670  62.573  1.00  0.00     0.039 C 
ATOM     16  C   UNL     1      14.393 -11.176  62.463  1.00  0.00     0.039 C 
BRANCH  13  17
ATOM     17  C   UNL     1      17.541  -9.348  63.931  1.00  0.00     0.066 CG0
ATOM     18  G   UNL     1      18.982  -9.711  63.631  1.00  0.00     0.000 G0
ENDBRANCH  13  17
ENDBRANCH  11  13
ENDBRANCH  10  11
ENDBRANCH   1  10
TORSDOF 0
ENDMDL
MODEL 9
REMARK VINA RESULT:    -3.989     10.282     13.274
REMARK INTER + INTRA:          -5.125
REMARK INTER:                  -5.361
REMARK INTRA:                   0.236
REMARK UNBOUND:                 0.497
REMARK SMILES CC1=CCC(=C(C)C)C(=O)CC(C)=CCC1
REMARK SMILES IDX 12 1 14 2 13 3 15 4 16 5 2 6 1 7 3 8 11 10 9 11 10 12 5 13
REMARK SMILES IDX 6 14 7 15 8 16 4 17
REMARK H PARENT
REMARK Flexibility Score: 60.00
ROOT
ATOM      1  C   UNL     1       6.796  -5.785  57.356  1.00  0.00    -0.070 C 
ATOM      2  C   UNL     1       7.389  -5.576  58.553  1.00  0.00    -0.027 C 
ATOM      3  C   UNL     1       5.376  -5.310  57.180  1.00  0.00     0.039 C 
ENDROOT
BRANCH   2   4
ATOM      4  C   UNL     1       8.765  -6.062  58.953  1.00  0.00     0.032 C 
BRANCH   4   5
ATOM      5  C   UNL     1       8.777  -7.362  59.784  1.00  0.00     0.034 C 
BRANCH   5   6
ATOM      6  C   UNL     1       9.709  -8.421  59.221  1.00  0.00    -0.077 C 
ATOM      7  C   UNL     1      11.157  -8.373  59.636  1.00  0.00     0.039 C 
ATOM      8  C   UNL     1       9.337  -9.363  58.319  1.00  0.00    -0.023 CG0
ATOM      9  G   UNL     1       7.943  -9.613  57.778  1.00  0.00     0.000 G0
ENDBRANCH   5   6
ENDBRANCH   4   5
ENDBRANCH   2   4
BRANCH   1  10
ATOM     10  C   UNL     1       7.453  -6.548  56.225  1.00  0.00     0.111 C 
BRANCH  10  11
ATOM     11  C   UNL     1       6.916  -7.951  56.114  1.00  0.00     0.163 C 
ATOM     12  O   UNL     1       5.688  -8.098  55.868  1.00  0.00    -0.294 OA
BRANCH  11  13
ATOM     13  C   UNL     1       7.765  -9.156  56.346  1.00  0.00    -0.002 C 
ATOM     14  C   UNL     1       8.292  -9.853  55.295  1.00  0.00    -0.069 C 
ATOM     15  C   UNL     1       9.023 -11.163  55.489  1.00  0.00     0.039 C 
ATOM     16  C   UNL     1       8.167  -9.345  53.875  1.00  0.00     0.039 C 
BRANCH  13  17
ATOM     17  C   UNL     1       7.935  -9.621  57.784  1.00  0.00     0.066 CG0
ATOM     18  G   UNL     1       9.334  -9.368  58.309  1.00  0.00     0.000 G0
ENDBRANCH  13  17
ENDBRANCH  11  13
ENDBRANCH  10  11
ENDBRANCH   1  10
TORSDOF 0
ENDMDL
