MODEL 1
REMARK VINA RESULT:    -1.790      0.000      0.000
REMARK INTER + INTRA:          -2.105
REMARK INTER:                  -1.947
REMARK INTRA:                  -0.158
REMARK UNBOUND:                -0.158
REMARK SMILES CC1=CC[C@@](O)(C(C)C)CC1
REMARK SMILES IDX 1 1 2 2 3 3 4 4 5 5 10 6 11 7 7 8 8 9 9 10 6 11
REMARK H PARENT 6 12
REMARK Flexibility Score: inf
ROOT
ATOM      1  C   UNL     1     -32.836  34.110 -12.078  1.00  0.00     0.039 C 
ATOM      2  C   UNL     1     -34.288  34.499 -12.118  1.00  0.00    -0.077 C 
ATOM      3  C   UNL     1     -34.662  35.790 -12.119  1.00  0.00    -0.025 C 
ATOM      4  C   UNL     1     -36.125  36.125 -12.027  1.00  0.00     0.062 C 
ATOM      5  C   UNL     1     -36.773  35.274 -10.897  1.00  0.00     0.071 C 
ATOM      6  C   UNL     1     -36.535  33.747 -11.174  1.00  0.00     0.040 C 
ATOM      7  C   UNL     1     -35.355  33.429 -12.125  1.00  0.00     0.033 C 
ENDROOT
BRANCH   5   8
ATOM      8  C   UNL     1     -38.298  35.622 -10.728  1.00  0.00     0.015 C 
ATOM      9  C   UNL     1     -39.047  35.894 -12.047  1.00  0.00     0.010 C 
ATOM     10  C   UNL     1     -39.046  34.554  -9.909  1.00  0.00     0.010 C 
ENDBRANCH   5   8
BRANCH   5  11
ATOM     11  O   UNL     1     -36.111  35.578  -9.685  1.00  0.00    -0.389 OA
ATOM     12  H   UNL     1     -35.137  35.425  -9.812  1.00  0.00     0.211 HD
ENDBRANCH   5  11
TORSDOF 2
ENDMDL
