MODEL 1
REMARK VINA RESULT:    -4.585      0.000      0.000
REMARK INTER + INTRA:          -4.950
REMARK INTER:                  -4.853
REMARK INTRA:                  -0.097
REMARK UNBOUND:                -0.097
REMARK SMILES C=C(C)[C@H]1CC=C(C)C(=O)C1
REMARK SMILES IDX 8 1 7 2 6 3 5 4 4 5 11 6 9 7 10 8 2 9 1 10 3 11
REMARK H PARENT
REMARK Flexibility Score: inf
ROOT
ATOM      1  C   UNL     1     -16.718 -39.011 212.943  1.00  0.00     0.048 C 
ATOM      2  C   UNL     1     -17.305 -38.811 211.574  1.00  0.00    -0.012 C 
ATOM      3  C   UNL     1     -18.470 -39.400 211.252  1.00  0.00    -0.019 C 
ATOM      4  C   UNL     1     -19.093 -39.247 209.889  1.00  0.00     0.036 C 
ATOM      5  C   UNL     1     -18.780 -37.864 209.289  1.00  0.00     0.025 C 
ATOM      6  C   UNL     1     -17.260 -37.623 209.265  1.00  0.00     0.089 C 
ATOM      7  C   UNL     1     -16.664 -37.865 210.625  1.00  0.00     0.158 C 
ATOM      8  O   UNL     1     -15.591 -37.283 210.938  1.00  0.00    -0.295 OA
ENDROOT
BRANCH   5   9
ATOM      9  C   UNL     1     -19.399 -37.695 207.911  1.00  0.00    -0.077 C 
ATOM     10  C   UNL     1     -20.024 -38.712 207.292  1.00  0.00     0.008 C 
ATOM     11  C   UNL     1     -19.303 -36.350 207.238  1.00  0.00     0.039 C 
ENDBRANCH   5   9
TORSDOF 1
ENDMDL
MODEL 2
REMARK VINA RESULT:    -4.513      1.644      2.368
REMARK INTER + INTRA:          -4.874
REMARK INTER:                  -4.780
REMARK INTRA:                  -0.094
REMARK UNBOUND:                -0.097
REMARK SMILES C=C(C)[C@H]1CC=C(C)C(=O)C1
REMARK SMILES IDX 8 1 7 2 6 3 5 4 4 5 11 6 9 7 10 8 2 9 1 10 3 11
REMARK H PARENT
REMARK Flexibility Score: inf
ROOT
ATOM      1  C   UNL     1     -16.787 -39.186 212.879  1.00  0.00     0.048 C 
ATOM      2  C   UNL     1     -17.285 -38.607 211.584  1.00  0.00    -0.012 C 
ATOM      3  C   UNL     1     -16.568 -37.661 210.954  1.00  0.00    -0.019 C 
ATOM      4  C   UNL     1     -17.030 -37.035 209.664  1.00  0.00     0.036 C 
ATOM      5  C   UNL     1     -17.824 -38.042 208.813  1.00  0.00     0.025 C 
ATOM      6  C   UNL     1     -18.991 -38.628 209.627  1.00  0.00     0.089 C 
ATOM      7  C   UNL     1     -18.500 -39.169 210.943  1.00  0.00     0.158 C 
ATOM      8  O   UNL     1     -19.155 -40.081 211.514  1.00  0.00    -0.295 OA
ENDROOT
BRANCH   5   9
ATOM      9  C   UNL     1     -18.301 -37.424 207.508  1.00  0.00    -0.077 C 
ATOM     10  C   UNL     1     -19.024 -36.290 207.491  1.00  0.00     0.008 C 
ATOM     11  C   UNL     1     -17.947 -38.110 206.214  1.00  0.00     0.039 C 
ENDBRANCH   5   9
TORSDOF 1
ENDMDL
MODEL 3
REMARK VINA RESULT:    -4.500      1.921      4.760
REMARK INTER + INTRA:          -4.860
REMARK INTER:                  -4.764
REMARK INTRA:                  -0.096
REMARK UNBOUND:                -0.097
REMARK SMILES C=C(C)[C@H]1CC=C(C)C(=O)C1
REMARK SMILES IDX 8 1 7 2 6 3 5 4 4 5 11 6 9 7 10 8 2 9 1 10 3 11
REMARK H PARENT
REMARK Flexibility Score: inf
ROOT
ATOM      1  C   UNL     1     -19.204 -36.841 207.384  1.00  0.00     0.048 C 
ATOM      2  C   UNL     1     -18.556 -37.599 208.508  1.00  0.00    -0.012 C 
ATOM      3  C   UNL     1     -17.527 -37.052 209.178  1.00  0.00    -0.019 C 
ATOM      4  C   UNL     1     -16.831 -37.776 210.301  1.00  0.00     0.036 C 
ATOM      5  C   UNL     1     -17.812 -38.678 211.072  1.00  0.00     0.025 C 
ATOM      6  C   UNL     1     -18.521 -39.645 210.106  1.00  0.00     0.089 C 
ATOM      7  C   UNL     1     -19.133 -38.892 208.957  1.00  0.00     0.158 C 
ATOM      8  O   UNL     1     -20.120 -39.389 208.353  1.00  0.00    -0.295 OA
ENDROOT
BRANCH   5   9
ATOM      9  C   UNL     1     -17.124 -39.419 212.207  1.00  0.00    -0.077 C 
ATOM     10  C   UNL     1     -16.513 -38.760 213.208  1.00  0.00     0.008 C 
ATOM     11  C   UNL     1     -17.136 -40.926 212.196  1.00  0.00     0.039 C 
ENDBRANCH   5   9
TORSDOF 1
ENDMDL
MODEL 4
REMARK VINA RESULT:    -4.440      2.104      4.556
REMARK INTER + INTRA:          -4.797
REMARK INTER:                  -4.700
REMARK INTRA:                  -0.097
REMARK UNBOUND:                -0.097
REMARK SMILES C=C(C)[C@H]1CC=C(C)C(=O)C1
REMARK SMILES IDX 8 1 7 2 6 3 5 4 4 5 11 6 9 7 10 8 2 9 1 10 3 11
REMARK H PARENT
REMARK Flexibility Score: inf
ROOT
ATOM      1  C   UNL     1     -16.592 -38.878 206.247  1.00  0.00     0.048 C 
ATOM      2  C   UNL     1     -16.565 -38.680 207.737  1.00  0.00    -0.012 C 
ATOM      3  C   UNL     1     -17.542 -37.978 208.336  1.00  0.00    -0.019 C 
ATOM      4  C   UNL     1     -17.555 -37.735 209.823  1.00  0.00     0.036 C 
ATOM      5  C   UNL     1     -16.929 -38.920 210.583  1.00  0.00     0.025 C 
ATOM      6  C   UNL     1     -15.514 -39.209 210.051  1.00  0.00     0.089 C 
ATOM      7  C   UNL     1     -15.532 -39.364 208.555  1.00  0.00     0.158 C 
ATOM      8  O   UNL     1     -14.636 -40.052 207.998  1.00  0.00    -0.295 OA
ENDROOT
BRANCH   5   9
ATOM      9  C   UNL     1     -16.930 -38.688 212.085  1.00  0.00    -0.077 C 
ATOM     10  C   UNL     1     -17.266 -37.497 212.612  1.00  0.00     0.008 C 
ATOM     11  C   UNL     1     -16.544 -39.829 212.991  1.00  0.00     0.039 C 
ENDBRANCH   5   9
TORSDOF 1
ENDMDL
MODEL 5
REMARK VINA RESULT:    -4.367     12.018     15.037
REMARK INTER + INTRA:          -4.719
REMARK INTER:                  -4.626
REMARK INTRA:                  -0.094
REMARK UNBOUND:                -0.097
REMARK SMILES C=C(C)[C@H]1CC=C(C)C(=O)C1
REMARK SMILES IDX 8 1 7 2 6 3 5 4 4 5 11 6 9 7 10 8 2 9 1 10 3 11
REMARK H PARENT
REMARK Flexibility Score: inf
ROOT
ATOM      1  C   UNL     1      -7.025 -39.151 213.684  1.00  0.00     0.048 C 
ATOM      2  C   UNL     1      -6.296 -39.292 214.991  1.00  0.00    -0.012 C 
ATOM      3  C   UNL     1      -5.280 -38.463 215.284  1.00  0.00    -0.019 C 
ATOM      4  C   UNL     1      -4.505 -38.573 216.571  1.00  0.00     0.036 C 
ATOM      5  C   UNL     1      -5.405 -39.064 217.720  1.00  0.00     0.025 C 
ATOM      6  C   UNL     1      -6.087 -40.390 217.335  1.00  0.00     0.089 C 
ATOM      7  C   UNL     1      -6.780 -40.262 216.006  1.00  0.00     0.158 C 
ATOM      8  O   UNL     1      -7.755 -41.017 215.748  1.00  0.00    -0.295 OA
ENDROOT
BRANCH   5   9
ATOM      9  C   UNL     1      -4.636 -39.185 219.026  1.00  0.00    -0.077 C 
ATOM     10  C   UNL     1      -3.562 -39.985 219.137  1.00  0.00     0.008 C 
ATOM     11  C   UNL     1      -5.102 -38.380 220.212  1.00  0.00     0.039 C 
ENDBRANCH   5   9
TORSDOF 1
ENDMDL
MODEL 6
REMARK VINA RESULT:    -4.330      2.211      4.591
REMARK INTER + INTRA:          -4.681
REMARK INTER:                  -4.582
REMARK INTRA:                  -0.099
REMARK UNBOUND:                -0.097
REMARK SMILES C=C(C)[C@H]1CC=C(C)C(=O)C1
REMARK SMILES IDX 8 1 7 2 6 3 5 4 4 5 11 6 9 7 10 8 2 9 1 10 3 11
REMARK H PARENT
REMARK Flexibility Score: inf
ROOT
ATOM      1  C   UNL     1     -16.017 -38.766 206.222  1.00  0.00     0.048 C 
ATOM      2  C   UNL     1     -16.351 -38.824 207.686  1.00  0.00    -0.012 C 
ATOM      3  C   UNL     1     -15.543 -39.488 208.531  1.00  0.00    -0.019 C 
ATOM      4  C   UNL     1     -15.840 -39.592 210.004  1.00  0.00     0.036 C 
ATOM      5  C   UNL     1     -16.559 -38.329 210.515  1.00  0.00     0.025 C 
ATOM      6  C   UNL     1     -17.826 -38.062 209.682  1.00  0.00     0.089 C 
ATOM      7  C   UNL     1     -17.500 -38.047 208.214  1.00  0.00     0.158 C 
ATOM      8  O   UNL     1     -18.239 -37.395 207.428  1.00  0.00    -0.295 OA
ENDROOT
BRANCH   5   9
ATOM      9  C   UNL     1     -16.871 -38.421 212.001  1.00  0.00    -0.077 C 
ATOM     10  C   UNL     1     -17.351 -37.367 212.684  1.00  0.00     0.008 C 
ATOM     11  C   UNL     1     -16.631 -39.729 212.708  1.00  0.00     0.039 C 
ENDBRANCH   5   9
TORSDOF 1
ENDMDL
MODEL 7
REMARK VINA RESULT:    -4.257     11.950     14.116
REMARK INTER + INTRA:          -4.603
REMARK INTER:                  -4.506
REMARK INTRA:                  -0.097
REMARK UNBOUND:                -0.097
REMARK SMILES C=C(C)[C@H]1CC=C(C)C(=O)C1
REMARK SMILES IDX 8 1 7 2 6 3 5 4 4 5 11 6 9 7 10 8 2 9 1 10 3 11
REMARK H PARENT
REMARK Flexibility Score: inf
ROOT
ATOM      1  C   UNL     1      -8.939 -41.745 215.959  1.00  0.00     0.048 C 
ATOM      2  C   UNL     1      -7.573 -41.146 215.778  1.00  0.00    -0.012 C 
ATOM      3  C   UNL     1      -7.049 -41.034 214.545  1.00  0.00    -0.019 C 
ATOM      4  C   UNL     1      -5.678 -40.458 214.309  1.00  0.00     0.036 C 
ATOM      5  C   UNL     1      -5.347 -39.371 215.348  1.00  0.00     0.025 C 
ATOM      6  C   UNL     1      -5.507 -39.928 216.774  1.00  0.00     0.089 C 
ATOM      7  C   UNL     1      -6.859 -40.567 216.944  1.00  0.00     0.158 C 
ATOM      8  O   UNL     1      -7.363 -40.638 218.096  1.00  0.00    -0.295 OA
ENDROOT
BRANCH   5   9
ATOM      9  C   UNL     1      -3.963 -38.782 215.126  1.00  0.00    -0.077 C 
ATOM     10  C   UNL     1      -3.634 -37.565 215.593  1.00  0.00     0.008 C 
ATOM     11  C   UNL     1      -2.947 -39.595 214.365  1.00  0.00     0.039 C 
ENDBRANCH   5   9
TORSDOF 1
ENDMDL
MODEL 8
REMARK VINA RESULT:    -4.141     12.677     14.346
REMARK INTER + INTRA:          -4.481
REMARK INTER:                  -4.385
REMARK INTRA:                  -0.096
REMARK UNBOUND:                -0.097
REMARK SMILES C=C(C)[C@H]1CC=C(C)C(=O)C1
REMARK SMILES IDX 8 1 7 2 6 3 5 4 4 5 11 6 9 7 10 8 2 9 1 10 3 11
REMARK H PARENT
REMARK Flexibility Score: inf
ROOT
ATOM      1  C   UNL     1      -5.121 -38.400 219.070  1.00  0.00     0.048 C 
ATOM      2  C   UNL     1      -5.284 -38.857 217.648  1.00  0.00    -0.012 C 
ATOM      3  C   UNL     1      -4.464 -38.383 216.694  1.00  0.00    -0.019 C 
ATOM      4  C   UNL     1      -4.594 -38.794 215.251  1.00  0.00     0.036 C 
ATOM      5  C   UNL     1      -5.097 -40.245 215.132  1.00  0.00     0.025 C 
ATOM      6  C   UNL     1      -6.414 -40.420 215.909  1.00  0.00     0.089 C 
ATOM      7  C   UNL     1      -6.265 -39.923 217.321  1.00  0.00     0.158 C 
ATOM      8  O   UNL     1      -7.011 -40.395 218.220  1.00  0.00    -0.295 OA
ENDROOT
BRANCH   5   9
ATOM      9  C   UNL     1      -5.238 -40.675 213.680  1.00  0.00    -0.077 C 
ATOM     10  C   UNL     1      -6.424 -40.634 213.048  1.00  0.00     0.008 C 
ATOM     11  C   UNL     1      -4.011 -41.152 212.947  1.00  0.00     0.039 C 
ENDBRANCH   5   9
TORSDOF 1
ENDMDL
MODEL 9
REMARK VINA RESULT:    -4.061     13.048     15.295
REMARK INTER + INTRA:          -4.395
REMARK INTER:                  -4.300
REMARK INTRA:                  -0.095
REMARK UNBOUND:                -0.097
REMARK SMILES C=C(C)[C@H]1CC=C(C)C(=O)C1
REMARK SMILES IDX 8 1 7 2 6 3 5 4 4 5 11 6 9 7 10 8 2 9 1 10 3 11
REMARK H PARENT
REMARK Flexibility Score: inf
ROOT
ATOM      1  C   UNL     1      -0.635 -39.469 215.278  1.00  0.00     0.048 C 
ATOM      2  C   UNL     1      -2.135 -39.504 215.362  1.00  0.00    -0.012 C 
ATOM      3  C   UNL     1      -2.837 -38.361 215.271  1.00  0.00    -0.019 C 
ATOM      4  C   UNL     1      -4.340 -38.338 215.367  1.00  0.00     0.036 C 
ATOM      5  C   UNL     1      -4.953 -39.624 214.781  1.00  0.00     0.025 C 
ATOM      6  C   UNL     1      -4.344 -40.863 215.463  1.00  0.00     0.089 C 
ATOM      7  C   UNL     1      -2.842 -40.808 215.418  1.00  0.00     0.158 C 
ATOM      8  O   UNL     1      -2.186 -41.883 215.467  1.00  0.00    -0.295 OA
ENDROOT
BRANCH   5   9
ATOM      9  C   UNL     1      -6.470 -39.618 214.874  1.00  0.00    -0.077 C 
ATOM     10  C   UNL     1      -7.214 -38.752 214.163  1.00  0.00     0.008 C 
ATOM     11  C   UNL     1      -7.140 -40.612 215.787  1.00  0.00     0.039 C 
ENDBRANCH   5   9
TORSDOF 1
ENDMDL
