MODEL 1
REMARK VINA RESULT:    -3.775      0.000      0.000
REMARK INTER + INTRA:          -7.105
REMARK INTER:                  -5.982
REMARK INTRA:                  -1.123
REMARK UNBOUND:                -1.123
REMARK SMILES CCCCCCCCCCCC(=O)[O-]
REMARK SMILES IDX 7 1 8 2 9 3 10 4 11 5 12 6 13 7 14 8 6 9 5 10 4 11 3 12 2 13
REMARK SMILES IDX 1 14
REMARK H PARENT
REMARK Flexibility Score: inf
ROOT
ATOM      1  C   UNL     1     -47.300 -53.975  39.314  1.00  0.00     0.000 C 
ENDROOT
BRANCH   1   2
ATOM      2  C   UNL     1     -48.209 -53.638  38.122  1.00  0.00     0.000 C 
BRANCH   2   3
ATOM      3  C   UNL     1     -47.549 -52.672  37.126  1.00  0.00     0.000 C 
BRANCH   3   4
ATOM      4  C   UNL     1     -46.867 -51.508  37.858  1.00  0.00     0.006 C 
BRANCH   4   5
ATOM      5  C   UNL     1     -46.968 -50.191  37.078  1.00  0.00     0.053 C 
BRANCH   5   6
ATOM      6  C   UNL     1     -45.617 -49.618  36.776  1.00  0.00     0.041 C 
ATOM      7  O   UNL     1     -45.269 -48.518  37.280  1.00  0.00    -0.550 OA
ATOM      8  O   UNL     1     -44.755 -50.283  35.913  1.00  0.00    -0.550 OA
ENDBRANCH   5   6
ENDBRANCH   4   5
ENDBRANCH   3   4
ENDBRANCH   2   3
ENDBRANCH   1   2
BRANCH   1   9
ATOM      9  C   UNL     1     -48.091 -54.204  40.615  1.00  0.00     0.000 C 
BRANCH   9  10
ATOM     10  C   UNL     1     -49.129 -53.099  40.876  1.00  0.00    -0.000 C 
BRANCH  10  11
ATOM     11  C   UNL     1     -48.688 -52.129  41.986  1.00  0.00    -0.000 C 
BRANCH  11  12
ATOM     12  C   UNL     1     -47.776 -51.002  41.466  1.00  0.00    -0.000 C 
BRANCH  12  13
ATOM     13  C   UNL     1     -46.269 -51.241  41.667  1.00  0.00    -0.003 C 
ATOM     14  C   UNL     1     -45.401 -50.412  40.722  1.00  0.00     0.004 C 
ENDBRANCH  12  13
ENDBRANCH  11  12
ENDBRANCH  10  11
ENDBRANCH   9  10
ENDBRANCH   1   9
TORSDOF 10
ENDMDL
MODEL 2
REMARK VINA RESULT:    -3.637      5.756      7.887
REMARK INTER + INTRA:          -6.887
REMARK INTER:                  -5.948
REMARK INTRA:                  -0.938
REMARK UNBOUND:                -1.123
REMARK SMILES CCCCCCCCCCCC(=O)[O-]
REMARK SMILES IDX 7 1 8 2 9 3 10 4 11 5 12 6 13 7 14 8 6 9 5 10 4 11 3 12 2 13
REMARK SMILES IDX 1 14
REMARK H PARENT
REMARK Flexibility Score: inf
ROOT
ATOM      1  C   UNL     1     -44.258 -48.398  38.083  1.00  0.00     0.000 C 
ENDROOT
BRANCH   1   2
ATOM      2  C   UNL     1     -42.746 -48.424  38.358  1.00  0.00     0.000 C 
BRANCH   2   3
ATOM      3  C   UNL     1     -42.322 -47.428  39.448  1.00  0.00     0.000 C 
BRANCH   3   4
ATOM      4  C   UNL     1     -43.543 -46.899  40.214  1.00  0.00     0.006 C 
BRANCH   4   5
ATOM      5  C   UNL     1     -43.430 -45.402  40.528  1.00  0.00     0.053 C 
BRANCH   5   6
ATOM      6  C   UNL     1     -42.175 -45.085  41.283  1.00  0.00     0.041 C 
ATOM      7  O   UNL     1     -41.379 -44.211  40.849  1.00  0.00    -0.550 OA
ATOM      8  O   UNL     1     -41.869 -45.778  42.447  1.00  0.00    -0.550 OA
ENDBRANCH   5   6
ENDBRANCH   4   5
ENDBRANCH   3   4
ENDBRANCH   2   3
ENDBRANCH   1   2
BRANCH   1   9
ATOM      9  C   UNL     1     -44.613 -48.925  36.681  1.00  0.00     0.000 C 
BRANCH   9  10
ATOM     10  C   UNL     1     -43.395 -49.504  35.943  1.00  0.00    -0.000 C 
BRANCH  10  11
ATOM     11  C   UNL     1     -43.159 -48.830  34.579  1.00  0.00    -0.000 C 
BRANCH  11  12
ATOM     12  C   UNL     1     -41.860 -48.004  34.539  1.00  0.00    -0.000 C 
BRANCH  12  13
ATOM     13  C   UNL     1     -40.581 -48.784  34.892  1.00  0.00    -0.003 C 
ATOM     14  C   UNL     1     -39.815 -48.178  36.066  1.00  0.00     0.004 C 
ENDBRANCH  12  13
ENDBRANCH  11  12
ENDBRANCH  10  11
ENDBRANCH   9  10
ENDBRANCH   1   9
TORSDOF 10
ENDMDL
MODEL 3
REMARK VINA RESULT:    -3.594      3.062      5.207
REMARK INTER + INTRA:          -6.818
REMARK INTER:                  -5.380
REMARK INTRA:                  -1.438
REMARK UNBOUND:                -1.123
REMARK SMILES CCCCCCCCCCCC(=O)[O-]
REMARK SMILES IDX 7 1 8 2 9 3 10 4 11 5 12 6 13 7 14 8 6 9 5 10 4 11 3 12 2 13
REMARK SMILES IDX 1 14
REMARK H PARENT
REMARK Flexibility Score: inf
ROOT
ATOM      1  C   UNL     1     -45.126 -51.723  39.807  1.00  0.00     0.000 C 
ENDROOT
BRANCH   1   2
ATOM      2  C   UNL     1     -45.824 -50.939  40.929  1.00  0.00     0.000 C 
BRANCH   2   3
ATOM      3  C   UNL     1     -47.343 -50.835  40.725  1.00  0.00     0.000 C 
BRANCH   3   4
ATOM      4  C   UNL     1     -48.096 -51.172  42.021  1.00  0.00     0.006 C 
BRANCH   4   5
ATOM      5  C   UNL     1     -48.052 -52.671  42.346  1.00  0.00     0.053 C 
BRANCH   5   6
ATOM      6  C   UNL     1     -48.695 -53.492  41.270  1.00  0.00     0.041 C 
ATOM      7  O   UNL     1     -49.884 -53.263  40.924  1.00  0.00    -0.550 OA
ATOM      8  O   UNL     1     -47.992 -54.530  40.672  1.00  0.00    -0.550 OA
ENDBRANCH   5   6
ENDBRANCH   4   5
ENDBRANCH   3   4
ENDBRANCH   2   3
ENDBRANCH   1   2
BRANCH   1   9
ATOM      9  C   UNL     1     -46.085 -52.104  38.665  1.00  0.00     0.000 C 
BRANCH   9  10
ATOM     10  C   UNL     1     -45.818 -51.301  37.380  1.00  0.00    -0.000 C 
BRANCH  10  11
ATOM     11  C   UNL     1     -46.921 -50.267  37.094  1.00  0.00    -0.000 C 
BRANCH  11  12
ATOM     12  C   UNL     1     -46.506 -48.832  37.468  1.00  0.00    -0.000 C 
BRANCH  12  13
ATOM     13  C   UNL     1     -44.992 -48.620  37.650  1.00  0.00    -0.003 C 
ATOM     14  C   UNL     1     -44.630 -48.026  39.010  1.00  0.00     0.004 C 
ENDBRANCH  12  13
ENDBRANCH  11  12
ENDBRANCH  10  11
ENDBRANCH   9  10
ENDBRANCH   1   9
TORSDOF 10
ENDMDL
MODEL 4
REMARK VINA RESULT:    -3.575      1.627      3.580
REMARK INTER + INTRA:          -6.788
REMARK INTER:                  -5.888
REMARK INTRA:                  -0.900
REMARK UNBOUND:                -1.123
REMARK SMILES CCCCCCCCCCCC(=O)[O-]
REMARK SMILES IDX 7 1 8 2 9 3 10 4 11 5 12 6 13 7 14 8 6 9 5 10 4 11 3 12 2 13
REMARK SMILES IDX 1 14
REMARK H PARENT
REMARK Flexibility Score: inf
ROOT
ATOM      1  C   UNL     1     -46.272 -50.442  38.959  1.00  0.00     0.000 C 
ENDROOT
BRANCH   1   2
ATOM      2  C   UNL     1     -46.669 -49.654  37.701  1.00  0.00     0.000 C 
BRANCH   2   3
ATOM      3  C   UNL     1     -45.823 -48.388  37.500  1.00  0.00     0.000 C 
BRANCH   3   4
ATOM      4  C   UNL     1     -44.385 -48.747  37.099  1.00  0.00     0.006 C 
BRANCH   4   5
ATOM      5  C   UNL     1     -44.337 -49.806  35.990  1.00  0.00     0.053 C 
BRANCH   5   6
ATOM      6  C   UNL     1     -43.465 -49.377  34.849  1.00  0.00     0.041 C 
ATOM      7  O   UNL     1     -42.853 -48.278  34.899  1.00  0.00    -0.550 OA
ATOM      8  O   UNL     1     -43.354 -50.176  33.718  1.00  0.00    -0.550 OA
ENDBRANCH   5   6
ENDBRANCH   4   5
ENDBRANCH   3   4
ENDBRANCH   2   3
ENDBRANCH   1   2
BRANCH   1   9
ATOM      9  C   UNL     1     -46.189 -51.958  38.707  1.00  0.00     0.000 C 
BRANCH   9  10
ATOM     10  C   UNL     1     -47.307 -52.462  37.778  1.00  0.00    -0.000 C 
BRANCH  10  11
ATOM     11  C   UNL     1     -48.180 -53.543  38.442  1.00  0.00    -0.000 C 
BRANCH  11  12
ATOM     12  C   UNL     1     -47.946 -53.649  39.960  1.00  0.00    -0.000 C 
BRANCH  12  13
ATOM     13  C   UNL     1     -49.111 -53.149  40.834  1.00  0.00    -0.003 C 
ATOM     14  C   UNL     1     -48.770 -51.883  41.617  1.00  0.00     0.004 C 
ENDBRANCH  12  13
ENDBRANCH  11  12
ENDBRANCH  10  11
ENDBRANCH   9  10
ENDBRANCH   1   9
TORSDOF 10
ENDMDL
MODEL 5
REMARK VINA RESULT:    -3.573      3.686      5.761
REMARK INTER + INTRA:          -6.785
REMARK INTER:                  -5.975
REMARK INTRA:                  -0.810
REMARK UNBOUND:                -1.123
REMARK SMILES CCCCCCCCCCCC(=O)[O-]
REMARK SMILES IDX 7 1 8 2 9 3 10 4 11 5 12 6 13 7 14 8 6 9 5 10 4 11 3 12 2 13
REMARK SMILES IDX 1 14
REMARK H PARENT
REMARK Flexibility Score: inf
ROOT
ATOM      1  C   UNL     1     -44.596 -49.051  36.911  1.00  0.00     0.000 C 
ENDROOT
BRANCH   1   2
ATOM      2  C   UNL     1     -45.370 -50.333  36.566  1.00  0.00     0.000 C 
BRANCH   2   3
ATOM      3  C   UNL     1     -46.757 -50.387  37.226  1.00  0.00     0.000 C 
BRANCH   3   4
ATOM      4  C   UNL     1     -46.824 -51.510  38.271  1.00  0.00     0.006 C 
BRANCH   4   5
ATOM      5  C   UNL     1     -46.532 -51.002  39.689  1.00  0.00     0.053 C 
BRANCH   5   6
ATOM      6  C   UNL     1     -47.519 -51.534  40.684  1.00  0.00     0.041 C 
ATOM      7  O   UNL     1     -48.085 -52.641  40.484  1.00  0.00    -0.550 OA
ATOM      8  O   UNL     1     -47.839 -50.792  41.814  1.00  0.00    -0.550 OA
ENDBRANCH   5   6
ENDBRANCH   4   5
ENDBRANCH   3   4
ENDBRANCH   2   3
ENDBRANCH   1   2
BRANCH   1   9
ATOM      9  C   UNL     1     -45.393 -48.108  37.830  1.00  0.00     0.000 C 
BRANCH   9  10
ATOM     10  C   UNL     1     -44.656 -47.806  39.145  1.00  0.00    -0.000 C 
BRANCH  10  11
ATOM     11  C   UNL     1     -43.144 -48.079  39.048  1.00  0.00    -0.000 C 
BRANCH  11  12
ATOM     12  C   UNL     1     -42.311 -47.150  39.950  1.00  0.00    -0.000 C 
BRANCH  12  13
ATOM     13  C   UNL     1     -43.039 -45.881  40.426  1.00  0.00    -0.003 C 
ATOM     14  C   UNL     1     -42.087 -44.738  40.773  1.00  0.00     0.004 C 
ENDBRANCH  12  13
ENDBRANCH  11  12
ENDBRANCH  10  11
ENDBRANCH   9  10
ENDBRANCH   1   9
TORSDOF 10
ENDMDL
MODEL 6
REMARK VINA RESULT:    -3.573      3.101      5.219
REMARK INTER + INTRA:          -6.784
REMARK INTER:                  -5.839
REMARK INTRA:                  -0.945
REMARK UNBOUND:                -1.123
REMARK SMILES CCCCCCCCCCCC(=O)[O-]
REMARK SMILES IDX 7 1 8 2 9 3 10 4 11 5 12 6 13 7 14 8 6 9 5 10 4 11 3 12 2 13
REMARK SMILES IDX 1 14
REMARK H PARENT
REMARK Flexibility Score: inf
ROOT
ATOM      1  C   UNL     1     -46.738 -50.502  37.114  1.00  0.00     0.000 C 
ENDROOT
BRANCH   1   2
ATOM      2  C   UNL     1     -46.913 -51.688  38.075  1.00  0.00     0.000 C 
BRANCH   2   3
ATOM      3  C   UNL     1     -47.630 -52.880  37.424  1.00  0.00     0.000 C 
BRANCH   3   4
ATOM      4  C   UNL     1     -48.060 -53.907  38.482  1.00  0.00     0.006 C 
BRANCH   4   5
ATOM      5  C   UNL     1     -47.318 -53.717  39.812  1.00  0.00     0.053 C 
BRANCH   5   6
ATOM      6  C   UNL     1     -48.264 -53.650  40.972  1.00  0.00     0.041 C 
ATOM      7  O   UNL     1     -47.949 -54.168  42.076  1.00  0.00    -0.550 OA
ATOM      8  O   UNL     1     -49.505 -53.044  40.825  1.00  0.00    -0.550 OA
ENDBRANCH   5   6
ENDBRANCH   4   5
ENDBRANCH   3   4
ENDBRANCH   2   3
ENDBRANCH   1   2
BRANCH   1   9
ATOM      9  C   UNL     1     -45.295 -50.368  36.596  1.00  0.00     0.000 C 
BRANCH   9  10
ATOM     10  C   UNL     1     -44.717 -48.960  36.821  1.00  0.00    -0.000 C 
BRANCH  10  11
ATOM     11  C   UNL     1     -45.377 -48.236  38.007  1.00  0.00    -0.000 C 
BRANCH  11  12
ATOM     12  C   UNL     1     -44.399 -47.979  39.169  1.00  0.00    -0.000 C 
BRANCH  12  13
ATOM     13  C   UNL     1     -43.784 -49.244  39.793  1.00  0.00    -0.003 C 
ATOM     14  C   UNL     1     -44.805 -50.099  40.541  1.00  0.00     0.004 C 
ENDBRANCH  12  13
ENDBRANCH  11  12
ENDBRANCH  10  11
ENDBRANCH   9  10
ENDBRANCH   1   9
TORSDOF 10
ENDMDL
MODEL 7
REMARK VINA RESULT:    -3.559      3.005      5.887
REMARK INTER + INTRA:          -6.763
REMARK INTER:                  -5.394
REMARK INTRA:                  -1.368
REMARK UNBOUND:                -1.123
REMARK SMILES CCCCCCCCCCCC(=O)[O-]
REMARK SMILES IDX 7 1 8 2 9 3 10 4 11 5 12 6 13 7 14 8 6 9 5 10 4 11 3 12 2 13
REMARK SMILES IDX 1 14
REMARK H PARENT
REMARK Flexibility Score: inf
ROOT
ATOM      1  C   UNL     1     -43.924 -48.305  39.314  1.00  0.00     0.000 C 
ENDROOT
BRANCH   1   2
ATOM      2  C   UNL     1     -43.790 -49.304  40.474  1.00  0.00     0.000 C 
BRANCH   2   3
ATOM      3  C   UNL     1     -44.410 -50.673  40.155  1.00  0.00     0.000 C 
BRANCH   3   4
ATOM      4  C   UNL     1     -45.308 -51.151  41.306  1.00  0.00     0.006 C 
BRANCH   4   5
ATOM      5  C   UNL     1     -46.786 -50.816  41.067  1.00  0.00     0.053 C 
BRANCH   5   6
ATOM      6  C   UNL     1     -47.691 -51.668  41.903  1.00  0.00     0.041 C 
ATOM      7  O   UNL     1     -47.219 -52.353  42.849  1.00  0.00    -0.550 OA
ATOM      8  O   UNL     1     -49.049 -51.731  41.619  1.00  0.00    -0.550 OA
ENDBRANCH   5   6
ENDBRANCH   4   5
ENDBRANCH   3   4
ENDBRANCH   2   3
ENDBRANCH   1   2
BRANCH   1   9
ATOM      9  C   UNL     1     -43.513 -48.911  37.960  1.00  0.00     0.000 C 
BRANCH   9  10
ATOM     10  C   UNL     1     -44.632 -48.819  36.909  1.00  0.00    -0.000 C 
BRANCH  10  11
ATOM     11  C   UNL     1     -45.996 -48.470  37.531  1.00  0.00    -0.000 C 
BRANCH  11  12
ATOM     12  C   UNL     1     -47.007 -49.628  37.441  1.00  0.00    -0.000 C 
BRANCH  12  13
ATOM     13  C   UNL     1     -46.400 -50.994  37.073  1.00  0.00    -0.003 C 
ATOM     14  C   UNL     1     -47.206 -52.173  37.614  1.00  0.00     0.004 C 
ENDBRANCH  12  13
ENDBRANCH  11  12
ENDBRANCH  10  11
ENDBRANCH   9  10
ENDBRANCH   1   9
TORSDOF 10
ENDMDL
MODEL 8
REMARK VINA RESULT:    -3.549      1.702      3.217
REMARK INTER + INTRA:          -6.746
REMARK INTER:                  -5.694
REMARK INTRA:                  -1.052
REMARK UNBOUND:                -1.123
REMARK SMILES CCCCCCCCCCCC(=O)[O-]
REMARK SMILES IDX 7 1 8 2 9 3 10 4 11 5 12 6 13 7 14 8 6 9 5 10 4 11 3 12 2 13
REMARK SMILES IDX 1 14
REMARK H PARENT
REMARK Flexibility Score: inf
ROOT
ATOM      1  C   UNL     1     -46.087 -51.928  38.559  1.00  0.00     0.000 C 
ENDROOT
BRANCH   1   2
ATOM      2  C   UNL     1     -46.806 -50.575  38.689  1.00  0.00     0.000 C 
BRANCH   2   3
ATOM      3  C   UNL     1     -46.846 -49.794  37.367  1.00  0.00     0.000 C 
BRANCH   3   4
ATOM      4  C   UNL     1     -45.999 -48.516  37.459  1.00  0.00     0.006 C 
BRANCH   4   5
ATOM      5  C   UNL     1     -44.524 -48.770  37.120  1.00  0.00     0.053 C 
BRANCH   5   6
ATOM      6  C   UNL     1     -43.630 -48.494  38.290  1.00  0.00     0.041 C 
ATOM      7  O   UNL     1     -44.111 -48.420  39.451  1.00  0.00    -0.550 OA
ATOM      8  O   UNL     1     -42.270 -48.285  38.094  1.00  0.00    -0.550 OA
ENDBRANCH   5   6
ENDBRANCH   4   5
ENDBRANCH   3   4
ENDBRANCH   2   3
ENDBRANCH   1   2
BRANCH   1   9
ATOM      9  C   UNL     1     -46.828 -52.904  37.628  1.00  0.00     0.000 C 
BRANCH   9  10
ATOM     10  C   UNL     1     -48.076 -53.515  38.288  1.00  0.00    -0.000 C 
BRANCH  10  11
ATOM     11  C   UNL     1     -47.724 -54.590  39.331  1.00  0.00    -0.000 C 
BRANCH  11  12
ATOM     12  C   UNL     1     -48.065 -54.160  40.769  1.00  0.00    -0.000 C 
BRANCH  12  13
ATOM     13  C   UNL     1     -49.184 -53.110  40.886  1.00  0.00    -0.003 C 
ATOM     14  C   UNL     1     -48.768 -51.879  41.689  1.00  0.00     0.004 C 
ENDBRANCH  12  13
ENDBRANCH  11  12
ENDBRANCH  10  11
ENDBRANCH   9  10
ENDBRANCH   1   9
TORSDOF 10
ENDMDL
MODEL 9
REMARK VINA RESULT:    -3.519      1.166      2.762
REMARK INTER + INTRA:          -6.700
REMARK INTER:                  -5.408
REMARK INTRA:                  -1.292
REMARK UNBOUND:                -1.123
REMARK SMILES CCCCCCCCCCCC(=O)[O-]
REMARK SMILES IDX 7 1 8 2 9 3 10 4 11 5 12 6 13 7 14 8 6 9 5 10 4 11 3 12 2 13
REMARK SMILES IDX 1 14
REMARK H PARENT
REMARK Flexibility Score: inf
ROOT
ATOM      1  C   UNL     1     -45.730 -51.264  40.309  1.00  0.00     0.000 C 
ENDROOT
BRANCH   1   2
ATOM      2  C   UNL     1     -45.631 -51.840  38.888  1.00  0.00     0.000 C 
BRANCH   2   3
ATOM      3  C   UNL     1     -46.838 -51.472  38.011  1.00  0.00     0.000 C 
BRANCH   3   4
ATOM      4  C   UNL     1     -46.439 -50.463  36.924  1.00  0.00     0.006 C 
BRANCH   4   5
ATOM      5  C   UNL     1     -46.536 -49.012  37.413  1.00  0.00     0.053 C 
BRANCH   5   6
ATOM      6  C   UNL     1     -45.184 -48.425  37.682  1.00  0.00     0.041 C 
ATOM      7  O   UNL     1     -44.942 -47.875  38.788  1.00  0.00    -0.550 OA
ATOM      8  O   UNL     1     -44.202 -48.456  36.699  1.00  0.00    -0.550 OA
ENDBRANCH   5   6
ENDBRANCH   4   5
ENDBRANCH   3   4
ENDBRANCH   2   3
ENDBRANCH   1   2
BRANCH   1   9
ATOM      9  C   UNL     1     -47.183 -50.989  40.736  1.00  0.00     0.000 C 
BRANCH   9  10
ATOM     10  C   UNL     1     -47.562 -51.717  42.037  1.00  0.00    -0.000 C 
BRANCH  10  11
ATOM     11  C   UNL     1     -48.763 -52.662  41.853  1.00  0.00    -0.000 C 
BRANCH  11  12
ATOM     12  C   UNL     1     -48.777 -53.347  40.474  1.00  0.00    -0.000 C 
BRANCH  12  13
ATOM     13  C   UNL     1     -47.917 -54.619  40.371  1.00  0.00    -0.003 C 
ATOM     14  C   UNL     1     -47.581 -54.999  38.930  1.00  0.00     0.004 C 
ENDBRANCH  12  13
ENDBRANCH  11  12
ENDBRANCH  10  11
ENDBRANCH   9  10
ENDBRANCH   1   9
TORSDOF 10
ENDMDL
