MODEL 1
REMARK VINA RESULT:    -7.933      0.000      0.000
REMARK INTER + INTRA:          -9.834
REMARK INTER:                  -9.556
REMARK INTRA:                  -0.278
REMARK UNBOUND:                -0.278
REMARK SMILES Oc1cc(O)c2cc(O)c(-c3ccc(O)c(O)c3)[o+]c2c1.[Cl-]
REMARK SMILES IDX 10 1 19 2 20 3 21 4 2 5 3 6 4 7 6 8 7 9 8 10 11 11 12 12
REMARK SMILES IDX 13 13 14 14 18 15 16 16 15 17 17 19 9 21 1 23 5 25
REMARK H PARENT 15 18 17 20 9 22 1 24 5 26
REMARK Flexibility Score: inf
ROOT
ATOM      1  C   UNL     1       0.694 -26.769  -0.090  1.00  0.00     0.402 A 
ATOM      2  O   UNL     1       1.133 -27.366   1.014  1.00  0.00    -0.202 OA
ATOM      3  C   UNL     1       2.270 -28.054   1.069  1.00  0.00     0.368 A 
ATOM      4  C   UNL     1       2.649 -28.643   2.277  1.00  0.00     0.162 A 
ATOM      5  C   UNL     1       3.841 -29.370   2.364  1.00  0.00     0.128 A 
ATOM      6  C   UNL     1       4.655 -29.506   1.237  1.00  0.00     0.093 A 
ATOM      7  C   UNL     1       4.297 -28.924   0.015  1.00  0.00     0.136 A 
ATOM      8  C   UNL     1       3.087 -28.188  -0.079  1.00  0.00     0.125 A 
ATOM      9  C   UNL     1       2.642 -27.582  -1.265  1.00  0.00     0.078 A 
ATOM     10  C   UNL     1       1.435 -26.876  -1.281  1.00  0.00     0.223 A 
ENDROOT
BRANCH   1  11
ATOM     11  C   UNL     1      -0.584 -26.023  -0.022  1.00  0.00     0.087 A 
ATOM     12  C   UNL     1      -1.821 -26.689   0.030  1.00  0.00     0.022 A 
ATOM     13  C   UNL     1      -3.014 -25.962   0.070  1.00  0.00     0.051 A 
ATOM     14  C   UNL     1      -2.990 -24.562   0.047  1.00  0.00     0.157 A 
ATOM     15  C   UNL     1      -0.567 -24.618  -0.066  1.00  0.00     0.068 A 
ATOM     16  C   UNL     1      -1.760 -23.888  -0.025  1.00  0.00     0.158 A 
BRANCH  14  17
ATOM     17  O   UNL     1      -4.182 -23.841   0.089  1.00  0.00    -0.504 OA
ATOM     18  H   UNL     1      -4.274 -22.940  -0.365  1.00  0.00     0.293 HD
ENDBRANCH  14  17
BRANCH  16  19
ATOM     19  O   UNL     1      -1.703 -22.495  -0.057  1.00  0.00    -0.504 OA
ATOM     20  H   UNL     1      -2.072 -21.924   0.693  1.00  0.00     0.293 HD
ENDBRANCH  16  19
ENDBRANCH   1  11
BRANCH  10  21
ATOM     21  O   UNL     1       0.968 -26.318  -2.471  1.00  0.00    -0.500 OA
ATOM     22  H   UNL     1       0.405 -25.475  -2.479  1.00  0.00     0.294 HD
ENDBRANCH  10  21
BRANCH   5  23
ATOM     23  O   UNL     1       4.227 -29.961   3.564  1.00  0.00    -0.507 OA
ATOM     24  H   UNL     1       3.590 -30.027   4.351  1.00  0.00     0.293 HD
ENDBRANCH   5  23
BRANCH   7  25
ATOM     25  O   UNL     1       5.168 -29.104  -1.064  1.00  0.00    -0.507 OA
ATOM     26  H   UNL     1       4.873 -29.218  -2.022  1.00  0.00     0.293 HD
ENDBRANCH   7  25
TORSDOF 6
ENDMDL
MODEL 2
REMARK VINA RESULT:    -7.856      1.362      2.027
REMARK INTER + INTRA:          -9.741
REMARK INTER:                  -9.539
REMARK INTRA:                  -0.202
REMARK UNBOUND:                -0.278
REMARK SMILES Oc1cc(O)c2cc(O)c(-c3ccc(O)c(O)c3)[o+]c2c1.[Cl-]
REMARK SMILES IDX 10 1 19 2 20 3 21 4 2 5 3 6 4 7 6 8 7 9 8 10 11 11 12 12
REMARK SMILES IDX 13 13 14 14 18 15 16 16 15 17 17 19 9 21 1 23 5 25
REMARK H PARENT 15 18 17 20 9 22 1 24 5 26
REMARK Flexibility Score: inf
ROOT
ATOM      1  C   UNL     1      -0.134 -26.468  -0.346  1.00  0.00     0.402 A 
ATOM      2  O   UNL     1       0.499 -27.201   0.565  1.00  0.00    -0.202 OA
ATOM      3  C   UNL     1       1.702 -27.732   0.368  1.00  0.00     0.368 A 
ATOM      4  C   UNL     1       2.288 -28.485   1.388  1.00  0.00     0.162 A 
ATOM      5  C   UNL     1       3.553 -29.052   1.208  1.00  0.00     0.128 A 
ATOM      6  C   UNL     1       4.234 -28.863   0.003  1.00  0.00     0.093 A 
ATOM      7  C   UNL     1       3.669 -28.112  -1.034  1.00  0.00     0.136 A 
ATOM      8  C   UNL     1       2.383 -27.537  -0.857  1.00  0.00     0.125 A 
ATOM      9  C   UNL     1       1.733 -26.780  -1.847  1.00  0.00     0.078 A 
ATOM     10  C   UNL     1       0.464 -26.249  -1.601  1.00  0.00     0.223 A 
ENDROOT
BRANCH   1  11
ATOM     11  C   UNL     1      -1.468 -25.923  -0.003  1.00  0.00     0.087 A 
ATOM     12  C   UNL     1      -1.707 -24.538   0.031  1.00  0.00     0.022 A 
ATOM     13  C   UNL     1      -2.968 -24.047   0.380  1.00  0.00     0.051 A 
ATOM     14  C   UNL     1      -4.003 -24.929   0.714  1.00  0.00     0.157 A 
ATOM     15  C   UNL     1      -2.504 -26.803   0.353  1.00  0.00     0.068 A 
ATOM     16  C   UNL     1      -3.768 -26.314   0.702  1.00  0.00     0.158 A 
BRANCH  14  17
ATOM     17  O   UNL     1      -5.260 -24.436   1.060  1.00  0.00    -0.504 OA
ATOM     18  H   UNL     1      -5.438 -24.027   1.970  1.00  0.00     0.293 HD
ENDBRANCH  14  17
BRANCH  16  19
ATOM     19  O   UNL     1      -4.775 -27.219   1.036  1.00  0.00    -0.504 OA
ATOM     20  H   UNL     1      -4.571 -28.134   1.420  1.00  0.00     0.293 HD
ENDBRANCH  16  19
ENDBRANCH   1  11
BRANCH  10  21
ATOM     21  O   UNL     1      -0.203 -25.541  -2.600  1.00  0.00    -0.500 OA
ATOM     22  H   UNL     1      -1.136 -25.795  -2.903  1.00  0.00     0.294 HD
ENDBRANCH  10  21
BRANCH   5  23
ATOM     23  O   UNL     1       4.145 -29.805   2.220  1.00  0.00    -0.507 OA
ATOM     24  H   UNL     1       5.031 -29.535   2.631  1.00  0.00     0.293 HD
ENDBRANCH   5  23
BRANCH   7  25
ATOM     25  O   UNL     1       4.416 -27.968  -2.207  1.00  0.00    -0.507 OA
ATOM     26  H   UNL     1       5.422 -27.889  -2.236  1.00  0.00     0.293 HD
ENDBRANCH   7  25
TORSDOF 6
ENDMDL
MODEL 3
REMARK VINA RESULT:    -7.705      2.422      6.824
REMARK INTER + INTRA:          -9.560
REMARK INTER:                  -9.487
REMARK INTRA:                  -0.073
REMARK UNBOUND:                -0.278
REMARK SMILES Oc1cc(O)c2cc(O)c(-c3ccc(O)c(O)c3)[o+]c2c1.[Cl-]
REMARK SMILES IDX 10 1 19 2 20 3 21 4 2 5 3 6 4 7 6 8 7 9 8 10 11 11 12 12
REMARK SMILES IDX 13 13 14 14 18 15 16 16 15 17 17 19 9 21 1 23 5 25
REMARK H PARENT 15 18 17 20 9 22 1 24 5 26
REMARK Flexibility Score: inf
ROOT
ATOM      1  C   UNL     1       3.375 -29.181   1.773  1.00  0.00     0.402 A 
ATOM      2  O   UNL     1       2.273 -28.495   1.483  1.00  0.00    -0.202 OA
ATOM      3  C   UNL     1       2.077 -27.888   0.316  1.00  0.00     0.368 A 
ATOM      4  C   UNL     1       0.885 -27.193   0.104  1.00  0.00     0.162 A 
ATOM      5  C   UNL     1       0.652 -26.548  -1.115  1.00  0.00     0.128 A 
ATOM      6  C   UNL     1       1.617 -26.600  -2.124  1.00  0.00     0.093 A 
ATOM      7  C   UNL     1       2.819 -27.290  -1.936  1.00  0.00     0.136 A 
ATOM      8  C   UNL     1       3.062 -27.944  -0.700  1.00  0.00     0.125 A 
ATOM      9  C   UNL     1       4.244 -28.648  -0.417  1.00  0.00     0.078 A 
ATOM     10  C   UNL     1       4.413 -29.264   0.827  1.00  0.00     0.223 A 
ENDROOT
BRANCH   1  11
ATOM     11  C   UNL     1       3.470 -29.822   3.105  1.00  0.00     0.087 A 
ATOM     12  C   UNL     1       3.821 -31.176   3.244  1.00  0.00     0.022 A 
ATOM     13  C   UNL     1       3.882 -31.764   4.510  1.00  0.00     0.051 A 
ATOM     14  C   UNL     1       3.580 -31.014   5.654  1.00  0.00     0.157 A 
ATOM     15  C   UNL     1       3.148 -29.079   4.254  1.00  0.00     0.068 A 
ATOM     16  C   UNL     1       3.209 -29.665   5.523  1.00  0.00     0.158 A 
BRANCH  14  17
ATOM     17  O   UNL     1       3.644 -31.603   6.915  1.00  0.00    -0.504 OA
ATOM     18  H   UNL     1       3.013 -32.349   7.185  1.00  0.00     0.293 HD
ENDBRANCH  14  17
BRANCH  16  19
ATOM     19  O   UNL     1       2.895 -28.893   6.641  1.00  0.00    -0.504 OA
ATOM     20  H   UNL     1       3.158 -29.172   7.579  1.00  0.00     0.293 HD
ENDBRANCH  16  19
ENDBRANCH   1  11
BRANCH  10  21
ATOM     21  O   UNL     1       5.606 -29.920   1.126  1.00  0.00    -0.500 OA
ATOM     22  H   UNL     1       6.380 -29.443   1.574  1.00  0.00     0.294 HD
ENDBRANCH  10  21
BRANCH   5  23
ATOM     23  O   UNL     1      -0.534 -25.852  -1.335  1.00  0.00    -0.507 OA
ATOM     24  H   UNL     1      -1.403 -26.133  -0.894  1.00  0.00     0.293 HD
ENDBRANCH   5  23
BRANCH   7  25
ATOM     25  O   UNL     1       3.731 -27.297  -2.996  1.00  0.00    -0.507 OA
ATOM     26  H   UNL     1       3.543 -27.689  -3.907  1.00  0.00     0.293 HD
ENDBRANCH   7  25
TORSDOF 6
ENDMDL
MODEL 4
REMARK VINA RESULT:    -7.334      1.869      2.980
REMARK INTER + INTRA:          -9.112
REMARK INTER:                  -9.363
REMARK INTRA:                   0.251
REMARK UNBOUND:                -0.278
REMARK SMILES Oc1cc(O)c2cc(O)c(-c3ccc(O)c(O)c3)[o+]c2c1.[Cl-]
REMARK SMILES IDX 10 1 19 2 20 3 21 4 2 5 3 6 4 7 6 8 7 9 8 10 11 11 12 12
REMARK SMILES IDX 13 13 14 14 18 15 16 16 15 17 17 19 9 21 1 23 5 25
REMARK H PARENT 15 18 17 20 9 22 1 24 5 26
REMARK Flexibility Score: inf
ROOT
ATOM      1  C   UNL     1       2.552 -28.117   0.394  1.00  0.00     0.402 A 
ATOM      2  O   UNL     1       2.484 -28.345   1.703  1.00  0.00    -0.202 OA
ATOM      3  C   UNL     1       3.416 -29.011   2.378  1.00  0.00     0.368 A 
ATOM      4  C   UNL     1       3.257 -29.197   3.753  1.00  0.00     0.162 A 
ATOM      5  C   UNL     1       4.224 -29.891   4.487  1.00  0.00     0.128 A 
ATOM      6  C   UNL     1       5.353 -30.400   3.842  1.00  0.00     0.093 A 
ATOM      7  C   UNL     1       5.536 -30.226   2.465  1.00  0.00     0.136 A 
ATOM      8  C   UNL     1       4.557 -29.525   1.715  1.00  0.00     0.125 A 
ATOM      9  C   UNL     1       4.650 -29.315   0.329  1.00  0.00     0.078 A 
ATOM     10  C   UNL     1       3.641 -28.617  -0.343  1.00  0.00     0.223 A 
ENDROOT
BRANCH   1  11
ATOM     11  C   UNL     1       1.455 -27.353  -0.242  1.00  0.00     0.087 A 
ATOM     12  C   UNL     1       1.652 -26.647  -1.441  1.00  0.00     0.022 A 
ATOM     13  C   UNL     1       0.607 -25.914  -2.010  1.00  0.00     0.051 A 
ATOM     14  C   UNL     1      -0.645 -25.864  -1.383  1.00  0.00     0.157 A 
ATOM     15  C   UNL     1       0.203 -27.283   0.393  1.00  0.00     0.068 A 
ATOM     16  C   UNL     1      -0.845 -26.551  -0.174  1.00  0.00     0.158 A 
BRANCH  14  17
ATOM     17  O   UNL     1      -1.685 -25.133  -1.954  1.00  0.00    -0.504 OA
ATOM     18  H   UNL     1      -2.265 -24.513  -1.401  1.00  0.00     0.293 HD
ENDBRANCH  14  17
BRANCH  16  19
ATOM     19  O   UNL     1      -2.078 -26.515   0.478  1.00  0.00    -0.504 OA
ATOM     20  H   UNL     1      -2.360 -27.234   1.134  1.00  0.00     0.293 HD
ENDBRANCH  16  19
ENDBRANCH   1  11
BRANCH  10  21
ATOM     21  O   UNL     1       3.708 -28.452  -1.726  1.00  0.00    -0.500 OA
ATOM     22  H   UNL     1       3.188 -27.725  -2.202  1.00  0.00     0.294 HD
ENDBRANCH  10  21
BRANCH   5  23
ATOM     23  O   UNL     1       4.073 -30.082   5.858  1.00  0.00    -0.507 OA
ATOM     24  H   UNL     1       4.717 -30.658   6.387  1.00  0.00     0.293 HD
ENDBRANCH   5  23
BRANCH   7  25
ATOM     25  O   UNL     1       6.695 -30.764   1.897  1.00  0.00    -0.507 OA
ATOM     26  H   UNL     1       7.611 -30.344   1.965  1.00  0.00     0.293 HD
ENDBRANCH   7  25
TORSDOF 6
ENDMDL
MODEL 5
REMARK VINA RESULT:    -7.154      2.340      4.432
REMARK INTER + INTRA:          -8.896
REMARK INTER:                  -9.260
REMARK INTRA:                   0.365
REMARK UNBOUND:                -0.278
REMARK SMILES Oc1cc(O)c2cc(O)c(-c3ccc(O)c(O)c3)[o+]c2c1.[Cl-]
REMARK SMILES IDX 10 1 19 2 20 3 21 4 2 5 3 6 4 7 6 8 7 9 8 10 11 11 12 12
REMARK SMILES IDX 13 13 14 14 18 15 16 16 15 17 17 19 9 21 1 23 5 25
REMARK H PARENT 15 18 17 20 9 22 1 24 5 26
REMARK Flexibility Score: inf
ROOT
ATOM      1  C   UNL     1       3.425 -28.813   1.385  1.00  0.00     0.402 A 
ATOM      2  O   UNL     1       2.961 -29.029   2.612  1.00  0.00    -0.202 OA
ATOM      3  C   UNL     1       3.650 -29.674   3.550  1.00  0.00     0.368 A 
ATOM      4  C   UNL     1       3.078 -29.849   4.812  1.00  0.00     0.162 A 
ATOM      5  C   UNL     1       3.782 -30.521   5.817  1.00  0.00     0.128 A 
ATOM      6  C   UNL     1       5.061 -31.018   5.557  1.00  0.00     0.093 A 
ATOM      7  C   UNL     1       5.655 -30.855   4.300  1.00  0.00     0.136 A 
ATOM      8  C   UNL     1       4.945 -30.176   3.276  1.00  0.00     0.125 A 
ATOM      9  C   UNL     1       5.456 -29.978   1.982  1.00  0.00     0.078 A 
ATOM     10  C   UNL     1       4.694 -29.303   1.024  1.00  0.00     0.223 A 
ENDROOT
BRANCH   1  11
ATOM     11  C   UNL     1       2.566 -28.072   0.432  1.00  0.00     0.087 A 
ATOM     12  C   UNL     1       3.068 -27.599  -0.792  1.00  0.00     0.022 A 
ATOM     13  C   UNL     1       2.244 -26.882  -1.664  1.00  0.00     0.051 A 
ATOM     14  C   UNL     1       0.913 -26.616  -1.321  1.00  0.00     0.157 A 
ATOM     15  C   UNL     1       1.236 -27.785   0.781  1.00  0.00     0.068 A 
ATOM     16  C   UNL     1       0.408 -27.068  -0.090  1.00  0.00     0.158 A 
BRANCH  14  17
ATOM     17  O   UNL     1       0.093 -25.903  -2.194  1.00  0.00    -0.504 OA
ATOM     18  H   UNL     1      -0.209 -24.958  -1.986  1.00  0.00     0.293 HD
ENDBRANCH  14  17
BRANCH  16  19
ATOM     19  O   UNL     1      -0.911 -26.813   0.285  1.00  0.00    -0.504 OA
ATOM     20  H   UNL     1      -1.384 -25.953   0.036  1.00  0.00     0.293 HD
ENDBRANCH  16  19
ENDBRANCH   1  11
BRANCH  10  21
ATOM     21  O   UNL     1       5.180 -29.150  -0.274  1.00  0.00    -0.500 OA
ATOM     22  H   UNL     1       5.297 -29.941  -0.896  1.00  0.00     0.294 HD
ENDBRANCH  10  21
BRANCH   5  23
ATOM     23  O   UNL     1       3.220 -30.700   7.079  1.00  0.00    -0.507 OA
ATOM     24  H   UNL     1       2.224 -30.589   7.236  1.00  0.00     0.293 HD
ENDBRANCH   5  23
BRANCH   7  25
ATOM     25  O   UNL     1       6.939 -31.379   4.122  1.00  0.00    -0.507 OA
ATOM     26  H   UNL     1       7.785 -30.945   4.462  1.00  0.00     0.293 HD
ENDBRANCH   7  25
TORSDOF 6
ENDMDL
MODEL 6
REMARK VINA RESULT:    -7.085      6.611      7.905
REMARK INTER + INTRA:          -8.812
REMARK INTER:                  -8.467
REMARK INTRA:                  -0.346
REMARK UNBOUND:                -0.278
REMARK SMILES Oc1cc(O)c2cc(O)c(-c3ccc(O)c(O)c3)[o+]c2c1.[Cl-]
REMARK SMILES IDX 10 1 19 2 20 3 21 4 2 5 3 6 4 7 6 8 7 9 8 10 11 11 12 12
REMARK SMILES IDX 13 13 14 14 18 15 16 16 15 17 17 19 9 21 1 23 5 25
REMARK H PARENT 15 18 17 20 9 22 1 24 5 26
REMARK Flexibility Score: inf
ROOT
ATOM      1  C   UNL     1       5.467 -30.296   4.492  1.00  0.00     0.402 A 
ATOM      2  O   UNL     1       5.511 -30.030   3.190  1.00  0.00    -0.202 OA
ATOM      3  C   UNL     1       6.643 -29.808   2.528  1.00  0.00     0.368 A 
ATOM      4  C   UNL     1       6.587 -29.540   1.158  1.00  0.00     0.162 A 
ATOM      5  C   UNL     1       7.762 -29.305   0.437  1.00  0.00     0.128 A 
ATOM      6  C   UNL     1       8.996 -29.339   1.090  1.00  0.00     0.093 A 
ATOM      7  C   UNL     1       9.079 -29.606   2.462  1.00  0.00     0.136 A 
ATOM      8  C   UNL     1       7.889 -29.842   3.199  1.00  0.00     0.125 A 
ATOM      9  C   UNL     1       7.874 -30.104   4.579  1.00  0.00     0.078 A 
ATOM     10  C   UNL     1       6.660 -30.323   5.238  1.00  0.00     0.223 A 
ENDROOT
BRANCH   1  11
ATOM     11  C   UNL     1       4.145 -30.536   5.114  1.00  0.00     0.087 A 
ATOM     12  C   UNL     1       3.556 -31.813   5.114  1.00  0.00     0.022 A 
ATOM     13  C   UNL     1       2.296 -32.010   5.687  1.00  0.00     0.051 A 
ATOM     14  C   UNL     1       1.601 -30.935   6.254  1.00  0.00     0.157 A 
ATOM     15  C   UNL     1       3.434 -29.457   5.666  1.00  0.00     0.068 A 
ATOM     16  C   UNL     1       2.173 -29.652   6.240  1.00  0.00     0.158 A 
BRANCH  14  17
ATOM     17  O   UNL     1       0.346 -31.136   6.825  1.00  0.00    -0.504 OA
ATOM     18  H   UNL     1      -0.507 -30.908   6.328  1.00  0.00     0.293 HD
ENDBRANCH  14  17
BRANCH  16  19
ATOM     19  O   UNL     1       1.503 -28.558   6.790  1.00  0.00    -0.504 OA
ATOM     20  H   UNL     1       0.801 -28.043   6.273  1.00  0.00     0.293 HD
ENDBRANCH  16  19
ENDBRANCH   1  11
BRANCH  10  21
ATOM     21  O   UNL     1       6.641 -30.533   6.616  1.00  0.00    -0.500 OA
ATOM     22  H   UNL     1       6.162 -31.325   7.028  1.00  0.00     0.294 HD
ENDBRANCH  10  21
BRANCH   5  23
ATOM     23  O   UNL     1       7.716 -29.037  -0.929  1.00  0.00    -0.507 OA
ATOM     24  H   UNL     1       7.852 -29.769  -1.617  1.00  0.00     0.293 HD
ENDBRANCH   5  23
BRANCH   7  25
ATOM     25  O   UNL     1      10.352 -29.625   3.039  1.00  0.00    -0.507 OA
ATOM     26  H   UNL     1      10.713 -28.905   3.648  1.00  0.00     0.293 HD
ENDBRANCH   7  25
TORSDOF 6
ENDMDL
MODEL 7
REMARK VINA RESULT:    -7.022      1.427      6.892
REMARK INTER + INTRA:          -8.736
REMARK INTER:                  -9.129
REMARK INTRA:                   0.392
REMARK UNBOUND:                -0.278
REMARK SMILES Oc1cc(O)c2cc(O)c(-c3ccc(O)c(O)c3)[o+]c2c1.[Cl-]
REMARK SMILES IDX 10 1 19 2 20 3 21 4 2 5 3 6 4 7 6 8 7 9 8 10 11 11 12 12
REMARK SMILES IDX 13 13 14 14 18 15 16 16 15 17 17 19 9 21 1 23 5 25
REMARK H PARENT 15 18 17 20 9 22 1 24 5 26
REMARK Flexibility Score: inf
ROOT
ATOM      1  C   UNL     1       0.551 -26.907  -0.365  1.00  0.00     0.402 A 
ATOM      2  O   UNL     1      -0.567 -26.807   0.349  1.00  0.00    -0.202 OA
ATOM      3  C   UNL     1      -1.638 -26.133  -0.061  1.00  0.00     0.368 A 
ATOM      4  C   UNL     1      -2.768 -26.089   0.758  1.00  0.00     0.162 A 
ATOM      5  C   UNL     1      -3.908 -25.390   0.350  1.00  0.00     0.128 A 
ATOM      6  C   UNL     1      -3.916 -24.734  -0.883  1.00  0.00     0.093 A 
ATOM      7  C   UNL     1      -2.797 -24.764  -1.723  1.00  0.00     0.136 A 
ATOM      8  C   UNL     1      -1.636 -25.470  -1.312  1.00  0.00     0.125 A 
ATOM      9  C   UNL     1      -0.463 -25.543  -2.082  1.00  0.00     0.078 A 
ATOM     10  C   UNL     1       0.643 -26.254  -1.608  1.00  0.00     0.223 A 
ENDROOT
BRANCH   1  11
ATOM     11  C   UNL     1       1.672 -27.695   0.196  1.00  0.00     0.087 A 
ATOM     12  C   UNL     1       1.761 -27.965   1.573  1.00  0.00     0.022 A 
ATOM     13  C   UNL     1       2.842 -28.692   2.082  1.00  0.00     0.051 A 
ATOM     14  C   UNL     1       3.853 -29.148   1.227  1.00  0.00     0.157 A 
ATOM     15  C   UNL     1       2.699 -28.137  -0.654  1.00  0.00     0.068 A 
ATOM     16  C   UNL     1       3.781 -28.866  -0.148  1.00  0.00     0.158 A 
BRANCH  14  17
ATOM     17  O   UNL     1       4.927 -29.874   1.737  1.00  0.00    -0.504 OA
ATOM     18  H   UNL     1       4.918 -30.244   2.680  1.00  0.00     0.293 HD
ENDBRANCH  14  17
BRANCH  16  19
ATOM     19  O   UNL     1       4.776 -29.299  -1.025  1.00  0.00    -0.504 OA
ATOM     20  H   UNL     1       5.499 -29.949  -0.740  1.00  0.00     0.293 HD
ENDBRANCH  16  19
ENDBRANCH   1  11
BRANCH  10  21
ATOM     21  O   UNL     1       1.824 -26.285  -2.349  1.00  0.00    -0.500 OA
ATOM     22  H   UNL     1       2.669 -26.711  -1.988  1.00  0.00     0.294 HD
ENDBRANCH  10  21
BRANCH   5  23
ATOM     23  O   UNL     1      -5.039 -25.340   1.161  1.00  0.00    -0.507 OA
ATOM     24  H   UNL     1      -5.973 -25.364   0.770  1.00  0.00     0.293 HD
ENDBRANCH   5  23
BRANCH   7  25
ATOM     25  O   UNL     1      -2.887 -24.084  -2.941  1.00  0.00    -0.507 OA
ATOM     26  H   UNL     1      -3.620 -24.227  -3.621  1.00  0.00     0.293 HD
ENDBRANCH   7  25
TORSDOF 6
ENDMDL
MODEL 8
REMARK VINA RESULT:    -6.904      1.777      3.405
REMARK INTER + INTRA:          -8.594
REMARK INTER:                  -8.853
REMARK INTRA:                   0.259
REMARK UNBOUND:                -0.278
REMARK SMILES Oc1cc(O)c2cc(O)c(-c3ccc(O)c(O)c3)[o+]c2c1.[Cl-]
REMARK SMILES IDX 10 1 19 2 20 3 21 4 2 5 3 6 4 7 6 8 7 9 8 10 11 11 12 12
REMARK SMILES IDX 13 13 14 14 18 15 16 16 15 17 17 19 9 21 1 23 5 25
REMARK H PARENT 15 18 17 20 9 22 1 24 5 26
REMARK Flexibility Score: inf
ROOT
ATOM      1  C   UNL     1       0.821 -26.885  -0.713  1.00  0.00     0.402 A 
ATOM      2  O   UNL     1       1.440 -26.610  -1.857  1.00  0.00    -0.202 OA
ATOM      3  C   UNL     1       2.674 -27.020  -2.136  1.00  0.00     0.368 A 
ATOM      4  C   UNL     1       3.240 -26.683  -3.368  1.00  0.00     0.162 A 
ATOM      5  C   UNL     1       4.535 -27.103  -3.688  1.00  0.00     0.128 A 
ATOM      6  C   UNL     1       5.265 -27.863  -2.771  1.00  0.00     0.093 A 
ATOM      7  C   UNL     1       4.720 -28.214  -1.530  1.00  0.00     0.136 A 
ATOM      8  C   UNL     1       3.408 -27.788  -1.199  1.00  0.00     0.125 A 
ATOM      9  C   UNL     1       2.786 -28.080   0.026  1.00  0.00     0.078 A 
ATOM     10  C   UNL     1       1.490 -27.621   0.282  1.00  0.00     0.223 A 
ENDROOT
BRANCH   1  11
ATOM     11  C   UNL     1      -0.559 -26.380  -0.525  1.00  0.00     0.087 A 
ATOM     12  C   UNL     1      -1.450 -26.998   0.370  1.00  0.00     0.022 A 
ATOM     13  C   UNL     1      -2.754 -26.518   0.513  1.00  0.00     0.051 A 
ATOM     14  C   UNL     1      -3.192 -25.424  -0.245  1.00  0.00     0.157 A 
ATOM     15  C   UNL     1      -1.009 -25.296  -1.297  1.00  0.00     0.068 A 
ATOM     16  C   UNL     1      -2.315 -24.813  -1.156  1.00  0.00     0.158 A 
BRANCH  14  17
ATOM     17  O   UNL     1      -4.493 -24.947  -0.098  1.00  0.00    -0.504 OA
ATOM     18  H   UNL     1      -5.015 -24.577  -0.884  1.00  0.00     0.293 HD
ENDBRANCH  14  17
BRANCH  16  19
ATOM     19  O   UNL     1      -2.722 -23.726  -1.930  1.00  0.00    -0.504 OA
ATOM     20  H   UNL     1      -2.838 -22.799  -1.538  1.00  0.00     0.293 HD
ENDBRANCH  16  19
ENDBRANCH   1  11
BRANCH  10  21
ATOM     21  O   UNL     1       0.893 -27.869   1.517  1.00  0.00    -0.500 OA
ATOM     22  H   UNL     1       0.964 -27.212   2.285  1.00  0.00     0.294 HD
ENDBRANCH  10  21
BRANCH   5  23
ATOM     23  O   UNL     1       5.106 -26.772  -4.914  1.00  0.00    -0.507 OA
ATOM     24  H   UNL     1       4.555 -26.742  -5.764  1.00  0.00     0.293 HD
ENDBRANCH   5  23
BRANCH   7  25
ATOM     25  O   UNL     1       5.515 -28.978  -0.671  1.00  0.00    -0.507 OA
ATOM     26  H   UNL     1       5.155 -29.639   0.003  1.00  0.00     0.293 HD
ENDBRANCH   7  25
TORSDOF 6
ENDMDL
MODEL 9
REMARK VINA RESULT:    -6.798      3.405      8.242
REMARK INTER + INTRA:          -8.466
REMARK INTER:                  -8.149
REMARK INTRA:                  -0.318
REMARK UNBOUND:                -0.278
REMARK SMILES Oc1cc(O)c2cc(O)c(-c3ccc(O)c(O)c3)[o+]c2c1.[Cl-]
REMARK SMILES IDX 10 1 19 2 20 3 21 4 2 5 3 6 4 7 6 8 7 9 8 10 11 11 12 12
REMARK SMILES IDX 13 13 14 14 18 15 16 16 15 17 17 19 9 21 1 23 5 25
REMARK H PARENT 15 18 17 20 9 22 1 24 5 26
REMARK Flexibility Score: inf
ROOT
ATOM      1  C   UNL     1       4.358 -29.889   2.555  1.00  0.00     0.402 A 
ATOM      2  O   UNL     1       4.891 -29.647   1.360  1.00  0.00    -0.202 OA
ATOM      3  C   UNL     1       4.269 -28.955   0.410  1.00  0.00     0.368 A 
ATOM      4  C   UNL     1       4.913 -28.751  -0.813  1.00  0.00     0.162 A 
ATOM      5  C   UNL     1       4.283 -28.025  -1.828  1.00  0.00     0.128 A 
ATOM      6  C   UNL     1       3.005 -27.501  -1.618  1.00  0.00     0.093 A 
ATOM      7  C   UNL     1       2.340 -27.691  -0.401  1.00  0.00     0.136 A 
ATOM      8  C   UNL     1       2.974 -28.430   0.632  1.00  0.00     0.125 A 
ATOM      9  C   UNL     1       2.377 -28.682   1.878  1.00  0.00     0.078 A 
ATOM     10  C   UNL     1       3.062 -29.423   2.846  1.00  0.00     0.223 A 
ENDROOT
BRANCH   1  11
ATOM     11  C   UNL     1       5.155 -30.663   3.533  1.00  0.00     0.087 A 
ATOM     12  C   UNL     1       5.227 -32.066   3.474  1.00  0.00     0.022 A 
ATOM     13  C   UNL     1       5.967 -32.776   4.423  1.00  0.00     0.051 A 
ATOM     14  C   UNL     1       6.634 -32.099   5.452  1.00  0.00     0.157 A 
ATOM     15  C   UNL     1       5.810 -29.990   4.579  1.00  0.00     0.068 A 
ATOM     16  C   UNL     1       6.552 -30.699   5.530  1.00  0.00     0.158 A 
BRANCH  14  17
ATOM     17  O   UNL     1       7.373 -32.811   6.395  1.00  0.00    -0.504 OA
ATOM     18  H   UNL     1       7.481 -32.478   7.346  1.00  0.00     0.293 HD
ENDBRANCH  14  17
BRANCH  16  19
ATOM     19  O   UNL     1       7.200 -29.995   6.545  1.00  0.00    -0.504 OA
ATOM     20  H   UNL     1       7.595 -29.075   6.394  1.00  0.00     0.293 HD
ENDBRANCH  16  19
ENDBRANCH   1  11
BRANCH  10  21
ATOM     21  O   UNL     1       2.451 -29.716   4.064  1.00  0.00    -0.500 OA
ATOM     22  H   UNL     1       2.843 -30.394   4.708  1.00  0.00     0.294 HD
ENDBRANCH  10  21
BRANCH   5  23
ATOM     23  O   UNL     1       4.917 -27.817  -3.051  1.00  0.00    -0.507 OA
ATOM     24  H   UNL     1       4.420 -27.917  -3.929  1.00  0.00     0.293 HD
ENDBRANCH   5  23
BRANCH   7  25
ATOM     25  O   UNL     1       1.065 -27.132  -0.270  1.00  0.00    -0.507 OA
ATOM     26  H   UNL     1       0.405 -27.379   0.453  1.00  0.00     0.293 HD
ENDBRANCH   7  25
TORSDOF 6
ENDMDL
