MODEL 1
REMARK VINA RESULT:    -4.277      0.000      0.000
REMARK INTER + INTRA:          -9.240
REMARK INTER:                  -7.528
REMARK INTRA:                  -1.712
REMARK UNBOUND:                -1.712
REMARK SMILES CCCCCCCCCCCCCCC(=O)[O-]
REMARK SMILES IDX 9 1 10 2 11 3 12 4 13 5 14 6 15 7 16 8 17 9 8 10 7 11 6 12
REMARK SMILES IDX 5 13 4 14 3 15 2 16 1 17
REMARK H PARENT
REMARK Flexibility Score: inf
ROOT
ATOM      1  C   UNL     1      -9.785  -8.014 -12.179  1.00  0.00     0.000 C 
ENDROOT
BRANCH   1   2
ATOM      2  C   UNL     1      -9.908  -7.672 -13.674  1.00  0.00     0.000 C 
BRANCH   2   3
ATOM      3  C   UNL     1      -8.606  -7.925 -14.455  1.00  0.00     0.000 C 
BRANCH   3   4
ATOM      4  C   UNL     1      -7.347  -7.254 -13.873  1.00  0.00     0.000 C 
BRANCH   4   5
ATOM      5  C   UNL     1      -7.010  -5.866 -14.451  1.00  0.00     0.006 C 
BRANCH   5   6
ATOM      6  C   UNL     1      -7.725  -4.703 -13.741  1.00  0.00     0.053 C 
BRANCH   6   7
ATOM      7  C   UNL     1      -6.765  -3.703 -13.172  1.00  0.00     0.041 C 
ATOM      8  O   UNL     1      -5.585  -4.042 -12.895  1.00  0.00    -0.550 OA
ATOM      9  O   UNL     1      -7.164  -2.385 -12.980  1.00  0.00    -0.550 OA
ENDBRANCH   6   7
ENDBRANCH   5   6
ENDBRANCH   4   5
ENDBRANCH   3   4
ENDBRANCH   2   3
ENDBRANCH   1   2
BRANCH   1  10
ATOM     10  C   UNL     1     -10.194  -6.844 -11.270  1.00  0.00     0.000 C 
BRANCH  10  11
ATOM     11  C   UNL     1      -9.401  -6.807  -9.955  1.00  0.00    -0.000 C 
BRANCH  11  12
ATOM     12  C   UNL     1      -7.988  -7.371 -10.149  1.00  0.00    -0.000 C 
BRANCH  12  13
ATOM     13  C   UNL     1      -6.980  -6.246 -10.429  1.00  0.00    -0.000 C 
BRANCH  13  14
ATOM     14  C   UNL     1      -7.515  -4.859 -10.039  1.00  0.00    -0.000 C 
BRANCH  14  15
ATOM     15  C   UNL     1      -6.451  -3.984  -9.360  1.00  0.00    -0.000 C 
BRANCH  15  16
ATOM     16  C   UNL     1      -5.489  -4.838  -8.526  1.00  0.00    -0.003 C 
ATOM     17  C   UNL     1      -4.662  -3.974  -7.580  1.00  0.00     0.004 C 
ENDBRANCH  15  16
ENDBRANCH  14  15
ENDBRANCH  13  14
ENDBRANCH  12  13
ENDBRANCH  11  12
ENDBRANCH  10  11
ENDBRANCH   1  10
TORSDOF 13
ENDMDL
MODEL 2
REMARK VINA RESULT:    -4.084      2.072      4.664
REMARK INTER + INTRA:          -8.900
REMARK INTER:                  -7.086
REMARK INTRA:                  -1.814
REMARK UNBOUND:                -1.712
REMARK SMILES CCCCCCCCCCCCCCC(=O)[O-]
REMARK SMILES IDX 9 1 10 2 11 3 12 4 13 5 14 6 15 7 16 8 17 9 8 10 7 11 6 12
REMARK SMILES IDX 5 13 4 14 3 15 2 16 1 17
REMARK H PARENT
REMARK Flexibility Score: inf
ROOT
ATOM      1  C   UNL     1      -9.911  -7.075 -10.008  1.00  0.00     0.000 C 
ENDROOT
BRANCH   1   2
ATOM      2  C   UNL     1      -8.580  -7.813 -10.235  1.00  0.00     0.000 C 
BRANCH   2   3
ATOM      3  C   UNL     1      -7.378  -6.858 -10.349  1.00  0.00     0.000 C 
BRANCH   3   4
ATOM      4  C   UNL     1      -7.715  -5.359 -10.241  1.00  0.00     0.000 C 
BRANCH   4   5
ATOM      5  C   UNL     1      -6.502  -4.408 -10.221  1.00  0.00     0.006 C 
BRANCH   5   6
ATOM      6  C   UNL     1      -6.324  -3.649  -8.895  1.00  0.00     0.053 C 
BRANCH   6   7
ATOM      7  C   UNL     1      -5.174  -4.170  -8.087  1.00  0.00     0.041 C 
ATOM      8  O   UNL     1      -4.437  -3.376  -7.445  1.00  0.00    -0.550 OA
ATOM      9  O   UNL     1      -4.938  -5.538  -8.014  1.00  0.00    -0.550 OA
ENDBRANCH   6   7
ENDBRANCH   5   6
ENDBRANCH   4   5
ENDBRANCH   3   4
ENDBRANCH   2   3
ENDBRANCH   1   2
BRANCH   1  10
ATOM     10  C   UNL     1     -10.815  -7.095 -11.250  1.00  0.00     0.000 C 
BRANCH  10  11
ATOM     11  C   UNL     1     -10.217  -7.908 -12.408  1.00  0.00    -0.000 C 
BRANCH  11  12
ATOM     12  C   UNL     1     -10.561  -7.272 -13.761  1.00  0.00    -0.000 C 
BRANCH  12  13
ATOM     13  C   UNL     1      -9.323  -6.616 -14.391  1.00  0.00    -0.000 C 
BRANCH  13  14
ATOM     14  C   UNL     1      -8.006  -7.238 -13.900  1.00  0.00    -0.000 C 
BRANCH  14  15
ATOM     15  C   UNL     1      -6.824  -6.260 -13.977  1.00  0.00    -0.000 C 
BRANCH  15  16
ATOM     16  C   UNL     1      -7.312  -4.807 -13.937  1.00  0.00    -0.003 C 
ATOM     17  C   UNL     1      -6.176  -3.853 -13.579  1.00  0.00     0.004 C 
ENDBRANCH  15  16
ENDBRANCH  14  15
ENDBRANCH  13  14
ENDBRANCH  12  13
ENDBRANCH  11  12
ENDBRANCH  10  11
ENDBRANCH   1  10
TORSDOF 13
ENDMDL
MODEL 3
REMARK VINA RESULT:    -4.065     13.362     15.547
REMARK INTER + INTRA:          -8.866
REMARK INTER:                  -7.691
REMARK INTRA:                  -1.174
REMARK UNBOUND:                -1.712
REMARK SMILES CCCCCCCCCCCCCCC(=O)[O-]
REMARK SMILES IDX 9 1 10 2 11 3 12 4 13 5 14 6 15 7 16 8 17 9 8 10 7 11 6 12
REMARK SMILES IDX 5 13 4 14 3 15 2 16 1 17
REMARK H PARENT
REMARK Flexibility Score: inf
ROOT
ATOM      1  C   UNL     1       3.716  -1.218 -13.728  1.00  0.00     0.000 C 
ENDROOT
BRANCH   1   2
ATOM      2  C   UNL     1       4.288   0.205 -13.611  1.00  0.00     0.000 C 
BRANCH   2   3
ATOM      3  C   UNL     1       5.686   0.343 -14.242  1.00  0.00     0.000 C 
BRANCH   3   4
ATOM      4  C   UNL     1       6.868   0.173 -13.270  1.00  0.00     0.000 C 
BRANCH   4   5
ATOM      5  C   UNL     1       7.918   1.301 -13.301  1.00  0.00     0.006 C 
BRANCH   5   6
ATOM      6  C   UNL     1       8.844   1.327 -12.072  1.00  0.00     0.053 C 
BRANCH   6   7
ATOM      7  C   UNL     1       8.646   2.551 -11.231  1.00  0.00     0.041 C 
ATOM      8  O   UNL     1       9.087   2.589 -10.052  1.00  0.00    -0.550 OA
ATOM      9  O   UNL     1       8.004   3.664 -11.761  1.00  0.00    -0.550 OA
ENDBRANCH   6   7
ENDBRANCH   5   6
ENDBRANCH   4   5
ENDBRANCH   3   4
ENDBRANCH   2   3
ENDBRANCH   1   2
BRANCH   1  10
ATOM     10  C   UNL     1       4.253  -1.969 -14.957  1.00  0.00     0.000 C 
BRANCH  10  11
ATOM     11  C   UNL     1       5.007  -3.255 -14.585  1.00  0.00    -0.000 C 
BRANCH  11  12
ATOM     12  C   UNL     1       4.903  -3.538 -13.082  1.00  0.00    -0.000 C 
BRANCH  12  13
ATOM     13  C   UNL     1       6.226  -4.096 -12.534  1.00  0.00    -0.000 C 
BRANCH  13  14
ATOM     14  C   UNL     1       7.216  -2.990 -12.136  1.00  0.00    -0.000 C 
BRANCH  14  15
ATOM     15  C   UNL     1       8.394  -3.521 -11.304  1.00  0.00    -0.000 C 
BRANCH  15  16
ATOM     16  C   UNL     1       8.077  -4.907 -10.728  1.00  0.00    -0.003 C 
ATOM     17  C   UNL     1       8.621  -5.051  -9.310  1.00  0.00     0.004 C 
ENDBRANCH  15  16
ENDBRANCH  14  15
ENDBRANCH  13  14
ENDBRANCH  12  13
ENDBRANCH  11  12
ENDBRANCH  10  11
ENDBRANCH   1  10
TORSDOF 13
ENDMDL
MODEL 4
REMARK VINA RESULT:    -3.936      2.102      5.175
REMARK INTER + INTRA:          -8.639
REMARK INTER:                  -7.206
REMARK INTRA:                  -1.434
REMARK UNBOUND:                -1.712
REMARK SMILES CCCCCCCCCCCCCCC(=O)[O-]
REMARK SMILES IDX 9 1 10 2 11 3 12 4 13 5 14 6 15 7 16 8 17 9 8 10 7 11 6 12
REMARK SMILES IDX 5 13 4 14 3 15 2 16 1 17
REMARK H PARENT
REMARK Flexibility Score: inf
ROOT
ATOM      1  C   UNL     1      -6.273  -5.173 -13.650  1.00  0.00     0.000 C 
ENDROOT
BRANCH   1   2
ATOM      2  C   UNL     1      -6.264  -3.634 -13.619  1.00  0.00     0.000 C 
BRANCH   2   3
ATOM      3  C   UNL     1      -6.624  -3.061 -12.236  1.00  0.00     0.000 C 
BRANCH   3   4
ATOM      4  C   UNL     1      -7.106  -4.093 -11.200  1.00  0.00     0.000 C 
BRANCH   4   5
ATOM      5  C   UNL     1      -6.619  -3.859  -9.757  1.00  0.00     0.006 C 
BRANCH   5   6
ATOM      6  C   UNL     1      -6.070  -5.121  -9.069  1.00  0.00     0.053 C 
BRANCH   6   7
ATOM      7  C   UNL     1      -5.063  -4.802  -8.006  1.00  0.00     0.041 C 
ATOM      8  O   UNL     1      -4.741  -3.607  -7.775  1.00  0.00    -0.550 OA
ATOM      9  O   UNL     1      -4.505  -5.823  -7.246  1.00  0.00    -0.550 OA
ENDBRANCH   6   7
ENDBRANCH   5   6
ENDBRANCH   4   5
ENDBRANCH   3   4
ENDBRANCH   2   3
ENDBRANCH   1   2
BRANCH   1  10
ATOM     10  C   UNL     1      -7.505  -5.741 -14.370  1.00  0.00     0.000 C 
BRANCH  10  11
ATOM     11  C   UNL     1      -7.517  -7.277 -14.407  1.00  0.00    -0.000 C 
BRANCH  11  12
ATOM     12  C   UNL     1      -8.940  -7.820 -14.234  1.00  0.00    -0.000 C 
BRANCH  12  13
ATOM     13  C   UNL     1      -9.791  -6.872 -13.375  1.00  0.00    -0.000 C 
BRANCH  13  14
ATOM     14  C   UNL     1     -10.831  -7.615 -12.523  1.00  0.00    -0.000 C 
BRANCH  14  15
ATOM     15  C   UNL     1     -10.252  -8.125 -11.194  1.00  0.00    -0.000 C 
BRANCH  15  16
ATOM     16  C   UNL     1      -9.251  -7.121 -10.612  1.00  0.00    -0.003 C 
ATOM     17  C   UNL     1      -7.862  -7.740 -10.481  1.00  0.00     0.004 C 
ENDBRANCH  15  16
ENDBRANCH  14  15
ENDBRANCH  13  14
ENDBRANCH  12  13
ENDBRANCH  11  12
ENDBRANCH  10  11
ENDBRANCH   1  10
TORSDOF 13
ENDMDL
MODEL 5
REMARK VINA RESULT:    -3.900      0.875      1.290
REMARK INTER + INTRA:          -8.576
REMARK INTER:                  -7.374
REMARK INTRA:                  -1.202
REMARK UNBOUND:                -1.712
REMARK SMILES CCCCCCCCCCCCCCC(=O)[O-]
REMARK SMILES IDX 9 1 10 2 11 3 12 4 13 5 14 6 15 7 16 8 17 9 8 10 7 11 6 12
REMARK SMILES IDX 5 13 4 14 3 15 2 16 1 17
REMARK H PARENT
REMARK Flexibility Score: inf
ROOT
ATOM      1  C   UNL     1     -10.896  -7.474 -11.112  1.00  0.00     0.000 C 
ENDROOT
BRANCH   1   2
ATOM      2  C   UNL     1     -10.376  -8.096 -12.420  1.00  0.00     0.000 C 
BRANCH   2   3
ATOM      3  C   UNL     1     -10.347  -7.095 -13.589  1.00  0.00     0.000 C 
BRANCH   3   4
ATOM      4  C   UNL     1      -8.975  -6.908 -14.263  1.00  0.00     0.000 C 
BRANCH   4   5
ATOM      5  C   UNL     1      -8.475  -5.453 -14.354  1.00  0.00     0.006 C 
BRANCH   5   6
ATOM      6  C   UNL     1      -6.947  -5.308 -14.246  1.00  0.00     0.053 C 
BRANCH   6   7
ATOM      7  C   UNL     1      -6.540  -4.086 -13.481  1.00  0.00     0.041 C 
ATOM      8  O   UNL     1      -5.337  -3.916 -13.149  1.00  0.00    -0.550 OA
ATOM      9  O   UNL     1      -7.483  -3.116 -13.164  1.00  0.00    -0.550 OA
ENDBRANCH   6   7
ENDBRANCH   5   6
ENDBRANCH   4   5
ENDBRANCH   3   4
ENDBRANCH   2   3
ENDBRANCH   1   2
BRANCH   1  10
ATOM     10  C   UNL     1      -9.763  -7.121 -10.136  1.00  0.00     0.000 C 
BRANCH  10  11
ATOM     11  C   UNL     1      -8.468  -7.895 -10.422  1.00  0.00    -0.000 C 
BRANCH  11  12
ATOM     12  C   UNL     1      -7.435  -6.999 -11.116  1.00  0.00    -0.000 C 
BRANCH  12  13
ATOM     13  C   UNL     1      -7.406  -5.599 -10.483  1.00  0.00    -0.000 C 
BRANCH  13  14
ATOM     14  C   UNL     1      -6.379  -5.483  -9.347  1.00  0.00    -0.000 C 
BRANCH  14  15
ATOM     15  C   UNL     1      -6.042  -4.024  -9.000  1.00  0.00    -0.000 C 
BRANCH  15  16
ATOM     16  C   UNL     1      -5.003  -3.954  -7.874  1.00  0.00    -0.003 C 
ATOM     17  C   UNL     1      -4.522  -5.348  -7.482  1.00  0.00     0.004 C 
ENDBRANCH  15  16
ENDBRANCH  14  15
ENDBRANCH  13  14
ENDBRANCH  12  13
ENDBRANCH  11  12
ENDBRANCH  10  11
ENDBRANCH   1  10
TORSDOF 13
ENDMDL
MODEL 6
REMARK VINA RESULT:    -3.841      1.698      4.159
REMARK INTER + INTRA:          -8.473
REMARK INTER:                  -7.171
REMARK INTRA:                  -1.301
REMARK UNBOUND:                -1.712
REMARK SMILES CCCCCCCCCCCCCCC(=O)[O-]
REMARK SMILES IDX 9 1 10 2 11 3 12 4 13 5 14 6 15 7 16 8 17 9 8 10 7 11 6 12
REMARK SMILES IDX 5 13 4 14 3 15 2 16 1 17
REMARK H PARENT
REMARK Flexibility Score: inf
ROOT
ATOM      1  C   UNL     1     -10.624  -7.825 -12.185  1.00  0.00     0.000 C 
ENDROOT
BRANCH   1   2
ATOM      2  C   UNL     1     -11.078  -6.990 -10.975  1.00  0.00     0.000 C 
BRANCH   2   3
ATOM      3  C   UNL     1      -9.907  -6.545 -10.081  1.00  0.00     0.000 C 
BRANCH   3   4
ATOM      4  C   UNL     1      -8.559  -7.231 -10.371  1.00  0.00     0.000 C 
BRANCH   4   5
ATOM      5  C   UNL     1      -7.310  -6.465  -9.893  1.00  0.00     0.006 C 
BRANCH   5   6
ATOM      6  C   UNL     1      -7.170  -5.058 -10.499  1.00  0.00     0.053 C 
BRANCH   6   7
ATOM      7  C   UNL     1      -6.702  -4.047  -9.497  1.00  0.00     0.041 C 
ATOM      8  O   UNL     1      -7.386  -3.014  -9.269  1.00  0.00    -0.550 OA
ATOM      9  O   UNL     1      -5.526  -4.262  -8.787  1.00  0.00    -0.550 OA
ENDBRANCH   6   7
ENDBRANCH   5   6
ENDBRANCH   4   5
ENDBRANCH   3   4
ENDBRANCH   2   3
ENDBRANCH   1   2
BRANCH   1  10
ATOM     10  C   UNL     1     -11.004  -7.176 -13.525  1.00  0.00     0.000 C 
BRANCH  10  11
ATOM     11  C   UNL     1      -9.927  -7.368 -14.604  1.00  0.00    -0.000 C 
BRANCH  11  12
ATOM     12  C   UNL     1      -8.695  -8.079 -14.031  1.00  0.00    -0.000 C 
BRANCH  12  13
ATOM     13  C   UNL     1      -7.452  -7.181 -14.118  1.00  0.00    -0.000 C 
BRANCH  13  14
ATOM     14  C   UNL     1      -7.773  -5.698 -13.877  1.00  0.00    -0.000 C 
BRANCH  14  15
ATOM     15  C   UNL     1      -6.695  -4.759 -14.441  1.00  0.00    -0.000 C 
BRANCH  15  16
ATOM     16  C   UNL     1      -6.068  -3.913 -13.327  1.00  0.00    -0.003 C 
ATOM     17  C   UNL     1      -6.970  -2.742 -12.950  1.00  0.00     0.004 C 
ENDBRANCH  15  16
ENDBRANCH  14  15
ENDBRANCH  13  14
ENDBRANCH  12  13
ENDBRANCH  11  12
ENDBRANCH  10  11
ENDBRANCH   1  10
TORSDOF 13
ENDMDL
MODEL 7
REMARK VINA RESULT:    -3.785      2.289      4.440
REMARK INTER + INTRA:          -8.374
REMARK INTER:                  -7.072
REMARK INTRA:                  -1.301
REMARK UNBOUND:                -1.712
REMARK SMILES CCCCCCCCCCCCCCC(=O)[O-]
REMARK SMILES IDX 9 1 10 2 11 3 12 4 13 5 14 6 15 7 16 8 17 9 8 10 7 11 6 12
REMARK SMILES IDX 5 13 4 14 3 15 2 16 1 17
REMARK H PARENT
REMARK Flexibility Score: inf
ROOT
ATOM      1  C   UNL     1      -6.839  -4.010 -10.472  1.00  0.00     0.000 C 
ENDROOT
BRANCH   1   2
ATOM      2  C   UNL     1      -6.613  -3.342 -11.840  1.00  0.00     0.000 C 
BRANCH   2   3
ATOM      3  C   UNL     1      -7.244  -4.130 -13.002  1.00  0.00     0.000 C 
BRANCH   3   4
ATOM      4  C   UNL     1      -6.429  -5.339 -13.498  1.00  0.00     0.000 C 
BRANCH   4   5
ATOM      5  C   UNL     1      -6.986  -6.044 -14.751  1.00  0.00     0.006 C 
BRANCH   5   6
ATOM      6  C   UNL     1      -7.842  -7.284 -14.442  1.00  0.00     0.053 C 
BRANCH   6   7
ATOM      7  C   UNL     1      -9.310  -7.016 -14.584  1.00  0.00     0.041 C 
ATOM      8  O   UNL     1      -9.719  -5.866 -14.893  1.00  0.00    -0.550 OA
ATOM      9  O   UNL     1     -10.226  -8.046 -14.409  1.00  0.00    -0.550 OA
ENDBRANCH   6   7
ENDBRANCH   5   6
ENDBRANCH   4   5
ENDBRANCH   3   4
ENDBRANCH   2   3
ENDBRANCH   1   2
BRANCH   1  10
ATOM     10  C   UNL     1      -7.732  -5.256 -10.565  1.00  0.00     0.000 C 
BRANCH  10  11
ATOM     11  C   UNL     1      -7.200  -6.433  -9.733  1.00  0.00    -0.000 C 
BRANCH  11  12
ATOM     12  C   UNL     1      -7.739  -7.767 -10.262  1.00  0.00    -0.000 C 
BRANCH  12  13
ATOM     13  C   UNL     1      -8.936  -7.545 -11.199  1.00  0.00    -0.000 C 
BRANCH  13  14
ATOM     14  C   UNL     1     -10.276  -7.929 -10.553  1.00  0.00    -0.000 C 
BRANCH  14  15
ATOM     15  C   UNL     1     -11.125  -6.704 -10.179  1.00  0.00    -0.000 C 
BRANCH  15  16
ATOM     16  C   UNL     1     -11.047  -6.422  -8.674  1.00  0.00    -0.003 C 
ATOM     17  C   UNL     1     -11.125  -7.714  -7.866  1.00  0.00     0.004 C 
ENDBRANCH  15  16
ENDBRANCH  14  15
ENDBRANCH  13  14
ENDBRANCH  12  13
ENDBRANCH  11  12
ENDBRANCH  10  11
ENDBRANCH   1  10
TORSDOF 13
ENDMDL
MODEL 8
REMARK VINA RESULT:    -3.635      2.615      4.186
REMARK INTER + INTRA:          -8.110
REMARK INTER:                  -6.976
REMARK INTRA:                  -1.134
REMARK UNBOUND:                -1.712
REMARK SMILES CCCCCCCCCCCCCCC(=O)[O-]
REMARK SMILES IDX 9 1 10 2 11 3 12 4 13 5 14 6 15 7 16 8 17 9 8 10 7 11 6 12
REMARK SMILES IDX 5 13 4 14 3 15 2 16 1 17
REMARK H PARENT
REMARK Flexibility Score: inf
ROOT
ATOM      1  C   UNL     1      -6.444  -6.623 -13.449  1.00  0.00     0.000 C 
ENDROOT
BRANCH   1   2
ATOM      2  C   UNL     1      -7.297  -7.895 -13.589  1.00  0.00     0.000 C 
BRANCH   2   3
ATOM      3  C   UNL     1      -8.757  -7.597 -13.977  1.00  0.00     0.000 C 
BRANCH   3   4
ATOM      4  C   UNL     1      -9.766  -7.620 -12.814  1.00  0.00     0.000 C 
BRANCH   4   5
ATOM      5  C   UNL     1      -9.228  -7.117 -11.460  1.00  0.00     0.006 C 
BRANCH   5   6
ATOM      6  C   UNL     1      -9.811  -7.855 -10.242  1.00  0.00     0.053 C 
BRANCH   6   7
ATOM      7  C   UNL     1     -10.567  -6.941  -9.327  1.00  0.00     0.041 C 
ATOM      8  O   UNL     1     -10.733  -5.731  -9.633  1.00  0.00    -0.550 OA
ATOM      9  O   UNL     1     -11.119  -7.433  -8.151  1.00  0.00    -0.550 OA
ENDBRANCH   6   7
ENDBRANCH   5   6
ENDBRANCH   4   5
ENDBRANCH   3   4
ENDBRANCH   2   3
ENDBRANCH   1   2
BRANCH   1  10
ATOM     10  C   UNL     1      -6.958  -5.468 -14.321  1.00  0.00     0.000 C 
BRANCH  10  11
ATOM     11  C   UNL     1      -6.804  -4.097 -13.645  1.00  0.00    -0.000 C 
BRANCH  11  12
ATOM     12  C   UNL     1      -6.388  -4.252 -12.177  1.00  0.00    -0.000 C 
BRANCH  12  13
ATOM     13  C   UNL     1      -6.779  -3.011 -11.361  1.00  0.00    -0.000 C 
BRANCH  13  14
ATOM     14  C   UNL     1      -7.008  -3.326  -9.875  1.00  0.00    -0.000 C 
BRANCH  14  15
ATOM     15  C   UNL     1      -6.185  -4.531  -9.391  1.00  0.00    -0.000 C 
BRANCH  15  16
ATOM     16  C   UNL     1      -5.248  -4.130  -8.246  1.00  0.00    -0.003 C 
ATOM     17  C   UNL     1      -4.636  -5.358  -7.579  1.00  0.00     0.004 C 
ENDBRANCH  15  16
ENDBRANCH  14  15
ENDBRANCH  13  14
ENDBRANCH  12  13
ENDBRANCH  11  12
ENDBRANCH  10  11
ENDBRANCH   1  10
TORSDOF 13
ENDMDL
MODEL 9
REMARK VINA RESULT:    -3.165      1.832      3.054
REMARK INTER + INTRA:          -7.283
REMARK INTER:                  -6.470
REMARK INTRA:                  -0.813
REMARK UNBOUND:                -1.712
REMARK SMILES CCCCCCCCCCCCCCC(=O)[O-]
REMARK SMILES IDX 9 1 10 2 11 3 12 4 13 5 14 6 15 7 16 8 17 9 8 10 7 11 6 12
REMARK SMILES IDX 5 13 4 14 3 15 2 16 1 17
REMARK H PARENT
REMARK Flexibility Score: inf
ROOT
ATOM      1  C   UNL     1     -10.231  -6.815 -10.072  1.00  0.00     0.000 C 
ENDROOT
BRANCH   1   2
ATOM      2  C   UNL     1     -11.098  -7.059 -11.319  1.00  0.00     0.000 C 
BRANCH   2   3
ATOM      3  C   UNL     1     -10.444  -8.024 -12.324  1.00  0.00     0.000 C 
BRANCH   3   4
ATOM      4  C   UNL     1     -10.967  -7.925 -13.769  1.00  0.00     0.000 C 
BRANCH   4   5
ATOM      5  C   UNL     1      -9.948  -7.417 -14.808  1.00  0.00     0.006 C 
BRANCH   5   6
ATOM      6  C   UNL     1      -9.030  -6.298 -14.288  1.00  0.00     0.053 C 
BRANCH   6   7
ATOM      7  C   UNL     1      -7.579  -6.590 -14.524  1.00  0.00     0.041 C 
ATOM      8  O   UNL     1      -6.780  -5.656 -14.798  1.00  0.00    -0.550 OA
ATOM      9  O   UNL     1      -7.103  -7.890 -14.408  1.00  0.00    -0.550 OA
ENDBRANCH   6   7
ENDBRANCH   5   6
ENDBRANCH   4   5
ENDBRANCH   3   4
ENDBRANCH   2   3
ENDBRANCH   1   2
BRANCH   1  10
ATOM     10  C   UNL     1      -9.653  -8.116  -9.492  1.00  0.00     0.000 C 
BRANCH  10  11
ATOM     11  C   UNL     1      -8.120  -8.093  -9.394  1.00  0.00    -0.000 C 
BRANCH  11  12
ATOM     12  C   UNL     1      -7.480  -8.017 -10.785  1.00  0.00    -0.000 C 
BRANCH  12  13
ATOM     13  C   UNL     1      -7.269  -6.557 -11.215  1.00  0.00    -0.000 C 
BRANCH  13  14
ATOM     14  C   UNL     1      -7.026  -5.617 -10.025  1.00  0.00    -0.000 C 
BRANCH  14  15
ATOM     15  C   UNL     1      -6.899  -4.146 -10.448  1.00  0.00    -0.000 C 
BRANCH  15  16
ATOM     16  C   UNL     1      -6.846  -4.018 -11.975  1.00  0.00    -0.003 C 
ATOM     17  C   UNL     1      -6.815  -2.554 -12.405  1.00  0.00     0.004 C 
ENDBRANCH  15  16
ENDBRANCH  14  15
ENDBRANCH  13  14
ENDBRANCH  12  13
ENDBRANCH  11  12
ENDBRANCH  10  11
ENDBRANCH   1  10
TORSDOF 13
ENDMDL
