MODEL 1
REMARK VINA RESULT:    -3.875      0.000      0.000
REMARK INTER + INTRA:          -7.052
REMARK INTER:                  -5.914
REMARK INTRA:                  -1.138
REMARK UNBOUND:                -1.138
REMARK SMILES CCCCCCCCCCC(=O)[O-]
REMARK SMILES IDX 7 1 8 2 9 3 10 4 11 5 12 6 13 7 6 8 5 9 4 10 3 11 2 12 1 13
REMARK H PARENT
REMARK Flexibility Score: inf
ROOT
ATOM      1  C   UNL     1      19.209   8.505   6.586  1.00  0.00     0.000 C 
ENDROOT
BRANCH   1   2
ATOM      2  C   UNL     1      19.644   9.951   6.872  1.00  0.00     0.000 C 
BRANCH   2   3
ATOM      3  C   UNL     1      18.923  10.974   5.978  1.00  0.00     0.006 C 
BRANCH   3   4
ATOM      4  C   UNL     1      18.593  10.403   4.593  1.00  0.00     0.053 C 
BRANCH   4   5
ATOM      5  C   UNL     1      17.161  10.634   4.220  1.00  0.00     0.041 C 
ATOM      6  O   UNL     1      16.245  10.411   5.054  1.00  0.00    -0.550 OA
ATOM      7  O   UNL     1      16.839  11.125   2.960  1.00  0.00    -0.550 OA
ENDBRANCH   4   5
ENDBRANCH   3   4
ENDBRANCH   2   3
ENDBRANCH   1   2
BRANCH   1   8
ATOM      8  C   UNL     1      18.072   8.035   7.506  1.00  0.00     0.000 C 
BRANCH   8   9
ATOM      9  C   UNL     1      17.416   6.760   6.961  1.00  0.00    -0.000 C 
BRANCH   9  10
ATOM     10  C   UNL     1      16.321   7.096   5.942  1.00  0.00    -0.000 C 
BRANCH  10  11
ATOM     11  C   UNL     1      16.507   6.287   4.650  1.00  0.00    -0.000 C 
BRANCH  11  12
ATOM     12  C   UNL     1      17.260   7.074   3.566  1.00  0.00    -0.003 C 
ATOM     13  C   UNL     1      18.719   6.639   3.425  1.00  0.00     0.004 C 
ENDBRANCH  11  12
ENDBRANCH  10  11
ENDBRANCH   9  10
ENDBRANCH   8   9
ENDBRANCH   1   8
TORSDOF 9
ENDMDL
MODEL 2
REMARK VINA RESULT:    -3.872      1.382      2.330
REMARK INTER + INTRA:          -7.047
REMARK INTER:                  -5.951
REMARK INTRA:                  -1.096
REMARK UNBOUND:                -1.138
REMARK SMILES CCCCCCCCCCC(=O)[O-]
REMARK SMILES IDX 7 1 8 2 9 3 10 4 11 5 12 6 13 7 6 8 5 9 4 10 3 11 2 12 1 13
REMARK H PARENT
REMARK Flexibility Score: inf
ROOT
ATOM      1  C   UNL     1      19.069  10.198   7.113  1.00  0.00     0.000 C 
ENDROOT
BRANCH   1   2
ATOM      2  C   UNL     1      18.931  11.011   5.817  1.00  0.00     0.000 C 
BRANCH   2   3
ATOM      3  C   UNL     1      17.982  10.351   4.802  1.00  0.00     0.006 C 
BRANCH   3   4
ATOM      4  C   UNL     1      18.681  10.044   3.471  1.00  0.00     0.053 C 
BRANCH   4   5
ATOM      5  C   UNL     1      17.809   9.245   2.553  1.00  0.00     0.041 C 
ATOM      6  O   UNL     1      16.556   9.300   2.661  1.00  0.00    -0.550 OA
ATOM      7  O   UNL     1      18.378   8.461   1.557  1.00  0.00    -0.550 OA
ENDBRANCH   4   5
ENDBRANCH   3   4
ENDBRANCH   2   3
ENDBRANCH   1   2
BRANCH   1   8
ATOM      8  C   UNL     1      20.057   9.030   6.979  1.00  0.00     0.000 C 
BRANCH   8   9
ATOM      9  C   UNL     1      19.330   7.682   7.070  1.00  0.00    -0.000 C 
BRANCH   9  10
ATOM     10  C   UNL     1      17.985   7.829   7.790  1.00  0.00    -0.000 C 
BRANCH  10  11
ATOM     11  C   UNL     1      16.966   6.807   7.262  1.00  0.00    -0.000 C 
BRANCH  11  12
ATOM     12  C   UNL     1      16.254   7.289   5.989  1.00  0.00    -0.003 C 
ATOM     13  C   UNL     1      16.599   6.444   4.762  1.00  0.00     0.004 C 
ENDBRANCH  11  12
ENDBRANCH  10  11
ENDBRANCH   9  10
ENDBRANCH   8   9
ENDBRANCH   1   8
TORSDOF 9
ENDMDL
MODEL 3
REMARK VINA RESULT:    -3.862      1.775      3.294
REMARK INTER + INTRA:          -7.033
REMARK INTER:                  -5.659
REMARK INTRA:                  -1.373
REMARK UNBOUND:                -1.138
REMARK SMILES CCCCCCCCCCC(=O)[O-]
REMARK SMILES IDX 7 1 8 2 9 3 10 4 11 5 12 6 13 7 6 8 5 9 4 10 3 11 2 12 1 13
REMARK H PARENT
REMARK Flexibility Score: inf
ROOT
ATOM      1  C   UNL     1      19.232  11.040   6.190  1.00  0.00     0.000 C 
ENDROOT
BRANCH   1   2
ATOM      2  C   UNL     1      17.754  10.631   6.281  1.00  0.00     0.000 C 
BRANCH   2   3
ATOM      3  C   UNL     1      17.183  10.164   4.931  1.00  0.00     0.006 C 
BRANCH   3   4
ATOM      4  C   UNL     1      18.272   9.610   4.002  1.00  0.00     0.053 C 
BRANCH   4   5
ATOM      5  C   UNL     1      17.910   8.263   3.459  1.00  0.00     0.041 C 
ATOM      6  O   UNL     1      16.702   7.932   3.335  1.00  0.00    -0.550 OA
ATOM      7  O   UNL     1      18.908   7.381   3.061  1.00  0.00    -0.550 OA
ENDBRANCH   4   5
ENDBRANCH   3   4
ENDBRANCH   2   3
ENDBRANCH   1   2
BRANCH   1   8
ATOM      8  C   UNL     1      20.014  10.731   7.475  1.00  0.00     0.000 C 
BRANCH   8   9
ATOM      9  C   UNL     1      19.619   9.361   8.042  1.00  0.00    -0.000 C 
BRANCH   9  10
ATOM     10  C   UNL     1      20.403   8.234   7.359  1.00  0.00    -0.000 C 
BRANCH  10  11
ATOM     11  C   UNL     1      19.453   7.248   6.664  1.00  0.00    -0.000 C 
BRANCH  11  12
ATOM     12  C   UNL     1      18.287   6.817   7.567  1.00  0.00    -0.003 C 
ATOM     13  C   UNL     1      16.926   6.962   6.886  1.00  0.00     0.004 C 
ENDBRANCH  11  12
ENDBRANCH  10  11
ENDBRANCH   9  10
ENDBRANCH   8   9
ENDBRANCH   1   8
TORSDOF 9
ENDMDL
MODEL 4
REMARK VINA RESULT:    -3.860      2.114      3.315
REMARK INTER + INTRA:          -7.029
REMARK INTER:                  -5.870
REMARK INTRA:                  -1.159
REMARK UNBOUND:                -1.138
REMARK SMILES CCCCCCCCCCC(=O)[O-]
REMARK SMILES IDX 7 1 8 2 9 3 10 4 11 5 12 6 13 7 6 8 5 9 4 10 3 11 2 12 1 13
REMARK H PARENT
REMARK Flexibility Score: inf
ROOT
ATOM      1  C   UNL     1      16.633   9.524   6.293  1.00  0.00     0.000 C 
ENDROOT
BRANCH   1   2
ATOM      2  C   UNL     1      17.546  10.422   5.444  1.00  0.00     0.000 C 
BRANCH   2   3
ATOM      3  C   UNL     1      18.529   9.617   4.577  1.00  0.00     0.006 C 
BRANCH   3   4
ATOM      4  C   UNL     1      18.534  10.090   3.117  1.00  0.00     0.053 C 
BRANCH   4   5
ATOM      5  C   UNL     1      18.475   8.941   2.158  1.00  0.00     0.041 C 
ATOM      6  O   UNL     1      18.375   9.152   0.921  1.00  0.00    -0.550 OA
ATOM      7  O   UNL     1      18.562   7.636   2.627  1.00  0.00    -0.550 OA
ENDBRANCH   4   5
ENDBRANCH   3   4
ENDBRANCH   2   3
ENDBRANCH   1   2
BRANCH   1   8
ATOM      8  C   UNL     1      16.389   8.150   5.651  1.00  0.00     0.000 C 
BRANCH   8   9
ATOM      9  C   UNL     1      16.630   7.022   6.661  1.00  0.00    -0.000 C 
BRANCH   9  10
ATOM     10  C   UNL     1      17.704   7.414   7.682  1.00  0.00    -0.000 C 
BRANCH  10  11
ATOM     11  C   UNL     1      19.021   6.673   7.405  1.00  0.00    -0.000 C 
BRANCH  11  12
ATOM     12  C   UNL     1      20.189   7.631   7.125  1.00  0.00    -0.003 C 
ATOM     13  C   UNL     1      20.076   8.944   7.900  1.00  0.00     0.004 C 
ENDBRANCH  11  12
ENDBRANCH  10  11
ENDBRANCH   9  10
ENDBRANCH   8   9
ENDBRANCH   1   8
TORSDOF 9
ENDMDL
MODEL 5
REMARK VINA RESULT:    -3.836      1.859      4.350
REMARK INTER + INTRA:          -6.993
REMARK INTER:                  -5.913
REMARK INTRA:                  -1.080
REMARK UNBOUND:                -1.138
REMARK SMILES CCCCCCCCCCC(=O)[O-]
REMARK SMILES IDX 7 1 8 2 9 3 10 4 11 5 12 6 13 7 6 8 5 9 4 10 3 11 2 12 1 13
REMARK H PARENT
REMARK Flexibility Score: inf
ROOT
ATOM      1  C   UNL     1      16.713   8.211   6.175  1.00  0.00     0.000 C 
ENDROOT
BRANCH   1   2
ATOM      2  C   UNL     1      16.372   7.196   5.073  1.00  0.00     0.000 C 
BRANCH   2   3
ATOM      3  C   UNL     1      17.540   6.245   4.761  1.00  0.00     0.006 C 
BRANCH   3   4
ATOM      4  C   UNL     1      18.774   6.995   4.241  1.00  0.00     0.053 C 
BRANCH   4   5
ATOM      5  C   UNL     1      18.511   7.657   2.924  1.00  0.00     0.041 C 
ATOM      6  O   UNL     1      18.732   8.888   2.777  1.00  0.00    -0.550 OA
ATOM      7  O   UNL     1      18.052   6.908   1.847  1.00  0.00    -0.550 OA
ENDBRANCH   4   5
ENDBRANCH   3   4
ENDBRANCH   2   3
ENDBRANCH   1   2
BRANCH   1   8
ATOM      8  C   UNL     1      16.693   9.663   5.672  1.00  0.00     0.000 C 
BRANCH   8   9
ATOM      9  C   UNL     1      17.528  10.571   6.582  1.00  0.00    -0.000 C 
BRANCH   9  10
ATOM     10  C   UNL     1      18.951  10.743   6.036  1.00  0.00    -0.000 C 
BRANCH  10  11
ATOM     11  C   UNL     1      19.980  10.744   7.176  1.00  0.00    -0.000 C 
BRANCH  11  12
ATOM     12  C   UNL     1      19.948   9.446   7.999  1.00  0.00    -0.003 C 
ATOM     13  C   UNL     1      20.498   8.244   7.230  1.00  0.00     0.004 C 
ENDBRANCH  11  12
ENDBRANCH  10  11
ENDBRANCH   9  10
ENDBRANCH   8   9
ENDBRANCH   1   8
TORSDOF 9
ENDMDL
MODEL 6
REMARK VINA RESULT:    -3.828      2.921      3.887
REMARK INTER + INTRA:          -6.981
REMARK INTER:                  -5.889
REMARK INTRA:                  -1.092
REMARK UNBOUND:                -1.138
REMARK SMILES CCCCCCCCCCC(=O)[O-]
REMARK SMILES IDX 7 1 8 2 9 3 10 4 11 5 12 6 13 7 6 8 5 9 4 10 3 11 2 12 1 13
REMARK H PARENT
REMARK Flexibility Score: inf
ROOT
ATOM      1  C   UNL     1      18.832  10.291   5.182  1.00  0.00     0.000 C 
ENDROOT
BRANCH   1   2
ATOM      2  C   UNL     1      19.294  10.961   6.485  1.00  0.00     0.000 C 
BRANCH   2   3
ATOM      3  C   UNL     1      20.034   9.991   7.421  1.00  0.00     0.006 C 
BRANCH   3   4
ATOM      4  C   UNL     1      19.947   8.538   6.934  1.00  0.00     0.053 C 
BRANCH   4   5
ATOM      5  C   UNL     1      21.136   7.734   7.362  1.00  0.00     0.041 C 
ATOM      6  O   UNL     1      21.423   6.661   6.769  1.00  0.00    -0.550 OA
ATOM      7  O   UNL     1      21.947   8.185   8.396  1.00  0.00    -0.550 OA
ENDBRANCH   4   5
ENDBRANCH   3   4
ENDBRANCH   2   3
ENDBRANCH   1   2
BRANCH   1   8
ATOM      8  C   UNL     1      17.334  10.495   4.909  1.00  0.00     0.000 C 
BRANCH   8   9
ATOM      9  C   UNL     1      16.481   9.626   5.841  1.00  0.00    -0.000 C 
BRANCH   9  10
ATOM     10  C   UNL     1      16.105   8.300   5.169  1.00  0.00    -0.000 C 
BRANCH  10  11
ATOM     11  C   UNL     1      16.595   7.105   6.000  1.00  0.00    -0.000 C 
BRANCH  11  12
ATOM     12  C   UNL     1      17.358   6.074   5.155  1.00  0.00    -0.003 C 
ATOM     13  C   UNL     1      18.317   6.721   4.155  1.00  0.00     0.004 C 
ENDBRANCH  11  12
ENDBRANCH  10  11
ENDBRANCH   9  10
ENDBRANCH   8   9
ENDBRANCH   1   8
TORSDOF 9
ENDMDL
MODEL 7
REMARK VINA RESULT:    -3.762      2.518      3.733
REMARK INTER + INTRA:          -6.879
REMARK INTER:                  -5.528
REMARK INTRA:                  -1.351
REMARK UNBOUND:                -1.138
REMARK SMILES CCCCCCCCCCC(=O)[O-]
REMARK SMILES IDX 7 1 8 2 9 3 10 4 11 5 12 6 13 7 6 8 5 9 4 10 3 11 2 12 1 13
REMARK H PARENT
REMARK Flexibility Score: inf
ROOT
ATOM      1  C   UNL     1      18.175  10.120   4.619  1.00  0.00     0.000 C 
ENDROOT
BRANCH   1   2
ATOM      2  C   UNL     1      18.562   9.832   3.161  1.00  0.00     0.000 C 
BRANCH   2   3
ATOM      3  C   UNL     1      17.671   8.760   2.511  1.00  0.00     0.006 C 
BRANCH   3   4
ATOM      4  C   UNL     1      18.347   7.383   2.485  1.00  0.00     0.053 C 
BRANCH   4   5
ATOM      5  C   UNL     1      17.424   6.317   1.981  1.00  0.00     0.041 C 
ATOM      6  O   UNL     1      16.286   6.167   2.498  1.00  0.00    -0.550 OA
ATOM      7  O   UNL     1      17.808   5.508   0.918  1.00  0.00    -0.550 OA
ENDBRANCH   4   5
ENDBRANCH   3   4
ENDBRANCH   2   3
ENDBRANCH   1   2
BRANCH   1   8
ATOM      8  C   UNL     1      16.708   9.780   4.922  1.00  0.00     0.000 C 
BRANCH   8   9
ATOM      9  C   UNL     1      16.596   8.897   6.171  1.00  0.00    -0.000 C 
BRANCH   9  10
ATOM     10  C   UNL     1      16.209   7.461   5.799  1.00  0.00    -0.000 C 
BRANCH  10  11
ATOM     11  C   UNL     1      17.419   6.521   5.902  1.00  0.00    -0.000 C 
BRANCH  11  12
ATOM     12  C   UNL     1      18.502   7.058   6.851  1.00  0.00    -0.003 C 
ATOM     13  C   UNL     1      19.870   7.183   6.178  1.00  0.00     0.004 C 
ENDBRANCH  11  12
ENDBRANCH  10  11
ENDBRANCH   9  10
ENDBRANCH   8   9
ENDBRANCH   1   8
TORSDOF 9
ENDMDL
MODEL 8
REMARK VINA RESULT:    -3.716      2.241      4.187
REMARK INTER + INTRA:          -6.809
REMARK INTER:                  -5.819
REMARK INTRA:                  -0.990
REMARK UNBOUND:                -1.138
REMARK SMILES CCCCCCCCCCC(=O)[O-]
REMARK SMILES IDX 7 1 8 2 9 3 10 4 11 5 12 6 13 7 6 8 5 9 4 10 3 11 2 12 1 13
REMARK H PARENT
REMARK Flexibility Score: inf
ROOT
ATOM      1  C   UNL     1      16.639   8.129   6.735  1.00  0.00     0.000 C 
ENDROOT
BRANCH   1   2
ATOM      2  C   UNL     1      16.239   7.179   5.596  1.00  0.00     0.000 C 
BRANCH   2   3
ATOM      3  C   UNL     1      16.079   7.903   4.248  1.00  0.00     0.006 C 
BRANCH   3   4
ATOM      4  C   UNL     1      17.336   7.788   3.376  1.00  0.00     0.053 C 
BRANCH   4   5
ATOM      5  C   UNL     1      17.089   6.969   2.147  1.00  0.00     0.041 C 
ATOM      6  O   UNL     1      16.262   6.020   2.172  1.00  0.00    -0.550 OA
ATOM      7  O   UNL     1      17.751   7.272   0.963  1.00  0.00    -0.550 OA
ENDBRANCH   4   5
ENDBRANCH   3   4
ENDBRANCH   2   3
ENDBRANCH   1   2
BRANCH   1   8
ATOM      8  C   UNL     1      17.641   7.496   7.711  1.00  0.00     0.000 C 
BRANCH   8   9
ATOM      9  C   UNL     1      18.899   7.019   6.975  1.00  0.00    -0.000 C 
BRANCH   9  10
ATOM     10  C   UNL     1      19.751   8.207   6.510  1.00  0.00    -0.000 C 
BRANCH  10  11
ATOM     11  C   UNL     1      20.022   9.176   7.670  1.00  0.00    -0.000 C 
BRANCH  11  12
ATOM     12  C   UNL     1      19.983  10.647   7.230  1.00  0.00    -0.003 C 
ATOM     13  C   UNL     1      19.005  10.896   6.082  1.00  0.00     0.004 C 
ENDBRANCH  11  12
ENDBRANCH  10  11
ENDBRANCH   9  10
ENDBRANCH   8   9
ENDBRANCH   1   8
TORSDOF 9
ENDMDL
