MODEL 1
REMARK VINA RESULT:    -4.460      0.000      0.000
REMARK INTER + INTRA:          -8.281
REMARK INTER:                  -6.546
REMARK INTRA:                  -1.735
REMARK UNBOUND:                -1.735
REMARK SMILES CC(C)COC(=O)c1ccccc1C(=O)OCC(C)C
REMARK SMILES IDX 8 1 9 2 10 3 11 4 12 5 13 6 6 7 7 8 5 9 4 10 2 11 1 12 3 13
REMARK SMILES IDX 14 14 15 15 16 16 17 17 18 18 19 19 20 20
REMARK H PARENT
REMARK Flexibility Score: inf
ROOT
ATOM      1  C   UNL     1       1.064   9.472   1.466  1.00  0.00     0.074 A 
ATOM      2  C   UNL     1       1.690   8.445   2.196  1.00  0.00     0.016 A 
ATOM      3  C   UNL     1       1.604   8.406   3.588  1.00  0.00     0.001 A 
ATOM      4  C   UNL     1       0.893   9.389   4.272  1.00  0.00     0.001 A 
ATOM      5  C   UNL     1       0.285  10.430   3.570  1.00  0.00     0.016 A 
ATOM      6  C   UNL     1       0.379  10.502   2.168  1.00  0.00     0.074 A 
ENDROOT
BRANCH   1   7
ATOM      7  C   UNL     1       1.101   9.393  -0.010  1.00  0.00     0.339 C 
ATOM      8  O   UNL     1       0.132   8.893  -0.645  1.00  0.00    -0.246 OA
BRANCH   7   9
ATOM      9  O   UNL     1       2.245   9.824  -0.695  1.00  0.00    -0.462 OA
BRANCH   9  10
ATOM     10  C   UNL     1       2.285  11.009  -1.489  1.00  0.00     0.236 C 
BRANCH  10  11
ATOM     11  C   UNL     1       3.475  11.904  -1.095  1.00  0.00     0.021 C 
ATOM     12  C   UNL     1       3.883  11.641   0.357  1.00  0.00     0.011 C 
ATOM     13  C   UNL     1       3.138  13.388  -1.295  1.00  0.00     0.011 C 
ENDBRANCH  10  11
ENDBRANCH   9  10
ENDBRANCH   7   9
ENDBRANCH   1   7
BRANCH   6  14
ATOM     14  C   UNL     1      -0.191  11.694   1.497  1.00  0.00     0.339 C 
ATOM     15  O   UNL     1       0.561  12.631   1.112  1.00  0.00    -0.246 OA
BRANCH  14  16
ATOM     16  O   UNL     1      -1.577  11.799   1.344  1.00  0.00    -0.462 OA
BRANCH  16  17
ATOM     17  C   UNL     1      -2.360  10.799   0.697  1.00  0.00     0.236 C 
BRANCH  17  18
ATOM     18  C   UNL     1      -3.268  10.086   1.711  1.00  0.00     0.021 C 
ATOM     19  C   UNL     1      -3.447  10.927   2.981  1.00  0.00     0.011 C 
ATOM     20  C   UNL     1      -2.729   8.692   2.054  1.00  0.00     0.011 C 
ENDBRANCH  17  18
ENDBRANCH  16  17
ENDBRANCH  14  16
ENDBRANCH   6  14
TORSDOF 8
ENDMDL
MODEL 2
REMARK VINA RESULT:    -4.446      0.137      5.239
REMARK INTER + INTRA:          -8.260
REMARK INTER:                  -6.548
REMARK INTRA:                  -1.712
REMARK UNBOUND:                -1.735
REMARK SMILES CC(C)COC(=O)c1ccccc1C(=O)OCC(C)C
REMARK SMILES IDX 8 1 9 2 10 3 11 4 12 5 13 6 6 7 7 8 5 9 4 10 2 11 1 12 3 13
REMARK SMILES IDX 14 14 15 15 16 16 17 17 18 18 19 19 20 20
REMARK H PARENT
REMARK Flexibility Score: inf
ROOT
ATOM      1  C   UNL     1       0.392  10.458   2.165  1.00  0.00     0.074 A 
ATOM      2  C   UNL     1       0.288  10.348   3.564  1.00  0.00     0.016 A 
ATOM      3  C   UNL     1       0.925   9.311   4.246  1.00  0.00     0.001 A 
ATOM      4  C   UNL     1       1.676   8.370   3.545  1.00  0.00     0.001 A 
ATOM      5  C   UNL     1       1.773   8.447   2.155  1.00  0.00     0.016 A 
ATOM      6  C   UNL     1       1.118   9.471   1.444  1.00  0.00     0.074 A 
ENDROOT
BRANCH   1   7
ATOM      7  C   UNL     1      -0.216  11.641   1.518  1.00  0.00     0.339 C 
ATOM      8  O   UNL     1       0.502  12.628   1.195  1.00  0.00    -0.246 OA
BRANCH   7   9
ATOM      9  O   UNL     1      -1.602  11.682   1.320  1.00  0.00    -0.462 OA
BRANCH   9  10
ATOM     10  C   UNL     1      -2.351  10.593   0.783  1.00  0.00     0.236 C 
BRANCH  10  11
ATOM     11  C   UNL     1      -3.293   9.989   1.841  1.00  0.00     0.021 C 
ATOM     12  C   UNL     1      -3.456  10.951   3.021  1.00  0.00     0.011 C 
ATOM     13  C   UNL     1      -2.775   8.629   2.329  1.00  0.00     0.011 C 
ENDBRANCH  10  11
ENDBRANCH   9  10
ENDBRANCH   7   9
ENDBRANCH   1   7
BRANCH   6  14
ATOM     14  C   UNL     1       1.168   9.426  -0.035  1.00  0.00     0.339 C 
ATOM     15  O   UNL     1       0.227   8.898  -0.691  1.00  0.00    -0.246 OA
BRANCH  14  16
ATOM     16  O   UNL     1       2.293   9.922  -0.699  1.00  0.00    -0.462 OA
BRANCH  16  17
ATOM     17  C   UNL     1       2.277  11.138  -1.444  1.00  0.00     0.236 C 
BRANCH  17  18
ATOM     18  C   UNL     1       3.430  12.054  -1.006  1.00  0.00     0.021 C 
ATOM     19  C   UNL     1       3.871  11.742   0.429  1.00  0.00     0.011 C 
ATOM     20  C   UNL     1       3.047  13.533  -1.146  1.00  0.00     0.011 C 
ENDBRANCH  17  18
ENDBRANCH  16  17
ENDBRANCH  14  16
ENDBRANCH   6  14
TORSDOF 8
ENDMDL
MODEL 3
REMARK VINA RESULT:    -4.423      1.769      4.812
REMARK INTER + INTRA:          -8.226
REMARK INTER:                  -6.589
REMARK INTRA:                  -1.637
REMARK UNBOUND:                -1.735
REMARK SMILES CC(C)COC(=O)c1ccccc1C(=O)OCC(C)C
REMARK SMILES IDX 8 1 9 2 10 3 11 4 12 5 13 6 6 7 7 8 5 9 4 10 2 11 1 12 3 13
REMARK SMILES IDX 14 14 15 15 16 16 17 17 18 18 19 19 20 20
REMARK H PARENT
REMARK Flexibility Score: inf
ROOT
ATOM      1  C   UNL     1      -0.430  10.308   2.822  1.00  0.00     0.074 A 
ATOM      2  C   UNL     1      -1.716   9.860   3.178  1.00  0.00     0.016 A 
ATOM      3  C   UNL     1      -2.854  10.510   2.700  1.00  0.00     0.001 A 
ATOM      4  C   UNL     1      -2.728  11.614   1.861  1.00  0.00     0.001 A 
ATOM      5  C   UNL     1      -1.462  12.090   1.515  1.00  0.00     0.016 A 
ATOM      6  C   UNL     1      -0.301  11.464   2.004  1.00  0.00     0.074 A 
ENDROOT
BRANCH   1   7
ATOM      7  C   UNL     1       0.730   9.509   3.273  1.00  0.00     0.339 C 
ATOM      8  O   UNL     1       1.119   9.573   4.471  1.00  0.00    -0.246 OA
BRANCH   7   9
ATOM      9  O   UNL     1       1.429   8.726   2.345  1.00  0.00    -0.462 OA
BRANCH   9  10
ATOM     10  C   UNL     1       0.789   7.891   1.382  1.00  0.00     0.236 C 
BRANCH  10  11
ATOM     11  C   UNL     1       1.038   8.398  -0.051  1.00  0.00     0.021 C 
ATOM     12  C   UNL     1      -0.259   8.938  -0.659  1.00  0.00     0.011 C 
ATOM     13  C   UNL     1       1.620   7.287  -0.935  1.00  0.00     0.011 C 
ENDBRANCH  10  11
ENDBRANCH   9  10
ENDBRANCH   7   9
ENDBRANCH   1   7
BRANCH   6  14
ATOM     14  C   UNL     1       1.005  12.089   1.692  1.00  0.00     0.339 C 
ATOM     15  O   UNL     1       1.460  13.017   2.417  1.00  0.00    -0.246 OA
BRANCH  14  16
ATOM     16  O   UNL     1       1.706  11.682   0.553  1.00  0.00    -0.462 OA
BRANCH  16  17
ATOM     17  C   UNL     1       3.090  11.341   0.578  1.00  0.00     0.236 C 
BRANCH  17  18
ATOM     18  C   UNL     1       3.754  11.685  -0.764  1.00  0.00     0.021 C 
ATOM     19  C   UNL     1       3.350  13.085  -1.239  1.00  0.00     0.011 C 
ATOM     20  C   UNL     1       3.423  10.634  -1.831  1.00  0.00     0.011 C 
ENDBRANCH  17  18
ENDBRANCH  16  17
ENDBRANCH  14  16
ENDBRANCH   6  14
TORSDOF 8
ENDMDL
MODEL 4
REMARK VINA RESULT:    -4.419      1.776      3.863
REMARK INTER + INTRA:          -8.220
REMARK INTER:                  -6.602
REMARK INTRA:                  -1.618
REMARK UNBOUND:                -1.735
REMARK SMILES CC(C)COC(=O)c1ccccc1C(=O)OCC(C)C
REMARK SMILES IDX 8 1 9 2 10 3 11 4 12 5 13 6 6 7 7 8 5 9 4 10 2 11 1 12 3 13
REMARK SMILES IDX 14 14 15 15 16 16 17 17 18 18 19 19 20 20
REMARK H PARENT
REMARK Flexibility Score: inf
ROOT
ATOM      1  C   UNL     1      -0.309  11.491   2.013  1.00  0.00     0.074 A 
ATOM      2  C   UNL     1      -1.461  12.134   1.525  1.00  0.00     0.016 A 
ATOM      3  C   UNL     1      -2.733  11.668   1.858  1.00  0.00     0.001 A 
ATOM      4  C   UNL     1      -2.875  10.555   2.684  1.00  0.00     0.001 A 
ATOM      5  C   UNL     1      -1.746   9.887   3.160  1.00  0.00     0.016 A 
ATOM      6  C   UNL     1      -0.454  10.326   2.817  1.00  0.00     0.074 A 
ENDROOT
BRANCH   1   7
ATOM      7  C   UNL     1       1.005  12.101   1.712  1.00  0.00     0.339 C 
ATOM      8  O   UNL     1       1.476  12.997   2.465  1.00  0.00    -0.246 OA
BRANCH   7   9
ATOM      9  O   UNL     1       1.692  11.717   0.554  1.00  0.00    -0.462 OA
BRANCH   9  10
ATOM     10  C   UNL     1       3.065  11.327   0.548  1.00  0.00     0.236 C 
BRANCH  10  11
ATOM     11  C   UNL     1       3.755  11.735  -0.767  1.00  0.00     0.021 C 
ATOM     12  C   UNL     1       3.231  13.092  -1.246  1.00  0.00     0.011 C 
ATOM     13  C   UNL     1       3.546  10.669  -1.852  1.00  0.00     0.011 C 
ENDBRANCH  10  11
ENDBRANCH   9  10
ENDBRANCH   7   9
ENDBRANCH   1   7
BRANCH   6  14
ATOM     14  C   UNL     1       0.696   9.505   3.261  1.00  0.00     0.339 C 
ATOM     15  O   UNL     1       1.066   9.523   4.468  1.00  0.00    -0.246 OA
BRANCH  14  16
ATOM     16  O   UNL     1       1.406   8.753   2.321  1.00  0.00    -0.462 OA
BRANCH  16  17
ATOM     17  C   UNL     1       0.768   7.903   1.371  1.00  0.00     0.236 C 
BRANCH  17  18
ATOM     18  C   UNL     1       1.046   8.390  -0.060  1.00  0.00     0.021 C 
ATOM     19  C   UNL     1      -0.218   8.975  -0.701  1.00  0.00     0.011 C 
ATOM     20  C   UNL     1       1.622   7.264  -0.926  1.00  0.00     0.011 C 
ENDBRANCH  17  18
ENDBRANCH  16  17
ENDBRANCH  14  16
ENDBRANCH   6  14
TORSDOF 8
ENDMDL
MODEL 5
REMARK VINA RESULT:    -4.402      2.110      5.653
REMARK INTER + INTRA:          -8.196
REMARK INTER:                  -7.048
REMARK INTRA:                  -1.148
REMARK UNBOUND:                -1.735
REMARK SMILES CC(C)COC(=O)c1ccccc1C(=O)OCC(C)C
REMARK SMILES IDX 8 1 9 2 10 3 11 4 12 5 13 6 6 7 7 8 5 9 4 10 2 11 1 12 3 13
REMARK SMILES IDX 14 14 15 15 16 16 17 17 18 18 19 19 20 20
REMARK H PARENT
REMARK Flexibility Score: inf
ROOT
ATOM      1  C   UNL     1      -0.782  10.265   3.098  1.00  0.00     0.074 A 
ATOM      2  C   UNL     1      -2.084   9.838   3.420  1.00  0.00     0.016 A 
ATOM      3  C   UNL     1      -3.191  10.367   2.757  1.00  0.00     0.001 A 
ATOM      4  C   UNL     1      -3.019  11.328   1.764  1.00  0.00     0.001 A 
ATOM      5  C   UNL     1      -1.738  11.784   1.446  1.00  0.00     0.016 A 
ATOM      6  C   UNL     1      -0.609  11.281   2.118  1.00  0.00     0.074 A 
ENDROOT
BRANCH   1   7
ATOM      7  C   UNL     1       0.353   9.585   3.760  1.00  0.00     0.339 C 
ATOM      8  O   UNL     1       0.905  10.105   4.768  1.00  0.00    -0.246 OA
BRANCH   7   9
ATOM      9  O   UNL     1       0.847   8.390   3.223  1.00  0.00    -0.462 OA
BRANCH   9  10
ATOM     10  C   UNL     1       0.954   7.179   3.969  1.00  0.00     0.236 C 
BRANCH  10  11
ATOM     11  C   UNL     1      -0.212   6.223   3.654  1.00  0.00     0.021 C 
ATOM     12  C   UNL     1      -0.714   6.448   2.224  1.00  0.00     0.011 C 
ATOM     13  C   UNL     1      -1.359   6.404   4.657  1.00  0.00     0.011 C 
ENDBRANCH  10  11
ENDBRANCH   9  10
ENDBRANCH   7   9
ENDBRANCH   1   7
BRANCH   6  14
ATOM     14  C   UNL     1       0.706  11.891   1.812  1.00  0.00     0.339 C 
ATOM     15  O   UNL     1       1.207  12.753   2.586  1.00  0.00    -0.246 OA
BRANCH  14  16
ATOM     16  O   UNL     1       1.363  11.546   0.628  1.00  0.00    -0.462 OA
BRANCH  16  17
ATOM     17  C   UNL     1       2.623  10.878   0.610  1.00  0.00     0.236 C 
BRANCH  17  18
ATOM     18  C   UNL     1       3.627  11.645  -0.265  1.00  0.00     0.021 C 
ATOM     19  C   UNL     1       3.166  13.089  -0.501  1.00  0.00     0.011 C 
ATOM     20  C   UNL     1       3.861  10.926  -1.600  1.00  0.00     0.011 C 
ENDBRANCH  17  18
ENDBRANCH  16  17
ENDBRANCH  14  16
ENDBRANCH   6  14
TORSDOF 8
ENDMDL
MODEL 6
REMARK VINA RESULT:    -4.361      1.484      4.781
REMARK INTER + INTRA:          -8.134
REMARK INTER:                  -6.351
REMARK INTRA:                  -1.783
REMARK UNBOUND:                -1.735
REMARK SMILES CC(C)COC(=O)c1ccccc1C(=O)OCC(C)C
REMARK SMILES IDX 8 1 9 2 10 3 11 4 12 5 13 6 6 7 7 8 5 9 4 10 2 11 1 12 3 13
REMARK SMILES IDX 14 14 15 15 16 16 17 17 18 18 19 19 20 20
REMARK H PARENT
REMARK Flexibility Score: inf
ROOT
ATOM      1  C   UNL     1       0.782  10.707   2.460  1.00  0.00     0.074 A 
ATOM      2  C   UNL     1       0.434  10.329   3.769  1.00  0.00     0.016 A 
ATOM      3  C   UNL     1       0.871   9.115   4.301  1.00  0.00     0.001 A 
ATOM      4  C   UNL     1       1.662   8.261   3.536  1.00  0.00     0.001 A 
ATOM      5  C   UNL     1       1.999   8.605   2.226  1.00  0.00     0.016 A 
ATOM      6  C   UNL     1       1.549   9.813   1.662  1.00  0.00     0.074 A 
ENDROOT
BRANCH   1   7
ATOM      7  C   UNL     1       0.380  12.053   1.997  1.00  0.00     0.339 C 
ATOM      8  O   UNL     1       1.223  12.991   1.961  1.00  0.00    -0.246 OA
BRANCH   7   9
ATOM      9  O   UNL     1      -0.958  12.292   1.657  1.00  0.00    -0.462 OA
BRANCH   9  10
ATOM     10  C   UNL     1      -1.643  11.587   0.623  1.00  0.00     0.236 C 
BRANCH  10  11
ATOM     11  C   UNL     1      -2.737  10.671   1.203  1.00  0.00     0.021 C 
ATOM     12  C   UNL     1      -3.165  11.163   2.589  1.00  0.00     0.011 C 
ATOM     13  C   UNL     1      -2.255   9.216   1.279  1.00  0.00     0.011 C 
ENDBRANCH  10  11
ENDBRANCH   9  10
ENDBRANCH   7   9
ENDBRANCH   1   7
BRANCH   6  14
ATOM     14  C   UNL     1       1.847  10.062   0.232  1.00  0.00     0.339 C 
ATOM     15  O   UNL     1       2.837  10.769  -0.101  1.00  0.00    -0.246 OA
BRANCH  14  16
ATOM     16  O   UNL     1       0.987   9.553  -0.746  1.00  0.00    -0.462 OA
BRANCH  16  17
ATOM     17  C   UNL     1       1.409   8.614  -1.732  1.00  0.00     0.236 C 
BRANCH  17  18
ATOM     18  C   UNL     1       1.684   7.245  -1.091  1.00  0.00     0.021 C 
ATOM     19  C   UNL     1       2.316   6.278  -2.099  1.00  0.00     0.011 C 
ATOM     20  C   UNL     1       0.404   6.647  -0.494  1.00  0.00     0.011 C 
ENDBRANCH  17  18
ENDBRANCH  16  17
ENDBRANCH  14  16
ENDBRANCH   6  14
TORSDOF 8
ENDMDL
MODEL 7
REMARK VINA RESULT:    -4.355      1.750      5.723
REMARK INTER + INTRA:          -8.126
REMARK INTER:                  -6.773
REMARK INTRA:                  -1.353
REMARK UNBOUND:                -1.735
REMARK SMILES CC(C)COC(=O)c1ccccc1C(=O)OCC(C)C
REMARK SMILES IDX 8 1 9 2 10 3 11 4 12 5 13 6 6 7 7 8 5 9 4 10 2 11 1 12 3 13
REMARK SMILES IDX 14 14 15 15 16 16 17 17 18 18 19 19 20 20
REMARK H PARENT
REMARK Flexibility Score: inf
ROOT
ATOM      1  C   UNL     1       0.685  11.503   1.025  1.00  0.00     0.074 A 
ATOM      2  C   UNL     1       0.932  12.702   1.719  1.00  0.00     0.016 A 
ATOM      3  C   UNL     1       2.186  13.313   1.662  1.00  0.00     0.001 A 
ATOM      4  C   UNL     1       3.210  12.738   0.913  1.00  0.00     0.001 A 
ATOM      5  C   UNL     1       2.993  11.536   0.237  1.00  0.00     0.016 A 
ATOM      6  C   UNL     1       1.744  10.891   0.300  1.00  0.00     0.074 A 
ENDROOT
BRANCH   1   7
ATOM      7  C   UNL     1      -0.694  10.969   1.037  1.00  0.00     0.339 C 
ATOM      8  O   UNL     1      -1.591  11.507   0.331  1.00  0.00    -0.246 OA
BRANCH   7   9
ATOM      9  O   UNL     1      -1.010   9.899   1.884  1.00  0.00    -0.462 OA
BRANCH   9  10
ATOM     10  C   UNL     1      -1.630  10.062   3.158  1.00  0.00     0.236 C 
BRANCH  10  11
ATOM     11  C   UNL     1      -0.849   9.319   4.258  1.00  0.00     0.021 C 
ATOM     12  C   UNL     1       0.594   9.828   4.323  1.00  0.00     0.011 C 
ATOM     13  C   UNL     1      -0.870   7.803   4.022  1.00  0.00     0.011 C 
ENDBRANCH  10  11
ENDBRANCH   9  10
ENDBRANCH   7   9
ENDBRANCH   1   7
BRANCH   6  14
ATOM     14  C   UNL     1       1.618   9.564  -0.345  1.00  0.00     0.339 C 
ATOM     15  O   UNL     1       1.679   8.509   0.345  1.00  0.00    -0.246 OA
BRANCH  14  16
ATOM     16  O   UNL     1       1.487   9.486  -1.735  1.00  0.00    -0.462 OA
BRANCH  16  17
ATOM     17  C   UNL     1       2.534   9.021  -2.584  1.00  0.00     0.236 C 
BRANCH  17  18
ATOM     18  C   UNL     1       3.100  10.176  -3.424  1.00  0.00     0.021 C 
ATOM     19  C   UNL     1       4.507  10.565  -2.953  1.00  0.00     0.011 C 
ATOM     20  C   UNL     1       2.165  11.391  -3.397  1.00  0.00     0.011 C 
ENDBRANCH  17  18
ENDBRANCH  16  17
ENDBRANCH  14  16
ENDBRANCH   6  14
TORSDOF 8
ENDMDL
MODEL 8
REMARK VINA RESULT:    -4.326     10.284     12.560
REMARK INTER + INTRA:          -8.083
REMARK INTER:                  -6.796
REMARK INTRA:                  -1.288
REMARK UNBOUND:                -1.735
REMARK SMILES CC(C)COC(=O)c1ccccc1C(=O)OCC(C)C
REMARK SMILES IDX 8 1 9 2 10 3 11 4 12 5 13 6 6 7 7 8 5 9 4 10 2 11 1 12 3 13
REMARK SMILES IDX 14 14 15 15 16 16 17 17 18 18 19 19 20 20
REMARK H PARENT
REMARK Flexibility Score: inf
ROOT
ATOM      1  C   UNL     1       1.591  22.534   4.900  1.00  0.00     0.074 A 
ATOM      2  C   UNL     1       0.681  22.938   5.895  1.00  0.00     0.016 A 
ATOM      3  C   UNL     1       1.135  23.391   7.134  1.00  0.00     0.001 A 
ATOM      4  C   UNL     1       2.500  23.448   7.400  1.00  0.00     0.001 A 
ATOM      5  C   UNL     1       3.420  23.029   6.437  1.00  0.00     0.016 A 
ATOM      6  C   UNL     1       2.984  22.547   5.189  1.00  0.00     0.074 A 
ENDROOT
BRANCH   1   7
ATOM      7  C   UNL     1       1.049  22.170   3.573  1.00  0.00     0.339 C 
ATOM      8  O   UNL     1       1.302  22.886   2.566  1.00  0.00    -0.246 OA
BRANCH   7   9
ATOM      9  O   UNL     1       0.205  21.059   3.455  1.00  0.00    -0.462 OA
BRANCH   9  10
ATOM     10  C   UNL     1      -0.795  20.935   2.446  1.00  0.00     0.236 C 
BRANCH  10  11
ATOM     11  C   UNL     1      -2.181  21.345   2.979  1.00  0.00     0.021 C 
ATOM     12  C   UNL     1      -2.449  22.824   2.684  1.00  0.00     0.011 C 
ATOM     13  C   UNL     1      -2.294  21.073   4.486  1.00  0.00     0.011 C 
ENDBRANCH  10  11
ENDBRANCH   9  10
ENDBRANCH   7   9
ENDBRANCH   1   7
BRANCH   6  14
ATOM     14  C   UNL     1       4.005  22.013   4.259  1.00  0.00     0.339 C 
ATOM     15  O   UNL     1       4.593  22.779   3.447  1.00  0.00    -0.246 OA
BRANCH  14  16
ATOM     16  O   UNL     1       4.271  20.640   4.247  1.00  0.00    -0.462 OA
BRANCH  16  17
ATOM     17  C   UNL     1       4.449  19.898   3.043  1.00  0.00     0.236 C 
BRANCH  17  18
ATOM     18  C   UNL     1       3.144  19.188   2.651  1.00  0.00     0.021 C 
ATOM     19  C   UNL     1       3.315  17.664   2.674  1.00  0.00     0.011 C 
ATOM     20  C   UNL     1       2.648  19.658   1.278  1.00  0.00     0.011 C 
ENDBRANCH  17  18
ENDBRANCH  16  17
ENDBRANCH  14  16
ENDBRANCH   6  14
TORSDOF 8
ENDMDL
MODEL 9
REMARK VINA RESULT:    -4.270      2.759      3.957
REMARK INTER + INTRA:          -8.001
REMARK INTER:                  -6.245
REMARK INTRA:                  -1.757
REMARK UNBOUND:                -1.735
REMARK SMILES CC(C)COC(=O)c1ccccc1C(=O)OCC(C)C
REMARK SMILES IDX 8 1 9 2 10 3 11 4 12 5 13 6 6 7 7 8 5 9 4 10 2 11 1 12 3 13
REMARK SMILES IDX 14 14 15 15 16 16 17 17 18 18 19 19 20 20
REMARK H PARENT
REMARK Flexibility Score: inf
ROOT
ATOM      1  C   UNL     1      -0.443   8.542   1.784  1.00  0.00     0.074 A 
ATOM      2  C   UNL     1      -1.622   9.177   1.351  1.00  0.00     0.016 A 
ATOM      3  C   UNL     1      -2.387   9.939   2.235  1.00  0.00     0.001 A 
ATOM      4  C   UNL     1      -1.988  10.080   3.562  1.00  0.00     0.001 A 
ATOM      5  C   UNL     1      -0.835   9.439   4.018  1.00  0.00     0.016 A 
ATOM      6  C   UNL     1      -0.062   8.647   3.150  1.00  0.00     0.074 A 
ENDROOT
BRANCH   1   7
ATOM      7  C   UNL     1       0.378   7.843   0.772  1.00  0.00     0.339 C 
ATOM      8  O   UNL     1       0.086   6.667   0.419  1.00  0.00    -0.246 OA
BRANCH   7   9
ATOM      9  O   UNL     1       1.515   8.474   0.252  1.00  0.00    -0.462 OA
BRANCH   9  10
ATOM     10  C   UNL     1       1.534   9.838  -0.165  1.00  0.00     0.236 C 
BRANCH  10  11
ATOM     11  C   UNL     1       2.261  10.726   0.863  1.00  0.00     0.021 C 
ATOM     12  C   UNL     1       1.289  11.738   1.476  1.00  0.00     0.011 C 
ATOM     13  C   UNL     1       3.452  11.451   0.221  1.00  0.00     0.011 C 
ENDBRANCH  10  11
ENDBRANCH   9  10
ENDBRANCH   7   9
ENDBRANCH   1   7
BRANCH   6  14
ATOM     14  C   UNL     1       1.082   7.904   3.727  1.00  0.00     0.339 C 
ATOM     15  O   UNL     1       2.267   8.266   3.486  1.00  0.00    -0.246 OA
BRANCH  14  16
ATOM     16  O   UNL     1       0.841   6.761   4.495  1.00  0.00    -0.462 OA
BRANCH  16  17
ATOM     17  C   UNL     1      -0.144   5.790   4.147  1.00  0.00     0.236 C 
BRANCH  17  18
ATOM     18  C   UNL     1      -1.403   5.967   5.009  1.00  0.00     0.021 C 
ATOM     19  C   UNL     1      -1.582   4.791   5.977  1.00  0.00     0.011 C 
ATOM     20  C   UNL     1      -2.652   6.146   4.136  1.00  0.00     0.011 C 
ENDBRANCH  17  18
ENDBRANCH  16  17
ENDBRANCH  14  16
ENDBRANCH   6  14
TORSDOF 8
ENDMDL
