MODEL 1
REMARK VINA RESULT:    -5.406      0.000      0.000
REMARK INTER + INTRA:          -7.042
REMARK INTER:                  -6.512
REMARK INTRA:                  -0.530
REMARK UNBOUND:                -0.530
REMARK SMILES CCCCc1oc(O)c2ccccc12
REMARK SMILES IDX 4 1 5 2 7 3 6 4 9 5 14 6 10 7 13 8 11 9 12 10 8 11 3 13 2 14
REMARK SMILES IDX 1 15
REMARK H PARENT 8 12
REMARK Flexibility Score: inf
ROOT
ATOM      1  C   UNL     1       9.238 -13.241  -4.902  1.00  0.00     0.076 C 
ENDROOT
BRANCH   1   2
ATOM      2  C   UNL     1       8.072 -13.878  -5.593  1.00  0.00     0.116 A 
ATOM      3  C   UNL     1       6.865 -14.686  -7.171  1.00  0.00     0.290 A 
ATOM      4  O   UNL     1       8.007 -14.086  -6.896  1.00  0.00    -0.430 OA
ATOM      5  C   UNL     1       6.152 -14.884  -6.008  1.00  0.00     0.066 A 
ATOM      6  C   UNL     1       6.924 -14.371  -4.999  1.00  0.00     0.027 A 
ATOM      7  C   UNL     1       4.912 -15.472  -5.761  1.00  0.00     0.016 A 
ATOM      8  C   UNL     1       6.512 -14.411  -3.667  1.00  0.00     0.012 A 
ATOM      9  C   UNL     1       4.468 -15.525  -4.426  1.00  0.00     0.001 A 
ATOM     10  C   UNL     1       5.264 -14.999  -3.384  1.00  0.00     0.001 A 
BRANCH   3  11
ATOM     11  O   UNL     1       6.470 -15.052  -8.455  1.00  0.00    -0.480 OA
ATOM     12  H   UNL     1       6.122 -14.367  -9.114  1.00  0.00     0.297 HD
ENDBRANCH   3  11
ENDBRANCH   1   2
BRANCH   1  13
ATOM     13  C   UNL     1      10.429 -14.207  -4.862  1.00  0.00     0.008 C 
BRANCH  13  14
ATOM     14  C   UNL     1      10.278 -15.283  -3.775  1.00  0.00    -0.003 C 
ATOM     15  C   UNL     1       9.972 -14.693  -2.398  1.00  0.00     0.004 C 
ENDBRANCH  13  14
ENDBRANCH   1  13
TORSDOF 4
ENDMDL
MODEL 2
REMARK VINA RESULT:    -5.179      2.213      4.957
REMARK INTER + INTRA:          -6.769
REMARK INTER:                  -6.283
REMARK INTRA:                  -0.486
REMARK UNBOUND:                -0.530
REMARK SMILES CCCCc1oc(O)c2ccccc12
REMARK SMILES IDX 4 1 5 2 7 3 6 4 9 5 14 6 10 7 13 8 11 9 12 10 8 11 3 13 2 14
REMARK SMILES IDX 1 15
REMARK H PARENT 8 12
REMARK Flexibility Score: inf
ROOT
ATOM      1  C   UNL     1       5.979 -12.890  -4.494  1.00  0.00     0.076 C 
ENDROOT
BRANCH   1   2
ATOM      2  C   UNL     1       7.376 -13.317  -4.166  1.00  0.00     0.116 A 
ATOM      3  C   UNL     1       9.108 -13.807  -2.999  1.00  0.00     0.290 A 
ATOM      4  O   UNL     1       7.867 -13.367  -2.940  1.00  0.00    -0.430 OA
ATOM      5  C   UNL     1       9.449 -14.060  -4.311  1.00  0.00     0.066 A 
ATOM      6  C   UNL     1       8.342 -13.750  -5.057  1.00  0.00     0.027 A 
ATOM      7  C   UNL     1      10.622 -14.538  -4.896  1.00  0.00     0.016 A 
ATOM      8  C   UNL     1       8.326 -13.898  -6.443  1.00  0.00     0.012 A 
ATOM      9  C   UNL     1      10.637 -14.695  -6.294  1.00  0.00     0.001 A 
ATOM     10  C   UNL     1       9.495 -14.378  -7.065  1.00  0.00     0.001 A 
BRANCH   3  11
ATOM     11  O   UNL     1       9.924 -13.981  -1.885  1.00  0.00    -0.480 OA
ATOM     12  H   UNL     1      10.554 -14.770  -1.812  1.00  0.00     0.297 HD
ENDBRANCH   3  11
ENDBRANCH   1   2
BRANCH   1  13
ATOM     13  C   UNL     1       4.968 -13.660  -3.635  1.00  0.00     0.008 C 
BRANCH  13  14
ATOM     14  C   UNL     1       4.957 -15.165  -3.944  1.00  0.00    -0.003 C 
ATOM     15  C   UNL     1       4.630 -15.465  -5.407  1.00  0.00     0.004 C 
ENDBRANCH  13  14
ENDBRANCH   1  13
TORSDOF 4
ENDMDL
MODEL 3
REMARK VINA RESULT:    -5.170      1.539      1.795
REMARK INTER + INTRA:          -6.757
REMARK INTER:                  -6.486
REMARK INTRA:                  -0.272
REMARK UNBOUND:                -0.530
REMARK SMILES CCCCc1oc(O)c2ccccc12
REMARK SMILES IDX 4 1 5 2 7 3 6 4 9 5 14 6 10 7 13 8 11 9 12 10 8 11 3 13 2 14
REMARK SMILES IDX 1 15
REMARK H PARENT 8 12
REMARK Flexibility Score: inf
ROOT
ATOM      1  C   UNL     1       7.901 -13.422  -3.664  1.00  0.00     0.076 C 
ENDROOT
BRANCH   1   2
ATOM      2  C   UNL     1       6.829 -14.103  -4.457  1.00  0.00     0.116 A 
ATOM      3  C   UNL     1       5.907 -15.405  -5.891  1.00  0.00     0.290 A 
ATOM      4  O   UNL     1       7.062 -14.978  -5.419  1.00  0.00    -0.430 OA
ATOM      5  C   UNL     1       4.874 -14.793  -5.213  1.00  0.00     0.066 A 
ATOM      6  C   UNL     1       5.461 -13.963  -4.295  1.00  0.00     0.027 A 
ATOM      7  C   UNL     1       3.488 -14.905  -5.325  1.00  0.00     0.016 A 
ATOM      8  C   UNL     1       4.706 -13.186  -3.418  1.00  0.00     0.012 A 
ATOM      9  C   UNL     1       2.698 -14.131  -4.455  1.00  0.00     0.001 A 
ATOM     10  C   UNL     1       3.303 -13.276  -3.505  1.00  0.00     0.001 A 
BRANCH   3  11
ATOM     11  O   UNL     1       5.785 -16.337  -6.918  1.00  0.00    -0.480 OA
ATOM     12  H   UNL     1       4.962 -16.921  -7.003  1.00  0.00     0.297 HD
ENDBRANCH   3  11
ENDBRANCH   1   2
BRANCH   1  13
ATOM     13  C   UNL     1       9.218 -13.402  -4.451  1.00  0.00     0.008 C 
BRANCH  13  14
ATOM     14  C   UNL     1      10.249 -14.398  -3.897  1.00  0.00    -0.003 C 
ATOM     15  C   UNL     1       9.964 -14.800  -2.450  1.00  0.00     0.004 C 
ENDBRANCH  13  14
ENDBRANCH   1  13
TORSDOF 4
ENDMDL
MODEL 4
REMARK VINA RESULT:    -5.115      1.997      4.556
REMARK INTER + INTRA:          -6.692
REMARK INTER:                  -6.457
REMARK INTRA:                  -0.235
REMARK UNBOUND:                -0.530
REMARK SMILES CCCCc1oc(O)c2ccccc12
REMARK SMILES IDX 4 1 5 2 7 3 6 4 9 5 14 6 10 7 13 8 11 9 12 10 8 11 3 13 2 14
REMARK SMILES IDX 1 15
REMARK H PARENT 8 12
REMARK Flexibility Score: inf
ROOT
ATOM      1  C   UNL     1       5.273 -13.098  -3.224  1.00  0.00     0.076 C 
ENDROOT
BRANCH   1   2
ATOM      2  C   UNL     1       5.981 -14.082  -4.104  1.00  0.00     0.116 A 
ATOM      3  C   UNL     1       6.312 -15.485  -5.692  1.00  0.00     0.290 A 
ATOM      4  O   UNL     1       5.410 -14.719  -5.111  1.00  0.00    -0.430 OA
ATOM      5  C   UNL     1       7.523 -15.346  -5.048  1.00  0.00     0.066 A 
ATOM      6  C   UNL     1       7.313 -14.448  -4.035  1.00  0.00     0.027 A 
ATOM      7  C   UNL     1       8.772 -15.924  -5.275  1.00  0.00     0.016 A 
ATOM      8  C   UNL     1       8.340 -14.058  -3.175  1.00  0.00     0.012 A 
ATOM      9  C   UNL     1       9.828 -15.552  -4.420  1.00  0.00     0.001 A 
ATOM     10  C   UNL     1       9.613 -14.623  -3.377  1.00  0.00     0.001 A 
BRANCH   3  11
ATOM     11  O   UNL     1       6.048 -16.298  -6.791  1.00  0.00    -0.480 OA
ATOM     12  H   UNL     1       6.651 -16.293  -7.605  1.00  0.00     0.297 HD
ENDBRANCH   3  11
ENDBRANCH   1   2
BRANCH   1  13
ATOM     13  C   UNL     1       3.838 -12.875  -3.716  1.00  0.00     0.008 C 
BRANCH  13  14
ATOM     14  C   UNL     1       2.820 -13.764  -2.985  1.00  0.00    -0.003 C 
ATOM     15  C   UNL     1       1.666 -14.205  -3.887  1.00  0.00     0.004 C 
ENDBRANCH  13  14
ENDBRANCH   1  13
TORSDOF 4
ENDMDL
MODEL 5
REMARK VINA RESULT:    -5.041     10.430     12.106
REMARK INTER + INTRA:          -6.602
REMARK INTER:                  -6.359
REMARK INTRA:                  -0.244
REMARK UNBOUND:                -0.530
REMARK SMILES CCCCc1oc(O)c2ccccc12
REMARK SMILES IDX 4 1 5 2 7 3 6 4 9 5 14 6 10 7 13 8 11 9 12 10 8 11 3 13 2 14
REMARK SMILES IDX 1 15
REMARK H PARENT 8 12
REMARK Flexibility Score: inf
ROOT
ATOM      1  C   UNL     1       2.390 -22.999   1.962  1.00  0.00     0.076 C 
ENDROOT
BRANCH   1   2
ATOM      2  C   UNL     1       2.265 -23.844   0.733  1.00  0.00     0.116 A 
ATOM      3  C   UNL     1       2.011 -25.586  -0.494  1.00  0.00     0.290 A 
ATOM      4  O   UNL     1       2.117 -25.157   0.749  1.00  0.00    -0.430 OA
ATOM      5  C   UNL     1       2.088 -24.517  -1.362  1.00  0.00     0.066 A 
ATOM      6  C   UNL     1       2.248 -23.404  -0.579  1.00  0.00     0.027 A 
ATOM      7  C   UNL     1       2.024 -24.437  -2.753  1.00  0.00     0.016 A 
ATOM      8  C   UNL     1       2.352 -22.127  -1.130  1.00  0.00     0.012 A 
ATOM      9  C   UNL     1       2.129 -23.162  -3.339  1.00  0.00     0.001 A 
ATOM     10  C   UNL     1       2.291 -22.012  -2.532  1.00  0.00     0.001 A 
BRANCH   3  11
ATOM     11  O   UNL     1       1.844 -26.923  -0.842  1.00  0.00    -0.480 OA
ATOM     12  H   UNL     1       2.265 -27.304  -1.681  1.00  0.00     0.297 HD
ENDBRANCH   3  11
ENDBRANCH   1   2
BRANCH   1  13
ATOM     13  C   UNL     1       1.081 -22.245   2.229  1.00  0.00     0.008 C 
BRANCH  13  14
ATOM     14  C   UNL     1       1.211 -21.225   3.372  1.00  0.00    -0.003 C 
ATOM     15  C   UNL     1       0.879 -19.799   2.931  1.00  0.00     0.004 C 
ENDBRANCH  13  14
ENDBRANCH   1  13
TORSDOF 4
ENDMDL
MODEL 6
REMARK VINA RESULT:    -4.974      2.540      4.011
REMARK INTER + INTRA:          -6.521
REMARK INTER:                  -5.997
REMARK INTRA:                  -0.525
REMARK UNBOUND:                -0.530
REMARK SMILES CCCCc1oc(O)c2ccccc12
REMARK SMILES IDX 4 1 5 2 7 3 6 4 9 5 14 6 10 7 13 8 11 9 12 10 8 11 3 13 2 14
REMARK SMILES IDX 1 15
REMARK H PARENT 8 12
REMARK Flexibility Score: inf
ROOT
ATOM      1  C   UNL     1      10.924 -14.756  -6.569  1.00  0.00     0.076 C 
ENDROOT
BRANCH   1   2
ATOM      2  C   UNL     1      10.089 -14.634  -5.332  1.00  0.00     0.116 A 
ATOM      3  C   UNL     1       9.563 -14.230  -3.292  1.00  0.00     0.290 A 
ATOM      4  O   UNL     1      10.560 -14.258  -4.155  1.00  0.00    -0.430 OA
ATOM      5  C   UNL     1       8.392 -14.596  -3.922  1.00  0.00     0.066 A 
ATOM      6  C   UNL     1       8.727 -14.853  -5.225  1.00  0.00     0.027 A 
ATOM      7  C   UNL     1       7.082 -14.715  -3.460  1.00  0.00     0.016 A 
ATOM      8  C   UNL     1       7.774 -15.243  -6.165  1.00  0.00     0.012 A 
ATOM      9  C   UNL     1       6.097 -15.111  -4.385  1.00  0.00     0.001 A 
ATOM     10  C   UNL     1       6.441 -15.373  -5.730  1.00  0.00     0.001 A 
BRANCH   3  11
ATOM     11  O   UNL     1       9.707 -13.875  -1.953  1.00  0.00    -0.480 OA
ATOM     12  H   UNL     1       9.678 -12.906  -1.661  1.00  0.00     0.297 HD
ENDBRANCH   3  11
ENDBRANCH   1   2
BRANCH   1  13
ATOM     13  C   UNL     1      10.856 -13.463  -7.391  1.00  0.00     0.008 C 
BRANCH  13  14
ATOM     14  C   UNL     1      10.062 -13.635  -8.695  1.00  0.00    -0.003 C 
ATOM     15  C   UNL     1       9.993 -15.091  -9.157  1.00  0.00     0.004 C 
ENDBRANCH  13  14
ENDBRANCH   1  13
TORSDOF 4
ENDMDL
MODEL 7
REMARK VINA RESULT:    -4.894     10.184     12.046
REMARK INTER + INTRA:          -6.426
REMARK INTER:                  -6.146
REMARK INTRA:                  -0.280
REMARK UNBOUND:                -0.530
REMARK SMILES CCCCc1oc(O)c2ccccc12
REMARK SMILES IDX 4 1 5 2 7 3 6 4 9 5 14 6 10 7 13 8 11 9 12 10 8 11 3 13 2 14
REMARK SMILES IDX 1 15
REMARK H PARENT 8 12
REMARK Flexibility Score: inf
ROOT
ATOM      1  C   UNL     1       3.005 -21.972  -1.922  1.00  0.00     0.076 C 
ENDROOT
BRANCH   1   2
ATOM      2  C   UNL     1       3.106 -23.042  -0.879  1.00  0.00     0.116 A 
ATOM      3  C   UNL     1       3.638 -24.020   0.954  1.00  0.00     0.290 A 
ATOM      4  O   UNL     1       3.772 -22.910   0.255  1.00  0.00    -0.430 OA
ATOM      5  C   UNL     1       2.853 -24.915   0.260  1.00  0.00     0.066 A 
ATOM      6  C   UNL     1       2.510 -24.290  -0.911  1.00  0.00     0.027 A 
ATOM      7  C   UNL     1       2.414 -26.204   0.563  1.00  0.00     0.016 A 
ATOM      8  C   UNL     1       1.700 -24.908  -1.863  1.00  0.00     0.012 A 
ATOM      9  C   UNL     1       1.597 -26.854  -0.380  1.00  0.00     0.001 A 
ATOM     10  C   UNL     1       1.241 -26.210  -1.587  1.00  0.00     0.001 A 
BRANCH   3  11
ATOM     11  O   UNL     1       4.215 -24.222   2.205  1.00  0.00    -0.480 OA
ATOM     12  H   UNL     1       3.673 -24.127   3.055  1.00  0.00     0.297 HD
ENDBRANCH   3  11
ENDBRANCH   1   2
BRANCH   1  13
ATOM     13  C   UNL     1       1.535 -21.643  -2.211  1.00  0.00     0.008 C 
BRANCH  13  14
ATOM     14  C   UNL     1       1.218 -21.632  -3.714  1.00  0.00    -0.003 C 
ATOM     15  C   UNL     1       2.375 -22.155  -4.566  1.00  0.00     0.004 C 
ENDBRANCH  13  14
ENDBRANCH   1  13
TORSDOF 4
ENDMDL
MODEL 8
REMARK VINA RESULT:    -4.836      9.988     11.875
REMARK INTER + INTRA:          -6.356
REMARK INTER:                  -5.975
REMARK INTRA:                  -0.381
REMARK UNBOUND:                -0.530
REMARK SMILES CCCCc1oc(O)c2ccccc12
REMARK SMILES IDX 4 1 5 2 7 3 6 4 9 5 14 6 10 7 13 8 11 9 12 10 8 11 3 13 2 14
REMARK SMILES IDX 1 15
REMARK H PARENT 8 12
REMARK Flexibility Score: inf
ROOT
ATOM      1  C   UNL     1       2.205 -24.759   0.744  1.00  0.00     0.076 C 
ENDROOT
BRANCH   1   2
ATOM      2  C   UNL     1       2.798 -23.829  -0.270  1.00  0.00     0.116 A 
ATOM      3  C   UNL     1       4.185 -22.479  -1.192  1.00  0.00     0.290 A 
ATOM      4  O   UNL     1       3.942 -23.188  -0.108  1.00  0.00    -0.430 OA
ATOM      5  C   UNL     1       3.168 -22.660  -2.105  1.00  0.00     0.066 A 
ATOM      6  C   UNL     1       2.282 -23.525  -1.517  1.00  0.00     0.027 A 
ATOM      7  C   UNL     1       2.960 -22.148  -3.385  1.00  0.00     0.016 A 
ATOM      8  C   UNL     1       1.123 -23.944  -2.170  1.00  0.00     0.012 A 
ATOM      9  C   UNL     1       1.796 -22.551  -4.068  1.00  0.00     0.001 A 
ATOM     10  C   UNL     1       0.883 -23.445  -3.464  1.00  0.00     0.001 A 
BRANCH   3  11
ATOM     11  O   UNL     1       5.313 -21.679  -1.359  1.00  0.00    -0.480 OA
ATOM     12  H   UNL     1       5.358 -20.980  -2.089  1.00  0.00     0.297 HD
ENDBRANCH   3  11
ENDBRANCH   1   2
BRANCH   1  13
ATOM     13  C   UNL     1       2.486 -26.218   0.362  1.00  0.00     0.008 C 
BRANCH  13  14
ATOM     14  C   UNL     1       1.266 -27.127   0.574  1.00  0.00    -0.003 C 
ATOM     15  C   UNL     1       0.876 -27.896  -0.689  1.00  0.00     0.004 C 
ENDBRANCH  13  14
ENDBRANCH   1  13
TORSDOF 4
ENDMDL
MODEL 9
REMARK VINA RESULT:    -4.469      2.259      3.720
REMARK INTER + INTRA:          -5.913
REMARK INTER:                  -5.426
REMARK INTRA:                  -0.488
REMARK UNBOUND:                -0.530
REMARK SMILES CCCCc1oc(O)c2ccccc12
REMARK SMILES IDX 4 1 5 2 7 3 6 4 9 5 14 6 10 7 13 8 11 9 12 10 8 11 3 13 2 14
REMARK SMILES IDX 1 15
REMARK H PARENT 8 12
REMARK Flexibility Score: inf
ROOT
ATOM      1  C   UNL     1       9.000 -14.083  -8.600  1.00  0.00     0.076 C 
ENDROOT
BRANCH   1   2
ATOM      2  C   UNL     1       8.242 -14.498  -7.377  1.00  0.00     0.116 A 
ATOM      3  C   UNL     1       6.701 -15.368  -6.164  1.00  0.00     0.290 A 
ATOM      4  O   UNL     1       7.080 -15.128  -7.404  1.00  0.00    -0.430 OA
ATOM      5  C   UNL     1       7.648 -14.883  -5.287  1.00  0.00     0.066 A 
ATOM      6  C   UNL     1       8.634 -14.330  -6.061  1.00  0.00     0.027 A 
ATOM      7  C   UNL     1       7.722 -14.893  -3.894  1.00  0.00     0.016 A 
ATOM      8  C   UNL     1       9.769 -13.748  -5.498  1.00  0.00     0.012 A 
ATOM      9  C   UNL     1       8.855 -14.309  -3.297  1.00  0.00     0.001 A 
ATOM     10  C   UNL     1       9.874 -13.740  -4.094  1.00  0.00     0.001 A 
BRANCH   3  11
ATOM     11  O   UNL     1       5.517 -16.018  -5.827  1.00  0.00    -0.480 OA
ATOM     12  H   UNL     1       4.938 -15.693  -5.063  1.00  0.00     0.297 HD
ENDBRANCH   3  11
ENDBRANCH   1   2
BRANCH   1  13
ATOM     13  C   UNL     1       9.927 -15.214  -9.065  1.00  0.00     0.008 C 
BRANCH  13  14
ATOM     14  C   UNL     1      11.329 -15.121  -8.442  1.00  0.00    -0.003 C 
ATOM     15  C   UNL     1      11.948 -13.730  -8.588  1.00  0.00     0.004 C 
ENDBRANCH  13  14
ENDBRANCH   1  13
TORSDOF 4
ENDMDL
