MODEL 1
REMARK VINA RESULT:    -5.499      0.000      0.000
REMARK INTER + INTRA:          -5.659
REMARK INTER:                  -5.659
REMARK INTRA:                   0.000
REMARK UNBOUND:                 0.000
REMARK SMILES O=c1ccc2ccc(O)cc2o1
REMARK SMILES IDX 6 1 7 2 8 3 10 4 11 5 5 6 4 7 3 8 2 9 1 10 12 11 9 12
REMARK H PARENT 9 13
REMARK Flexibility Score: inf
ROOT
ATOM      1  C   UNL     1       6.681 -13.956   5.185  1.00  0.00     0.016 A 
ATOM      2  C   UNL     1       5.447 -13.632   5.757  1.00  0.00     0.047 A 
ATOM      3  C   UNL     1       5.099 -14.132   7.022  1.00  0.00     0.119 A 
ATOM      4  C   UNL     1       5.991 -14.958   7.715  1.00  0.00     0.094 A 
ATOM      5  C   UNL     1       7.229 -15.288   7.151  1.00  0.00     0.142 A 
ATOM      6  C   UNL     1       7.577 -14.783   5.878  1.00  0.00     0.018 A 
ATOM      7  C   UNL     1       8.820 -15.131   5.340  1.00  0.00     0.019 A 
ATOM      8  C   UNL     1       9.674 -15.957   6.069  1.00  0.00     0.094 A 
ATOM      9  C   UNL     1       9.262 -16.419   7.325  1.00  0.00     0.336 A 
ATOM     10  O   UNL     1      10.020 -17.166   7.998  1.00  0.00    -0.246 OA
ATOM     11  O   UNL     1       8.074 -16.074   7.813  1.00  0.00    -0.423 OA
ENDROOT
BRANCH   3  12
ATOM     12  O   UNL     1       3.871 -13.813   7.596  1.00  0.00    -0.508 OA
ATOM     13  H   UNL     1       3.156 -14.517   7.741  1.00  0.00     0.293 HD
ENDBRANCH   3  12
TORSDOF 1
ENDMDL
MODEL 2
REMARK VINA RESULT:    -5.434      0.950      4.265
REMARK INTER + INTRA:          -5.593
REMARK INTER:                  -5.593
REMARK INTRA:                   0.000
REMARK UNBOUND:                 0.000
REMARK SMILES O=c1ccc2ccc(O)cc2o1
REMARK SMILES IDX 6 1 7 2 8 3 10 4 11 5 5 6 4 7 3 8 2 9 1 10 12 11 9 12
REMARK H PARENT 9 13
REMARK Flexibility Score: inf
ROOT
ATOM      1  C   UNL     1       9.576 -15.220   5.409  1.00  0.00     0.016 A 
ATOM      2  C   UNL     1      10.278 -16.168   6.161  1.00  0.00     0.047 A 
ATOM      3  C   UNL     1       9.680 -16.768   7.280  1.00  0.00     0.119 A 
ATOM      4  C   UNL     1       8.376 -16.417   7.646  1.00  0.00     0.094 A 
ATOM      5  C   UNL     1       7.665 -15.469   6.900  1.00  0.00     0.142 A 
ATOM      6  C   UNL     1       8.270 -14.867   5.774  1.00  0.00     0.018 A 
ATOM      7  C   UNL     1       7.536 -13.924   5.049  1.00  0.00     0.019 A 
ATOM      8  C   UNL     1       6.239 -13.607   5.453  1.00  0.00     0.094 A 
ATOM      9  C   UNL     1       5.705 -14.245   6.579  1.00  0.00     0.336 A 
ATOM     10  O   UNL     1       4.536 -13.973   6.960  1.00  0.00    -0.246 OA
ATOM     11  O   UNL     1       6.425 -15.139   7.252  1.00  0.00    -0.423 OA
ENDROOT
BRANCH   3  12
ATOM     12  O   UNL     1      10.373 -17.712   8.033  1.00  0.00    -0.508 OA
ATOM     13  H   UNL     1      10.140 -17.891   9.003  1.00  0.00     0.293 HD
ENDBRANCH   3  12
TORSDOF 1
ENDMDL
MODEL 3
REMARK VINA RESULT:    -5.265      1.850      2.624
REMARK INTER + INTRA:          -5.419
REMARK INTER:                  -5.419
REMARK INTRA:                   0.000
REMARK UNBOUND:                 0.000
REMARK SMILES O=c1ccc2ccc(O)cc2o1
REMARK SMILES IDX 6 1 7 2 8 3 10 4 11 5 5 6 4 7 3 8 2 9 1 10 12 11 9 12
REMARK H PARENT 9 13
REMARK Flexibility Score: inf
ROOT
ATOM      1  C   UNL     1       7.066 -15.697   7.358  1.00  0.00     0.016 A 
ATOM      2  C   UNL     1       6.225 -14.795   6.699  1.00  0.00     0.047 A 
ATOM      3  C   UNL     1       6.698 -14.057   5.603  1.00  0.00     0.119 A 
ATOM      4  C   UNL     1       8.017 -14.224   5.166  1.00  0.00     0.094 A 
ATOM      5  C   UNL     1       8.867 -15.123   5.820  1.00  0.00     0.142 A 
ATOM      6  C   UNL     1       8.388 -15.865   6.923  1.00  0.00     0.018 A 
ATOM      7  C   UNL     1       9.260 -16.756   7.556  1.00  0.00     0.019 A 
ATOM      8  C   UNL     1      10.566 -16.887   7.084  1.00  0.00     0.094 A 
ATOM      9  C   UNL     1      10.970 -16.120   5.985  1.00  0.00     0.336 A 
ATOM     10  O   UNL     1      12.145 -16.224   5.545  1.00  0.00    -0.246 OA
ATOM     11  O   UNL     1      10.120 -15.279   5.401  1.00  0.00    -0.423 OA
ENDROOT
BRANCH   3  12
ATOM     12  O   UNL     1       5.865 -13.157   4.942  1.00  0.00    -0.508 OA
ATOM     13  H   UNL     1       4.913 -12.994   5.249  1.00  0.00     0.293 HD
ENDBRANCH   3  12
TORSDOF 1
ENDMDL
MODEL 4
REMARK VINA RESULT:    -5.228      1.883      3.007
REMARK INTER + INTRA:          -5.381
REMARK INTER:                  -5.381
REMARK INTRA:                   0.000
REMARK UNBOUND:                 0.000
REMARK SMILES O=c1ccc2ccc(O)cc2o1
REMARK SMILES IDX 6 1 7 2 8 3 10 4 11 5 5 6 4 7 3 8 2 9 1 10 12 11 9 12
REMARK H PARENT 9 13
REMARK Flexibility Score: inf
ROOT
ATOM      1  C   UNL     1       3.820 -14.043   7.574  1.00  0.00     0.016 A 
ATOM      2  C   UNL     1       3.416 -14.667   8.758  1.00  0.00     0.047 A 
ATOM      3  C   UNL     1       4.255 -15.597   9.390  1.00  0.00     0.119 A 
ATOM      4  C   UNL     1       5.502 -15.903   8.834  1.00  0.00     0.094 A 
ATOM      5  C   UNL     1       5.915 -15.284   7.648  1.00  0.00     0.142 A 
ATOM      6  C   UNL     1       5.069 -14.347   7.014  1.00  0.00     0.018 A 
ATOM      7  C   UNL     1       5.508 -13.746   5.831  1.00  0.00     0.019 A 
ATOM      8  C   UNL     1       6.759 -14.083   5.315  1.00  0.00     0.094 A 
ATOM      9  C   UNL     1       7.544 -15.019   5.999  1.00  0.00     0.336 A 
ATOM     10  O   UNL     1       8.676 -15.337   5.549  1.00  0.00    -0.246 OA
ATOM     11  O   UNL     1       7.102 -15.578   7.122  1.00  0.00    -0.423 OA
ENDROOT
BRANCH   3  12
ATOM     12  O   UNL     1       3.859 -16.222  10.570  1.00  0.00    -0.508 OA
ATOM     13  H   UNL     1       4.481 -16.293  11.367  1.00  0.00     0.293 HD
ENDBRANCH   3  12
TORSDOF 1
ENDMDL
MODEL 5
REMARK VINA RESULT:    -5.191      1.719      4.042
REMARK INTER + INTRA:          -5.342
REMARK INTER:                  -5.342
REMARK INTRA:                   0.000
REMARK UNBOUND:                 0.000
REMARK SMILES O=c1ccc2ccc(O)cc2o1
REMARK SMILES IDX 6 1 7 2 8 3 10 4 11 5 5 6 4 7 3 8 2 9 1 10 12 11 9 12
REMARK H PARENT 9 13
REMARK Flexibility Score: inf
ROOT
ATOM      1  C   UNL     1       6.129 -13.651   5.454  1.00  0.00     0.016 A 
ATOM      2  C   UNL     1       7.429 -13.941   5.029  1.00  0.00     0.047 A 
ATOM      3  C   UNL     1       8.221 -14.852   5.745  1.00  0.00     0.119 A 
ATOM      4  C   UNL     1       7.709 -15.475   6.888  1.00  0.00     0.094 A 
ATOM      5  C   UNL     1       6.408 -15.190   7.322  1.00  0.00     0.142 A 
ATOM      6  C   UNL     1       5.613 -14.273   6.600  1.00  0.00     0.018 A 
ATOM      7  C   UNL     1       4.319 -14.009   7.057  1.00  0.00     0.019 A 
ATOM      8  C   UNL     1       3.852 -14.654   8.202  1.00  0.00     0.094 A 
ATOM      9  C   UNL     1       4.697 -15.552   8.866  1.00  0.00     0.336 A 
ATOM     10  O   UNL     1       4.294 -16.144   9.902  1.00  0.00    -0.246 OA
ATOM     11  O   UNL     1       5.925 -15.784   8.410  1.00  0.00    -0.423 OA
ENDROOT
BRANCH   3  12
ATOM     12  O   UNL     1       9.517 -15.145   5.327  1.00  0.00    -0.508 OA
ATOM     13  H   UNL     1       9.874 -14.815   4.438  1.00  0.00     0.293 HD
ENDBRANCH   3  12
TORSDOF 1
ENDMDL
MODEL 6
REMARK VINA RESULT:    -5.130      2.415      4.771
REMARK INTER + INTRA:          -5.280
REMARK INTER:                  -5.280
REMARK INTRA:                   0.000
REMARK UNBOUND:                 0.000
REMARK SMILES O=c1ccc2ccc(O)cc2o1
REMARK SMILES IDX 6 1 7 2 8 3 10 4 11 5 5 6 4 7 3 8 2 9 1 10 12 11 9 12
REMARK H PARENT 9 13
REMARK Flexibility Score: inf
ROOT
ATOM      1  C   UNL     1       6.997 -15.523   7.542  1.00  0.00     0.016 A 
ATOM      2  C   UNL     1       7.483 -14.906   6.385  1.00  0.00     0.047 A 
ATOM      3  C   UNL     1       6.661 -14.043   5.643  1.00  0.00     0.119 A 
ATOM      4  C   UNL     1       5.349 -13.798   6.063  1.00  0.00     0.094 A 
ATOM      5  C   UNL     1       4.853 -14.411   7.219  1.00  0.00     0.142 A 
ATOM      6  C   UNL     1       5.682 -15.279   7.964  1.00  0.00     0.018 A 
ATOM      7  C   UNL     1       5.159 -15.876   9.114  1.00  0.00     0.019 A 
ATOM      8  C   UNL     1       3.845 -15.601   9.492  1.00  0.00     0.094 A 
ATOM      9  C   UNL     1       3.082 -14.729   8.705  1.00  0.00     0.336 A 
ATOM     10  O   UNL     1       1.894 -14.468   9.029  1.00  0.00    -0.246 OA
ATOM     11  O   UNL     1       3.604 -14.175   7.614  1.00  0.00    -0.423 OA
ENDROOT
BRANCH   3  12
ATOM     12  O   UNL     1       7.140 -13.426   4.490  1.00  0.00    -0.508 OA
ATOM     13  H   UNL     1       6.511 -13.001   3.818  1.00  0.00     0.293 HD
ENDBRANCH   3  12
TORSDOF 1
ENDMDL
MODEL 7
REMARK VINA RESULT:    -5.074      1.825      5.041
REMARK INTER + INTRA:          -5.222
REMARK INTER:                  -5.222
REMARK INTRA:                   0.000
REMARK UNBOUND:                 0.000
REMARK SMILES O=c1ccc2ccc(O)cc2o1
REMARK SMILES IDX 6 1 7 2 8 3 10 4 11 5 5 6 4 7 3 8 2 9 1 10 12 11 9 12
REMARK H PARENT 9 13
REMARK Flexibility Score: inf
ROOT
ATOM      1  C   UNL     1       9.520 -17.130   7.801  1.00  0.00     0.016 A 
ATOM      2  C   UNL     1      10.823 -17.230   7.303  1.00  0.00     0.047 A 
ATOM      3  C   UNL     1      11.224 -16.450   6.208  1.00  0.00     0.119 A 
ATOM      4  C   UNL     1      10.317 -15.567   5.611  1.00  0.00     0.094 A 
ATOM      5  C   UNL     1       9.011 -15.460   6.102  1.00  0.00     0.142 A 
ATOM      6  C   UNL     1       8.610 -16.246   7.205  1.00  0.00     0.018 A 
ATOM      7  C   UNL     1       7.299 -16.117   7.673  1.00  0.00     0.019 A 
ATOM      8  C   UNL     1       6.432 -15.224   7.044  1.00  0.00     0.094 A 
ATOM      9  C   UNL     1       6.900 -14.477   5.957  1.00  0.00     0.336 A 
ATOM     10  O   UNL     1       6.132 -13.665   5.376  1.00  0.00    -0.246 OA
ATOM     11  O   UNL     1       8.152 -14.619   5.531  1.00  0.00    -0.423 OA
ENDROOT
BRANCH   3  12
ATOM     12  O   UNL     1      12.520 -16.545   5.707  1.00  0.00    -0.508 OA
ATOM     13  H   UNL     1      12.703 -16.915   4.781  1.00  0.00     0.293 HD
ENDBRANCH   3  12
TORSDOF 1
ENDMDL
MODEL 8
REMARK VINA RESULT:    -4.965      1.548      2.213
REMARK INTER + INTRA:          -5.110
REMARK INTER:                  -5.110
REMARK INTRA:                   0.000
REMARK UNBOUND:                 0.000
REMARK SMILES O=c1ccc2ccc(O)cc2o1
REMARK SMILES IDX 6 1 7 2 8 3 10 4 11 5 5 6 4 7 3 8 2 9 1 10 12 11 9 12
REMARK H PARENT 9 13
REMARK Flexibility Score: inf
ROOT
ATOM      1  C   UNL     1       9.429 -14.719   5.254  1.00  0.00     0.016 A 
ATOM      2  C   UNL     1       8.333 -13.921   4.912  1.00  0.00     0.047 A 
ATOM      3  C   UNL     1       7.123 -14.042   5.613  1.00  0.00     0.119 A 
ATOM      4  C   UNL     1       7.012 -14.965   6.658  1.00  0.00     0.094 A 
ATOM      5  C   UNL     1       8.103 -15.769   7.008  1.00  0.00     0.142 A 
ATOM      6  C   UNL     1       9.321 -15.644   6.301  1.00  0.00     0.018 A 
ATOM      7  C   UNL     1      10.393 -16.460   6.672  1.00  0.00     0.019 A 
ATOM      8  C   UNL     1      10.234 -17.365   7.721  1.00  0.00     0.094 A 
ATOM      9  C   UNL     1       8.999 -17.433   8.377  1.00  0.00     0.336 A 
ATOM     10  O   UNL     1       8.835 -18.244   9.325  1.00  0.00    -0.246 OA
ATOM     11  O   UNL     1       7.994 -16.646   8.003  1.00  0.00    -0.423 OA
ENDROOT
BRANCH   3  12
ATOM     12  O   UNL     1       6.027 -13.251   5.277  1.00  0.00    -0.508 OA
ATOM     13  H   UNL     1       5.971 -12.777   4.383  1.00  0.00     0.293 HD
ENDBRANCH   3  12
TORSDOF 1
ENDMDL
MODEL 9
REMARK VINA RESULT:    -4.843      7.402      7.966
REMARK INTER + INTRA:          -4.985
REMARK INTER:                  -4.985
REMARK INTRA:                   0.000
REMARK UNBOUND:                 0.000
REMARK SMILES O=c1ccc2ccc(O)cc2o1
REMARK SMILES IDX 6 1 7 2 8 3 10 4 11 5 5 6 4 7 3 8 2 9 1 10 12 11 9 12
REMARK H PARENT 9 13
REMARK Flexibility Score: inf
ROOT
ATOM      1  C   UNL     1       7.214 -11.565  12.829  1.00  0.00     0.016 A 
ATOM      2  C   UNL     1       6.455 -10.982  13.849  1.00  0.00     0.047 A 
ATOM      3  C   UNL     1       6.817 -11.162  15.193  1.00  0.00     0.119 A 
ATOM      4  C   UNL     1       7.943 -11.929  15.515  1.00  0.00     0.094 A 
ATOM      5  C   UNL     1       8.708 -12.517  14.501  1.00  0.00     0.142 A 
ATOM      6  C   UNL     1       8.342 -12.333  13.149  1.00  0.00     0.018 A 
ATOM      7  C   UNL     1       9.125 -12.933  12.159  1.00  0.00     0.019 A 
ATOM      8  C   UNL     1      10.238 -13.687  12.530  1.00  0.00     0.094 A 
ATOM      9  C   UNL     1      10.541 -13.825  13.890  1.00  0.00     0.336 A 
ATOM     10  O   UNL     1      11.541 -14.503  14.244  1.00  0.00    -0.246 OA
ATOM     11  O   UNL     1       9.778 -13.245  14.812  1.00  0.00    -0.423 OA
ENDROOT
BRANCH   3  12
ATOM     12  O   UNL     1       6.066 -10.585  16.213  1.00  0.00    -0.508 OA
ATOM     13  H   UNL     1       6.508 -10.151  17.015  1.00  0.00     0.293 HD
ENDBRANCH   3  12
TORSDOF 1
ENDMDL
