MODEL 1
REMARK VINA RESULT:    -3.650      0.000      0.000
REMARK INTER + INTRA:          -4.766
REMARK INTER:                  -4.504
REMARK INTRA:                  -0.263
REMARK UNBOUND:                -0.263
REMARK SMILES C=CCc1ccc(OC)c(OC)c1
REMARK SMILES IDX 7 1 10 2 13 3 4 4 5 5 6 6 8 7 9 8 11 9 12 10 3 11 2 12 1 13
REMARK H PARENT
REMARK Flexibility Score: inf
ROOT
ATOM      1  C   UNL     1       6.589   1.628   0.333  1.00  0.00     0.160 A 
ATOM      2  C   UNL     1       6.359   0.957  -0.879  1.00  0.00     0.160 A 
ATOM      3  C   UNL     1       5.866   1.671  -1.988  1.00  0.00     0.054 A 
ATOM      4  C   UNL     1       5.597   3.044  -1.891  1.00  0.00    -0.040 A 
ATOM      5  C   UNL     1       5.838   3.709  -0.681  1.00  0.00     0.008 A 
ATOM      6  C   UNL     1       6.326   3.008   0.423  1.00  0.00     0.051 A 
ENDROOT
BRANCH   1   7
ATOM      7  O   UNL     1       7.079   0.890   1.422  1.00  0.00    -0.493 OA
ATOM      8  C   UNL     1       7.918   1.421   2.443  1.00  0.00     0.278 C 
ENDBRANCH   1   7
BRANCH   2   9
ATOM      9  O   UNL     1       6.635  -0.418  -0.940  1.00  0.00    -0.493 OA
ATOM     10  C   UNL     1       5.654  -1.443  -0.815  1.00  0.00     0.278 C 
ENDBRANCH   2   9
BRANCH   4  11
ATOM     11  C   UNL     1       5.098   3.805  -3.091  1.00  0.00     0.062 C 
BRANCH  11  12
ATOM     12  C   UNL     1       5.371   5.276  -2.942  1.00  0.00    -0.030 C 
ATOM     13  C   UNL     1       5.241   6.121  -3.968  1.00  0.00     0.004 C 
ENDBRANCH  11  12
ENDBRANCH   4  11
TORSDOF 4
ENDMDL
MODEL 2
REMARK VINA RESULT:    -3.585      1.859      2.046
REMARK INTER + INTRA:          -4.686
REMARK INTER:                  -4.402
REMARK INTRA:                  -0.284
REMARK UNBOUND:                -0.263
REMARK SMILES C=CCc1ccc(OC)c(OC)c1
REMARK SMILES IDX 7 1 10 2 13 3 4 4 5 5 6 6 8 7 9 8 11 9 12 10 3 11 2 12 1 13
REMARK H PARENT
REMARK Flexibility Score: inf
ROOT
ATOM      1  C   UNL     1       7.241   2.192   0.629  1.00  0.00     0.160 A 
ATOM      2  C   UNL     1       8.292   2.242  -0.302  1.00  0.00     0.160 A 
ATOM      3  C   UNL     1       8.115   2.936  -1.515  1.00  0.00     0.054 A 
ATOM      4  C   UNL     1       6.899   3.573  -1.803  1.00  0.00    -0.040 A 
ATOM      5  C   UNL     1       5.860   3.527  -0.865  1.00  0.00     0.008 A 
ATOM      6  C   UNL     1       6.026   2.840   0.339  1.00  0.00     0.051 A 
ENDROOT
BRANCH   1   7
ATOM      7  O   UNL     1       7.445   1.491   1.828  1.00  0.00    -0.493 OA
ATOM      8  C   UNL     1       7.786   2.099   3.069  1.00  0.00     0.278 C 
ENDBRANCH   1   7
BRANCH   2   9
ATOM      9  O   UNL     1       9.494   1.590   0.016  1.00  0.00    -0.493 OA
ATOM     10  C   UNL     1       9.887   0.324  -0.505  1.00  0.00     0.278 C 
ENDBRANCH   2   9
BRANCH   4  11
ATOM     11  C   UNL     1       6.731   4.338  -3.088  1.00  0.00     0.062 C 
BRANCH  11  12
ATOM     12  C   UNL     1       5.458   5.138  -3.071  1.00  0.00    -0.030 C 
ATOM     13  C   UNL     1       5.249   6.143  -3.926  1.00  0.00     0.004 C 
ENDBRANCH  11  12
ENDBRANCH   4  11
TORSDOF 4
ENDMDL
MODEL 3
REMARK VINA RESULT:    -3.574      1.356      2.019
REMARK INTER + INTRA:          -4.672
REMARK INTER:                  -4.447
REMARK INTRA:                  -0.224
REMARK UNBOUND:                -0.263
REMARK SMILES C=CCc1ccc(OC)c(OC)c1
REMARK SMILES IDX 7 1 10 2 13 3 4 4 5 5 6 6 8 7 9 8 11 9 12 10 3 11 2 12 1 13
REMARK H PARENT
REMARK Flexibility Score: inf
ROOT
ATOM      1  C   UNL     1       7.335   0.135   1.125  1.00  0.00     0.160 A 
ATOM      2  C   UNL     1       6.312   0.052   0.166  1.00  0.00     0.160 A 
ATOM      3  C   UNL     1       5.757   1.232  -0.366  1.00  0.00     0.054 A 
ATOM      4  C   UNL     1       6.214   2.489   0.057  1.00  0.00    -0.040 A 
ATOM      5  C   UNL     1       7.242   2.564   1.006  1.00  0.00     0.008 A 
ATOM      6  C   UNL     1       7.796   1.399   1.539  1.00  0.00     0.051 A 
ENDROOT
BRANCH   1   7
ATOM      7  O   UNL     1       7.867  -1.058   1.638  1.00  0.00    -0.493 OA
ATOM      8  C   UNL     1       8.739  -1.134   2.761  1.00  0.00     0.278 C 
ENDBRANCH   1   7
BRANCH   2   9
ATOM      9  O   UNL     1       5.875  -1.222  -0.231  1.00  0.00    -0.493 OA
ATOM     10  C   UNL     1       4.670  -1.475  -0.947  1.00  0.00     0.278 C 
ENDBRANCH   2   9
BRANCH   4  11
ATOM     11  C   UNL     1       5.635   3.745  -0.539  1.00  0.00     0.062 C 
BRANCH  11  12
ATOM     12  C   UNL     1       5.547   3.633  -2.036  1.00  0.00    -0.030 C 
ATOM     13  C   UNL     1       5.517   4.714  -2.821  1.00  0.00     0.004 C 
ENDBRANCH  11  12
ENDBRANCH   4  11
TORSDOF 4
ENDMDL
MODEL 4
REMARK VINA RESULT:    -3.551      8.417      9.606
REMARK INTER + INTRA:          -4.643
REMARK INTER:                  -4.362
REMARK INTRA:                  -0.282
REMARK UNBOUND:                -0.263
REMARK SMILES C=CCc1ccc(OC)c(OC)c1
REMARK SMILES IDX 7 1 10 2 13 3 4 4 5 5 6 6 8 7 9 8 11 9 12 10 3 11 2 12 1 13
REMARK H PARENT
REMARK Flexibility Score: inf
ROOT
ATOM      1  C   UNL     1      -1.666   4.091  -2.886  1.00  0.00     0.160 A 
ATOM      2  C   UNL     1      -1.751   5.348  -3.506  1.00  0.00     0.160 A 
ATOM      3  C   UNL     1      -1.748   6.515  -2.717  1.00  0.00     0.054 A 
ATOM      4  C   UNL     1      -1.667   6.432  -1.319  1.00  0.00    -0.040 A 
ATOM      5  C   UNL     1      -1.572   5.175  -0.709  1.00  0.00     0.008 A 
ATOM      6  C   UNL     1      -1.576   4.013  -1.483  1.00  0.00     0.051 A 
ENDROOT
BRANCH   1   7
ATOM      7  O   UNL     1      -1.673   2.945  -3.697  1.00  0.00    -0.493 OA
ATOM      8  C   UNL     1      -2.850   2.271  -4.129  1.00  0.00     0.278 C 
ENDBRANCH   1   7
BRANCH   2   9
ATOM      9  O   UNL     1      -1.836   5.395  -4.906  1.00  0.00    -0.493 OA
ATOM     10  C   UNL     1      -2.951   5.906  -5.630  1.00  0.00     0.278 C 
ENDBRANCH   2   9
BRANCH   4  11
ATOM     11  C   UNL     1      -1.634   7.687  -0.487  1.00  0.00     0.062 C 
BRANCH  11  12
ATOM     12  C   UNL     1      -1.040   7.414   0.867  1.00  0.00    -0.030 C 
ATOM     13  C   UNL     1      -1.638   7.818   1.991  1.00  0.00     0.004 C 
ENDBRANCH  11  12
ENDBRANCH   4  11
TORSDOF 4
ENDMDL
MODEL 5
REMARK VINA RESULT:    -3.432      2.581      5.321
REMARK INTER + INTRA:          -4.497
REMARK INTER:                  -4.243
REMARK INTRA:                  -0.255
REMARK UNBOUND:                -0.263
REMARK SMILES C=CCc1ccc(OC)c(OC)c1
REMARK SMILES IDX 7 1 10 2 13 3 4 4 5 5 6 6 8 7 9 8 11 9 12 10 3 11 2 12 1 13
REMARK H PARENT
REMARK Flexibility Score: inf
ROOT
ATOM      1  C   UNL     1       6.488   3.603  -1.877  1.00  0.00     0.160 A 
ATOM      2  C   UNL     1       7.809   3.125  -1.894  1.00  0.00     0.160 A 
ATOM      3  C   UNL     1       8.334   2.488  -0.753  1.00  0.00     0.054 A 
ATOM      4  C   UNL     1       7.552   2.331   0.401  1.00  0.00    -0.040 A 
ATOM      5  C   UNL     1       6.232   2.801   0.406  1.00  0.00     0.008 A 
ATOM      6  C   UNL     1       5.705   3.435  -0.720  1.00  0.00     0.051 A 
ENDROOT
BRANCH   1   7
ATOM      7  O   UNL     1       5.992   4.235  -3.028  1.00  0.00    -0.493 OA
ATOM      8  C   UNL     1       5.340   5.500  -3.035  1.00  0.00     0.278 C 
ENDBRANCH   1   7
BRANCH   2   9
ATOM      9  O   UNL     1       8.566   3.303  -3.063  1.00  0.00    -0.493 OA
ATOM     10  C   UNL     1       9.986   3.393  -3.099  1.00  0.00     0.278 C 
ENDBRANCH   2   9
BRANCH   4  11
ATOM     11  C   UNL     1       8.113   1.622   1.604  1.00  0.00     0.062 C 
BRANCH  11  12
ATOM     12  C   UNL     1       7.583   2.226   2.875  1.00  0.00    -0.030 C 
ATOM     13  C   UNL     1       8.064   1.879   4.072  1.00  0.00     0.004 C 
ENDBRANCH  11  12
ENDBRANCH   4  11
TORSDOF 4
ENDMDL
MODEL 6
REMARK VINA RESULT:    -3.390     11.316     12.915
REMARK INTER + INTRA:          -4.445
REMARK INTER:                  -4.172
REMARK INTRA:                  -0.273
REMARK UNBOUND:                -0.263
REMARK SMILES C=CCc1ccc(OC)c(OC)c1
REMARK SMILES IDX 7 1 10 2 13 3 4 4 5 5 6 6 8 7 9 8 11 9 12 10 3 11 2 12 1 13
REMARK H PARENT
REMARK Flexibility Score: inf
ROOT
ATOM      1  C   UNL     1      -0.938  -7.537  -6.249  1.00  0.00     0.160 A 
ATOM      2  C   UNL     1      -2.039  -6.832  -6.763  1.00  0.00     0.160 A 
ATOM      3  C   UNL     1      -2.243  -5.491  -6.386  1.00  0.00     0.054 A 
ATOM      4  C   UNL     1      -1.361  -4.854  -5.501  1.00  0.00    -0.040 A 
ATOM      5  C   UNL     1      -0.259  -5.561  -5.001  1.00  0.00     0.008 A 
ATOM      6  C   UNL     1      -0.050  -6.892  -5.368  1.00  0.00     0.051 A 
ENDROOT
BRANCH   1   7
ATOM      7  O   UNL     1      -0.759  -8.874  -6.640  1.00  0.00    -0.493 OA
ATOM      8  C   UNL     1       0.386  -9.367  -7.327  1.00  0.00     0.278 C 
ENDBRANCH   1   7
BRANCH   2   9
ATOM      9  O   UNL     1      -2.905  -7.501  -7.642  1.00  0.00    -0.493 OA
ATOM     10  C   UNL     1      -2.968  -7.266  -9.045  1.00  0.00     0.278 C 
ENDBRANCH   2   9
BRANCH   4  11
ATOM     11  C   UNL     1      -1.572  -3.411  -5.129  1.00  0.00     0.062 C 
BRANCH  11  12
ATOM     12  C   UNL     1      -3.032  -3.056  -5.172  1.00  0.00    -0.030 C 
ATOM     13  C   UNL     1      -3.483  -2.022  -5.889  1.00  0.00     0.004 C 
ENDBRANCH  11  12
ENDBRANCH   4  11
TORSDOF 4
ENDMDL
MODEL 7
REMARK VINA RESULT:    -3.356      9.169     10.373
REMARK INTER + INTRA:          -4.403
REMARK INTER:                  -4.067
REMARK INTRA:                  -0.337
REMARK UNBOUND:                -0.263
REMARK SMILES C=CCc1ccc(OC)c(OC)c1
REMARK SMILES IDX 7 1 10 2 13 3 4 4 5 5 6 6 8 7 9 8 11 9 12 10 3 11 2 12 1 13
REMARK H PARENT
REMARK Flexibility Score: inf
ROOT
ATOM      1  C   UNL     1      -3.310   7.210  -0.741  1.00  0.00     0.160 A 
ATOM      2  C   UNL     1      -2.069   6.551  -0.745  1.00  0.00     0.160 A 
ATOM      3  C   UNL     1      -1.121   6.846   0.255  1.00  0.00     0.054 A 
ATOM      4  C   UNL     1      -1.403   7.793   1.249  1.00  0.00    -0.040 A 
ATOM      5  C   UNL     1      -2.647   8.439   1.252  1.00  0.00     0.008 A 
ATOM      6  C   UNL     1      -3.592   8.154   0.265  1.00  0.00     0.051 A 
ENDROOT
BRANCH   1   7
ATOM      7  O   UNL     1      -4.235   6.898  -1.750  1.00  0.00    -0.493 OA
ATOM      8  C   UNL     1      -5.305   5.972  -1.603  1.00  0.00     0.278 C 
ENDBRANCH   1   7
BRANCH   2   9
ATOM      9  O   UNL     1      -1.818   5.612  -1.757  1.00  0.00    -0.493 OA
ATOM     10  C   UNL     1      -1.448   4.257  -1.527  1.00  0.00     0.278 C 
ENDBRANCH   2   9
BRANCH   4  11
ATOM     11  C   UNL     1      -0.395   8.079   2.331  1.00  0.00     0.062 C 
BRANCH  11  12
ATOM     12  C   UNL     1       0.232   9.431   2.133  1.00  0.00    -0.030 C 
ATOM     13  C   UNL     1       1.191   9.635   1.225  1.00  0.00     0.004 C 
ENDBRANCH  11  12
ENDBRANCH   4  11
TORSDOF 4
ENDMDL
MODEL 8
REMARK VINA RESULT:    -3.344      9.316     12.085
REMARK INTER + INTRA:          -4.388
REMARK INTER:                  -4.116
REMARK INTRA:                  -0.272
REMARK UNBOUND:                -0.263
REMARK SMILES C=CCc1ccc(OC)c(OC)c1
REMARK SMILES IDX 7 1 10 2 13 3 4 4 5 5 6 6 8 7 9 8 11 9 12 10 3 11 2 12 1 13
REMARK H PARENT
REMARK Flexibility Score: inf
ROOT
ATOM      1  C   UNL     1      -1.600  -4.357  -5.674  1.00  0.00     0.160 A 
ATOM      2  C   UNL     1      -0.319  -3.915  -5.303  1.00  0.00     0.160 A 
ATOM      3  C   UNL     1       0.634  -4.847  -4.849  1.00  0.00     0.054 A 
ATOM      4  C   UNL     1       0.315  -6.210  -4.759  1.00  0.00    -0.040 A 
ATOM      5  C   UNL     1      -0.961  -6.644  -5.141  1.00  0.00     0.008 A 
ATOM      6  C   UNL     1      -1.913  -5.727  -5.591  1.00  0.00     0.051 A 
ENDROOT
BRANCH   1   7
ATOM      7  O   UNL     1      -2.531  -3.406  -6.121  1.00  0.00    -0.493 OA
ATOM      8  C   UNL     1      -3.597  -2.889  -5.332  1.00  0.00     0.278 C 
ENDBRANCH   1   7
BRANCH   2   9
ATOM      9  O   UNL     1      -0.034  -2.544  -5.400  1.00  0.00    -0.493 OA
ATOM     10  C   UNL     1       0.539  -1.918  -6.543  1.00  0.00     0.278 C 
ENDBRANCH   2   9
BRANCH   4  11
ATOM     11  C   UNL     1       1.351  -7.202  -4.302  1.00  0.00     0.062 C 
BRANCH  11  12
ATOM     12  C   UNL     1       0.762  -8.581  -4.200  1.00  0.00    -0.030 C 
ATOM     13  C   UNL     1       1.113  -9.425  -3.225  1.00  0.00     0.004 C 
ENDBRANCH  11  12
ENDBRANCH   4  11
TORSDOF 4
ENDMDL
MODEL 9
REMARK VINA RESULT:    -3.286      9.507     10.830
REMARK INTER + INTRA:          -4.317
REMARK INTER:                  -3.990
REMARK INTRA:                  -0.327
REMARK UNBOUND:                -0.263
REMARK SMILES C=CCc1ccc(OC)c(OC)c1
REMARK SMILES IDX 7 1 10 2 13 3 4 4 5 5 6 6 8 7 9 8 11 9 12 10 3 11 2 12 1 13
REMARK H PARENT
REMARK Flexibility Score: inf
ROOT
ATOM      1  C   UNL     1      -3.505   4.677  -1.931  1.00  0.00     0.160 A 
ATOM      2  C   UNL     1      -4.027   5.969  -1.758  1.00  0.00     0.160 A 
ATOM      3  C   UNL     1      -3.247   6.956  -1.125  1.00  0.00     0.054 A 
ATOM      4  C   UNL     1      -1.957   6.660  -0.663  1.00  0.00    -0.040 A 
ATOM      5  C   UNL     1      -1.438   5.371  -0.849  1.00  0.00     0.008 A 
ATOM      6  C   UNL     1      -2.205   4.386  -1.474  1.00  0.00     0.051 A 
ENDROOT
BRANCH   1   7
ATOM      7  O   UNL     1      -4.305   3.712  -2.564  1.00  0.00    -0.493 OA
ATOM      8  C   UNL     1      -3.946   3.022  -3.755  1.00  0.00     0.278 C 
ENDBRANCH   1   7
BRANCH   2   9
ATOM      9  O   UNL     1      -5.324   6.230  -2.227  1.00  0.00    -0.493 OA
ATOM     10  C   UNL     1      -6.415   6.630  -1.404  1.00  0.00     0.278 C 
ENDBRANCH   2   9
BRANCH   4  11
ATOM     11  C   UNL     1      -1.120   7.731  -0.015  1.00  0.00     0.062 C 
BRANCH  11  12
ATOM     12  C   UNL     1      -0.977   7.478   1.460  1.00  0.00    -0.030 C 
ATOM     13  C   UNL     1      -1.940   7.808   2.325  1.00  0.00     0.004 C 
ENDBRANCH  11  12
ENDBRANCH   4  11
TORSDOF 4
ENDMDL
