MODEL 1
REMARK VINA RESULT:    -2.676      0.000      0.000
REMARK INTER + INTRA:          -2.676
REMARK INTER:                  -2.676
REMARK INTRA:                   0.000
REMARK UNBOUND:                 0.000
REMARK SMILES CC(=O)[O-]
REMARK SMILES IDX 1 1 2 2 3 3 4 4
REMARK H PARENT
REMARK Flexibility Score: inf
ROOT
ATOM      1  C   UNL     1      13.859  47.569   8.875  1.00  0.00     0.063 C 
ATOM      2  C   UNL     1      14.601  46.886   9.973  1.00  0.00     0.038 C 
ATOM      3  O   UNL     1      15.424  45.972   9.705  1.00  0.00    -0.550 OA
ATOM      4  O   UNL     1      14.425  47.292  11.289  1.00  0.00    -0.550 OA
ENDROOT
TORSDOF 0
ENDMDL
MODEL 2
REMARK VINA RESULT:    -2.600      6.610      6.962
REMARK INTER + INTRA:          -2.600
REMARK INTER:                  -2.600
REMARK INTRA:                   0.000
REMARK UNBOUND:                 0.000
REMARK SMILES CC(=O)[O-]
REMARK SMILES IDX 1 1 2 2 3 3 4 4
REMARK H PARENT
REMARK Flexibility Score: inf
ROOT
ATOM      1  C   UNL     1       6.355  48.231   9.956  1.00  0.00     0.063 C 
ATOM      2  C   UNL     1       7.778  47.852  10.192  1.00  0.00     0.038 C 
ATOM      3  O   UNL     1       8.544  47.636   9.216  1.00  0.00    -0.550 OA
ATOM      4  O   UNL     1       8.276  47.789  11.486  1.00  0.00    -0.550 OA
ENDROOT
TORSDOF 0
ENDMDL
MODEL 3
REMARK VINA RESULT:    -2.559      9.389      9.759
REMARK INTER + INTRA:          -2.559
REMARK INTER:                  -2.559
REMARK INTRA:                   0.000
REMARK UNBOUND:                 0.000
REMARK SMILES CC(=O)[O-]
REMARK SMILES IDX 1 1 2 2 3 3 4 4
REMARK H PARENT
REMARK Flexibility Score: inf
ROOT
ATOM      1  C   UNL     1       6.596  48.609   9.591  1.00  0.00     0.063 C 
ATOM      2  C   UNL     1       5.253  49.256   9.639  1.00  0.00     0.038 C 
ATOM      3  O   UNL     1       4.990  50.221   8.875  1.00  0.00    -0.550 OA
ATOM      4  O   UNL     1       4.273  48.760  10.488  1.00  0.00    -0.550 OA
ENDROOT
TORSDOF 0
ENDMDL
MODEL 4
REMARK VINA RESULT:    -2.486      1.315      1.850
REMARK INTER + INTRA:          -2.486
REMARK INTER:                  -2.486
REMARK INTRA:                   0.000
REMARK UNBOUND:                 0.000
REMARK SMILES CC(=O)[O-]
REMARK SMILES IDX 1 1 2 2 3 3 4 4
REMARK H PARENT
REMARK Flexibility Score: inf
ROOT
ATOM      1  C   UNL     1      14.563  45.774   9.264  1.00  0.00     0.063 C 
ATOM      2  C   UNL     1      14.407  47.074   9.978  1.00  0.00     0.038 C 
ATOM      3  O   UNL     1      14.399  47.105  11.236  1.00  0.00    -0.550 OA
ATOM      4  O   UNL     1      14.325  48.258   9.257  1.00  0.00    -0.550 OA
ENDROOT
TORSDOF 0
ENDMDL
MODEL 5
REMARK VINA RESULT:    -2.463      7.714      8.214
REMARK INTER + INTRA:          -2.463
REMARK INTER:                  -2.463
REMARK INTRA:                   0.000
REMARK UNBOUND:                 0.000
REMARK SMILES CC(=O)[O-]
REMARK SMILES IDX 1 1 2 2 3 3 4 4
REMARK H PARENT
REMARK Flexibility Score: inf
ROOT
ATOM      1  C   UNL     1       5.353  49.024   9.663  1.00  0.00     0.063 C 
ATOM      2  C   UNL     1       6.732  48.460   9.605  1.00  0.00     0.038 C 
ATOM      3  O   UNL     1       7.714  49.156   9.973  1.00  0.00    -0.550 OA
ATOM      4  O   UNL     1       6.930  47.148   9.197  1.00  0.00    -0.550 OA
ENDROOT
TORSDOF 0
ENDMDL
MODEL 6
REMARK VINA RESULT:    -2.229      2.858      3.164
REMARK INTER + INTRA:          -2.229
REMARK INTER:                  -2.229
REMARK INTRA:                   0.000
REMARK UNBOUND:                 0.000
REMARK SMILES CC(=O)[O-]
REMARK SMILES IDX 1 1 2 2 3 3 4 4
REMARK H PARENT
REMARK Flexibility Score: inf
ROOT
ATOM      1  C   UNL     1      14.394  45.576   9.231  1.00  0.00     0.063 C 
ATOM      2  C   UNL     1      14.410  44.086   9.266  1.00  0.00     0.038 C 
ATOM      3  O   UNL     1      15.504  43.468   9.345  1.00  0.00    -0.550 OA
ATOM      4  O   UNL     1      13.215  43.378   9.267  1.00  0.00    -0.550 OA
ENDROOT
TORSDOF 0
ENDMDL
MODEL 7
REMARK VINA RESULT:    -2.097      7.254      7.721
REMARK INTER + INTRA:          -2.097
REMARK INTER:                  -2.097
REMARK INTRA:                   0.000
REMARK UNBOUND:                 0.000
REMARK SMILES CC(=O)[O-]
REMARK SMILES IDX 1 1 2 2 3 3 4 4
REMARK H PARENT
REMARK Flexibility Score: inf
ROOT
ATOM      1  C   UNL     1       7.624  47.868  11.066  1.00  0.00     0.063 C 
ATOM      2  C   UNL     1       7.248  48.215   9.665  1.00  0.00     0.038 C 
ATOM      3  O   UNL     1       6.122  47.881   9.213  1.00  0.00    -0.550 OA
ATOM      4  O   UNL     1       8.118  48.954   8.875  1.00  0.00    -0.550 OA
ENDROOT
TORSDOF 0
ENDMDL
MODEL 8
REMARK VINA RESULT:    -1.996      1.601      2.373
REMARK INTER + INTRA:          -1.996
REMARK INTER:                  -1.996
REMARK INTRA:                   0.000
REMARK UNBOUND:                 0.000
REMARK SMILES CC(=O)[O-]
REMARK SMILES IDX 1 1 2 2 3 3 4 4
REMARK H PARENT
REMARK Flexibility Score: inf
ROOT
ATOM      1  C   UNL     1      14.287  44.692   9.073  1.00  0.00     0.063 C 
ATOM      2  C   UNL     1      15.081  45.908   9.411  1.00  0.00     0.038 C 
ATOM      3  O   UNL     1      14.624  46.756  10.221  1.00  0.00    -0.550 OA
ATOM      4  O   UNL     1      16.351  46.080   8.876  1.00  0.00    -0.550 OA
ENDROOT
TORSDOF 0
ENDMDL
MODEL 9
REMARK VINA RESULT:    -1.720     21.663     22.024
REMARK INTER + INTRA:          -1.720
REMARK INTER:                  -1.720
REMARK INTRA:                   0.000
REMARK UNBOUND:                 0.000
REMARK SMILES CC(=O)[O-]
REMARK SMILES IDX 1 1 2 2 3 3 4 4
REMARK H PARENT
REMARK Flexibility Score: inf
ROOT
ATOM      1  C   UNL     1      19.706  35.907  27.016  1.00  0.00     0.063 C 
ATOM      2  C   UNL     1      19.714  36.233  28.471  1.00  0.00     0.038 C 
ATOM      3  O   UNL     1      18.639  36.228  29.125  1.00  0.00    -0.550 OA
ATOM      4  O   UNL     1      20.915  36.491  29.119  1.00  0.00    -0.550 OA
ENDROOT
TORSDOF 0
ENDMDL
