MODEL 1
REMARK VINA RESULT:    -6.233      0.000      0.000
REMARK INTER + INTRA:          -8.012
REMARK INTER:                  -7.690
REMARK INTRA:                  -0.321
REMARK UNBOUND:                -0.321
REMARK SMILES Oc1cc(O)c2cc(O)c(-c3cc(O)c(O)c(O)c3)[o+]c2c1
REMARK SMILES IDX 10 1 20 2 21 3 22 4 2 5 3 6 4 7 6 8 7 9 8 10 11 11 12 12
REMARK SMILES IDX 13 13 19 14 15 15 17 16 14 17 16 19 18 21 9 23 1 25 5 27
REMARK H PARENT 14 18 16 20 18 22 9 24 1 26 5 28
REMARK Flexibility Score: inf
ROOT
ATOM      1  C   UNL     1       2.270  -9.387 -37.504  1.00  0.00     0.402 A 
ATOM      2  O   UNL     1       1.722  -9.403 -38.715  1.00  0.00    -0.202 OA
ATOM      3  C   UNL     1       1.328 -10.517 -39.325  1.00  0.00     0.368 A 
ATOM      4  C   UNL     1       0.765 -10.431 -40.601  1.00  0.00     0.162 A 
ATOM      5  C   UNL     1       0.345 -11.584 -41.264  1.00  0.00     0.128 A 
ATOM      6  C   UNL     1       0.488 -12.833 -40.650  1.00  0.00     0.093 A 
ATOM      7  C   UNL     1       1.048 -12.945 -39.372  1.00  0.00     0.136 A 
ATOM      8  C   UNL     1       1.475 -11.774 -38.692  1.00  0.00     0.125 A 
ATOM      9  C   UNL     1       2.035 -11.790 -37.404  1.00  0.00     0.078 A 
ATOM     10  C   UNL     1       2.428 -10.593 -36.797  1.00  0.00     0.223 A 
ENDROOT
BRANCH   1  11
ATOM     11  C   UNL     1       2.678  -8.081 -36.936  1.00  0.00     0.091 A 
ATOM     12  C   UNL     1       1.920  -7.450 -35.936  1.00  0.00     0.068 A 
ATOM     13  C   UNL     1       2.335  -6.225 -35.394  1.00  0.00     0.162 A 
ATOM     14  C   UNL     1       3.875  -7.488 -37.362  1.00  0.00     0.068 A 
ATOM     15  C   UNL     1       3.524  -5.626 -35.844  1.00  0.00     0.200 A 
ATOM     16  C   UNL     1       4.296  -6.265 -36.829  1.00  0.00     0.162 A 
BRANCH  13  17
ATOM     17  O   UNL     1       1.572  -5.604 -34.406  1.00  0.00    -0.504 OA
ATOM     18  H   UNL     1       0.581  -5.789 -34.305  1.00  0.00     0.293 HD
ENDBRANCH  13  17
BRANCH  15  19
ATOM     19  O   UNL     1       3.949  -4.406 -35.319  1.00  0.00    -0.502 OA
ATOM     20  H   UNL     1       3.472  -3.953 -34.548  1.00  0.00     0.293 HD
ENDBRANCH  15  19
BRANCH  16  21
ATOM     21  O   UNL     1       5.485  -5.701 -37.290  1.00  0.00    -0.504 OA
ATOM     22  H   UNL     1       5.499  -4.969 -37.991  1.00  0.00     0.293 HD
ENDBRANCH  16  21
ENDBRANCH   1  11
BRANCH  10  23
ATOM     23  O   UNL     1       2.938 -10.603 -35.498  1.00  0.00    -0.500 OA
ATOM     24  H   UNL     1       2.686  -9.892 -34.822  1.00  0.00     0.294 HD
ENDBRANCH  10  23
BRANCH   5  25
ATOM     25  O   UNL     1      -0.214 -11.479 -42.536  1.00  0.00    -0.507 OA
ATOM     26  H   UNL     1      -0.752 -10.667 -42.814  1.00  0.00     0.293 HD
ENDBRANCH   5  25
BRANCH   7  27
ATOM     27  O   UNL     1       1.160 -14.229 -38.828  1.00  0.00    -0.507 OA
ATOM     28  H   UNL     1       1.997 -14.792 -38.864  1.00  0.00     0.293 HD
ENDBRANCH   7  27
TORSDOF 7
ENDMDL
MODEL 2
REMARK VINA RESULT:    -6.123      2.325      3.977
REMARK INTER + INTRA:          -7.876
REMARK INTER:                  -7.498
REMARK INTRA:                  -0.378
REMARK UNBOUND:                -0.321
REMARK SMILES Oc1cc(O)c2cc(O)c(-c3cc(O)c(O)c(O)c3)[o+]c2c1
REMARK SMILES IDX 10 1 20 2 21 3 22 4 2 5 3 6 4 7 6 8 7 9 8 10 11 11 12 12
REMARK SMILES IDX 13 13 19 14 15 15 17 16 14 17 16 19 18 21 9 23 1 25 5 27
REMARK H PARENT 14 18 16 20 18 22 9 24 1 26 5 28
REMARK Flexibility Score: inf
ROOT
ATOM      1  C   UNL     1       1.928 -11.265 -40.338  1.00  0.00     0.402 A 
ATOM      2  O   UNL     1       0.639 -11.378 -40.639  1.00  0.00    -0.202 OA
ATOM      3  C   UNL     1       0.193 -12.042 -41.702  1.00  0.00     0.368 A 
ATOM      4  C   UNL     1      -1.184 -12.103 -41.937  1.00  0.00     0.162 A 
ATOM      5  C   UNL     1      -1.679 -12.790 -43.045  1.00  0.00     0.128 A 
ATOM      6  C   UNL     1      -0.796 -13.421 -43.926  1.00  0.00     0.093 A 
ATOM      7  C   UNL     1       0.588 -13.375 -43.713  1.00  0.00     0.136 A 
ATOM      8  C   UNL     1       1.097 -12.679 -42.585  1.00  0.00     0.125 A 
ATOM      9  C   UNL     1       2.466 -12.591 -42.285  1.00  0.00     0.078 A 
ATOM     10  C   UNL     1       2.891 -11.891 -41.152  1.00  0.00     0.223 A 
ENDROOT
BRANCH   1  11
ATOM     11  C   UNL     1       2.301 -10.490 -39.132  1.00  0.00     0.091 A 
ATOM     12  C   UNL     1       2.467 -11.113 -37.884  1.00  0.00     0.068 A 
ATOM     13  C   UNL     1       2.843 -10.366 -36.759  1.00  0.00     0.162 A 
ATOM     14  C   UNL     1       2.549  -9.114 -39.246  1.00  0.00     0.068 A 
ATOM     15  C   UNL     1       3.067  -8.984 -36.878  1.00  0.00     0.200 A 
ATOM     16  C   UNL     1       2.922  -8.360 -38.128  1.00  0.00     0.162 A 
BRANCH  13  17
ATOM     17  O   UNL     1       2.999 -10.995 -35.523  1.00  0.00    -0.504 OA
ATOM     18  H   UNL     1       2.567 -10.630 -34.683  1.00  0.00     0.293 HD
ENDBRANCH  13  17
BRANCH  15  19
ATOM     19  O   UNL     1       3.436  -8.225 -35.767  1.00  0.00    -0.502 OA
ATOM     20  H   UNL     1       3.193  -7.246 -35.675  1.00  0.00     0.293 HD
ENDBRANCH  15  19
BRANCH  16  21
ATOM     21  O   UNL     1       3.145  -6.992 -38.280  1.00  0.00    -0.504 OA
ATOM     22  H   UNL     1       3.858  -6.627 -38.900  1.00  0.00     0.293 HD
ENDBRANCH  16  21
ENDBRANCH   1  11
BRANCH  10  23
ATOM     23  O   UNL     1       4.247 -11.846 -40.826  1.00  0.00    -0.500 OA
ATOM     24  H   UNL     1       4.562 -11.636 -39.886  1.00  0.00     0.294 HD
ENDBRANCH  10  23
BRANCH   5  25
ATOM     25  O   UNL     1      -3.055 -12.840 -43.263  1.00  0.00    -0.507 OA
ATOM     26  H   UNL     1      -3.485 -12.363 -44.046  1.00  0.00     0.293 HD
ENDBRANCH   5  25
BRANCH   7  27
ATOM     27  O   UNL     1       1.405 -14.028 -44.641  1.00  0.00    -0.507 OA
ATOM     28  H   UNL     1       2.335 -14.368 -44.442  1.00  0.00     0.293 HD
ENDBRANCH   7  27
TORSDOF 7
ENDMDL
MODEL 3
REMARK VINA RESULT:    -6.118      2.602      3.988
REMARK INTER + INTRA:          -7.870
REMARK INTER:                  -7.739
REMARK INTRA:                  -0.131
REMARK UNBOUND:                -0.321
REMARK SMILES Oc1cc(O)c2cc(O)c(-c3cc(O)c(O)c(O)c3)[o+]c2c1
REMARK SMILES IDX 10 1 20 2 21 3 22 4 2 5 3 6 4 7 6 8 7 9 8 10 11 11 12 12
REMARK SMILES IDX 13 13 19 14 15 15 17 16 14 17 16 19 18 21 9 23 1 25 5 27
REMARK H PARENT 14 18 16 20 18 22 9 24 1 26 5 28
REMARK Flexibility Score: inf
ROOT
ATOM      1  C   UNL     1       3.116  -6.513 -36.455  1.00  0.00     0.402 A 
ATOM      2  O   UNL     1       2.109  -7.349 -36.223  1.00  0.00    -0.202 OA
ATOM      3  C   UNL     1       2.098  -8.613 -36.635  1.00  0.00     0.368 A 
ATOM      4  C   UNL     1       0.990  -9.414 -36.345  1.00  0.00     0.162 A 
ATOM      5  C   UNL     1       0.951 -10.742 -36.767  1.00  0.00     0.128 A 
ATOM      6  C   UNL     1       2.027 -11.278 -37.485  1.00  0.00     0.093 A 
ATOM      7  C   UNL     1       3.148 -10.496 -37.788  1.00  0.00     0.136 A 
ATOM      8  C   UNL     1       3.193  -9.144 -37.358  1.00  0.00     0.125 A 
ATOM      9  C   UNL     1       4.281  -8.290 -37.605  1.00  0.00     0.078 A 
ATOM     10  C   UNL     1       4.254  -6.970 -37.145  1.00  0.00     0.223 A 
ENDROOT
BRANCH   1  11
ATOM     11  C   UNL     1       3.005  -5.124 -35.953  1.00  0.00     0.091 A 
ATOM     12  C   UNL     1       1.932  -4.296 -36.323  1.00  0.00     0.068 A 
ATOM     13  C   UNL     1       1.832  -2.992 -35.819  1.00  0.00     0.162 A 
ATOM     14  C   UNL     1       3.959  -4.640 -35.045  1.00  0.00     0.068 A 
ATOM     15  C   UNL     1       2.805  -2.508 -34.927  1.00  0.00     0.200 A 
ATOM     16  C   UNL     1       3.868  -3.340 -34.538  1.00  0.00     0.162 A 
BRANCH  13  17
ATOM     17  O   UNL     1       0.765  -2.177 -36.197  1.00  0.00    -0.504 OA
ATOM     18  H   UNL     1      -0.151  -2.269 -35.774  1.00  0.00     0.293 HD
ENDBRANCH  13  17
BRANCH  15  19
ATOM     19  O   UNL     1       2.722  -1.211 -34.420  1.00  0.00    -0.502 OA
ATOM     20  H   UNL     1       2.012  -0.556 -34.723  1.00  0.00     0.293 HD
ENDBRANCH  15  19
BRANCH  16  21
ATOM     21  O   UNL     1       4.844  -2.892 -33.649  1.00  0.00    -0.504 OA
ATOM     22  H   UNL     1       4.850  -1.946 -33.287  1.00  0.00     0.293 HD
ENDBRANCH  16  21
ENDBRANCH   1  11
BRANCH  10  23
ATOM     23  O   UNL     1       5.356  -6.138 -37.346  1.00  0.00    -0.500 OA
ATOM     24  H   UNL     1       6.273  -6.510 -37.561  1.00  0.00     0.294 HD
ENDBRANCH  10  23
BRANCH   5  25
ATOM     25  O   UNL     1      -0.162 -11.525 -36.468  1.00  0.00    -0.507 OA
ATOM     26  H   UNL     1      -1.068 -11.111 -36.288  1.00  0.00     0.293 HD
ENDBRANCH   5  25
BRANCH   7  27
ATOM     27  O   UNL     1       4.180 -11.103 -38.512  1.00  0.00    -0.507 OA
ATOM     28  H   UNL     1       4.041 -11.680 -39.328  1.00  0.00     0.293 HD
ENDBRANCH   7  27
TORSDOF 7
ENDMDL
MODEL 4
REMARK VINA RESULT:    -6.056      2.189      3.162
REMARK INTER + INTRA:          -7.793
REMARK INTER:                  -7.458
REMARK INTRA:                  -0.335
REMARK UNBOUND:                -0.321
REMARK SMILES Oc1cc(O)c2cc(O)c(-c3cc(O)c(O)c(O)c3)[o+]c2c1
REMARK SMILES IDX 10 1 20 2 21 3 22 4 2 5 3 6 4 7 6 8 7 9 8 10 11 11 12 12
REMARK SMILES IDX 13 13 19 14 15 15 17 16 14 17 16 19 18 21 9 23 1 25 5 27
REMARK H PARENT 14 18 16 20 18 22 9 24 1 26 5 28
REMARK Flexibility Score: inf
ROOT
ATOM      1  C   UNL     1       2.601  -7.646 -36.571  1.00  0.00     0.402 A 
ATOM      2  O   UNL     1       1.452  -8.255 -36.295  1.00  0.00    -0.202 OA
ATOM      3  C   UNL     1       1.122  -9.448 -36.781  1.00  0.00     0.368 A 
ATOM      4  C   UNL     1      -0.112 -10.005 -36.437  1.00  0.00     0.162 A 
ATOM      5  C   UNL     1      -0.485 -11.254 -36.933  1.00  0.00     0.128 A 
ATOM      6  C   UNL     1       0.381 -11.953 -37.782  1.00  0.00     0.093 A 
ATOM      7  C   UNL     1       1.623 -11.417 -38.142  1.00  0.00     0.136 A 
ATOM      8  C   UNL     1       2.007 -10.147 -37.636  1.00  0.00     0.125 A 
ATOM      9  C   UNL     1       3.238  -9.537 -37.933  1.00  0.00     0.078 A 
ATOM     10  C   UNL     1       3.547  -8.286 -37.393  1.00  0.00     0.223 A 
ENDROOT
BRANCH   1  11
ATOM     11  C   UNL     1       2.848  -6.312 -35.976  1.00  0.00     0.091 A 
ATOM     12  C   UNL     1       2.233  -5.158 -36.488  1.00  0.00     0.068 A 
ATOM     13  C   UNL     1       2.461  -3.907 -35.898  1.00  0.00     0.162 A 
ATOM     14  C   UNL     1       3.668  -6.203 -34.843  1.00  0.00     0.068 A 
ATOM     15  C   UNL     1       3.303  -3.804 -34.777  1.00  0.00     0.200 A 
ATOM     16  C   UNL     1       3.903  -4.959 -34.248  1.00  0.00     0.162 A 
BRANCH  13  17
ATOM     17  O   UNL     1       1.850  -2.766 -36.419  1.00  0.00    -0.504 OA
ATOM     18  H   UNL     1       2.203  -1.837 -36.221  1.00  0.00     0.293 HD
ENDBRANCH  13  17
BRANCH  15  19
ATOM     19  O   UNL     1       3.544  -2.566 -34.180  1.00  0.00    -0.502 OA
ATOM     20  H   UNL     1       3.989  -2.480 -33.274  1.00  0.00     0.293 HD
ENDBRANCH  15  19
BRANCH  16  21
ATOM     21  O   UNL     1       4.736  -4.891 -33.132  1.00  0.00    -0.504 OA
ATOM     22  H   UNL     1       5.290  -4.070 -32.922  1.00  0.00     0.293 HD
ENDBRANCH  16  21
ENDBRANCH   1  11
BRANCH  10  23
ATOM     23  O   UNL     1       4.789  -7.703 -37.647  1.00  0.00    -0.500 OA
ATOM     24  H   UNL     1       5.576  -7.831 -37.021  1.00  0.00     0.294 HD
ENDBRANCH  10  23
BRANCH   5  25
ATOM     25  O   UNL     1      -1.719 -11.793 -36.579  1.00  0.00    -0.507 OA
ATOM     26  H   UNL     1      -2.558 -11.227 -36.555  1.00  0.00     0.293 HD
ENDBRANCH   5  25
BRANCH   7  27
ATOM     27  O   UNL     1       2.429 -12.175 -38.996  1.00  0.00    -0.507 OA
ATOM     28  H   UNL     1       2.302 -13.160 -39.175  1.00  0.00     0.293 HD
ENDBRANCH   7  27
TORSDOF 7
ENDMDL
MODEL 5
REMARK VINA RESULT:    -6.052      2.147      3.176
REMARK INTER + INTRA:          -7.788
REMARK INTER:                  -7.446
REMARK INTRA:                  -0.342
REMARK UNBOUND:                -0.321
REMARK SMILES Oc1cc(O)c2cc(O)c(-c3cc(O)c(O)c(O)c3)[o+]c2c1
REMARK SMILES IDX 10 1 20 2 21 3 22 4 2 5 3 6 4 7 6 8 7 9 8 10 11 11 12 12
REMARK SMILES IDX 13 13 19 14 15 15 17 16 14 17 16 19 18 21 9 23 1 25 5 27
REMARK H PARENT 14 18 16 20 18 22 9 24 1 26 5 28
REMARK Flexibility Score: inf
ROOT
ATOM      1  C   UNL     1       2.548  -7.695 -36.554  1.00  0.00     0.402 A 
ATOM      2  O   UNL     1       1.415  -8.334 -36.277  1.00  0.00    -0.202 OA
ATOM      3  C   UNL     1       1.088  -9.507 -36.810  1.00  0.00     0.368 A 
ATOM      4  C   UNL     1      -0.128 -10.098 -36.459  1.00  0.00     0.162 A 
ATOM      5  C   UNL     1      -0.498 -11.327 -37.005  1.00  0.00     0.128 A 
ATOM      6  C   UNL     1       0.353 -11.972 -37.910  1.00  0.00     0.093 A 
ATOM      7  C   UNL     1       1.577 -11.401 -38.277  1.00  0.00     0.136 A 
ATOM      8  C   UNL     1       1.959 -10.151 -37.722  1.00  0.00     0.125 A 
ATOM      9  C   UNL     1       3.172  -9.510 -38.023  1.00  0.00     0.078 A 
ATOM     10  C   UNL     1       3.479  -8.281 -37.432  1.00  0.00     0.223 A 
ENDROOT
BRANCH   1  11
ATOM     11  C   UNL     1       2.793  -6.388 -35.903  1.00  0.00     0.091 A 
ATOM     12  C   UNL     1       3.654  -6.270 -34.800  1.00  0.00     0.068 A 
ATOM     13  C   UNL     1       3.891  -5.019 -34.211  1.00  0.00     0.162 A 
ATOM     14  C   UNL     1       2.200  -5.232 -36.433  1.00  0.00     0.068 A 
ATOM     15  C   UNL     1       3.274  -3.870 -34.735  1.00  0.00     0.200 A 
ATOM     16  C   UNL     1       2.430  -3.980 -35.852  1.00  0.00     0.162 A 
BRANCH  13  17
ATOM     17  O   UNL     1       4.743  -4.915 -33.112  1.00  0.00    -0.504 OA
ATOM     18  H   UNL     1       4.999  -4.015 -32.722  1.00  0.00     0.293 HD
ENDBRANCH  13  17
BRANCH  15  19
ATOM     19  O   UNL     1       3.497  -2.619 -34.159  1.00  0.00    -0.502 OA
ATOM     20  H   UNL     1       4.268  -2.443 -33.527  1.00  0.00     0.293 HD
ENDBRANCH  15  19
BRANCH  16  21
ATOM     21  O   UNL     1       1.810  -2.858 -36.400  1.00  0.00    -0.504 OA
ATOM     22  H   UNL     1       2.144  -2.417 -37.248  1.00  0.00     0.293 HD
ENDBRANCH  16  21
ENDBRANCH   1  11
BRANCH  10  23
ATOM     23  O   UNL     1       4.706  -7.669 -37.691  1.00  0.00    -0.500 OA
ATOM     24  H   UNL     1       5.276  -7.933 -38.486  1.00  0.00     0.294 HD
ENDBRANCH  10  23
BRANCH   5  25
ATOM     25  O   UNL     1      -1.714 -11.901 -36.643  1.00  0.00    -0.507 OA
ATOM     26  H   UNL     1      -1.808 -12.459 -35.803  1.00  0.00     0.293 HD
ENDBRANCH   5  25
BRANCH   7  27
ATOM     27  O   UNL     1       2.370 -12.106 -39.189  1.00  0.00    -0.507 OA
ATOM     28  H   UNL     1       2.010 -12.606 -39.989  1.00  0.00     0.293 HD
ENDBRANCH   7  27
TORSDOF 7
ENDMDL
MODEL 6
REMARK VINA RESULT:    -6.023      2.347      7.661
REMARK INTER + INTRA:          -7.753
REMARK INTER:                  -7.412
REMARK INTRA:                  -0.341
REMARK UNBOUND:                -0.321
REMARK SMILES Oc1cc(O)c2cc(O)c(-c3cc(O)c(O)c(O)c3)[o+]c2c1
REMARK SMILES IDX 10 1 20 2 21 3 22 4 2 5 3 6 4 7 6 8 7 9 8 10 11 11 12 12
REMARK SMILES IDX 13 13 19 14 15 15 17 16 14 17 16 19 18 21 9 23 1 25 5 27
REMARK H PARENT 14 18 16 20 18 22 9 24 1 26 5 28
REMARK Flexibility Score: inf
ROOT
ATOM      1  C   UNL     1       1.885 -11.624 -40.249  1.00  0.00     0.402 A 
ATOM      2  O   UNL     1       2.205 -10.334 -40.231  1.00  0.00    -0.202 OA
ATOM      3  C   UNL     1       2.307  -9.623 -39.112  1.00  0.00     0.368 A 
ATOM      4  C   UNL     1       2.646  -8.270 -39.196  1.00  0.00     0.162 A 
ATOM      5  C   UNL     1       2.757  -7.498 -38.039  1.00  0.00     0.128 A 
ATOM      6  C   UNL     1       2.527  -8.081 -36.788  1.00  0.00     0.093 A 
ATOM      7  C   UNL     1       2.185  -9.434 -36.678  1.00  0.00     0.136 A 
ATOM      8  C   UNL     1       2.074 -10.224 -37.853  1.00  0.00     0.125 A 
ATOM      9  C   UNL     1       1.749 -11.591 -37.837  1.00  0.00     0.078 A 
ATOM     10  C   UNL     1       1.662 -12.303 -39.036  1.00  0.00     0.223 A 
ENDROOT
BRANCH   1  11
ATOM     11  C   UNL     1       1.793 -12.306 -41.561  1.00  0.00     0.091 A 
ATOM     12  C   UNL     1       2.943 -12.731 -42.247  1.00  0.00     0.068 A 
ATOM     13  C   UNL     1       2.834 -13.395 -43.477  1.00  0.00     0.162 A 
ATOM     14  C   UNL     1       0.531 -12.584 -42.107  1.00  0.00     0.068 A 
ATOM     15  C   UNL     1       1.566 -13.649 -44.027  1.00  0.00     0.200 A 
ATOM     16  C   UNL     1       0.413 -13.244 -43.334  1.00  0.00     0.162 A 
BRANCH  13  17
ATOM     17  O   UNL     1       3.983 -13.808 -44.152  1.00  0.00    -0.504 OA
ATOM     18  H   UNL     1       4.445 -13.212 -44.828  1.00  0.00     0.293 HD
ENDBRANCH  13  17
BRANCH  15  19
ATOM     19  O   UNL     1       1.441 -14.304 -45.252  1.00  0.00    -0.502 OA
ATOM     20  H   UNL     1       1.301 -15.306 -45.318  1.00  0.00     0.293 HD
ENDBRANCH  15  19
BRANCH  16  21
ATOM     21  O   UNL     1      -0.860 -13.489 -43.850  1.00  0.00    -0.504 OA
ATOM     22  H   UNL     1      -1.542 -12.751 -43.974  1.00  0.00     0.293 HD
ENDBRANCH  16  21
ENDBRANCH   1  11
BRANCH  10  23
ATOM     23  O   UNL     1       1.390 -13.671 -39.018  1.00  0.00    -0.500 OA
ATOM     24  H   UNL     1       2.128 -14.360 -38.936  1.00  0.00     0.294 HD
ENDBRANCH  10  23
BRANCH   5  25
ATOM     25  O   UNL     1       3.097  -6.151 -38.142  1.00  0.00    -0.507 OA
ATOM     26  H   UNL     1       2.398  -5.440 -38.321  1.00  0.00     0.293 HD
ENDBRANCH   5  25
BRANCH   7  27
ATOM     27  O   UNL     1       1.968  -9.941 -35.393  1.00  0.00    -0.507 OA
ATOM     28  H   UNL     1       1.725 -10.901 -35.192  1.00  0.00     0.293 HD
ENDBRANCH   7  27
TORSDOF 7
ENDMDL
MODEL 7
REMARK VINA RESULT:    -5.915      1.867      6.972
REMARK INTER + INTRA:          -7.619
REMARK INTER:                  -7.619
REMARK INTRA:                  -0.000
REMARK UNBOUND:                -0.321
REMARK SMILES Oc1cc(O)c2cc(O)c(-c3cc(O)c(O)c(O)c3)[o+]c2c1
REMARK SMILES IDX 10 1 20 2 21 3 22 4 2 5 3 6 4 7 6 8 7 9 8 10 11 11 12 12
REMARK SMILES IDX 13 13 19 14 15 15 17 16 14 17 16 19 18 21 9 23 1 25 5 27
REMARK H PARENT 14 18 16 20 18 22 9 24 1 26 5 28
REMARK Flexibility Score: inf
ROOT
ATOM      1  C   UNL     1       2.540  -9.314 -38.832  1.00  0.00     0.402 A 
ATOM      2  O   UNL     1       2.412  -8.009 -39.053  1.00  0.00    -0.202 OA
ATOM      3  C   UNL     1       2.767  -7.081 -38.170  1.00  0.00     0.368 A 
ATOM      4  C   UNL     1       2.590  -5.732 -38.493  1.00  0.00     0.162 A 
ATOM      5  C   UNL     1       2.951  -4.738 -37.585  1.00  0.00     0.128 A 
ATOM      6  C   UNL     1       3.493  -5.089 -36.344  1.00  0.00     0.093 A 
ATOM      7  C   UNL     1       3.679  -6.433 -35.996  1.00  0.00     0.136 A 
ATOM      8  C   UNL     1       3.316  -7.449 -36.919  1.00  0.00     0.125 A 
ATOM      9  C   UNL     1       3.479  -8.820 -36.661  1.00  0.00     0.078 A 
ATOM     10  C   UNL     1       3.101  -9.763 -37.622  1.00  0.00     0.223 A 
ENDROOT
BRANCH   1  11
ATOM     11  C   UNL     1       2.098 -10.251 -39.891  1.00  0.00     0.091 A 
ATOM     12  C   UNL     1       0.855 -10.102 -40.528  1.00  0.00     0.068 A 
ATOM     13  C   UNL     1       0.464 -10.986 -41.544  1.00  0.00     0.162 A 
ATOM     14  C   UNL     1       2.960 -11.276 -40.308  1.00  0.00     0.068 A 
ATOM     15  C   UNL     1       1.325 -12.024 -41.939  1.00  0.00     0.200 A 
ATOM     16  C   UNL     1       2.579 -12.163 -41.320  1.00  0.00     0.162 A 
BRANCH  13  17
ATOM     17  O   UNL     1      -0.775 -10.832 -42.165  1.00  0.00    -0.504 OA
ATOM     18  H   UNL     1      -1.406 -11.614 -42.292  1.00  0.00     0.293 HD
ENDBRANCH  13  17
BRANCH  15  19
ATOM     19  O   UNL     1       0.950 -12.914 -42.946  1.00  0.00    -0.502 OA
ATOM     20  H   UNL     1       0.105 -13.469 -42.889  1.00  0.00     0.293 HD
ENDBRANCH  15  19
BRANCH  16  21
ATOM     21  O   UNL     1       3.459 -13.178 -41.696  1.00  0.00    -0.504 OA
ATOM     22  H   UNL     1       3.643 -13.978 -41.103  1.00  0.00     0.293 HD
ENDBRANCH  16  21
ENDBRANCH   1  11
BRANCH  10  23
ATOM     23  O   UNL     1       3.310 -11.122 -37.388  1.00  0.00    -0.500 OA
ATOM     24  H   UNL     1       2.579 -11.807 -37.537  1.00  0.00     0.294 HD
ENDBRANCH  10  23
BRANCH   5  25
ATOM     25  O   UNL     1       2.768  -3.399 -37.924  1.00  0.00    -0.507 OA
ATOM     26  H   UNL     1       2.621  -3.110 -38.884  1.00  0.00     0.293 HD
ENDBRANCH   5  25
BRANCH   7  27
ATOM     27  O   UNL     1       4.222  -6.703 -34.736  1.00  0.00    -0.507 OA
ATOM     28  H   UNL     1       3.752  -6.523 -33.862  1.00  0.00     0.293 HD
ENDBRANCH   7  27
TORSDOF 7
ENDMDL
MODEL 8
REMARK VINA RESULT:    -5.907      2.375      7.785
REMARK INTER + INTRA:          -7.609
REMARK INTER:                  -7.447
REMARK INTRA:                  -0.162
REMARK UNBOUND:                -0.321
REMARK SMILES Oc1cc(O)c2cc(O)c(-c3cc(O)c(O)c(O)c3)[o+]c2c1
REMARK SMILES IDX 10 1 20 2 21 3 22 4 2 5 3 6 4 7 6 8 7 9 8 10 11 11 12 12
REMARK SMILES IDX 13 13 19 14 15 15 17 16 14 17 16 19 18 21 9 23 1 25 5 27
REMARK H PARENT 14 18 16 20 18 22 9 24 1 26 5 28
REMARK Flexibility Score: inf
ROOT
ATOM      1  C   UNL     1       2.869  -6.325 -36.221  1.00  0.00     0.402 A 
ATOM      2  O   UNL     1       1.853  -5.939 -35.455  1.00  0.00    -0.202 OA
ATOM      3  C   UNL     1       1.731  -4.708 -34.970  1.00  0.00     0.368 A 
ATOM      4  C   UNL     1       0.627  -4.398 -34.170  1.00  0.00     0.162 A 
ATOM      5  C   UNL     1       0.475  -3.115 -33.646  1.00  0.00     0.128 A 
ATOM      6  C   UNL     1       1.432  -2.131 -33.920  1.00  0.00     0.093 A 
ATOM      7  C   UNL     1       2.547  -2.416 -34.718  1.00  0.00     0.136 A 
ATOM      8  C   UNL     1       2.704  -3.721 -35.257  1.00  0.00     0.125 A 
ATOM      9  C   UNL     1       3.782  -4.093 -36.077  1.00  0.00     0.078 A 
ATOM     10  C   UNL     1       3.866  -5.397 -36.574  1.00  0.00     0.223 A 
ENDROOT
BRANCH   1  11
ATOM     11  C   UNL     1       2.898  -7.730 -36.692  1.00  0.00     0.091 A 
ATOM     12  C   UNL     1       2.920  -8.804 -35.788  1.00  0.00     0.068 A 
ATOM     13  C   UNL     1       2.924 -10.127 -36.253  1.00  0.00     0.162 A 
ATOM     14  C   UNL     1       2.844  -7.996 -38.068  1.00  0.00     0.068 A 
ATOM     15  C   UNL     1       2.894 -10.384 -37.634  1.00  0.00     0.200 A 
ATOM     16  C   UNL     1       2.849  -9.313 -38.542  1.00  0.00     0.162 A 
BRANCH  13  17
ATOM     17  O   UNL     1       2.953 -11.186 -35.346  1.00  0.00    -0.504 OA
ATOM     18  H   UNL     1       2.146 -11.782 -35.199  1.00  0.00     0.293 HD
ENDBRANCH  13  17
BRANCH  15  19
ATOM     19  O   UNL     1       2.902 -11.694 -38.114  1.00  0.00    -0.502 OA
ATOM     20  H   UNL     1       2.060 -12.254 -38.174  1.00  0.00     0.293 HD
ENDBRANCH  15  19
BRANCH  16  21
ATOM     21  O   UNL     1       2.810  -9.535 -39.918  1.00  0.00    -0.504 OA
ATOM     22  H   UNL     1       3.324  -8.958 -40.572  1.00  0.00     0.293 HD
ENDBRANCH  16  21
ENDBRANCH   1  11
BRANCH  10  23
ATOM     23  O   UNL     1       4.909  -5.753 -37.429  1.00  0.00    -0.500 OA
ATOM     24  H   UNL     1       4.767  -6.384 -38.209  1.00  0.00     0.294 HD
ENDBRANCH  10  23
BRANCH   5  25
ATOM     25  O   UNL     1      -0.631  -2.824 -32.851  1.00  0.00    -0.507 OA
ATOM     26  H   UNL     1      -0.810  -3.324 -31.988  1.00  0.00     0.293 HD
ENDBRANCH   5  25
BRANCH   7  27
ATOM     27  O   UNL     1       3.460  -1.381 -34.944  1.00  0.00    -0.507 OA
ATOM     28  H   UNL     1       4.461  -1.474 -34.852  1.00  0.00     0.293 HD
ENDBRANCH   7  27
TORSDOF 7
ENDMDL
MODEL 9
REMARK VINA RESULT:    -5.884      1.729      7.009
REMARK INTER + INTRA:          -7.581
REMARK INTER:                  -7.330
REMARK INTRA:                  -0.251
REMARK UNBOUND:                -0.321
REMARK SMILES Oc1cc(O)c2cc(O)c(-c3cc(O)c(O)c(O)c3)[o+]c2c1
REMARK SMILES IDX 10 1 20 2 21 3 22 4 2 5 3 6 4 7 6 8 7 9 8 10 11 11 12 12
REMARK SMILES IDX 13 13 19 14 15 15 17 16 14 17 16 19 18 21 9 23 1 25 5 27
REMARK H PARENT 14 18 16 20 18 22 9 24 1 26 5 28
REMARK Flexibility Score: inf
ROOT
ATOM      1  C   UNL     1       2.062  -9.437 -37.355  1.00  0.00     0.402 A 
ATOM      2  O   UNL     1       2.014  -8.303 -38.046  1.00  0.00    -0.202 OA
ATOM      3  C   UNL     1       2.476  -7.145 -37.584  1.00  0.00     0.368 A 
ATOM      4  C   UNL     1       2.376  -6.004 -38.385  1.00  0.00     0.162 A 
ATOM      5  C   UNL     1       2.850  -4.777 -37.924  1.00  0.00     0.128 A 
ATOM      6  C   UNL     1       3.428  -4.684 -36.653  1.00  0.00     0.093 A 
ATOM      7  C   UNL     1       3.539  -5.813 -35.831  1.00  0.00     0.136 A 
ATOM      8  C   UNL     1       3.061  -7.066 -36.298  1.00  0.00     0.125 A 
ATOM      9  C   UNL     1       3.142  -8.251 -35.548  1.00  0.00     0.078 A 
ATOM     10  C   UNL     1       2.652  -9.448 -36.077  1.00  0.00     0.223 A 
ENDROOT
BRANCH   1  11
ATOM     11  C   UNL     1       1.504 -10.661 -37.976  1.00  0.00     0.091 A 
ATOM     12  C   UNL     1       2.116 -11.261 -39.089  1.00  0.00     0.068 A 
ATOM     13  C   UNL     1       1.585 -12.433 -39.648  1.00  0.00     0.162 A 
ATOM     14  C   UNL     1       0.374 -11.268 -37.408  1.00  0.00     0.068 A 
ATOM     15  C   UNL     1       0.439 -13.021 -39.086  1.00  0.00     0.200 A 
ATOM     16  C   UNL     1      -0.163 -12.436 -37.960  1.00  0.00     0.162 A 
BRANCH  13  17
ATOM     17  O   UNL     1       2.197 -13.017 -40.757  1.00  0.00    -0.504 OA
ATOM     18  H   UNL     1       1.883 -12.823 -41.701  1.00  0.00     0.293 HD
ENDBRANCH  13  17
BRANCH  15  19
ATOM     19  O   UNL     1      -0.104 -14.184 -39.633  1.00  0.00    -0.502 OA
ATOM     20  H   UNL     1      -0.141 -14.346 -40.632  1.00  0.00     0.293 HD
ENDBRANCH  15  19
BRANCH  16  21
ATOM     21  O   UNL     1      -1.296 -13.000 -37.375  1.00  0.00    -0.504 OA
ATOM     22  H   UNL     1      -1.912 -12.470 -36.770  1.00  0.00     0.293 HD
ENDBRANCH  16  21
ENDBRANCH   1  11
BRANCH  10  23
ATOM     23  O   UNL     1       2.778 -10.635 -35.354  1.00  0.00    -0.500 OA
ATOM     24  H   UNL     1       3.656 -10.909 -34.929  1.00  0.00     0.294 HD
ENDBRANCH  10  23
BRANCH   5  25
ATOM     25  O   UNL     1       2.743  -3.650 -38.737  1.00  0.00    -0.507 OA
ATOM     26  H   UNL     1       2.189  -3.659 -39.585  1.00  0.00     0.293 HD
ENDBRANCH   5  25
BRANCH   7  27
ATOM     27  O   UNL     1       4.125  -5.639 -34.574  1.00  0.00    -0.507 OA
ATOM     28  H   UNL     1       3.933  -6.218 -33.770  1.00  0.00     0.293 HD
ENDBRANCH   7  27
TORSDOF 7
ENDMDL
