MODEL 1
REMARK VINA RESULT:    -5.619      0.000      0.000
REMARK INTER + INTRA:          -7.004
REMARK INTER:                  -6.769
REMARK INTRA:                  -0.235
REMARK UNBOUND:                -0.235
REMARK SMILES CCCCc1oc(O)c2ccccc12
REMARK SMILES IDX 4 1 5 2 7 3 6 4 9 5 14 6 10 7 13 8 11 9 12 10 8 11 3 13 2 14
REMARK SMILES IDX 1 15
REMARK H PARENT 8 12
REMARK Flexibility Score: inf
ROOT
ATOM      1  C   UNL     1       5.325 -12.926  -4.659  1.00  0.00     0.076 C 
ENDROOT
BRANCH   1   2
ATOM      2  C   UNL     1       6.371 -13.990  -4.777  1.00  0.00     0.116 A 
ATOM      3  C   UNL     1       7.341 -15.798  -5.401  1.00  0.00     0.290 A 
ATOM      4  O   UNL     1       6.262 -15.055  -5.553  1.00  0.00    -0.430 OA
ATOM      5  C   UNL     1       8.190 -15.207  -4.493  1.00  0.00     0.066 A 
ATOM      6  C   UNL     1       7.571 -14.053  -4.091  1.00  0.00     0.027 A 
ATOM      7  C   UNL     1       9.432 -15.593  -3.995  1.00  0.00     0.016 A 
ATOM      8  C   UNL     1       8.153 -13.199  -3.153  1.00  0.00     0.012 A 
ATOM      9  C   UNL     1      10.045 -14.751  -3.049  1.00  0.00     0.001 A 
ATOM     10  C   UNL     1       9.408 -13.560  -2.629  1.00  0.00     0.001 A 
BRANCH   3  11
ATOM     11  O   UNL     1       7.570 -16.997  -6.065  1.00  0.00    -0.480 OA
ATOM     12  H   UNL     1       7.561 -17.873  -5.558  1.00  0.00     0.297 HD
ENDBRANCH   3  11
ENDBRANCH   1   2
BRANCH   1  13
ATOM     13  C   UNL     1       4.139 -13.237  -5.581  1.00  0.00     0.008 C 
BRANCH  13  14
ATOM     14  C   UNL     1       3.077 -14.112  -4.899  1.00  0.00    -0.003 C 
ATOM     15  C   UNL     1       2.741 -13.639  -3.485  1.00  0.00     0.004 C 
ENDBRANCH  13  14
ENDBRANCH   1  13
TORSDOF 4
ENDMDL
MODEL 2
REMARK VINA RESULT:    -5.360      2.252      3.094
REMARK INTER + INTRA:          -6.692
REMARK INTER:                  -6.200
REMARK INTRA:                  -0.492
REMARK UNBOUND:                -0.235
REMARK SMILES CCCCc1oc(O)c2ccccc12
REMARK SMILES IDX 4 1 5 2 7 3 6 4 9 5 14 6 10 7 13 8 11 9 12 10 8 11 3 13 2 14
REMARK SMILES IDX 1 15
REMARK H PARENT 8 12
REMARK Flexibility Score: inf
ROOT
ATOM      1  C   UNL     1       6.084 -14.091  -3.813  1.00  0.00     0.076 C 
ENDROOT
BRANCH   1   2
ATOM      2  C   UNL     1       7.423 -14.540  -4.312  1.00  0.00     0.116 A 
ATOM      3  C   UNL     1       9.438 -15.274  -4.288  1.00  0.00     0.290 A 
ATOM      4  O   UNL     1       8.392 -14.992  -3.535  1.00  0.00    -0.430 OA
ATOM      5  C   UNL     1       9.152 -14.996  -5.605  1.00  0.00     0.066 A 
ATOM      6  C   UNL     1       7.866 -14.525  -5.623  1.00  0.00     0.027 A 
ATOM      7  C   UNL     1       9.914 -15.112  -6.765  1.00  0.00     0.016 A 
ATOM      8  C   UNL     1       7.248 -14.131  -6.810  1.00  0.00     0.012 A 
ATOM      9  C   UNL     1       9.317 -14.726  -7.979  1.00  0.00     0.001 A 
ATOM     10  C   UNL     1       7.990 -14.237  -8.002  1.00  0.00     0.001 A 
BRANCH   3  11
ATOM     11  O   UNL     1      10.642 -15.773  -3.806  1.00  0.00    -0.480 OA
ATOM     12  H   UNL     1      11.499 -15.249  -3.927  1.00  0.00     0.297 HD
ENDBRANCH   3  11
ENDBRANCH   1   2
BRANCH   1  13
ATOM     13  C   UNL     1       5.116 -15.278  -3.741  1.00  0.00     0.008 C 
BRANCH  13  14
ATOM     14  C   UNL     1       3.948 -15.146  -4.730  1.00  0.00    -0.003 C 
ATOM     15  C   UNL     1       3.839 -13.746  -5.331  1.00  0.00     0.004 C 
ENDBRANCH  13  14
ENDBRANCH   1  13
TORSDOF 4
ENDMDL
MODEL 3
REMARK VINA RESULT:    -5.169      1.463      4.604
REMARK INTER + INTRA:          -6.462
REMARK INTER:                  -5.932
REMARK INTRA:                  -0.531
REMARK UNBOUND:                -0.235
REMARK SMILES CCCCc1oc(O)c2ccccc12
REMARK SMILES IDX 4 1 5 2 7 3 6 4 9 5 14 6 10 7 13 8 11 9 12 10 8 11 3 13 2 14
REMARK SMILES IDX 1 15
REMARK H PARENT 8 12
REMARK Flexibility Score: inf
ROOT
ATOM      1  C   UNL     1       8.770 -15.989  -4.610  1.00  0.00     0.076 C 
ENDROOT
BRANCH   1   2
ATOM      2  C   UNL     1       7.764 -15.235  -5.424  1.00  0.00     0.116 A 
ATOM      3  C   UNL     1       6.803 -14.362  -7.130  1.00  0.00     0.290 A 
ATOM      4  O   UNL     1       7.823 -15.101  -6.737  1.00  0.00    -0.430 OA
ATOM      5  C   UNL     1       6.049 -13.992  -6.040  1.00  0.00     0.066 A 
ATOM      6  C   UNL     1       6.662 -14.547  -4.948  1.00  0.00     0.027 A 
ATOM      7  C   UNL     1       4.896 -13.219  -5.927  1.00  0.00     0.016 A 
ATOM      8  C   UNL     1       6.165 -14.364  -3.658  1.00  0.00     0.012 A 
ATOM      9  C   UNL     1       4.368 -13.018  -4.639  1.00  0.00     0.001 A 
ATOM     10  C   UNL     1       5.000 -13.588  -3.508  1.00  0.00     0.001 A 
BRANCH   3  11
ATOM     11  O   UNL     1       6.546 -14.015  -8.451  1.00  0.00    -0.480 OA
ATOM     12  H   UNL     1       7.251 -14.152  -9.163  1.00  0.00     0.297 HD
ENDBRANCH   3  11
ENDBRANCH   1   2
BRANCH   1  13
ATOM     13  C   UNL     1      10.117 -15.255  -4.611  1.00  0.00     0.008 C 
BRANCH  13  14
ATOM     14  C   UNL     1      10.131 -14.050  -3.658  1.00  0.00    -0.003 C 
ATOM     15  C   UNL     1       9.722 -14.420  -2.233  1.00  0.00     0.004 C 
ENDBRANCH  13  14
ENDBRANCH   1  13
TORSDOF 4
ENDMDL
MODEL 4
REMARK VINA RESULT:    -5.106     10.277     11.529
REMARK INTER + INTRA:          -6.386
REMARK INTER:                  -6.219
REMARK INTRA:                  -0.167
REMARK UNBOUND:                -0.235
REMARK SMILES CCCCc1oc(O)c2ccccc12
REMARK SMILES IDX 4 1 5 2 7 3 6 4 9 5 14 6 10 7 13 8 11 9 12 10 8 11 3 13 2 14
REMARK SMILES IDX 1 15
REMARK H PARENT 8 12
REMARK Flexibility Score: inf
ROOT
ATOM      1  C   UNL     1       2.011 -24.381   0.993  1.00  0.00     0.076 C 
ENDROOT
BRANCH   1   2
ATOM      2  C   UNL     1       2.673 -23.575  -0.081  1.00  0.00     0.116 A 
ATOM      3  C   UNL     1       4.094 -22.293  -1.048  1.00  0.00     0.290 A 
ATOM      4  O   UNL     1       3.806 -22.914   0.080  1.00  0.00    -0.430 OA
ATOM      5  C   UNL     1       3.117 -22.549  -1.983  1.00  0.00     0.066 A 
ATOM      6  C   UNL     1       2.206 -23.366  -1.367  1.00  0.00     0.027 A 
ATOM      7  C   UNL     1       2.959 -22.127  -3.301  1.00  0.00     0.016 A 
ATOM      8  C   UNL     1       1.065 -23.819  -2.028  1.00  0.00     0.012 A 
ATOM      9  C   UNL     1       1.819 -22.570  -3.996  1.00  0.00     0.001 A 
ATOM     10  C   UNL     1       0.875 -23.412  -3.362  1.00  0.00     0.001 A 
BRANCH   3  11
ATOM     11  O   UNL     1       5.218 -21.500  -1.245  1.00  0.00    -0.480 OA
ATOM     12  H   UNL     1       5.191 -20.724  -1.894  1.00  0.00     0.297 HD
ENDBRANCH   3  11
ENDBRANCH   1   2
BRANCH   1  13
ATOM     13  C   UNL     1       1.571 -25.744   0.444  1.00  0.00     0.008 C 
BRANCH  13  14
ATOM     14  C   UNL     1       2.759 -26.616   0.011  1.00  0.00    -0.003 C 
ATOM     15  C   UNL     1       2.394 -27.603  -1.097  1.00  0.00     0.004 C 
ENDBRANCH  13  14
ENDBRANCH   1  13
TORSDOF 4
ENDMDL
MODEL 5
REMARK VINA RESULT:    -5.019      2.896      4.474
REMARK INTER + INTRA:          -6.281
REMARK INTER:                  -5.764
REMARK INTRA:                  -0.516
REMARK UNBOUND:                -0.235
REMARK SMILES CCCCc1oc(O)c2ccccc12
REMARK SMILES IDX 4 1 5 2 7 3 6 4 9 5 14 6 10 7 13 8 11 9 12 10 8 11 3 13 2 14
REMARK SMILES IDX 1 15
REMARK H PARENT 8 12
REMARK Flexibility Score: inf
ROOT
ATOM      1  C   UNL     1       7.889 -15.156  -4.533  1.00  0.00     0.076 C 
ENDROOT
BRANCH   1   2
ATOM      2  C   UNL     1       7.976 -14.816  -5.989  1.00  0.00     0.116 A 
ATOM      3  C   UNL     1       7.372 -14.502  -8.022  1.00  0.00     0.290 A 
ATOM      4  O   UNL     1       6.945 -14.823  -6.816  1.00  0.00    -0.430 OA
ATOM      5  C   UNL     1       8.729 -14.280  -7.992  1.00  0.00     0.066 A 
ATOM      6  C   UNL     1       9.119 -14.482  -6.695  1.00  0.00     0.027 A 
ATOM      7  C   UNL     1       9.635 -13.930  -8.991  1.00  0.00     0.016 A 
ATOM      8  C   UNL     1      10.450 -14.351  -6.302  1.00  0.00     0.012 A 
ATOM      9  C   UNL     1      10.986 -13.787  -8.625  1.00  0.00     0.001 A 
ATOM     10  C   UNL     1      11.393 -13.997  -7.286  1.00  0.00     0.001 A 
BRANCH   3  11
ATOM     11  O   UNL     1       6.558 -14.410  -9.145  1.00  0.00    -0.480 OA
ATOM     12  H   UNL     1       6.392 -15.223  -9.725  1.00  0.00     0.297 HD
ENDBRANCH   3  11
ENDBRANCH   1   2
BRANCH   1  13
ATOM     13  C   UNL     1       7.753 -13.880  -3.693  1.00  0.00     0.008 C 
BRANCH  13  14
ATOM     14  C   UNL     1       9.062 -13.499  -2.986  1.00  0.00    -0.003 C 
ATOM     15  C   UNL     1       9.920 -14.714  -2.638  1.00  0.00     0.004 C 
ENDBRANCH  13  14
ENDBRANCH   1  13
TORSDOF 4
ENDMDL
MODEL 6
REMARK VINA RESULT:    -4.904     10.377     11.423
REMARK INTER + INTRA:          -6.143
REMARK INTER:                  -5.971
REMARK INTRA:                  -0.171
REMARK UNBOUND:                -0.235
REMARK SMILES CCCCc1oc(O)c2ccccc12
REMARK SMILES IDX 4 1 5 2 7 3 6 4 9 5 14 6 10 7 13 8 11 9 12 10 8 11 3 13 2 14
REMARK SMILES IDX 1 15
REMARK H PARENT 8 12
REMARK Flexibility Score: inf
ROOT
ATOM      1  C   UNL     1       0.880 -21.017   1.203  1.00  0.00     0.076 C 
ENDROOT
BRANCH   1   2
ATOM      2  C   UNL     1       1.310 -22.306   0.575  1.00  0.00     0.116 A 
ATOM      3  C   UNL     1       2.043 -24.314   0.401  1.00  0.00     0.290 A 
ATOM      4  O   UNL     1       1.716 -23.364   1.256  1.00  0.00    -0.430 OA
ATOM      5  C   UNL     1       1.852 -23.867  -0.886  1.00  0.00     0.066 A 
ATOM      6  C   UNL     1       1.386 -22.585  -0.778  1.00  0.00     0.027 A 
ATOM      7  C   UNL     1       2.056 -24.479  -2.121  1.00  0.00     0.016 A 
ATOM      8  C   UNL     1       1.091 -21.815  -1.904  1.00  0.00     0.012 A 
ATOM      9  C   UNL     1       1.765 -23.730  -3.276  1.00  0.00     0.001 A 
ATOM     10  C   UNL     1       1.286 -22.403  -3.168  1.00  0.00     0.001 A 
BRANCH   3  11
ATOM     11  O   UNL     1       2.513 -25.570   0.764  1.00  0.00    -0.480 OA
ATOM     12  H   UNL     1       3.389 -25.666   1.262  1.00  0.00     0.297 HD
ENDBRANCH   3  11
ENDBRANCH   1   2
BRANCH   1  13
ATOM     13  C   UNL     1       0.910 -21.131   2.732  1.00  0.00     0.008 C 
BRANCH  13  14
ATOM     14  C   UNL     1       0.875 -19.761   3.427  1.00  0.00    -0.003 C 
ATOM     15  C   UNL     1       0.912 -19.870   4.950  1.00  0.00     0.004 C 
ENDBRANCH  13  14
ENDBRANCH   1  13
TORSDOF 4
ENDMDL
MODEL 7
REMARK VINA RESULT:    -4.891     10.456     11.630
REMARK INTER + INTRA:          -6.127
REMARK INTER:                  -5.956
REMARK INTRA:                  -0.171
REMARK UNBOUND:                -0.235
REMARK SMILES CCCCc1oc(O)c2ccccc12
REMARK SMILES IDX 4 1 5 2 7 3 6 4 9 5 14 6 10 7 13 8 11 9 12 10 8 11 3 13 2 14
REMARK SMILES IDX 1 15
REMARK H PARENT 8 12
REMARK Flexibility Score: inf
ROOT
ATOM      1  C   UNL     1       1.190 -22.284   2.280  1.00  0.00     0.076 C 
ENDROOT
BRANCH   1   2
ATOM      2  C   UNL     1       1.497 -22.553   0.839  1.00  0.00     0.116 A 
ATOM      3  C   UNL     1       1.865 -22.189  -1.242  1.00  0.00     0.290 A 
ATOM      4  O   UNL     1       1.620 -21.612  -0.081  1.00  0.00    -0.430 OA
ATOM      5  C   UNL     1       1.900 -23.556  -1.084  1.00  0.00     0.066 A 
ATOM      6  C   UNL     1       1.664 -23.791   0.244  1.00  0.00     0.027 A 
ATOM      7  C   UNL     1       2.112 -24.590  -1.993  1.00  0.00     0.016 A 
ATOM      8  C   UNL     1       1.618 -25.086   0.761  1.00  0.00     0.012 A 
ATOM      9  C   UNL     1       2.074 -25.908  -1.501  1.00  0.00     0.001 A 
ATOM     10  C   UNL     1       1.828 -26.155  -0.130  1.00  0.00     0.001 A 
BRANCH   3  11
ATOM     11  O   UNL     1       2.052 -21.504  -2.436  1.00  0.00    -0.480 OA
ATOM     12  H   UNL     1       2.752 -21.813  -3.099  1.00  0.00     0.297 HD
ENDBRANCH   3  11
ENDBRANCH   1   2
BRANCH   1  13
ATOM     13  C   UNL     1       0.909 -20.792   2.497  1.00  0.00     0.008 C 
BRANCH  13  14
ATOM     14  C   UNL     1       0.933 -20.398   3.982  1.00  0.00    -0.003 C 
ATOM     15  C   UNL     1       0.875 -18.886   4.192  1.00  0.00     0.004 C 
ENDBRANCH  13  14
ENDBRANCH   1  13
TORSDOF 4
ENDMDL
MODEL 8
REMARK VINA RESULT:    -4.772      3.007      4.681
REMARK INTER + INTRA:          -5.983
REMARK INTER:                  -5.461
REMARK INTRA:                  -0.522
REMARK UNBOUND:                -0.235
REMARK SMILES CCCCc1oc(O)c2ccccc12
REMARK SMILES IDX 4 1 5 2 7 3 6 4 9 5 14 6 10 7 13 8 11 9 12 10 8 11 3 13 2 14
REMARK SMILES IDX 1 15
REMARK H PARENT 8 12
REMARK Flexibility Score: inf
ROOT
ATOM      1  C   UNL     1       9.101 -13.411  -8.539  1.00  0.00     0.076 C 
ENDROOT
BRANCH   1   2
ATOM      2  C   UNL     1       8.420 -14.110  -7.403  1.00  0.00     0.116 A 
ATOM      3  C   UNL     1       6.913 -15.168  -6.305  1.00  0.00     0.290 A 
ATOM      4  O   UNL     1       7.223 -14.665  -7.484  1.00  0.00    -0.430 OA
ATOM      5  C   UNL     1       7.936 -14.934  -5.414  1.00  0.00     0.066 A 
ATOM      6  C   UNL     1       8.899 -14.257  -6.113  1.00  0.00     0.027 A 
ATOM      7  C   UNL     1       8.085 -15.254  -4.067  1.00  0.00     0.016 A 
ATOM      8  C   UNL     1      10.087 -13.844  -5.509  1.00  0.00     0.012 A 
ATOM      9  C   UNL     1       9.275 -14.854  -3.430  1.00  0.00     0.001 A 
ATOM     10  C   UNL     1      10.271 -14.152  -4.148  1.00  0.00     0.001 A 
BRANCH   3  11
ATOM     11  O   UNL     1       5.724 -15.829  -6.020  1.00  0.00    -0.480 OA
ATOM     12  H   UNL     1       5.520 -16.135  -5.077  1.00  0.00     0.297 HD
ENDBRANCH   3  11
ENDBRANCH   1   2
BRANCH   1  13
ATOM     13  C   UNL     1       9.372 -14.394  -9.685  1.00  0.00     0.008 C 
BRANCH  13  14
ATOM     14  C   UNL     1      10.458 -15.423  -9.334  1.00  0.00    -0.003 C 
ATOM     15  C   UNL     1      11.748 -14.773  -8.836  1.00  0.00     0.004 C 
ENDBRANCH  13  14
ENDBRANCH   1  13
TORSDOF 4
ENDMDL
MODEL 9
REMARK VINA RESULT:    -4.331      3.251      5.586
REMARK INTER + INTRA:          -5.452
REMARK INTER:                  -5.193
REMARK INTRA:                  -0.259
REMARK UNBOUND:                -0.235
REMARK SMILES CCCCc1oc(O)c2ccccc12
REMARK SMILES IDX 4 1 5 2 7 3 6 4 9 5 14 6 10 7 13 8 11 9 12 10 8 11 3 13 2 14
REMARK SMILES IDX 1 15
REMARK H PARENT 8 12
REMARK Flexibility Score: inf
ROOT
ATOM      1  C   UNL     1      10.543 -14.748  -6.611  1.00  0.00     0.076 C 
ENDROOT
BRANCH   1   2
ATOM      2  C   UNL     1       9.885 -14.325  -5.334  1.00  0.00     0.116 A 
ATOM      3  C   UNL     1       9.602 -13.965  -3.239  1.00  0.00     0.290 A 
ATOM      4  O   UNL     1      10.462 -14.388  -4.146  1.00  0.00    -0.430 OA
ATOM      5  C   UNL     1       8.418 -13.616  -3.847  1.00  0.00     0.066 A 
ATOM      6  C   UNL     1       8.595 -13.847  -5.185  1.00  0.00     0.027 A 
ATOM      7  C   UNL     1       7.219 -13.128  -3.333  1.00  0.00     0.016 A 
ATOM      8  C   UNL     1       7.579 -13.609  -6.110  1.00  0.00     0.012 A 
ATOM      9  C   UNL     1       6.175 -12.875  -4.241  1.00  0.00     0.001 A 
ATOM     10  C   UNL     1       6.353 -13.115  -5.624  1.00  0.00     0.001 A 
BRANCH   3  11
ATOM     11  O   UNL     1       9.868 -13.893  -1.877  1.00  0.00    -0.480 OA
ATOM     12  H   UNL     1       9.507 -13.126  -1.325  1.00  0.00     0.297 HD
ENDBRANCH   3  11
ENDBRANCH   1   2
BRANCH   1  13
ATOM     13  C   UNL     1      11.377 -13.598  -7.189  1.00  0.00     0.008 C 
BRANCH  13  14
ATOM     14  C   UNL     1      11.863 -13.883  -8.618  1.00  0.00    -0.003 C 
ATOM     15  C   UNL     1      11.677 -15.345  -9.024  1.00  0.00     0.004 C 
ENDBRANCH  13  14
ENDBRANCH   1  13
TORSDOF 4
ENDMDL
