MODEL 1
REMARK VINA RESULT:    -4.139      0.000      0.000
REMARK INTER + INTRA:          -5.262
REMARK INTER:                  -5.107
REMARK INTRA:                  -0.156
REMARK UNBOUND:                -0.156
REMARK SMILES CCCCC=CC(C)=O
REMARK SMILES IDX 4 1 3 2 2 3 1 4 5 5 6 6 7 7 9 8 8 9
REMARK H PARENT
REMARK Flexibility Score: inf
ROOT
ATOM      1  C   UNL     1       6.114  -0.696  46.471  1.00  0.00     0.027 C 
ENDROOT
BRANCH   1   2
ATOM      2  C   UNL     1       5.516  -2.025  45.994  1.00  0.00     0.004 C 
BRANCH   2   3
ATOM      3  C   UNL     1       4.775  -1.848  44.664  1.00  0.00    -0.003 C 
ATOM      4  C   UNL     1       4.434  -3.197  44.038  1.00  0.00     0.004 C 
ENDBRANCH   2   3
ENDBRANCH   1   2
BRANCH   1   5
ATOM      5  C   UNL     1       7.122  -0.913  47.563  1.00  0.00    -0.023 C 
ATOM      6  C   UNL     1       7.336  -2.126  48.085  1.00  0.00     0.042 C 
BRANCH   6   7
ATOM      7  C   UNL     1       8.330  -2.363  49.149  1.00  0.00     0.152 C 
ATOM      8  O   UNL     1       8.033  -2.182  50.361  1.00  0.00    -0.295 OA
ATOM      9  C   UNL     1       9.704  -2.824  48.788  1.00  0.00     0.093 C 
ENDBRANCH   6   7
ENDBRANCH   1   5
TORSDOF 4
ENDMDL
MODEL 2
REMARK VINA RESULT:    -4.133      2.242      4.446
REMARK INTER + INTRA:          -5.254
REMARK INTER:                  -4.937
REMARK INTRA:                  -0.317
REMARK UNBOUND:                -0.156
REMARK SMILES CCCCC=CC(C)=O
REMARK SMILES IDX 4 1 3 2 2 3 1 4 5 5 6 6 7 7 9 8 8 9
REMARK H PARENT
REMARK Flexibility Score: inf
ROOT
ATOM      1  C   UNL     1       9.409  -2.578  49.068  1.00  0.00     0.027 C 
ENDROOT
BRANCH   1   2
ATOM      2  C   UNL     1       9.651  -3.842  48.234  1.00  0.00     0.004 C 
BRANCH   2   3
ATOM      3  C   UNL     1       8.790  -5.006  48.738  1.00  0.00    -0.003 C 
ATOM      4  C   UNL     1       7.845  -5.505  47.650  1.00  0.00     0.004 C 
ENDBRANCH   2   3
ENDBRANCH   1   2
BRANCH   1   5
ATOM      5  C   UNL     1       8.092  -1.943  48.726  1.00  0.00    -0.023 C 
ATOM      6  C   UNL     1       7.810  -1.546  47.480  1.00  0.00     0.042 C 
BRANCH   6   7
ATOM      7  C   UNL     1       6.518  -0.932  47.120  1.00  0.00     0.152 C 
ATOM      8  O   UNL     1       6.457   0.272  46.752  1.00  0.00    -0.295 OA
ATOM      9  C   UNL     1       5.267  -1.745  47.190  1.00  0.00     0.093 C 
ENDBRANCH   6   7
ENDBRANCH   1   5
TORSDOF 4
ENDMDL
MODEL 3
REMARK VINA RESULT:    -4.017      3.025      4.691
REMARK INTER + INTRA:          -5.111
REMARK INTER:                  -4.835
REMARK INTRA:                  -0.276
REMARK UNBOUND:                -0.156
REMARK SMILES CCCCC=CC(C)=O
REMARK SMILES IDX 4 1 3 2 2 3 1 4 5 5 6 6 7 7 9 8 8 9
REMARK H PARENT
REMARK Flexibility Score: inf
ROOT
ATOM      1  C   UNL     1       5.933  -2.222  50.587  1.00  0.00     0.027 C 
ENDROOT
BRANCH   1   2
ATOM      2  C   UNL     1       5.067  -3.471  50.387  1.00  0.00     0.004 C 
BRANCH   2   3
ATOM      3  C   UNL     1       5.788  -4.726  50.888  1.00  0.00    -0.003 C 
ATOM      4  C   UNL     1       6.692  -5.313  49.808  1.00  0.00     0.004 C 
ENDBRANCH   2   3
ENDBRANCH   1   2
BRANCH   1   5
ATOM      5  C   UNL     1       6.350  -1.632  49.271  1.00  0.00    -0.023 C 
ATOM      6  C   UNL     1       5.574  -1.726  48.186  1.00  0.00     0.042 C 
BRANCH   6   7
ATOM      7  C   UNL     1       5.959  -1.143  46.886  1.00  0.00     0.152 C 
ATOM      8  O   UNL     1       5.439  -1.555  45.815  1.00  0.00    -0.295 OA
ATOM      9  C   UNL     1       6.977  -0.050  46.838  1.00  0.00     0.093 C 
ENDBRANCH   6   7
ENDBRANCH   1   5
TORSDOF 4
ENDMDL
MODEL 4
REMARK VINA RESULT:    -4.004     12.863     13.930
REMARK INTER + INTRA:          -5.095
REMARK INTER:                  -4.972
REMARK INTRA:                  -0.123
REMARK UNBOUND:                -0.156
REMARK SMILES CCCCC=CC(C)=O
REMARK SMILES IDX 4 1 3 2 2 3 1 4 5 5 6 6 7 7 9 8 8 9
REMARK H PARENT
REMARK Flexibility Score: inf
ROOT
ATOM      1  C   UNL     1      -1.861   3.669  38.156  1.00  0.00     0.027 C 
ENDROOT
BRANCH   1   2
ATOM      2  C   UNL     1      -3.008   2.730  38.551  1.00  0.00     0.004 C 
BRANCH   2   3
ATOM      3  C   UNL     1      -2.741   1.302  38.064  1.00  0.00    -0.003 C 
ATOM      4  C   UNL     1      -1.982   0.493  39.112  1.00  0.00     0.004 C 
ENDBRANCH   2   3
ENDBRANCH   1   2
BRANCH   1   5
ATOM      5  C   UNL     1      -2.090   5.057  38.679  1.00  0.00    -0.023 C 
ATOM      6  C   UNL     1      -1.530   5.476  39.818  1.00  0.00     0.042 C 
BRANCH   6   7
ATOM      7  C   UNL     1      -1.731   6.840  40.343  1.00  0.00     0.152 C 
ATOM      8  O   UNL     1      -2.879   7.361  40.361  1.00  0.00    -0.295 OA
ATOM      9  C   UNL     1      -0.563   7.614  40.862  1.00  0.00     0.093 C 
ENDBRANCH   6   7
ENDBRANCH   1   5
TORSDOF 4
ENDMDL
MODEL 5
REMARK VINA RESULT:    -3.880      2.645      4.012
REMARK INTER + INTRA:          -4.943
REMARK INTER:                  -4.744
REMARK INTRA:                  -0.199
REMARK UNBOUND:                -0.156
REMARK SMILES CCCCC=CC(C)=O
REMARK SMILES IDX 4 1 3 2 2 3 1 4 5 5 6 6 7 7 9 8 8 9
REMARK H PARENT
REMARK Flexibility Score: inf
ROOT
ATOM      1  C   UNL     1       5.884  -1.125  47.819  1.00  0.00     0.027 C 
ENDROOT
BRANCH   1   2
ATOM      2  C   UNL     1       7.350  -0.860  47.455  1.00  0.00     0.004 C 
BRANCH   2   3
ATOM      3  C   UNL     1       8.092  -2.171  47.176  1.00  0.00    -0.003 C 
ATOM      4  C   UNL     1       9.278  -2.346  48.119  1.00  0.00     0.004 C 
ENDBRANCH   2   3
ENDBRANCH   1   2
BRANCH   1   5
ATOM      5  C   UNL     1       5.774  -1.993  49.040  1.00  0.00    -0.023 C 
ATOM      6  C   UNL     1       4.994  -3.079  49.058  1.00  0.00     0.042 C 
BRANCH   6   7
ATOM      7  C   UNL     1       4.881  -3.951  50.242  1.00  0.00     0.152 C 
ATOM      8  O   UNL     1       5.541  -3.707  51.288  1.00  0.00    -0.295 OA
ATOM      9  C   UNL     1       3.972  -5.136  50.204  1.00  0.00     0.093 C 
ENDBRANCH   6   7
ENDBRANCH   1   5
TORSDOF 4
ENDMDL
MODEL 6
REMARK VINA RESULT:    -3.872      2.408      3.544
REMARK INTER + INTRA:          -4.933
REMARK INTER:                  -4.637
REMARK INTRA:                  -0.296
REMARK UNBOUND:                -0.156
REMARK SMILES CCCCC=CC(C)=O
REMARK SMILES IDX 4 1 3 2 2 3 1 4 5 5 6 6 7 7 9 8 8 9
REMARK H PARENT
REMARK Flexibility Score: inf
ROOT
ATOM      1  C   UNL     1       8.889  -2.072  48.321  1.00  0.00     0.027 C 
ENDROOT
BRANCH   1   2
ATOM      2  C   UNL     1       8.009  -2.019  47.066  1.00  0.00     0.004 C 
BRANCH   2   3
ATOM      3  C   UNL     1       7.325  -0.655  46.931  1.00  0.00    -0.003 C 
ATOM      4  C   UNL     1       5.872  -0.717  47.391  1.00  0.00     0.004 C 
ENDBRANCH   2   3
ENDBRANCH   1   2
BRANCH   1   5
ATOM      5  C   UNL     1       8.315  -3.003  49.350  1.00  0.00    -0.023 C 
ATOM      6  C   UNL     1       7.262  -3.781  49.078  1.00  0.00     0.042 C 
BRANCH   6   7
ATOM      7  C   UNL     1       6.691  -4.712  50.070  1.00  0.00     0.152 C 
ATOM      8  O   UNL     1       7.193  -5.855  50.246  1.00  0.00    -0.295 OA
ATOM      9  C   UNL     1       5.505  -4.296  50.877  1.00  0.00     0.093 C 
ENDBRANCH   6   7
ENDBRANCH   1   5
TORSDOF 4
ENDMDL
MODEL 7
REMARK VINA RESULT:    -3.862      1.741      2.219
REMARK INTER + INTRA:          -4.920
REMARK INTER:                  -4.820
REMARK INTRA:                  -0.101
REMARK UNBOUND:                -0.156
REMARK SMILES CCCCC=CC(C)=O
REMARK SMILES IDX 4 1 3 2 2 3 1 4 5 5 6 6 7 7 9 8 8 9
REMARK H PARENT
REMARK Flexibility Score: inf
ROOT
ATOM      1  C   UNL     1       7.275  -1.148  47.095  1.00  0.00     0.027 C 
ENDROOT
BRANCH   1   2
ATOM      2  C   UNL     1       5.850  -1.057  46.535  1.00  0.00     0.004 C 
BRANCH   2   3
ATOM      3  C   UNL     1       5.498  -2.307  45.722  1.00  0.00    -0.003 C 
ATOM      4  C   UNL     1       4.626  -1.957  44.520  1.00  0.00     0.004 C 
ENDBRANCH   2   3
ENDBRANCH   1   2
BRANCH   1   5
ATOM      5  C   UNL     1       7.267  -1.531  48.546  1.00  0.00    -0.023 C 
ATOM      6  C   UNL     1       6.147  -1.932  49.157  1.00  0.00     0.042 C 
BRANCH   6   7
ATOM      7  C   UNL     1       6.120  -2.324  50.579  1.00  0.00     0.152 C 
ATOM      8  O   UNL     1       6.573  -1.556  51.470  1.00  0.00    -0.295 OA
ATOM      9  C   UNL     1       5.547  -3.648  50.970  1.00  0.00     0.093 C 
ENDBRANCH   6   7
ENDBRANCH   1   5
TORSDOF 4
ENDMDL
MODEL 8
REMARK VINA RESULT:    -3.828      2.485      4.868
REMARK INTER + INTRA:          -4.879
REMARK INTER:                  -4.604
REMARK INTRA:                  -0.275
REMARK UNBOUND:                -0.156
REMARK SMILES CCCCC=CC(C)=O
REMARK SMILES IDX 4 1 3 2 2 3 1 4 5 5 6 6 7 7 9 8 8 9
REMARK H PARENT
REMARK Flexibility Score: inf
ROOT
ATOM      1  C   UNL     1       6.878  -4.754  48.239  1.00  0.00     0.027 C 
ENDROOT
BRANCH   1   2
ATOM      2  C   UNL     1       7.779  -4.191  49.346  1.00  0.00     0.004 C 
BRANCH   2   3
ATOM      3  C   UNL     1       9.248  -4.189  48.911  1.00  0.00    -0.003 C 
ATOM      4  C   UNL     1       9.830  -2.780  48.939  1.00  0.00     0.004 C 
ENDBRANCH   2   3
ENDBRANCH   1   2
BRANCH   1   5
ATOM      5  C   UNL     1       6.542  -3.702  47.222  1.00  0.00    -0.023 C 
ATOM      6  C   UNL     1       6.330  -2.430  47.576  1.00  0.00     0.042 C 
BRANCH   6   7
ATOM      7  C   UNL     1       6.011  -1.379  46.592  1.00  0.00     0.152 C 
ATOM      8  O   UNL     1       5.310  -1.638  45.576  1.00  0.00    -0.295 OA
ATOM      9  C   UNL     1       6.522   0.009  46.800  1.00  0.00     0.093 C 
ENDBRANCH   6   7
ENDBRANCH   1   5
TORSDOF 4
ENDMDL
MODEL 9
REMARK VINA RESULT:    -3.814      1.921      2.819
REMARK INTER + INTRA:          -4.862
REMARK INTER:                  -4.601
REMARK INTRA:                  -0.261
REMARK UNBOUND:                -0.156
REMARK SMILES CCCCC=CC(C)=O
REMARK SMILES IDX 4 1 3 2 2 3 1 4 5 5 6 6 7 7 9 8 8 9
REMARK H PARENT
REMARK Flexibility Score: inf
ROOT
ATOM      1  C   UNL     1       5.523  -3.629  47.033  1.00  0.00     0.027 C 
ENDROOT
BRANCH   1   2
ATOM      2  C   UNL     1       5.466  -2.273  46.320  1.00  0.00     0.004 C 
BRANCH   2   3
ATOM      3  C   UNL     1       5.611  -1.120  47.319  1.00  0.00    -0.003 C 
ATOM      4  C   UNL     1       6.730  -0.169  46.906  1.00  0.00     0.004 C 
ENDBRANCH   2   3
ENDBRANCH   1   2
BRANCH   1   5
ATOM      5  C   UNL     1       6.930  -3.980  47.424  1.00  0.00    -0.023 C 
ATOM      6  C   UNL     1       7.291  -4.094  48.707  1.00  0.00     0.042 C 
BRANCH   6   7
ATOM      7  C   UNL     1       8.664  -4.449  49.112  1.00  0.00     0.152 C 
ATOM      8  O   UNL     1       8.902  -5.540  49.696  1.00  0.00    -0.295 OA
ATOM      9  C   UNL     1       9.787  -3.506  48.827  1.00  0.00     0.093 C 
ENDBRANCH   6   7
ENDBRANCH   1   5
TORSDOF 4
ENDMDL
