MODEL 1
REMARK VINA RESULT:     4.537      0.000      0.000
REMARK INTER + INTRA:           4.816
REMARK INTER:                   4.935
REMARK INTRA:                  -0.119
REMARK UNBOUND:                -0.119
REMARK SMILES Cc1ccc(C(C)C)cc1O
REMARK SMILES IDX 1 1 2 2 10 3 9 4 5 5 4 6 3 7 11 8 6 10 7 11 8 12
REMARK H PARENT 11 9
REMARK Flexibility Score: inf
ROOT
ATOM      1  C   UNL     1       4.078  42.941  25.020  1.00  0.00     0.048 C 
ATOM      2  C   UNL     1       5.470  42.527  24.630  1.00  0.00    -0.009 A 
ATOM      3  C   UNL     1       6.292  43.405  23.902  1.00  0.00     0.118 A 
ATOM      4  C   UNL     1       7.589  43.013  23.542  1.00  0.00     0.050 A 
ATOM      5  C   UNL     1       8.081  41.745  23.901  1.00  0.00    -0.042 A 
ATOM      6  C   UNL     1       7.251  40.875  24.628  1.00  0.00     0.004 A 
ATOM      7  C   UNL     1       5.959  41.263  24.989  1.00  0.00     0.007 A 
ENDROOT
BRANCH   3   8
ATOM      8  O   UNL     1       5.818  44.666  23.539  1.00  0.00    -0.508 OA
ATOM      9  H   UNL     1       5.270  45.231  24.178  1.00  0.00     0.293 HD
ENDBRANCH   3   8
BRANCH   5  10
ATOM     10  C   UNL     1       9.483  41.310  23.517  1.00  0.00     0.013 C 
ATOM     11  C   UNL     1      10.285  40.876  24.750  1.00  0.00     0.012 C 
ATOM     12  C   UNL     1      10.213  42.416  22.746  1.00  0.00     0.012 C 
ENDBRANCH   5  10
TORSDOF 2
ENDMDL
