MODEL 1
REMARK VINA RESULT:    -4.439      0.000      0.000
REMARK INTER + INTRA:         -11.024
REMARK INTER:                  -8.332
REMARK INTRA:                  -2.692
REMARK UNBOUND:                -2.692
REMARK SMILES CCCCCCCCC=CCCCCCCCC(=O)[O-]
REMARK SMILES IDX 10 1 9 2 11 3 12 4 13 5 14 6 15 7 16 8 17 9 18 10 19 11
REMARK SMILES IDX 20 12 8 13 7 14 6 15 5 16 4 17 3 18 2 19 1 20
REMARK H PARENT
REMARK Flexibility Score: inf
ROOT
ATOM      1  C   UNL     1     109.625 117.147 126.402  1.00  0.00    -0.031 C 
ATOM      2  C   UNL     1     109.426 117.110 127.733  1.00  0.00    -0.031 C 
ENDROOT
BRANCH   1   3
ATOM      3  C   UNL     1     109.976 115.953 125.548  1.00  0.00     0.027 C 
BRANCH   3   4
ATOM      4  C   UNL     1     109.644 116.213 124.073  1.00  0.00     0.004 C 
BRANCH   4   5
ATOM      5  C   UNL     1     110.581 117.260 123.454  1.00  0.00     0.000 C 
BRANCH   5   6
ATOM      6  C   UNL     1     109.826 118.412 122.784  1.00  0.00     0.000 C 
BRANCH   6   7
ATOM      7  C   UNL     1     110.183 119.784 123.389  1.00  0.00     0.000 C 
BRANCH   7   8
ATOM      8  C   UNL     1     111.354 119.699 124.383  1.00  0.00     0.006 C 
BRANCH   8   9
ATOM      9  C   UNL     1     112.263 120.934 124.339  1.00  0.00     0.053 C 
BRANCH   9  10
ATOM     10  C   UNL     1     111.852 121.913 125.395  1.00  0.00     0.041 C 
ATOM     11  O   UNL     1     111.592 123.111 125.089  1.00  0.00    -0.550 OA
ATOM     12  O   UNL     1     111.679 121.481 126.704  1.00  0.00    -0.550 OA
ENDBRANCH   9  10
ENDBRANCH   8   9
ENDBRANCH   7   8
ENDBRANCH   6   7
ENDBRANCH   5   6
ENDBRANCH   4   5
ENDBRANCH   3   4
ENDBRANCH   1   3
BRANCH   2  13
ATOM     13  C   UNL     1     109.464 115.839 128.548  1.00  0.00     0.027 C 
BRANCH  13  14
ATOM     14  C   UNL     1     110.528 115.880 129.659  1.00  0.00     0.004 C 
BRANCH  14  15
ATOM     15  C   UNL     1     110.911 117.299 130.136  1.00  0.00     0.000 C 
BRANCH  15  16
ATOM     16  C   UNL     1     112.375 117.461 130.596  1.00  0.00     0.000 C 
BRANCH  16  17
ATOM     17  C   UNL     1     113.403 117.642 129.461  1.00  0.00    -0.000 C 
BRANCH  17  18
ATOM     18  C   UNL     1     112.898 118.451 128.255  1.00  0.00    -0.000 C 
BRANCH  18  19
ATOM     19  C   UNL     1     113.131 117.734 126.917  1.00  0.00    -0.003 C 
ATOM     20  C   UNL     1     113.319 116.235 127.124  1.00  0.00     0.004 C 
ENDBRANCH  18  19
ENDBRANCH  17  18
ENDBRANCH  16  17
ENDBRANCH  15  16
ENDBRANCH  14  15
ENDBRANCH  13  14
ENDBRANCH   2  13
TORSDOF 15
ENDMDL
MODEL 2
REMARK VINA RESULT:    -4.402      3.168      4.927
REMARK INTER + INTRA:         -10.954
REMARK INTER:                  -8.089
REMARK INTRA:                  -2.865
REMARK UNBOUND:                -2.692
REMARK SMILES CCCCCCCCC=CCCCCCCCC(=O)[O-]
REMARK SMILES IDX 10 1 9 2 11 3 12 4 13 5 14 6 15 7 16 8 17 9 18 10 19 11
REMARK SMILES IDX 20 12 8 13 7 14 6 15 5 16 4 17 3 18 2 19 1 20
REMARK H PARENT
REMARK Flexibility Score: inf
ROOT
ATOM      1  C   UNL     1     111.667 119.384 125.087  1.00  0.00    -0.031 C 
ATOM      2  C   UNL     1     111.407 118.963 126.339  1.00  0.00    -0.031 C 
ENDROOT
BRANCH   1   3
ATOM      3  C   UNL     1     110.705 120.159 124.220  1.00  0.00     0.027 C 
BRANCH   3   4
ATOM      4  C   UNL     1     110.188 119.296 123.061  1.00  0.00     0.004 C 
BRANCH   4   5
ATOM      5  C   UNL     1     108.954 118.476 123.468  1.00  0.00     0.000 C 
BRANCH   5   6
ATOM      6  C   UNL     1     109.242 116.974 123.557  1.00  0.00     0.000 C 
BRANCH   6   7
ATOM      7  C   UNL     1     110.580 116.589 122.899  1.00  0.00     0.000 C 
BRANCH   7   8
ATOM      8  C   UNL     1     111.557 115.939 123.894  1.00  0.00     0.006 C 
BRANCH   8   9
ATOM      9  C   UNL     1     111.009 114.645 124.507  1.00  0.00     0.053 C 
BRANCH   9  10
ATOM     10  C   UNL     1     111.839 113.477 124.070  1.00  0.00     0.041 C 
ATOM     11  O   UNL     1     111.354 112.311 124.076  1.00  0.00    -0.550 OA
ATOM     12  O   UNL     1     113.122 113.689 123.580  1.00  0.00    -0.550 OA
ENDBRANCH   9  10
ENDBRANCH   8   9
ENDBRANCH   7   8
ENDBRANCH   6   7
ENDBRANCH   5   6
ENDBRANCH   4   5
ENDBRANCH   3   4
ENDBRANCH   1   3
BRANCH   2  13
ATOM     13  C   UNL     1     110.125 119.271 127.075  1.00  0.00     0.027 C 
BRANCH  13  14
ATOM     14  C   UNL     1     109.185 118.056 127.163  1.00  0.00     0.004 C 
BRANCH  14  15
ATOM     15  C   UNL     1     109.902 116.691 127.267  1.00  0.00     0.000 C 
BRANCH  15  16
ATOM     16  C   UNL     1     109.516 115.842 128.497  1.00  0.00     0.000 C 
BRANCH  16  17
ATOM     17  C   UNL     1     109.810 116.495 129.863  1.00  0.00    -0.000 C 
BRANCH  17  18
ATOM     18  C   UNL     1     111.252 116.324 130.364  1.00  0.00    -0.000 C 
BRANCH  18  19
ATOM     19  C   UNL     1     112.041 117.642 130.372  1.00  0.00    -0.003 C 
ATOM     20  C   UNL     1     113.130 117.635 129.304  1.00  0.00     0.004 C 
ENDBRANCH  18  19
ENDBRANCH  17  18
ENDBRANCH  16  17
ENDBRANCH  15  16
ENDBRANCH  14  15
ENDBRANCH  13  14
ENDBRANCH   2  13
TORSDOF 15
ENDMDL
MODEL 3
REMARK VINA RESULT:    -4.369      2.340      5.085
REMARK INTER + INTRA:         -10.892
REMARK INTER:                  -8.096
REMARK INTRA:                  -2.796
REMARK UNBOUND:                -2.692
REMARK SMILES CCCCCCCCC=CCCCCCCCC(=O)[O-]
REMARK SMILES IDX 10 1 9 2 11 3 12 4 13 5 14 6 15 7 16 8 17 9 18 10 19 11
REMARK SMILES IDX 20 12 8 13 7 14 6 15 5 16 4 17 3 18 2 19 1 20
REMARK H PARENT
REMARK Flexibility Score: inf
ROOT
ATOM      1  C   UNL     1     111.214 120.371 124.587  1.00  0.00    -0.031 C 
ATOM      2  C   UNL     1     110.092 120.292 123.849  1.00  0.00    -0.031 C 
ENDROOT
BRANCH   1   3
ATOM      3  C   UNL     1     112.420 119.478 124.423  1.00  0.00     0.027 C 
BRANCH   3   4
ATOM      4  C   UNL     1     113.716 120.299 124.396  1.00  0.00     0.004 C 
BRANCH   4   5
ATOM      5  C   UNL     1     113.618 121.487 123.427  1.00  0.00     0.000 C 
BRANCH   5   6
ATOM      6  C   UNL     1     114.267 122.760 123.979  1.00  0.00     0.000 C 
BRANCH   6   7
ATOM      7  C   UNL     1     113.242 123.879 124.244  1.00  0.00     0.000 C 
BRANCH   7   8
ATOM      8  C   UNL     1     113.185 124.282 125.727  1.00  0.00     0.006 C 
BRANCH   8   9
ATOM      9  C   UNL     1     112.027 123.615 126.481  1.00  0.00     0.053 C 
BRANCH   9  10
ATOM     10  C   UNL     1     112.550 122.523 127.363  1.00  0.00     0.041 C 
ATOM     11  O   UNL     1     111.770 121.639 127.815  1.00  0.00    -0.550 OA
ATOM     12  O   UNL     1     113.913 122.439 127.619  1.00  0.00    -0.550 OA
ENDBRANCH   9  10
ENDBRANCH   8   9
ENDBRANCH   7   8
ENDBRANCH   6   7
ENDBRANCH   5   6
ENDBRANCH   4   5
ENDBRANCH   3   4
ENDBRANCH   1   3
BRANCH   2  13
ATOM     13  C   UNL     1     109.913 119.327 122.701  1.00  0.00     0.027 C 
BRANCH  13  14
ATOM     14  C   UNL     1     108.990 118.148 123.056  1.00  0.00     0.004 C 
BRANCH  14  15
ATOM     15  C   UNL     1     109.707 116.788 123.207  1.00  0.00     0.000 C 
BRANCH  15  16
ATOM     16  C   UNL     1     109.582 116.134 124.599  1.00  0.00     0.000 C 
BRANCH  16  17
ATOM     17  C   UNL     1     110.787 116.352 125.537  1.00  0.00    -0.000 C 
BRANCH  17  18
ATOM     18  C   UNL     1     110.488 117.195 126.787  1.00  0.00    -0.000 C 
BRANCH  18  19
ATOM     19  C   UNL     1     109.114 117.879 126.731  1.00  0.00    -0.003 C 
ATOM     20  C   UNL     1     109.170 119.273 127.345  1.00  0.00     0.004 C 
ENDBRANCH  18  19
ENDBRANCH  17  18
ENDBRANCH  16  17
ENDBRANCH  15  16
ENDBRANCH  14  15
ENDBRANCH  13  14
ENDBRANCH   2  13
TORSDOF 15
ENDMDL
MODEL 4
REMARK VINA RESULT:    -4.335      1.622      3.520
REMARK INTER + INTRA:         -10.828
REMARK INTER:                  -8.507
REMARK INTRA:                  -2.321
REMARK UNBOUND:                -2.692
REMARK SMILES CCCCCCCCC=CCCCCCCCC(=O)[O-]
REMARK SMILES IDX 10 1 9 2 11 3 12 4 13 5 14 6 15 7 16 8 17 9 18 10 19 11
REMARK SMILES IDX 20 12 8 13 7 14 6 15 5 16 4 17 3 18 2 19 1 20
REMARK H PARENT
REMARK Flexibility Score: inf
ROOT
ATOM      1  C   UNL     1     110.045 117.102 122.501  1.00  0.00    -0.031 C 
ATOM      2  C   UNL     1     111.032 116.559 123.238  1.00  0.00    -0.031 C 
ENDROOT
BRANCH   1   3
ATOM      3  C   UNL     1     108.881 117.884 123.060  1.00  0.00     0.027 C 
BRANCH   3   4
ATOM      4  C   UNL     1     109.109 119.394 122.913  1.00  0.00     0.004 C 
BRANCH   4   5
ATOM      5  C   UNL     1     109.090 120.108 124.273  1.00  0.00     0.000 C 
BRANCH   5   6
ATOM      6  C   UNL     1     110.494 120.387 124.819  1.00  0.00     0.000 C 
BRANCH   6   7
ATOM      7  C   UNL     1     111.578 120.313 123.727  1.00  0.00     0.000 C 
BRANCH   7   8
ATOM      8  C   UNL     1     112.975 120.672 124.263  1.00  0.00     0.006 C 
BRANCH   8   9
ATOM      9  C   UNL     1     113.744 121.619 123.333  1.00  0.00     0.053 C 
BRANCH   9  10
ATOM     10  C   UNL     1     113.742 123.007 123.897  1.00  0.00     0.041 C 
ATOM     11  O   UNL     1     112.782 123.404 124.614  1.00  0.00    -0.550 OA
ATOM     12  O   UNL     1     114.841 123.833 123.694  1.00  0.00    -0.550 OA
ENDBRANCH   9  10
ENDBRANCH   8   9
ENDBRANCH   7   8
ENDBRANCH   6   7
ENDBRANCH   5   6
ENDBRANCH   4   5
ENDBRANCH   3   4
ENDBRANCH   1   3
BRANCH   2  13
ATOM     13  C   UNL     1     111.142 116.719 124.736  1.00  0.00     0.027 C 
BRANCH  13  14
ATOM     14  C   UNL     1     110.403 115.610 125.506  1.00  0.00     0.004 C 
BRANCH  14  15
ATOM     15  C   UNL     1     109.746 116.067 126.828  1.00  0.00     0.000 C 
BRANCH  15  16
ATOM     16  C   UNL     1     109.425 117.574 126.912  1.00  0.00     0.000 C 
BRANCH  16  17
ATOM     17  C   UNL     1     110.191 118.348 128.004  1.00  0.00    -0.000 C 
BRANCH  17  18
ATOM     18  C   UNL     1     111.387 117.596 128.610  1.00  0.00    -0.000 C 
BRANCH  18  19
ATOM     19  C   UNL     1     111.391 117.622 130.145  1.00  0.00    -0.003 C 
ATOM     20  C   UNL     1     110.207 116.844 130.710  1.00  0.00     0.004 C 
ENDBRANCH  18  19
ENDBRANCH  17  18
ENDBRANCH  16  17
ENDBRANCH  15  16
ENDBRANCH  14  15
ENDBRANCH  13  14
ENDBRANCH   2  13
TORSDOF 15
ENDMDL
MODEL 5
REMARK VINA RESULT:    -4.321      1.044      2.001
REMARK INTER + INTRA:         -10.802
REMARK INTER:                  -7.924
REMARK INTRA:                  -2.878
REMARK UNBOUND:                -2.692
REMARK SMILES CCCCCCCCC=CCCCCCCCC(=O)[O-]
REMARK SMILES IDX 10 1 9 2 11 3 12 4 13 5 14 6 15 7 16 8 17 9 18 10 19 11
REMARK SMILES IDX 20 12 8 13 7 14 6 15 5 16 4 17 3 18 2 19 1 20
REMARK H PARENT
REMARK Flexibility Score: inf
ROOT
ATOM      1  C   UNL     1     111.400 115.672 125.020  1.00  0.00    -0.031 C 
ATOM      2  C   UNL     1     110.492 115.722 126.013  1.00  0.00    -0.031 C 
ENDROOT
BRANCH   1   3
ATOM      3  C   UNL     1     111.582 116.734 123.963  1.00  0.00     0.027 C 
BRANCH   3   4
ATOM      4  C   UNL     1     110.706 116.447 122.736  1.00  0.00     0.004 C 
BRANCH   4   5
ATOM      5  C   UNL     1     109.518 117.417 122.645  1.00  0.00     0.000 C 
BRANCH   5   6
ATOM      6  C   UNL     1     109.949 118.887 122.649  1.00  0.00     0.000 C 
BRANCH   6   7
ATOM      7  C   UNL     1     109.271 119.699 123.769  1.00  0.00     0.000 C 
BRANCH   7   8
ATOM      8  C   UNL     1     110.276 120.194 124.825  1.00  0.00     0.006 C 
BRANCH   8   9
ATOM      9  C   UNL     1     111.681 120.413 124.253  1.00  0.00     0.053 C 
BRANCH   9  10
ATOM     10  C   UNL     1     112.362 121.534 124.976  1.00  0.00     0.041 C 
ATOM     11  O   UNL     1     111.686 122.473 125.480  1.00  0.00    -0.550 OA
ATOM     12  O   UNL     1     113.739 121.497 125.161  1.00  0.00    -0.550 OA
ENDBRANCH   9  10
ENDBRANCH   8   9
ENDBRANCH   7   8
ENDBRANCH   6   7
ENDBRANCH   5   6
ENDBRANCH   4   5
ENDBRANCH   3   4
ENDBRANCH   1   3
BRANCH   2  13
ATOM     13  C   UNL     1     109.567 116.894 126.241  1.00  0.00     0.027 C 
BRANCH  13  14
ATOM     14  C   UNL     1     109.152 117.043 127.716  1.00  0.00     0.004 C 
BRANCH  14  15
ATOM     15  C   UNL     1     109.671 115.926 128.650  1.00  0.00     0.000 C 
BRANCH  15  16
ATOM     16  C   UNL     1     110.182 116.408 130.023  1.00  0.00     0.000 C 
BRANCH  16  17
ATOM     17  C   UNL     1     111.303 117.467 129.972  1.00  0.00    -0.000 C 
BRANCH  17  18
ATOM     18  C   UNL     1     112.573 117.027 129.227  1.00  0.00    -0.000 C 
BRANCH  18  19
ATOM     19  C   UNL     1     112.807 117.814 127.930  1.00  0.00    -0.003 C 
ATOM     20  C   UNL     1     112.111 119.170 127.979  1.00  0.00     0.004 C 
ENDBRANCH  18  19
ENDBRANCH  17  18
ENDBRANCH  16  17
ENDBRANCH  15  16
ENDBRANCH  14  15
ENDBRANCH  13  14
ENDBRANCH   2  13
TORSDOF 15
ENDMDL
MODEL 6
REMARK VINA RESULT:    -4.304      1.043      2.205
REMARK INTER + INTRA:         -10.770
REMARK INTER:                  -8.157
REMARK INTRA:                  -2.613
REMARK UNBOUND:                -2.692
REMARK SMILES CCCCCCCCC=CCCCCCCCC(=O)[O-]
REMARK SMILES IDX 10 1 9 2 11 3 12 4 13 5 14 6 15 7 16 8 17 9 18 10 19 11
REMARK SMILES IDX 20 12 8 13 7 14 6 15 5 16 4 17 3 18 2 19 1 20
REMARK H PARENT
REMARK Flexibility Score: inf
ROOT
ATOM      1  C   UNL     1     109.976 115.893 124.460  1.00  0.00    -0.031 C 
ATOM      2  C   UNL     1     110.118 116.169 125.769  1.00  0.00    -0.031 C 
ENDROOT
BRANCH   1   3
ATOM      3  C   UNL     1     109.253 116.770 123.466  1.00  0.00     0.027 C 
BRANCH   3   4
ATOM      4  C   UNL     1     110.212 117.779 122.821  1.00  0.00     0.004 C 
BRANCH   4   5
ATOM      5  C   UNL     1     109.658 119.210 122.879  1.00  0.00     0.000 C 
BRANCH   5   6
ATOM      6  C   UNL     1     110.291 120.048 123.993  1.00  0.00     0.000 C 
BRANCH   6   7
ATOM      7  C   UNL     1     111.742 119.629 124.297  1.00  0.00     0.000 C 
BRANCH   7   8
ATOM      8  C   UNL     1     112.522 120.720 125.051  1.00  0.00     0.006 C 
BRANCH   8   9
ATOM      9  C   UNL     1     112.786 120.357 126.517  1.00  0.00     0.053 C 
BRANCH   9  10
ATOM     10  C   UNL     1     111.817 121.074 127.406  1.00  0.00     0.041 C 
ATOM     11  O   UNL     1     112.041 122.261 127.771  1.00  0.00    -0.550 OA
ATOM     12  O   UNL     1     110.625 120.454 127.765  1.00  0.00    -0.550 OA
ENDBRANCH   9  10
ENDBRANCH   8   9
ENDBRANCH   7   8
ENDBRANCH   6   7
ENDBRANCH   5   6
ENDBRANCH   4   5
ENDBRANCH   3   4
ENDBRANCH   1   3
BRANCH   2  13
ATOM     13  C   UNL     1     109.624 117.443 126.413  1.00  0.00     0.027 C 
BRANCH  13  14
ATOM     14  C   UNL     1     109.122 117.224 127.852  1.00  0.00     0.004 C 
BRANCH  14  15
ATOM     15  C   UNL     1     109.532 115.873 128.481  1.00  0.00     0.000 C 
BRANCH  15  16
ATOM     16  C   UNL     1     110.555 115.971 129.632  1.00  0.00     0.000 C 
BRANCH  16  17
ATOM     17  C   UNL     1     111.071 117.393 129.931  1.00  0.00    -0.000 C 
BRANCH  17  18
ATOM     18  C   UNL     1     112.409 117.749 129.265  1.00  0.00    -0.000 C 
BRANCH  18  19
ATOM     19  C   UNL     1     113.134 116.522 128.691  1.00  0.00    -0.003 C 
ATOM     20  C   UNL     1     113.427 116.704 127.205  1.00  0.00     0.004 C 
ENDBRANCH  18  19
ENDBRANCH  17  18
ENDBRANCH  16  17
ENDBRANCH  15  16
ENDBRANCH  14  15
ENDBRANCH  13  14
ENDBRANCH   2  13
TORSDOF 15
ENDMDL
MODEL 7
REMARK VINA RESULT:    -4.209      2.686      5.732
REMARK INTER + INTRA:         -10.592
REMARK INTER:                  -8.399
REMARK INTRA:                  -2.193
REMARK UNBOUND:                -2.692
REMARK SMILES CCCCCCCCC=CCCCCCCCC(=O)[O-]
REMARK SMILES IDX 10 1 9 2 11 3 12 4 13 5 14 6 15 7 16 8 17 9 18 10 19 11
REMARK SMILES IDX 20 12 8 13 7 14 6 15 5 16 4 17 3 18 2 19 1 20
REMARK H PARENT
REMARK Flexibility Score: inf
ROOT
ATOM      1  C   UNL     1     111.416 119.837 124.151  1.00  0.00    -0.031 C 
ATOM      2  C   UNL     1     112.147 120.112 125.247  1.00  0.00    -0.031 C 
ENDROOT
BRANCH   1   3
ATOM      3  C   UNL     1     109.951 120.163 123.987  1.00  0.00     0.027 C 
BRANCH   3   4
ATOM      4  C   UNL     1     109.341 119.387 122.812  1.00  0.00     0.004 C 
BRANCH   4   5
ATOM      5  C   UNL     1     109.979 117.998 122.655  1.00  0.00     0.000 C 
BRANCH   5   6
ATOM      6  C   UNL     1     109.277 116.924 123.491  1.00  0.00     0.000 C 
BRANCH   6   7
ATOM      7  C   UNL     1     110.270 115.982 124.199  1.00  0.00     0.000 C 
BRANCH   7   8
ATOM      8  C   UNL     1     109.984 115.853 125.705  1.00  0.00     0.006 C 
BRANCH   8   9
ATOM      9  C   UNL     1     109.599 117.187 126.355  1.00  0.00     0.053 C 
BRANCH   9  10
ATOM     10  C   UNL     1     109.619 117.057 127.847  1.00  0.00     0.041 C 
ATOM     11  O   UNL     1     109.267 115.977 128.399  1.00  0.00    -0.550 OA
ATOM     12  O   UNL     1     110.102 118.105 128.622  1.00  0.00    -0.550 OA
ENDBRANCH   9  10
ENDBRANCH   8   9
ENDBRANCH   7   8
ENDBRANCH   6   7
ENDBRANCH   5   6
ENDBRANCH   4   5
ENDBRANCH   3   4
ENDBRANCH   1   3
BRANCH   2  13
ATOM     13  C   UNL     1     111.607 120.851 126.449  1.00  0.00     0.027 C 
BRANCH  13  14
ATOM     14  C   UNL     1     112.345 122.176 126.710  1.00  0.00     0.004 C 
BRANCH  14  15
ATOM     15  C   UNL     1     111.875 123.361 125.836  1.00  0.00     0.000 C 
BRANCH  15  16
ATOM     16  C   UNL     1     112.725 123.620 124.575  1.00  0.00     0.000 C 
BRANCH  16  17
ATOM     17  C   UNL     1     114.232 123.824 124.829  1.00  0.00    -0.000 C 
BRANCH  17  18
ATOM     18  C   UNL     1     115.147 123.398 123.669  1.00  0.00    -0.000 C 
BRANCH  18  19
ATOM     19  C   UNL     1     114.612 122.177 122.906  1.00  0.00    -0.003 C 
ATOM     20  C   UNL     1     115.254 120.890 123.414  1.00  0.00     0.004 C 
ENDBRANCH  18  19
ENDBRANCH  17  18
ENDBRANCH  16  17
ENDBRANCH  15  16
ENDBRANCH  14  15
ENDBRANCH  13  14
ENDBRANCH   2  13
TORSDOF 15
ENDMDL
MODEL 8
REMARK VINA RESULT:    -4.177      2.000      5.629
REMARK INTER + INTRA:         -10.532
REMARK INTER:                  -7.924
REMARK INTRA:                  -2.608
REMARK UNBOUND:                -2.692
REMARK SMILES CCCCCCCCC=CCCCCCCCC(=O)[O-]
REMARK SMILES IDX 10 1 9 2 11 3 12 4 13 5 14 6 15 7 16 8 17 9 18 10 19 11
REMARK SMILES IDX 20 12 8 13 7 14 6 15 5 16 4 17 3 18 2 19 1 20
REMARK H PARENT
REMARK Flexibility Score: inf
ROOT
ATOM      1  C   UNL     1     109.997 116.292 125.642  1.00  0.00    -0.031 C 
ATOM      2  C   UNL     1     109.984 116.015 124.325  1.00  0.00    -0.031 C 
ENDROOT
BRANCH   1   3
ATOM      3  C   UNL     1     109.278 117.452 126.287  1.00  0.00     0.027 C 
BRANCH   3   4
ATOM      4  C   UNL     1     109.275 117.319 127.816  1.00  0.00     0.004 C 
BRANCH   4   5
ATOM      5  C   UNL     1     109.882 115.984 128.272  1.00  0.00     0.000 C 
BRANCH   5   6
ATOM      6  C   UNL     1     110.310 115.997 129.743  1.00  0.00     0.000 C 
BRANCH   6   7
ATOM      7  C   UNL     1     110.725 117.400 130.226  1.00  0.00     0.000 C 
BRANCH   7   8
ATOM      8  C   UNL     1     112.248 117.536 130.392  1.00  0.00     0.006 C 
BRANCH   8   9
ATOM      9  C   UNL     1     113.031 116.502 129.573  1.00  0.00     0.053 C 
BRANCH   9  10
ATOM     10  C   UNL     1     113.532 117.122 128.305  1.00  0.00     0.041 C 
ATOM     11  O   UNL     1     114.290 118.132 128.343  1.00  0.00    -0.550 OA
ATOM     12  O   UNL     1     113.226 116.534 127.084  1.00  0.00    -0.550 OA
ENDBRANCH   9  10
ENDBRANCH   8   9
ENDBRANCH   7   8
ENDBRANCH   6   7
ENDBRANCH   5   6
ENDBRANCH   4   5
ENDBRANCH   3   4
ENDBRANCH   1   3
BRANCH   2  13
ATOM     13  C   UNL     1     109.183 116.801 123.314  1.00  0.00     0.027 C 
BRANCH  13  14
ATOM     14  C   UNL     1     110.018 117.889 122.614  1.00  0.00     0.004 C 
BRANCH  14  15
ATOM     15  C   UNL     1     109.477 119.327 122.780  1.00  0.00     0.000 C 
BRANCH  15  16
ATOM     16  C   UNL     1     110.091 120.125 123.949  1.00  0.00     0.000 C 
BRANCH  16  17
ATOM     17  C   UNL     1     111.624 120.022 124.079  1.00  0.00    -0.000 C 
BRANCH  17  18
ATOM     18  C   UNL     1     112.122 119.427 125.406  1.00  0.00    -0.000 C 
BRANCH  18  19
ATOM     19  C   UNL     1     112.346 120.491 126.490  1.00  0.00    -0.003 C 
ATOM     20  C   UNL     1     111.460 120.232 127.704  1.00  0.00     0.004 C 
ENDBRANCH  18  19
ENDBRANCH  17  18
ENDBRANCH  16  17
ENDBRANCH  15  16
ENDBRANCH  14  15
ENDBRANCH  13  14
ENDBRANCH   2  13
TORSDOF 15
ENDMDL
