MODEL 1
REMARK VINA RESULT:    -4.666      0.000      0.000
REMARK INTER + INTRA:          -9.305
REMARK INTER:                  -8.757
REMARK INTRA:                  -0.548
REMARK UNBOUND:                -0.548
REMARK SMILES O=C([O-])CCCCCCCCCCCCCCC(=O)[O-]
REMARK SMILES IDX 10 1 9 2 8 3 7 4 6 5 5 6 4 7 2 8 1 9 3 10 11 11 12 12 13 13
REMARK SMILES IDX 14 14 15 15 16 16 17 17 18 18 19 19 20 20
REMARK H PARENT
REMARK Flexibility Score: inf
ROOT
ATOM      1  C   UNL     1      31.869  25.375  70.472  1.00  0.00     0.000 C 
ENDROOT
BRANCH   1   2
ATOM      2  C   UNL     1      32.962  26.075  71.296  1.00  0.00     0.000 C 
BRANCH   2   3
ATOM      3  C   UNL     1      34.261  26.282  70.501  1.00  0.00     0.000 C 
BRANCH   3   4
ATOM      4  C   UNL     1      35.326  25.260  70.916  1.00  0.00     0.000 C 
BRANCH   4   5
ATOM      5  C   UNL     1      35.903  24.537  69.694  1.00  0.00     0.000 C 
BRANCH   5   6
ATOM      6  C   UNL     1      37.345  24.079  69.954  1.00  0.00     0.006 C 
BRANCH   6   7
ATOM      7  C   UNL     1      37.637  23.899  71.450  1.00  0.00     0.053 C 
BRANCH   7   8
ATOM      8  C   UNL     1      39.010  24.375  71.809  1.00  0.00     0.041 C 
ATOM      9  O   UNL     1      39.873  24.562  70.910  1.00  0.00    -0.550 OA
ATOM     10  O   UNL     1      39.348  24.584  73.141  1.00  0.00    -0.550 OA
ENDBRANCH   7   8
ENDBRANCH   6   7
ENDBRANCH   5   6
ENDBRANCH   4   5
ENDBRANCH   3   4
ENDBRANCH   2   3
ENDBRANCH   1   2
BRANCH   1  11
ATOM     11  C   UNL     1      32.446  24.480  69.364  1.00  0.00     0.000 C 
BRANCH  11  12
ATOM     12  C   UNL     1      31.475  24.284  68.188  1.00  0.00     0.000 C 
BRANCH  12  13
ATOM     13  C   UNL     1      32.178  24.153  66.819  1.00  0.00     0.000 C 
BRANCH  13  14
ATOM     14  C   UNL     1      31.400  24.864  65.698  1.00  0.00     0.000 C 
BRANCH  14  15
ATOM     15  C   UNL     1      31.521  24.151  64.339  1.00  0.00     0.000 C 
BRANCH  15  16
ATOM     16  C   UNL     1      31.657  25.089  63.122  1.00  0.00     0.006 C 
BRANCH  16  17
ATOM     17  C   UNL     1      31.007  26.470  63.307  1.00  0.00     0.053 C 
BRANCH  17  18
ATOM     18  C   UNL     1      29.566  26.471  62.897  1.00  0.00     0.041 C 
ATOM     19  O   UNL     1      29.049  25.438  62.397  1.00  0.00    -0.550 OA
ATOM     20  O   UNL     1      28.787  27.603  63.100  1.00  0.00    -0.550 OA
ENDBRANCH  17  18
ENDBRANCH  16  17
ENDBRANCH  15  16
ENDBRANCH  14  15
ENDBRANCH  13  14
ENDBRANCH  12  13
ENDBRANCH  11  12
ENDBRANCH   1  11
TORSDOF 15
ENDMDL
MODEL 2
REMARK VINA RESULT:    -4.663      1.673      8.734
REMARK INTER + INTRA:          -9.301
REMARK INTER:                  -8.233
REMARK INTRA:                  -1.068
REMARK UNBOUND:                -0.548
REMARK SMILES O=C([O-])CCCCCCCCCCCCCCC(=O)[O-]
REMARK SMILES IDX 10 1 9 2 8 3 7 4 6 5 5 6 4 7 2 8 1 9 3 10 11 11 12 12 13 13
REMARK SMILES IDX 14 14 15 15 16 16 17 17 18 18 19 19 20 20
REMARK H PARENT
REMARK Flexibility Score: inf
ROOT
ATOM      1  C   UNL     1      31.174  24.312  68.120  1.00  0.00     0.000 C 
ENDROOT
BRANCH   1   2
ATOM      2  C   UNL     1      32.289  24.476  67.075  1.00  0.00     0.000 C 
BRANCH   2   3
ATOM      3  C   UNL     1      31.744  24.632  65.646  1.00  0.00     0.000 C 
BRANCH   3   4
ATOM      4  C   UNL     1      32.889  24.713  64.629  1.00  0.00     0.000 C 
BRANCH   4   5
ATOM      5  C   UNL     1      32.412  25.331  63.310  1.00  0.00     0.000 C 
BRANCH   5   6
ATOM      6  C   UNL     1      31.907  26.765  63.524  1.00  0.00     0.006 C 
BRANCH   6   7
ATOM      7  C   UNL     1      30.940  27.212  62.419  1.00  0.00     0.053 C 
BRANCH   7   8
ATOM      8  C   UNL     1      29.512  26.970  62.799  1.00  0.00     0.041 C 
ATOM      9  O   UNL     1      29.032  25.807  62.755  1.00  0.00    -0.550 OA
ATOM     10  O   UNL     1      28.702  28.035  63.173  1.00  0.00    -0.550 OA
ENDBRANCH   7   8
ENDBRANCH   6   7
ENDBRANCH   5   6
ENDBRANCH   4   5
ENDBRANCH   3   4
ENDBRANCH   2   3
ENDBRANCH   1   2
BRANCH   1  11
ATOM     11  C   UNL     1      31.716  23.943  69.510  1.00  0.00     0.000 C 
BRANCH  11  12
ATOM     12  C   UNL     1      30.882  24.540  70.655  1.00  0.00     0.000 C 
BRANCH  12  13
ATOM     13  C   UNL     1      31.258  25.998  71.000  1.00  0.00     0.000 C 
BRANCH  13  14
ATOM     14  C   UNL     1      32.641  26.097  71.666  1.00  0.00     0.000 C 
BRANCH  14  15
ATOM     15  C   UNL     1      33.731  26.611  70.708  1.00  0.00     0.000 C 
BRANCH  15  16
ATOM     16  C   UNL     1      35.130  25.998  70.925  1.00  0.00     0.006 C 
BRANCH  16  17
ATOM     17  C   UNL     1      35.257  24.531  70.485  1.00  0.00     0.053 C 
BRANCH  17  18
ATOM     18  C   UNL     1      36.161  24.377  69.300  1.00  0.00     0.041 C 
ATOM     19  O   UNL     1      35.689  24.429  68.133  1.00  0.00    -0.550 OA
ATOM     20  O   UNL     1      37.528  24.210  69.484  1.00  0.00    -0.550 OA
ENDBRANCH  17  18
ENDBRANCH  16  17
ENDBRANCH  15  16
ENDBRANCH  14  15
ENDBRANCH  13  14
ENDBRANCH  12  13
ENDBRANCH  11  12
ENDBRANCH   1  11
TORSDOF 15
ENDMDL
MODEL 3
REMARK VINA RESULT:    -4.657      0.779      9.400
REMARK INTER + INTRA:          -9.288
REMARK INTER:                  -8.353
REMARK INTRA:                  -0.935
REMARK UNBOUND:                -0.548
REMARK SMILES O=C([O-])CCCCCCCCCCCCCCC(=O)[O-]
REMARK SMILES IDX 10 1 9 2 8 3 7 4 6 5 5 6 4 7 2 8 1 9 3 10 11 11 12 12 13 13
REMARK SMILES IDX 14 14 15 15 16 16 17 17 18 18 19 19 20 20
REMARK H PARENT
REMARK Flexibility Score: inf
ROOT
ATOM      1  C   UNL     1      31.783  25.261  69.354  1.00  0.00     0.000 C 
ENDROOT
BRANCH   1   2
ATOM      2  C   UNL     1      32.172  23.956  68.641  1.00  0.00     0.000 C 
BRANCH   2   3
ATOM      3  C   UNL     1      32.996  24.201  67.366  1.00  0.00     0.000 C 
BRANCH   3   4
ATOM      4  C   UNL     1      32.081  24.428  66.157  1.00  0.00     0.000 C 
BRANCH   4   5
ATOM      5  C   UNL     1      32.896  24.582  64.869  1.00  0.00     0.000 C 
BRANCH   5   6
ATOM      6  C   UNL     1      32.065  25.254  63.767  1.00  0.00     0.006 C 
BRANCH   6   7
ATOM      7  C   UNL     1      30.560  25.007  63.942  1.00  0.00     0.053 C 
BRANCH   7   8
ATOM      8  C   UNL     1      29.747  25.864  63.022  1.00  0.00     0.041 C 
ATOM      9  O   UNL     1      30.009  27.089  62.898  1.00  0.00    -0.550 OA
ATOM     10  O   UNL     1      28.677  25.315  62.325  1.00  0.00    -0.550 OA
ENDBRANCH   7   8
ENDBRANCH   6   7
ENDBRANCH   5   6
ENDBRANCH   4   5
ENDBRANCH   3   4
ENDBRANCH   2   3
ENDBRANCH   1   2
BRANCH   1  11
ATOM     11  C   UNL     1      31.980  25.182  70.877  1.00  0.00     0.000 C 
BRANCH  11  12
ATOM     12  C   UNL     1      33.195  25.988  71.365  1.00  0.00     0.000 C 
BRANCH  12  13
ATOM     13  C   UNL     1      34.418  25.894  70.427  1.00  0.00     0.000 C 
BRANCH  13  14
ATOM     14  C   UNL     1      35.161  24.555  70.577  1.00  0.00     0.000 C 
BRANCH  14  15
ATOM     15  C   UNL     1      36.247  24.349  69.505  1.00  0.00     0.000 C 
BRANCH  15  16
ATOM     16  C   UNL     1      37.612  23.876  70.045  1.00  0.00     0.006 C 
BRANCH  16  17
ATOM     17  C   UNL     1      37.793  24.049  71.561  1.00  0.00     0.053 C 
BRANCH  17  18
ATOM     18  C   UNL     1      39.189  24.459  71.917  1.00  0.00     0.041 C 
ATOM     19  O   UNL     1      40.070  24.548  71.022  1.00  0.00    -0.550 OA
ATOM     20  O   UNL     1      39.507  24.776  73.232  1.00  0.00    -0.550 OA
ENDBRANCH  17  18
ENDBRANCH  16  17
ENDBRANCH  15  16
ENDBRANCH  14  15
ENDBRANCH  13  14
ENDBRANCH  12  13
ENDBRANCH  11  12
ENDBRANCH   1  11
TORSDOF 15
ENDMDL
MODEL 4
REMARK VINA RESULT:    -4.635      1.449      2.375
REMARK INTER + INTRA:          -9.248
REMARK INTER:                  -8.411
REMARK INTRA:                  -0.837
REMARK UNBOUND:                -0.548
REMARK SMILES O=C([O-])CCCCCCCCCCCCCCC(=O)[O-]
REMARK SMILES IDX 10 1 9 2 8 3 7 4 6 5 5 6 4 7 2 8 1 9 3 10 11 11 12 12 13 13
REMARK SMILES IDX 14 14 15 15 16 16 17 17 18 18 19 19 20 20
REMARK H PARENT
REMARK Flexibility Score: inf
ROOT
ATOM      1  C   UNL     1      32.904  26.994  70.983  1.00  0.00     0.000 C 
ENDROOT
BRANCH   1   2
ATOM      2  C   UNL     1      33.902  25.846  71.203  1.00  0.00     0.000 C 
BRANCH   2   3
ATOM      3  C   UNL     1      34.494  25.316  69.887  1.00  0.00     0.000 C 
BRANCH   3   4
ATOM      4  C   UNL     1      35.255  24.005  70.118  1.00  0.00     0.000 C 
BRANCH   4   5
ATOM      5  C   UNL     1      36.452  23.888  69.168  1.00  0.00     0.000 C 
BRANCH   5   6
ATOM      6  C   UNL     1      37.730  24.431  69.822  1.00  0.00     0.006 C 
BRANCH   6   7
ATOM      7  C   UNL     1      37.765  24.171  71.334  1.00  0.00     0.053 C 
BRANCH   7   8
ATOM      8  C   UNL     1      39.143  24.338  71.895  1.00  0.00     0.041 C 
ATOM      9  O   UNL     1      40.140  23.876  71.279  1.00  0.00    -0.550 OA
ATOM     10  O   UNL     1      39.325  24.977  73.115  1.00  0.00    -0.550 OA
ENDBRANCH   7   8
ENDBRANCH   6   7
ENDBRANCH   5   6
ENDBRANCH   4   5
ENDBRANCH   3   4
ENDBRANCH   2   3
ENDBRANCH   1   2
BRANCH   1  11
ATOM     11  C   UNL     1      31.444  26.551  71.175  1.00  0.00     0.000 C 
BRANCH  11  12
ATOM     12  C   UNL     1      31.274  25.024  71.150  1.00  0.00     0.000 C 
BRANCH  12  13
ATOM     13  C   UNL     1      30.591  24.497  69.868  1.00  0.00     0.000 C 
BRANCH  13  14
ATOM     14  C   UNL     1      31.524  24.562  68.646  1.00  0.00     0.000 C 
BRANCH  14  15
ATOM     15  C   UNL     1      30.812  24.202  67.330  1.00  0.00     0.000 C 
BRANCH  15  16
ATOM     16  C   UNL     1      31.655  24.414  66.056  1.00  0.00     0.006 C 
BRANCH  16  17
ATOM     17  C   UNL     1      30.833  24.676  64.784  1.00  0.00     0.053 C 
BRANCH  17  18
ATOM     18  C   UNL     1      31.672  25.242  63.679  1.00  0.00     0.041 C 
ATOM     19  O   UNL     1      31.936  26.472  63.652  1.00  0.00    -0.550 OA
ATOM     20  O   UNL     1      32.190  24.403  62.700  1.00  0.00    -0.550 OA
ENDBRANCH  17  18
ENDBRANCH  16  17
ENDBRANCH  15  16
ENDBRANCH  14  15
ENDBRANCH  13  14
ENDBRANCH  12  13
ENDBRANCH  11  12
ENDBRANCH   1  11
TORSDOF 15
ENDMDL
MODEL 5
REMARK VINA RESULT:    -4.493      3.037      8.784
REMARK INTER + INTRA:          -8.981
REMARK INTER:                  -7.670
REMARK INTRA:                  -1.311
REMARK UNBOUND:                -0.548
REMARK SMILES O=C([O-])CCCCCCCCCCCCCCC(=O)[O-]
REMARK SMILES IDX 10 1 9 2 8 3 7 4 6 5 5 6 4 7 2 8 1 9 3 10 11 11 12 12 13 13
REMARK SMILES IDX 14 14 15 15 16 16 17 17 18 18 19 19 20 20
REMARK H PARENT
REMARK Flexibility Score: inf
ROOT
ATOM      1  C   UNL     1      32.409  24.535  66.153  1.00  0.00     0.000 C 
ENDROOT
BRANCH   1   2
ATOM      2  C   UNL     1      31.335  24.028  65.177  1.00  0.00     0.000 C 
BRANCH   2   3
ATOM      3  C   UNL     1      31.864  23.877  63.741  1.00  0.00     0.000 C 
BRANCH   3   4
ATOM      4  C   UNL     1      33.134  24.711  63.535  1.00  0.00     0.000 C 
BRANCH   4   5
ATOM      5  C   UNL     1      32.858  25.927  62.643  1.00  0.00     0.000 C 
BRANCH   5   6
ATOM      6  C   UNL     1      31.845  26.874  63.301  1.00  0.00     0.006 C 
BRANCH   6   7
ATOM      7  C   UNL     1      30.779  27.363  62.312  1.00  0.00     0.053 C 
BRANCH   7   8
ATOM      8  C   UNL     1      29.395  27.030  62.777  1.00  0.00     0.041 C 
ATOM      9  O   UNL     1      28.616  27.943  63.159  1.00  0.00    -0.550 OA
ATOM     10  O   UNL     1      28.976  25.706  62.821  1.00  0.00    -0.550 OA
ENDBRANCH   7   8
ENDBRANCH   6   7
ENDBRANCH   5   6
ENDBRANCH   4   5
ENDBRANCH   3   4
ENDBRANCH   2   3
ENDBRANCH   1   2
BRANCH   1  11
ATOM     11  C   UNL     1      31.970  24.427  67.622  1.00  0.00     0.000 C 
BRANCH  11  12
ATOM     12  C   UNL     1      33.076  23.876  68.537  1.00  0.00     0.000 C 
BRANCH  12  13
ATOM     13  C   UNL     1      34.440  24.574  68.350  1.00  0.00     0.000 C 
BRANCH  13  14
ATOM     14  C   UNL     1      35.255  24.614  69.655  1.00  0.00     0.000 C 
BRANCH  14  15
ATOM     15  C   UNL     1      34.391  24.925  70.891  1.00  0.00     0.000 C 
BRANCH  15  16
ATOM     16  C   UNL     1      34.142  26.425  71.149  1.00  0.00     0.006 C 
BRANCH  16  17
ATOM     17  C   UNL     1      32.752  26.922  70.722  1.00  0.00     0.053 C 
BRANCH  17  18
ATOM     18  C   UNL     1      31.652  26.179  71.417  1.00  0.00     0.041 C 
ATOM     19  O   UNL     1      31.539  26.240  72.669  1.00  0.00    -0.550 OA
ATOM     20  O   UNL     1      30.732  25.447  70.676  1.00  0.00    -0.550 OA
ENDBRANCH  17  18
ENDBRANCH  16  17
ENDBRANCH  15  16
ENDBRANCH  14  15
ENDBRANCH  13  14
ENDBRANCH  12  13
ENDBRANCH  11  12
ENDBRANCH   1  11
TORSDOF 15
ENDMDL
MODEL 6
REMARK VINA RESULT:    -4.482      3.002      5.154
REMARK INTER + INTRA:          -8.961
REMARK INTER:                  -8.040
REMARK INTRA:                  -0.921
REMARK UNBOUND:                -0.548
REMARK SMILES O=C([O-])CCCCCCCCCCCCCCC(=O)[O-]
REMARK SMILES IDX 10 1 9 2 8 3 7 4 6 5 5 6 4 7 2 8 1 9 3 10 11 11 12 12 13 13
REMARK SMILES IDX 14 14 15 15 16 16 17 17 18 18 19 19 20 20
REMARK H PARENT
REMARK Flexibility Score: inf
ROOT
ATOM      1  C   UNL     1      32.221  24.863  65.303  1.00  0.00     0.000 C 
ENDROOT
BRANCH   1   2
ATOM      2  C   UNL     1      30.849  24.182  65.438  1.00  0.00     0.000 C 
BRANCH   2   3
ATOM      3  C   UNL     1      30.389  24.063  66.900  1.00  0.00     0.000 C 
BRANCH   3   4
ATOM      4  C   UNL     1      31.549  24.340  67.863  1.00  0.00     0.000 C 
BRANCH   4   5
ATOM      5  C   UNL     1      31.055  24.422  69.312  1.00  0.00     0.000 C 
BRANCH   5   6
ATOM      6  C   UNL     1      31.838  25.479  70.103  1.00  0.00     0.006 C 
BRANCH   6   7
ATOM      7  C   UNL     1      33.142  24.920  70.687  1.00  0.00     0.053 C 
BRANCH   7   8
ATOM      8  C   UNL     1      34.324  25.760  70.311  1.00  0.00     0.041 C 
ATOM      9  O   UNL     1      35.055  25.430  69.340  1.00  0.00    -0.550 OA
ATOM     10  O   UNL     1      34.637  26.892  71.054  1.00  0.00    -0.550 OA
ENDBRANCH   7   8
ENDBRANCH   6   7
ENDBRANCH   5   6
ENDBRANCH   4   5
ENDBRANCH   3   4
ENDBRANCH   2   3
ENDBRANCH   1   2
BRANCH   1  11
ATOM     11  C   UNL     1      32.382  25.607  63.968  1.00  0.00     0.000 C 
BRANCH  11  12
ATOM     12  C   UNL     1      31.155  25.465  63.053  1.00  0.00     0.000 C 
BRANCH  12  13
ATOM     13  C   UNL     1      30.179  26.660  63.135  1.00  0.00     0.000 C 
BRANCH  13  14
ATOM     14  C   UNL     1      28.737  26.256  62.781  1.00  0.00     0.000 C 
BRANCH  14  15
ATOM     15  C   UNL     1      28.622  24.792  62.318  1.00  0.00     0.000 C 
BRANCH  15  16
ATOM     16  C   UNL     1      27.249  24.401  61.734  1.00  0.00     0.006 C 
BRANCH  16  17
ATOM     17  C   UNL     1      26.062  25.185  62.315  1.00  0.00     0.053 C 
BRANCH  17  18
ATOM     18  C   UNL     1      24.830  25.044  61.475  1.00  0.00     0.041 C 
ATOM     19  O   UNL     1      24.131  23.999  61.548  1.00  0.00    -0.550 OA
ATOM     20  O   UNL     1      24.436  26.080  60.638  1.00  0.00    -0.550 OA
ENDBRANCH  17  18
ENDBRANCH  16  17
ENDBRANCH  15  16
ENDBRANCH  14  15
ENDBRANCH  13  14
ENDBRANCH  12  13
ENDBRANCH  11  12
ENDBRANCH   1  11
TORSDOF 15
ENDMDL
MODEL 7
REMARK VINA RESULT:    -4.427      3.919      6.330
REMARK INTER + INTRA:          -8.857
REMARK INTER:                  -7.878
REMARK INTRA:                  -0.979
REMARK UNBOUND:                -0.548
REMARK SMILES O=C([O-])CCCCCCCCCCCCCCC(=O)[O-]
REMARK SMILES IDX 10 1 9 2 8 3 7 4 6 5 5 6 4 7 2 8 1 9 3 10 11 11 12 12 13 13
REMARK SMILES IDX 14 14 15 15 16 16 17 17 18 18 19 19 20 20
REMARK H PARENT
REMARK Flexibility Score: inf
ROOT
ATOM      1  C   UNL     1      31.980  26.765  63.462  1.00  0.00     0.000 C 
ENDROOT
BRANCH   1   2
ATOM      2  C   UNL     1      32.783  25.524  63.040  1.00  0.00     0.000 C 
BRANCH   2   3
ATOM      3  C   UNL     1      32.693  24.383  64.066  1.00  0.00     0.000 C 
BRANCH   3   4
ATOM      4  C   UNL     1      31.906  24.823  65.306  1.00  0.00     0.000 C 
BRANCH   4   5
ATOM      5  C   UNL     1      32.469  24.175  66.576  1.00  0.00     0.000 C 
BRANCH   5   6
ATOM      6  C   UNL     1      31.694  24.633  67.819  1.00  0.00     0.006 C 
BRANCH   6   7
ATOM      7  C   UNL     1      32.382  24.206  69.123  1.00  0.00     0.053 C 
BRANCH   7   8
ATOM      8  C   UNL     1      32.003  25.095  70.267  1.00  0.00     0.041 C 
ATOM      9  O   UNL     1      30.842  25.045  70.752  1.00  0.00    -0.550 OA
ATOM     10  O   UNL     1      32.923  26.003  70.777  1.00  0.00    -0.550 OA
ENDBRANCH   7   8
ENDBRANCH   6   7
ENDBRANCH   5   6
ENDBRANCH   4   5
ENDBRANCH   3   4
ENDBRANCH   2   3
ENDBRANCH   1   2
BRANCH   1  11
ATOM     11  C   UNL     1      31.033  27.259  62.356  1.00  0.00     0.000 C 
BRANCH  11  12
ATOM     12  C   UNL     1      29.618  27.566  62.874  1.00  0.00     0.000 C 
BRANCH  12  13
ATOM     13  C   UNL     1      28.784  26.303  63.182  1.00  0.00     0.000 C 
BRANCH  13  14
ATOM     14  C   UNL     1      29.233  25.094  62.343  1.00  0.00     0.000 C 
BRANCH  14  15
ATOM     15  C   UNL     1      28.064  24.178  61.938  1.00  0.00     0.000 C 
BRANCH  15  16
ATOM     16  C   UNL     1      26.661  24.733  62.260  1.00  0.00     0.006 C 
BRANCH  16  17
ATOM     17  C   UNL     1      25.616  24.502  61.157  1.00  0.00     0.053 C 
BRANCH  17  18
ATOM     18  C   UNL     1      24.437  25.416  61.301  1.00  0.00     0.041 C 
ATOM     19  O   UNL     1      23.674  25.313  62.296  1.00  0.00    -0.550 OA
ATOM     20  O   UNL     1      24.204  26.404  60.352  1.00  0.00    -0.550 OA
ENDBRANCH  17  18
ENDBRANCH  16  17
ENDBRANCH  15  16
ENDBRANCH  14  15
ENDBRANCH  13  14
ENDBRANCH  12  13
ENDBRANCH  11  12
ENDBRANCH   1  11
TORSDOF 15
ENDMDL
MODEL 8
REMARK VINA RESULT:    -4.377      3.825     10.584
REMARK INTER + INTRA:          -8.763
REMARK INTER:                  -7.419
REMARK INTRA:                  -1.344
REMARK UNBOUND:                -0.548
REMARK SMILES O=C([O-])CCCCCCCCCCCCCCC(=O)[O-]
REMARK SMILES IDX 10 1 9 2 8 3 7 4 6 5 5 6 4 7 2 8 1 9 3 10 11 11 12 12 13 13
REMARK SMILES IDX 14 14 15 15 16 16 17 17 18 18 19 19 20 20
REMARK H PARENT
REMARK Flexibility Score: inf
ROOT
ATOM      1  C   UNL     1      31.651  27.472  63.172  1.00  0.00     0.000 C 
ENDROOT
BRANCH   1   2
ATOM      2  C   UNL     1      30.484  27.180  62.215  1.00  0.00     0.000 C 
BRANCH   2   3
ATOM      3  C   UNL     1      29.112  27.433  62.860  1.00  0.00     0.000 C 
BRANCH   3   4
ATOM      4  C   UNL     1      28.459  26.114  63.292  1.00  0.00     0.000 C 
BRANCH   4   5
ATOM      5  C   UNL     1      28.494  25.083  62.158  1.00  0.00     0.000 C 
BRANCH   5   6
ATOM      6  C   UNL     1      27.125  24.411  61.982  1.00  0.00     0.006 C 
BRANCH   6   7
ATOM      7  C   UNL     1      25.965  25.368  62.288  1.00  0.00     0.053 C 
BRANCH   7   8
ATOM      8  C   UNL     1      24.793  25.124  61.387  1.00  0.00     0.041 C 
ATOM      9  O   UNL     1      24.197  24.015  61.405  1.00  0.00    -0.550 OA
ATOM     10  O   UNL     1      24.379  26.112  60.502  1.00  0.00    -0.550 OA
ENDBRANCH   7   8
ENDBRANCH   6   7
ENDBRANCH   5   6
ENDBRANCH   4   5
ENDBRANCH   3   4
ENDBRANCH   2   3
ENDBRANCH   1   2
BRANCH   1  11
ATOM     11  C   UNL     1      32.570  26.255  63.371  1.00  0.00     0.000 C 
BRANCH  11  12
ATOM     12  C   UNL     1      31.931  24.940  62.896  1.00  0.00     0.000 C 
BRANCH  12  13
ATOM     13  C   UNL     1      31.659  23.936  64.038  1.00  0.00     0.000 C 
BRANCH  13  14
ATOM     14  C   UNL     1      31.256  24.641  65.345  1.00  0.00     0.000 C 
BRANCH  14  15
ATOM     15  C   UNL     1      32.138  24.236  66.540  1.00  0.00     0.000 C 
BRANCH  15  16
ATOM     16  C   UNL     1      31.555  24.582  67.926  1.00  0.00     0.006 C 
BRANCH  16  17
ATOM     17  C   UNL     1      32.535  24.392  69.095  1.00  0.00     0.053 C 
BRANCH  17  18
ATOM     18  C   UNL     1      32.155  25.218  70.285  1.00  0.00     0.041 C 
ATOM     19  O   UNL     1      32.944  26.094  70.726  1.00  0.00    -0.550 OA
ATOM     20  O   UNL     1      30.914  25.043  70.886  1.00  0.00    -0.550 OA
ENDBRANCH  17  18
ENDBRANCH  16  17
ENDBRANCH  15  16
ENDBRANCH  14  15
ENDBRANCH  13  14
ENDBRANCH  12  13
ENDBRANCH  11  12
ENDBRANCH   1  11
TORSDOF 15
ENDMDL
MODEL 9
REMARK VINA RESULT:    -4.218      2.570     10.546
REMARK INTER + INTRA:          -8.465
REMARK INTER:                  -7.770
REMARK INTRA:                  -0.694
REMARK UNBOUND:                -0.548
REMARK SMILES O=C([O-])CCCCCCCCCCCCCCC(=O)[O-]
REMARK SMILES IDX 10 1 9 2 8 3 7 4 6 5 5 6 4 7 2 8 1 9 3 10 11 11 12 12 13 13
REMARK SMILES IDX 14 14 15 15 16 16 17 17 18 18 19 19 20 20
REMARK H PARENT
REMARK Flexibility Score: inf
ROOT
ATOM      1  C   UNL     1      32.076  24.951  65.770  1.00  0.00     0.000 C 
ENDROOT
BRANCH   1   2
ATOM      2  C   UNL     1      32.046  24.745  64.247  1.00  0.00     0.000 C 
BRANCH   2   3
ATOM      3  C   UNL     1      30.689  24.226  63.746  1.00  0.00     0.000 C 
BRANCH   3   4
ATOM      4  C   UNL     1      29.773  25.388  63.343  1.00  0.00     0.000 C 
BRANCH   4   5
ATOM      5  C   UNL     1      28.858  24.992  62.180  1.00  0.00     0.000 C 
BRANCH   5   6
ATOM      6  C   UNL     1      27.433  25.519  62.395  1.00  0.00     0.006 C 
BRANCH   6   7
ATOM      7  C   UNL     1      26.366  24.521  61.925  1.00  0.00     0.053 C 
BRANCH   7   8
ATOM      8  C   UNL     1      24.991  25.113  61.977  1.00  0.00     0.041 C 
ATOM      9  O   UNL     1      24.262  24.937  62.989  1.00  0.00    -0.550 OA
ATOM     10  O   UNL     1      24.502  25.833  60.894  1.00  0.00    -0.550 OA
ENDBRANCH   7   8
ENDBRANCH   6   7
ENDBRANCH   5   6
ENDBRANCH   4   5
ENDBRANCH   3   4
ENDBRANCH   2   3
ENDBRANCH   1   2
BRANCH   1  11
ATOM     11  C   UNL     1      30.910  24.248  66.484  1.00  0.00     0.000 C 
BRANCH  11  12
ATOM     12  C   UNL     1      31.104  24.165  68.007  1.00  0.00     0.000 C 
BRANCH  12  13
ATOM     13  C   UNL     1      32.512  24.593  68.476  1.00  0.00     0.000 C 
BRANCH  13  14
ATOM     14  C   UNL     1      32.628  24.622  70.010  1.00  0.00     0.000 C 
BRANCH  14  15
ATOM     15  C   UNL     1      33.444  25.821  70.526  1.00  0.00     0.000 C 
BRANCH  15  16
ATOM     16  C   UNL     1      34.863  25.477  71.023  1.00  0.00     0.006 C 
BRANCH  16  17
ATOM     17  C   UNL     1      35.345  24.067  70.646  1.00  0.00     0.053 C 
BRANCH  17  18
ATOM     18  C   UNL     1      36.329  24.093  69.516  1.00  0.00     0.041 C 
ATOM     19  O   UNL     1      35.929  24.012  68.326  1.00  0.00    -0.550 OA
ATOM     20  O   UNL     1      37.686  24.243  69.779  1.00  0.00    -0.550 OA
ENDBRANCH  17  18
ENDBRANCH  16  17
ENDBRANCH  15  16
ENDBRANCH  14  15
ENDBRANCH  13  14
ENDBRANCH  12  13
ENDBRANCH  11  12
ENDBRANCH   1  11
TORSDOF 15
ENDMDL
