MODEL 1
REMARK VINA RESULT:     0.358      0.000      0.000
REMARK INTER + INTRA:           0.133
REMARK INTER:                   0.568
REMARK INTRA:                  -0.435
REMARK UNBOUND:                -0.435
REMARK SMILES CCCCCCCCCCCC(=O)[O-]
REMARK SMILES IDX 7 1 8 2 9 3 10 4 11 5 12 6 13 7 14 8 6 9 5 10 4 11 3 12 2 13
REMARK SMILES IDX 1 14
REMARK H PARENT
REMARK Flexibility Score: inf
ROOT
ATOM      1  C   UNL     1      68.167  76.282  94.377  1.00  0.00     0.000 C 
ENDROOT
BRANCH   1   2
ATOM      2  C   UNL     1      67.876  77.031  95.691  1.00  0.00     0.000 C 
BRANCH   2   3
ATOM      3  C   UNL     1      68.552  76.449  96.945  1.00  0.00     0.000 C 
BRANCH   3   4
ATOM      4  C   UNL     1      68.043  77.082  98.251  1.00  0.00     0.006 C 
BRANCH   4   5
ATOM      5  C   UNL     1      69.139  77.874  98.977  1.00  0.00     0.053 C 
BRANCH   5   6
ATOM      6  C   UNL     1      68.768  79.317  99.136  1.00  0.00     0.041 C 
ATOM      7  O   UNL     1      68.464  80.009  98.129  1.00  0.00    -0.550 OA
ATOM      8  O   UNL     1      68.786  79.904 100.395  1.00  0.00    -0.550 OA
ENDBRANCH   5   6
ENDBRANCH   4   5
ENDBRANCH   3   4
ENDBRANCH   2   3
ENDBRANCH   1   2
BRANCH   1   9
ATOM      9  C   UNL     1      67.881  77.129  93.127  1.00  0.00     0.000 C 
BRANCH   9  10
ATOM     10  C   UNL     1      68.799  76.779  91.940  1.00  0.00    -0.000 C 
BRANCH  10  11
ATOM     11  C   UNL     1      68.240  75.730  90.960  1.00  0.00    -0.000 C 
BRANCH  11  12
ATOM     12  C   UNL     1      69.109  74.463  90.875  1.00  0.00    -0.000 C 
BRANCH  12  13
ATOM     13  C   UNL     1      68.528  73.295  91.687  1.00  0.00    -0.003 C 
ATOM     14  C   UNL     1      68.704  71.944  90.994  1.00  0.00     0.004 C 
ENDBRANCH  12  13
ENDBRANCH  11  12
ENDBRANCH  10  11
ENDBRANCH   9  10
ENDBRANCH   1   9
TORSDOF 10
ENDMDL
MODEL 2
REMARK VINA RESULT:     3.252      1.922      3.754
REMARK INTER + INTRA:           4.718
REMARK INTER:                   5.177
REMARK INTRA:                  -0.459
REMARK UNBOUND:                -0.435
REMARK SMILES CCCCCCCCCCCC(=O)[O-]
REMARK SMILES IDX 7 1 8 2 9 3 10 4 11 5 12 6 13 7 14 8 6 9 5 10 4 11 3 12 2 13
REMARK SMILES IDX 1 14
REMARK H PARENT
REMARK Flexibility Score: inf
ROOT
ATOM      1  C   UNL     1      69.069  77.662  98.141  1.00  0.00     0.000 C 
ENDROOT
BRANCH   1   2
ATOM      2  C   UNL     1      69.160  79.188  97.950  1.00  0.00     0.000 C 
BRANCH   2   3
ATOM      3  C   UNL     1      68.205  80.020  98.826  1.00  0.00     0.000 C 
BRANCH   3   4
ATOM      4  C   UNL     1      67.885  79.348 100.172  1.00  0.00     0.006 C 
BRANCH   4   5
ATOM      5  C   UNL     1      68.468  80.124 101.360  1.00  0.00     0.053 C 
BRANCH   5   6
ATOM      6  C   UNL     1      69.100  79.210 102.364  1.00  0.00     0.041 C 
ATOM      7  O   UNL     1      69.839  79.677 103.272  1.00  0.00    -0.550 OA
ATOM      8  O   UNL     1      68.896  77.839 102.282  1.00  0.00    -0.550 OA
ENDBRANCH   5   6
ENDBRANCH   4   5
ENDBRANCH   3   4
ENDBRANCH   2   3
ENDBRANCH   1   2
BRANCH   1   9
ATOM      9  C   UNL     1      67.954  77.018  97.303  1.00  0.00     0.000 C 
BRANCH   9  10
ATOM     10  C   UNL     1      67.916  77.534  95.852  1.00  0.00    -0.000 C 
BRANCH  10  11
ATOM     11  C   UNL     1      68.316  76.509  94.775  1.00  0.00    -0.000 C 
BRANCH  11  12
ATOM     12  C   UNL     1      67.876  76.921  93.359  1.00  0.00    -0.000 C 
BRANCH  12  13
ATOM     13  C   UNL     1      68.946  76.618  92.299  1.00  0.00    -0.003 C 
ATOM     14  C   UNL     1      68.865  75.188  91.765  1.00  0.00     0.004 C 
ENDBRANCH  12  13
ENDBRANCH  11  12
ENDBRANCH  10  11
ENDBRANCH   9  10
ENDBRANCH   1   9
TORSDOF 10
ENDMDL
