MODEL 1
REMARK VINA RESULT:    -4.743      0.000      0.000
REMARK INTER + INTRA:          -5.698
REMARK INTER:                  -5.575
REMARK INTRA:                  -0.124
REMARK UNBOUND:                -0.124
REMARK SMILES O=C([O-])C=Cc1ccc(O)c(O)c1
REMARK SMILES IDX 6 1 13 2 7 3 11 4 8 5 9 6 5 7 4 8 2 9 1 10 3 11 12 12 10 14
REMARK H PARENT 12 13 10 15
REMARK Flexibility Score: inf
ROOT
ATOM      1  C   UNL     1      79.074  63.625   4.837  1.00  0.00    -0.022 A 
ATOM      2  C   UNL     1      80.365  63.856   4.325  1.00  0.00     0.058 A 
ATOM      3  C   UNL     1      78.017  64.434   4.395  1.00  0.00     0.012 A 
ATOM      4  C   UNL     1      80.595  64.857   3.373  1.00  0.00     0.157 A 
ATOM      5  C   UNL     1      78.236  65.432   3.445  1.00  0.00     0.051 A 
ATOM      6  C   UNL     1      79.514  65.652   2.923  1.00  0.00     0.157 A 
ENDROOT
BRANCH   1   7
ATOM      7  C   UNL     1      78.793  62.583   5.856  1.00  0.00     0.010 C 
ATOM      8  C   UNL     1      78.492  61.311   5.557  1.00  0.00     0.025 C 
BRANCH   8   9
ATOM      9  C   UNL     1      78.205  60.307   6.596  1.00  0.00     0.064 C 
ATOM     10  O   UNL     1      77.055  60.197   7.097  1.00  0.00    -0.545 OA
ATOM     11  O   UNL     1      79.222  59.468   7.032  1.00  0.00    -0.545 OA
ENDBRANCH   8   9
ENDBRANCH   1   7
BRANCH   4  12
ATOM     12  O   UNL     1      81.901  65.030   2.910  1.00  0.00    -0.504 OA
ATOM     13  H   UNL     1      82.139  65.513   2.055  1.00  0.00     0.293 HD
ENDBRANCH   4  12
BRANCH   6  14
ATOM     14  O   UNL     1      79.666  66.661   1.969  1.00  0.00    -0.504 OA
ATOM     15  H   UNL     1      80.520  66.836   1.461  1.00  0.00     0.293 HD
ENDBRANCH   6  14
TORSDOF 4
ENDMDL
MODEL 2
REMARK VINA RESULT:    -4.533      1.040      1.988
REMARK INTER + INTRA:          -5.452
REMARK INTER:                  -5.331
REMARK INTRA:                  -0.120
REMARK UNBOUND:                -0.124
REMARK SMILES O=C([O-])C=Cc1ccc(O)c(O)c1
REMARK SMILES IDX 6 1 13 2 7 3 11 4 8 5 9 6 5 7 4 8 2 9 1 10 3 11 12 12 10 14
REMARK H PARENT 12 13 10 15
REMARK Flexibility Score: inf
ROOT
ATOM      1  C   UNL     1      79.187  62.897   4.708  1.00  0.00    -0.022 A 
ATOM      2  C   UNL     1      78.217  63.876   4.415  1.00  0.00     0.058 A 
ATOM      3  C   UNL     1      80.527  63.158   4.388  1.00  0.00     0.012 A 
ATOM      4  C   UNL     1      78.579  65.099   3.837  1.00  0.00     0.157 A 
ATOM      5  C   UNL     1      80.897  64.375   3.817  1.00  0.00     0.051 A 
ATOM      6  C   UNL     1      79.938  65.355   3.539  1.00  0.00     0.157 A 
ENDROOT
BRANCH   1   7
ATOM      7  C   UNL     1      78.841  61.584   5.307  1.00  0.00     0.010 C 
ATOM      8  C   UNL     1      78.391  61.433   6.561  1.00  0.00     0.025 C 
BRANCH   8   9
ATOM      9  C   UNL     1      78.071  60.111   7.127  1.00  0.00     0.064 C 
ATOM     10  O   UNL     1      76.878  59.749   7.302  1.00  0.00    -0.545 OA
ATOM     11  O   UNL     1      79.103  59.250   7.476  1.00  0.00    -0.545 OA
ENDBRANCH   8   9
ENDBRANCH   1   7
BRANCH   4  12
ATOM     12  O   UNL     1      77.564  66.021   3.574  1.00  0.00    -0.504 OA
ATOM     13  H   UNL     1      77.005  66.022   2.732  1.00  0.00     0.293 HD
ENDBRANCH   4  12
BRANCH   6  14
ATOM     14  O   UNL     1      80.374  66.554   2.973  1.00  0.00    -0.504 OA
ATOM     15  H   UNL     1      80.140  67.468   3.333  1.00  0.00     0.293 HD
ENDBRANCH   6  14
TORSDOF 4
ENDMDL
MODEL 3
REMARK VINA RESULT:    -4.235      1.605      5.877
REMARK INTER + INTRA:          -5.101
REMARK INTER:                  -4.977
REMARK INTRA:                  -0.124
REMARK UNBOUND:                -0.124
REMARK SMILES O=C([O-])C=Cc1ccc(O)c(O)c1
REMARK SMILES IDX 6 1 13 2 7 3 11 4 8 5 9 6 5 7 4 8 2 9 1 10 3 11 12 12 10 14
REMARK H PARENT 12 13 10 15
REMARK Flexibility Score: inf
ROOT
ATOM      1  C   UNL     1      79.120  63.321   5.027  1.00  0.00    -0.022 A 
ATOM      2  C   UNL     1      79.002  63.917   6.298  1.00  0.00     0.058 A 
ATOM      3  C   UNL     1      78.875  61.946   4.900  1.00  0.00     0.012 A 
ATOM      4  C   UNL     1      78.623  63.163   7.415  1.00  0.00     0.157 A 
ATOM      5  C   UNL     1      78.494  61.188   6.008  1.00  0.00     0.051 A 
ATOM      6  C   UNL     1      78.360  61.780   7.267  1.00  0.00     0.157 A 
ENDROOT
BRANCH   1   7
ATOM      7  C   UNL     1      79.531  64.083   3.822  1.00  0.00     0.010 C 
ATOM      8  C   UNL     1      80.732  64.664   3.682  1.00  0.00     0.025 C 
BRANCH   8   9
ATOM      9  C   UNL     1      81.101  65.425   2.476  1.00  0.00     0.064 C 
ATOM     10  O   UNL     1      82.253  65.333   1.974  1.00  0.00    -0.545 OA
ATOM     11  O   UNL     1      80.163  66.260   1.883  1.00  0.00    -0.545 OA
ENDBRANCH   8   9
ENDBRANCH   1   7
BRANCH   4  12
ATOM     12  O   UNL     1      78.527  63.820   8.643  1.00  0.00    -0.504 OA
ATOM     13  H   UNL     1      78.474  64.824   8.744  1.00  0.00     0.293 HD
ENDBRANCH   4  12
BRANCH   6  14
ATOM     14  O   UNL     1      77.969  60.968   8.333  1.00  0.00    -0.504 OA
ATOM     15  H   UNL     1      77.496  61.307   9.159  1.00  0.00     0.293 HD
ENDBRANCH   6  14
TORSDOF 4
ENDMDL
MODEL 4
REMARK VINA RESULT:    -4.224      9.293     11.156
REMARK INTER + INTRA:          -5.088
REMARK INTER:                  -4.957
REMARK INTRA:                  -0.131
REMARK UNBOUND:                -0.124
REMARK SMILES O=C([O-])C=Cc1ccc(O)c(O)c1
REMARK SMILES IDX 6 1 13 2 7 3 11 4 8 5 9 6 5 7 4 8 2 9 1 10 3 11 12 12 10 14
REMARK H PARENT 12 13 10 15
REMARK Flexibility Score: inf
ROOT
ATOM      1  C   UNL     1      72.867  57.555  10.546  1.00  0.00    -0.022 A 
ATOM      2  C   UNL     1      72.506  57.608   9.186  1.00  0.00     0.058 A 
ATOM      3  C   UNL     1      71.871  57.309  11.501  1.00  0.00     0.012 A 
ATOM      4  C   UNL     1      71.181  57.395   8.783  1.00  0.00     0.157 A 
ATOM      5  C   UNL     1      70.549  57.093  11.109  1.00  0.00     0.051 A 
ATOM      6  C   UNL     1      70.191  57.129   9.758  1.00  0.00     0.157 A 
ENDROOT
BRANCH   1   7
ATOM      7  C   UNL     1      74.257  57.788  11.013  1.00  0.00     0.010 C 
ATOM      8  C   UNL     1      74.726  58.987  11.387  1.00  0.00     0.025 C 
BRANCH   8   9
ATOM      9  C   UNL     1      76.116  59.183  11.833  1.00  0.00     0.064 C 
ATOM     10  O   UNL     1      76.471  60.243  12.413  1.00  0.00    -0.545 OA
ATOM     11  O   UNL     1      77.052  58.183  11.606  1.00  0.00    -0.545 OA
ENDBRANCH   8   9
ENDBRANCH   1   7
BRANCH   4  12
ATOM     12  O   UNL     1      70.896  57.463   7.419  1.00  0.00    -0.504 OA
ATOM     13  H   UNL     1      71.571  57.721   6.712  1.00  0.00     0.293 HD
ENDBRANCH   4  12
BRANCH   6  14
ATOM     14  O   UNL     1      68.853  56.897   9.431  1.00  0.00    -0.504 OA
ATOM     15  H   UNL     1      68.507  56.031   9.044  1.00  0.00     0.293 HD
ENDBRANCH   6  14
TORSDOF 4
ENDMDL
MODEL 5
REMARK VINA RESULT:    -4.203      2.715      7.048
REMARK INTER + INTRA:          -5.064
REMARK INTER:                  -4.942
REMARK INTRA:                  -0.122
REMARK UNBOUND:                -0.124
REMARK SMILES O=C([O-])C=Cc1ccc(O)c(O)c1
REMARK SMILES IDX 6 1 13 2 7 3 11 4 8 5 9 6 5 7 4 8 2 9 1 10 3 11 12 12 10 14
REMARK H PARENT 12 13 10 15
REMARK Flexibility Score: inf
ROOT
ATOM      1  C   UNL     1      77.934  60.248   7.300  1.00  0.00    -0.022 A 
ATOM      2  C   UNL     1      78.589  60.180   8.545  1.00  0.00     0.058 A 
ATOM      3  C   UNL     1      76.686  59.624   7.159  1.00  0.00     0.012 A 
ATOM      4  C   UNL     1      78.001  59.526   9.635  1.00  0.00     0.157 A 
ATOM      5  C   UNL     1      76.091  58.974   8.240  1.00  0.00     0.051 A 
ATOM      6  C   UNL     1      76.732  58.919   9.481  1.00  0.00     0.157 A 
ENDROOT
BRANCH   1   7
ATOM      7  C   UNL     1      78.530  60.920   6.119  1.00  0.00     0.010 C 
ATOM      8  C   UNL     1      78.610  62.251   5.981  1.00  0.00     0.025 C 
BRANCH   8   9
ATOM      9  C   UNL     1      79.197  62.884   4.787  1.00  0.00     0.064 C 
ATOM     10  O   UNL     1      78.803  62.583   3.629  1.00  0.00    -0.545 OA
ATOM     11  O   UNL     1      80.205  63.826   4.941  1.00  0.00    -0.545 OA
ENDBRANCH   8   9
ENDBRANCH   1   7
BRANCH   4  12
ATOM     12  O   UNL     1      78.708  59.498  10.838  1.00  0.00    -0.504 OA
ATOM     13  H   UNL     1      79.600  59.953  10.981  1.00  0.00     0.293 HD
ENDBRANCH   4  12
BRANCH   6  14
ATOM     14  O   UNL     1      76.080  58.258  10.525  1.00  0.00    -0.504 OA
ATOM     15  H   UNL     1      76.490  58.093  11.433  1.00  0.00     0.293 HD
ENDBRANCH   6  14
TORSDOF 4
ENDMDL
MODEL 6
REMARK VINA RESULT:    -4.138      2.620      7.245
REMARK INTER + INTRA:          -4.987
REMARK INTER:                  -4.862
REMARK INTRA:                  -0.124
REMARK UNBOUND:                -0.124
REMARK SMILES O=C([O-])C=Cc1ccc(O)c(O)c1
REMARK SMILES IDX 6 1 13 2 7 3 11 4 8 5 9 6 5 7 4 8 2 9 1 10 3 11 12 12 10 14
REMARK H PARENT 12 13 10 15
REMARK Flexibility Score: inf
ROOT
ATOM      1  C   UNL     1      77.977  60.107   7.066  1.00  0.00    -0.022 A 
ATOM      2  C   UNL     1      76.596  59.871   7.215  1.00  0.00     0.058 A 
ATOM      3  C   UNL     1      78.861  59.562   8.008  1.00  0.00     0.012 A 
ATOM      4  C   UNL     1      76.108  59.087   8.268  1.00  0.00     0.157 A 
ATOM      5  C   UNL     1      78.384  58.776   9.058  1.00  0.00     0.051 A 
ATOM      6  C   UNL     1      77.015  58.527   9.199  1.00  0.00     0.157 A 
ENDROOT
BRANCH   1   7
ATOM      7  C   UNL     1      78.531  60.942   5.972  1.00  0.00     0.010 C 
ATOM      8  C   UNL     1      78.573  62.282   6.006  1.00  0.00     0.025 C 
BRANCH   8   9
ATOM      9  C   UNL     1      79.118  63.080   4.895  1.00  0.00     0.064 C 
ATOM     10  O   UNL     1      78.628  63.006   3.737  1.00  0.00    -0.545 OA
ATOM     11  O   UNL     1      80.194  63.927   5.127  1.00  0.00    -0.545 OA
ENDBRANCH   8   9
ENDBRANCH   1   7
BRANCH   4  12
ATOM     12  O   UNL     1      74.728  58.897   8.354  1.00  0.00    -0.504 OA
ATOM     13  H   UNL     1      74.254  58.054   8.058  1.00  0.00     0.293 HD
ENDBRANCH   4  12
BRANCH   6  14
ATOM     14  O   UNL     1      76.603  57.728  10.267  1.00  0.00    -0.504 OA
ATOM     15  H   UNL     1      77.218  57.396  10.995  1.00  0.00     0.293 HD
ENDBRANCH   6  14
TORSDOF 4
ENDMDL
MODEL 7
REMARK VINA RESULT:    -4.133      7.149     11.327
REMARK INTER + INTRA:          -4.981
REMARK INTER:                  -4.854
REMARK INTRA:                  -0.127
REMARK UNBOUND:                -0.124
REMARK SMILES O=C([O-])C=Cc1ccc(O)c(O)c1
REMARK SMILES IDX 6 1 13 2 7 3 11 4 8 5 9 6 5 7 4 8 2 9 1 10 3 11 12 12 10 14
REMARK H PARENT 12 13 10 15
REMARK Flexibility Score: inf
ROOT
ATOM      1  C   UNL     1      72.889  57.448  10.036  1.00  0.00    -0.022 A 
ATOM      2  C   UNL     1      71.663  57.357   9.348  1.00  0.00     0.058 A 
ATOM      3  C   UNL     1      72.880  57.415  11.438  1.00  0.00     0.012 A 
ATOM      4  C   UNL     1      70.456  57.209  10.042  1.00  0.00     0.157 A 
ATOM      5  C   UNL     1      71.683  57.265  12.137  1.00  0.00     0.051 A 
ATOM      6  C   UNL     1      70.466  57.158  11.456  1.00  0.00     0.157 A 
ENDROOT
BRANCH   1   7
ATOM      7  C   UNL     1      74.187  57.618   9.337  1.00  0.00     0.010 C 
ATOM      8  C   UNL     1      74.627  58.791   8.858  1.00  0.00     0.025 C 
BRANCH   8   9
ATOM      9  C   UNL     1      75.916  58.919   8.157  1.00  0.00     0.064 C 
ATOM     10  O   UNL     1      76.039  59.665   7.149  1.00  0.00    -0.545 OA
ATOM     11  O   UNL     1      77.014  58.202   8.613  1.00  0.00    -0.545 OA
ENDBRANCH   8   9
ENDBRANCH   1   7
BRANCH   4  12
ATOM     12  O   UNL     1      69.280  57.125   9.294  1.00  0.00    -0.504 OA
ATOM     13  H   UNL     1      69.145  56.486   8.523  1.00  0.00     0.293 HD
ENDBRANCH   4  12
BRANCH   6  14
ATOM     14  O   UNL     1      69.304  57.003  12.214  1.00  0.00    -0.504 OA
ATOM     15  H   UNL     1      69.110  57.513  13.063  1.00  0.00     0.293 HD
ENDBRANCH   6  14
TORSDOF 4
ENDMDL
MODEL 8
REMARK VINA RESULT:    -4.038      9.110     11.466
REMARK INTER + INTRA:          -4.869
REMARK INTER:                  -4.746
REMARK INTRA:                  -0.123
REMARK UNBOUND:                -0.124
REMARK SMILES O=C([O-])C=Cc1ccc(O)c(O)c1
REMARK SMILES IDX 6 1 13 2 7 3 11 4 8 5 9 6 5 7 4 8 2 9 1 10 3 11 12 12 10 14
REMARK H PARENT 12 13 10 15
REMARK Flexibility Score: inf
ROOT
ATOM      1  C   UNL     1      72.853  57.578  10.343  1.00  0.00    -0.022 A 
ATOM      2  C   UNL     1      71.881  57.459  11.355  1.00  0.00     0.058 A 
ATOM      3  C   UNL     1      72.458  57.432   9.006  1.00  0.00     0.012 A 
ATOM      4  C   UNL     1      70.536  57.224  11.039  1.00  0.00     0.157 A 
ATOM      5  C   UNL     1      71.120  57.202   8.682  1.00  0.00     0.051 A 
ATOM      6  C   UNL     1      70.150  57.099   9.684  1.00  0.00     0.157 A 
ENDROOT
BRANCH   1   7
ATOM      7  C   UNL     1      74.288  57.813  10.638  1.00  0.00     0.010 C 
ATOM      8  C   UNL     1      74.745  58.874  11.320  1.00  0.00     0.025 C 
BRANCH   8   9
ATOM      9  C   UNL     1      76.179  59.082  11.582  1.00  0.00     0.064 C 
ATOM     10  O   UNL     1      77.048  58.301  11.111  1.00  0.00    -0.545 OA
ATOM     11  O   UNL     1      76.580  60.155  12.366  1.00  0.00    -0.545 OA
ENDBRANCH   8   9
ENDBRANCH   1   7
BRANCH   4  12
ATOM     12  O   UNL     1      69.628  57.117  12.094  1.00  0.00    -0.504 OA
ATOM     13  H   UNL     1      69.021  56.322  12.239  1.00  0.00     0.293 HD
ENDBRANCH   4  12
BRANCH   6  14
ATOM     14  O   UNL     1      68.829  56.875   9.293  1.00  0.00    -0.504 OA
ATOM     15  H   UNL     1      68.365  57.378   8.551  1.00  0.00     0.293 HD
ENDBRANCH   6  14
TORSDOF 4
ENDMDL
MODEL 9
REMARK VINA RESULT:    -3.816      7.051     11.273
REMARK INTER + INTRA:          -4.609
REMARK INTER:                  -4.458
REMARK INTRA:                  -0.151
REMARK UNBOUND:                -0.124
REMARK SMILES O=C([O-])C=Cc1ccc(O)c(O)c1
REMARK SMILES IDX 6 1 13 2 7 3 11 4 8 5 9 6 5 7 4 8 2 9 1 10 3 11 12 12 10 14
REMARK H PARENT 12 13 10 15
REMARK Flexibility Score: inf
ROOT
ATOM      1  C   UNL     1      73.717  58.093  11.091  1.00  0.00    -0.022 A 
ATOM      2  C   UNL     1      73.670  58.057  12.498  1.00  0.00     0.058 A 
ATOM      3  C   UNL     1      72.584  57.695  10.367  1.00  0.00     0.012 A 
ATOM      4  C   UNL     1      72.509  57.656  13.171  1.00  0.00     0.157 A 
ATOM      5  C   UNL     1      71.422  57.298  11.029  1.00  0.00     0.051 A 
ATOM      6  C   UNL     1      71.368  57.276  12.426  1.00  0.00     0.157 A 
ENDROOT
BRANCH   1   7
ATOM      7  C   UNL     1      74.932  58.500  10.342  1.00  0.00     0.010 C 
ATOM      8  C   UNL     1      75.080  58.339   9.019  1.00  0.00     0.025 C 
BRANCH   8   9
ATOM      9  C   UNL     1      76.307  58.742   8.311  1.00  0.00     0.064 C 
ATOM     10  O   UNL     1      76.281  59.624   7.412  1.00  0.00    -0.545 OA
ATOM     11  O   UNL     1      77.513  58.137   8.638  1.00  0.00    -0.545 OA
ENDBRANCH   8   9
ENDBRANCH   1   7
BRANCH   4  12
ATOM     12  O   UNL     1      72.535  57.644  14.566  1.00  0.00    -0.504 OA
ATOM     13  H   UNL     1      72.997  56.934  15.118  1.00  0.00     0.293 HD
ENDBRANCH   4  12
BRANCH   6  14
ATOM     14  O   UNL     1      70.173  56.875  13.027  1.00  0.00    -0.504 OA
ATOM     15  H   UNL     1      69.932  55.914  13.220  1.00  0.00     0.293 HD
ENDBRANCH   6  14
TORSDOF 4
ENDMDL
