MODEL 1
REMARK VINA RESULT:    -3.929      0.000      0.000
REMARK INTER + INTRA:          -5.492
REMARK INTER:                  -4.962
REMARK INTRA:                  -0.530
REMARK UNBOUND:                -0.530
REMARK SMILES C=C[C@@](C)(O)CCC=C(C)C
REMARK SMILES IDX 6 1 7 2 8 3 10 4 9 5 11 6 3 7 4 8 2 9 1 10 5 11
REMARK H PARENT 5 12
REMARK Flexibility Score: inf
ROOT
ATOM      1  C   UNL     1       3.069 -15.439   9.555  1.00  0.00     0.043 C 
ENDROOT
BRANCH   1   2
ATOM      2  C   UNL     1       2.967 -13.905   9.614  1.00  0.00     0.030 C 
BRANCH   2   3
ATOM      3  C   UNL     1       3.181 -13.303   8.247  1.00  0.00    -0.028 C 
ATOM      4  C   UNL     1       1.045 -11.996   8.314  1.00  0.00     0.039 C 
ATOM      5  C   UNL     1       2.339 -12.425   7.659  1.00  0.00    -0.080 C 
ATOM      6  C   UNL     1       2.703 -11.876   6.304  1.00  0.00     0.039 C 
ENDBRANCH   2   3
ENDBRANCH   1   2
BRANCH   1   7
ATOM      7  C   UNL     1       1.778 -16.173  10.003  1.00  0.00     0.080 C 
ATOM      8  C   UNL     1       1.764 -16.342  11.541  1.00  0.00     0.047 C 
BRANCH   7   9
ATOM      9  C   UNL     1       0.578 -15.343   9.565  1.00  0.00    -0.001 C 
ATOM     10  C   UNL     1      -0.169 -15.650   8.498  1.00  0.00     0.007 C 
ENDBRANCH   7   9
BRANCH   7  11
ATOM     11  O   UNL     1       1.742 -17.429   9.363  1.00  0.00    -0.386 OA
ATOM     12  H   UNL     1       1.930 -17.298   8.397  1.00  0.00     0.211 HD
ENDBRANCH   7  11
ENDBRANCH   1   7
TORSDOF 5
ENDMDL
MODEL 2
REMARK VINA RESULT:    -3.763      1.039      2.344
REMARK INTER + INTRA:          -5.282
REMARK INTER:                  -4.882
REMARK INTRA:                  -0.400
REMARK UNBOUND:                -0.530
REMARK SMILES C=C[C@@](C)(O)CCC=C(C)C
REMARK SMILES IDX 6 1 7 2 8 3 10 4 9 5 11 6 3 7 4 8 2 9 1 10 5 11
REMARK H PARENT 5 12
REMARK Flexibility Score: inf
ROOT
ATOM      1  C   UNL     1       0.571 -15.318   9.318  1.00  0.00     0.043 C 
ENDROOT
BRANCH   1   2
ATOM      2  C   UNL     1       0.769 -13.794   9.401  1.00  0.00     0.030 C 
BRANCH   2   3
ATOM      3  C   UNL     1       0.336 -13.129   8.118  1.00  0.00    -0.028 C 
ATOM      4  C   UNL     1       2.632 -12.267   7.606  1.00  0.00     0.039 C 
ATOM      5  C   UNL     1       1.167 -12.460   7.288  1.00  0.00    -0.080 C 
ATOM      6  C   UNL     1       0.600 -11.879   6.019  1.00  0.00     0.039 C 
ENDBRANCH   2   3
ENDBRANCH   1   2
BRANCH   1   7
ATOM      7  C   UNL     1       1.776 -16.139   9.847  1.00  0.00     0.080 C 
ATOM      8  C   UNL     1       3.105 -15.434   9.486  1.00  0.00     0.047 C 
BRANCH   7   9
ATOM      9  C   UNL     1       1.649 -16.257  11.360  1.00  0.00    -0.001 C 
ATOM     10  C   UNL     1       2.295 -15.449  12.210  1.00  0.00     0.007 C 
ENDBRANCH   7   9
BRANCH   7  11
ATOM     11  O   UNL     1       1.720 -17.424   9.267  1.00  0.00    -0.386 OA
ATOM     12  H   UNL     1       2.634 -17.811   9.265  1.00  0.00     0.211 HD
ENDBRANCH   7  11
ENDBRANCH   1   7
TORSDOF 5
ENDMDL
MODEL 3
REMARK VINA RESULT:    -3.688      1.121      1.480
REMARK INTER + INTRA:          -5.188
REMARK INTER:                  -4.862
REMARK INTRA:                  -0.326
REMARK UNBOUND:                -0.530
REMARK SMILES C=C[C@@](C)(O)CCC=C(C)C
REMARK SMILES IDX 6 1 7 2 8 3 10 4 9 5 11 6 3 7 4 8 2 9 1 10 5 11
REMARK H PARENT 5 12
REMARK Flexibility Score: inf
ROOT
ATOM      1  C   UNL     1       3.021 -15.449   9.505  1.00  0.00     0.043 C 
ENDROOT
BRANCH   1   2
ATOM      2  C   UNL     1       2.892 -13.915   9.512  1.00  0.00     0.030 C 
BRANCH   2   3
ATOM      3  C   UNL     1       4.198 -13.268   9.121  1.00  0.00    -0.028 C 
ATOM      4  C   UNL     1       3.246 -12.228   7.051  1.00  0.00     0.039 C 
ATOM      5  C   UNL     1       4.367 -12.487   8.031  1.00  0.00    -0.080 C 
ATOM      6  C   UNL     1       5.722 -11.875   7.788  1.00  0.00     0.039 C 
ENDBRANCH   2   3
ENDBRANCH   1   2
BRANCH   1   7
ATOM      7  C   UNL     1       1.729 -16.191   9.935  1.00  0.00     0.080 C 
ATOM      8  C   UNL     1       1.633 -16.249  11.479  1.00  0.00     0.047 C 
BRANCH   7   9
ATOM      9  C   UNL     1       0.532 -15.435   9.372  1.00  0.00    -0.001 C 
ATOM     10  C   UNL     1      -0.299 -15.961   8.465  1.00  0.00     0.007 C 
ENDBRANCH   7   9
BRANCH   7  11
ATOM     11  O   UNL     1       1.767 -17.490   9.388  1.00  0.00    -0.386 OA
ATOM     12  H   UNL     1       2.655 -17.632   8.969  1.00  0.00     0.211 HD
ENDBRANCH   7  11
ENDBRANCH   1   7
TORSDOF 5
ENDMDL
MODEL 4
REMARK VINA RESULT:    -3.622      1.926      3.924
REMARK INTER + INTRA:          -5.104
REMARK INTER:                  -4.451
REMARK INTRA:                  -0.654
REMARK UNBOUND:                -0.530
REMARK SMILES C=C[C@@](C)(O)CCC=C(C)C
REMARK SMILES IDX 6 1 7 2 8 3 10 4 9 5 11 6 3 7 4 8 2 9 1 10 5 11
REMARK H PARENT 5 12
REMARK Flexibility Score: inf
ROOT
ATOM      1  C   UNL     1       3.922 -15.967   9.924  1.00  0.00     0.043 C 
ENDROOT
BRANCH   1   2
ATOM      2  C   UNL     1       2.592 -16.039  10.695  1.00  0.00     0.030 C 
BRANCH   2   3
ATOM      3  C   UNL     1       1.459 -16.408   9.770  1.00  0.00    -0.028 C 
ATOM      4  C   UNL     1       0.574 -14.067   9.663  1.00  0.00     0.039 C 
ATOM      5  C   UNL     1       0.558 -15.529   9.278  1.00  0.00    -0.080 C 
ATOM      6  C   UNL     1      -0.498 -16.036   8.331  1.00  0.00     0.039 C 
ENDBRANCH   2   3
ENDBRANCH   1   2
BRANCH   1   7
ATOM      7  C   UNL     1       4.507 -14.535   9.811  1.00  0.00     0.080 C 
ATOM      8  C   UNL     1       6.024 -14.550  10.116  1.00  0.00     0.047 C 
BRANCH   7   9
ATOM      9  C   UNL     1       4.270 -14.030   8.394  1.00  0.00    -0.001 C 
ATOM     10  C   UNL     1       3.770 -12.818   8.127  1.00  0.00     0.007 C 
ENDBRANCH   7   9
BRANCH   7  11
ATOM     11  O   UNL     1       3.823 -13.709  10.727  1.00  0.00    -0.386 OA
ATOM     12  H   UNL     1       3.805 -14.161  11.610  1.00  0.00     0.211 HD
ENDBRANCH   7  11
ENDBRANCH   1   7
TORSDOF 5
ENDMDL
MODEL 5
REMARK VINA RESULT:    -3.606      1.392      2.468
REMARK INTER + INTRA:          -5.085
REMARK INTER:                  -4.409
REMARK INTRA:                  -0.676
REMARK UNBOUND:                -0.530
REMARK SMILES C=C[C@@](C)(O)CCC=C(C)C
REMARK SMILES IDX 6 1 7 2 8 3 10 4 9 5 11 6 3 7 4 8 2 9 1 10 5 11
REMARK H PARENT 5 12
REMARK Flexibility Score: inf
ROOT
ATOM      1  C   UNL     1       1.050 -14.864  10.969  1.00  0.00     0.043 C 
ENDROOT
BRANCH   1   2
ATOM      2  C   UNL     1       1.574 -13.514  10.447  1.00  0.00     0.030 C 
BRANCH   2   3
ATOM      3  C   UNL     1       0.731 -13.024   9.295  1.00  0.00    -0.028 C 
ATOM      4  C   UNL     1       2.705 -12.684   7.791  1.00  0.00     0.039 C 
ATOM      5  C   UNL     1       1.223 -12.671   8.087  1.00  0.00    -0.080 C 
ATOM      6  C   UNL     1       0.256 -12.237   7.016  1.00  0.00     0.039 C 
ENDBRANCH   2   3
ENDBRANCH   1   2
BRANCH   1   7
ATOM      7  C   UNL     1       1.930 -16.077  10.567  1.00  0.00     0.080 C 
ATOM      8  C   UNL     1       1.382 -16.734   9.278  1.00  0.00     0.047 C 
BRANCH   7   9
ATOM      9  C   UNL     1       3.350 -15.582  10.330  1.00  0.00    -0.001 C 
ATOM     10  C   UNL     1       4.140 -16.070   9.367  1.00  0.00     0.007 C 
ENDBRANCH   7   9
BRANCH   7  11
ATOM     11  O   UNL     1       1.923 -16.996  11.637  1.00  0.00    -0.386 OA
ATOM     12  H   UNL     1       2.512 -17.760  11.402  1.00  0.00     0.211 HD
ENDBRANCH   7  11
ENDBRANCH   1   7
TORSDOF 5
ENDMDL
MODEL 6
REMARK VINA RESULT:    -3.508      2.373      4.134
REMARK INTER + INTRA:          -4.961
REMARK INTER:                  -4.638
REMARK INTRA:                  -0.322
REMARK UNBOUND:                -0.530
REMARK SMILES C=C[C@@](C)(O)CCC=C(C)C
REMARK SMILES IDX 6 1 7 2 8 3 10 4 9 5 11 6 3 7 4 8 2 9 1 10 5 11
REMARK H PARENT 5 12
REMARK Flexibility Score: inf
ROOT
ATOM      1  C   UNL     1       1.991 -15.612  12.392  1.00  0.00     0.043 C 
ENDROOT
BRANCH   1   2
ATOM      2  C   UNL     1       2.440 -15.577  10.920  1.00  0.00     0.030 C 
BRANCH   2   3
ATOM      3  C   UNL     1       1.363 -16.131  10.021  1.00  0.00    -0.028 C 
ATOM      4  C   UNL     1       0.646 -13.867   9.223  1.00  0.00     0.039 C 
ATOM      5  C   UNL     1       0.564 -15.377   9.233  1.00  0.00    -0.080 C 
ATOM      6  C   UNL     1      -0.444 -16.072   8.356  1.00  0.00     0.039 C 
ENDBRANCH   2   3
ENDBRANCH   1   2
BRANCH   1   7
ATOM      7  C   UNL     1       2.861 -16.527  13.293  1.00  0.00     0.080 C 
ATOM      8  C   UNL     1       3.084 -15.864  14.674  1.00  0.00     0.047 C 
BRANCH   7   9
ATOM      9  C   UNL     1       2.136 -17.854  13.471  1.00  0.00    -0.001 C 
ATOM     10  C   UNL     1       1.326 -18.109  14.505  1.00  0.00     0.007 C 
ENDBRANCH   7   9
BRANCH   7  11
ATOM     11  O   UNL     1       4.091 -16.745  12.640  1.00  0.00    -0.386 OA
ATOM     12  H   UNL     1       4.315 -17.710  12.699  1.00  0.00     0.211 HD
ENDBRANCH   7  11
ENDBRANCH   1   7
TORSDOF 5
ENDMDL
MODEL 7
REMARK VINA RESULT:    -3.494      2.584      5.494
REMARK INTER + INTRA:          -4.942
REMARK INTER:                  -4.645
REMARK INTRA:                  -0.297
REMARK UNBOUND:                -0.530
REMARK SMILES C=C[C@@](C)(O)CCC=C(C)C
REMARK SMILES IDX 6 1 7 2 8 3 10 4 9 5 11 6 3 7 4 8 2 9 1 10 5 11
REMARK H PARENT 5 12
REMARK Flexibility Score: inf
ROOT
ATOM      1  C   UNL     1       1.386 -14.947  11.309  1.00  0.00     0.043 C 
ENDROOT
BRANCH   1   2
ATOM      2  C   UNL     1       2.151 -15.882  12.263  1.00  0.00     0.030 C 
BRANCH   2   3
ATOM      3  C   UNL     1       1.374 -16.094  13.538  1.00  0.00    -0.028 C 
ATOM      4  C   UNL     1       2.155 -18.459  13.806  1.00  0.00     0.039 C 
ATOM      5  C   UNL     1       1.385 -17.239  14.257  1.00  0.00    -0.080 C 
ATOM      6  C   UNL     1       0.589 -17.294  15.535  1.00  0.00     0.039 C 
ENDBRANCH   2   3
ENDBRANCH   1   2
BRANCH   1   7
ATOM      7  C   UNL     1       1.606 -15.263   9.807  1.00  0.00     0.080 C 
ATOM      8  C   UNL     1       2.053 -16.733   9.628  1.00  0.00     0.047 C 
BRANCH   7   9
ATOM      9  C   UNL     1       0.294 -15.029   9.070  1.00  0.00    -0.001 C 
ATOM     10  C   UNL     1      -0.385 -16.011   8.464  1.00  0.00     0.007 C 
ENDBRANCH   7   9
BRANCH   7  11
ATOM     11  O   UNL     1       2.589 -14.380   9.313  1.00  0.00    -0.386 OA
ATOM     12  H   UNL     1       2.531 -13.527   9.818  1.00  0.00     0.211 HD
ENDBRANCH   7  11
ENDBRANCH   1   7
TORSDOF 5
ENDMDL
MODEL 8
REMARK VINA RESULT:    -3.336      2.209      4.738
REMARK INTER + INTRA:          -4.743
REMARK INTER:                  -3.950
REMARK INTRA:                  -0.793
REMARK UNBOUND:                -0.530
REMARK SMILES C=C[C@@](C)(O)CCC=C(C)C
REMARK SMILES IDX 6 1 7 2 8 3 10 4 9 5 11 6 3 7 4 8 2 9 1 10 5 11
REMARK H PARENT 5 12
REMARK Flexibility Score: inf
ROOT
ATOM      1  C   UNL     1       0.695 -13.700  10.700  1.00  0.00     0.043 C 
ENDROOT
BRANCH   1   2
ATOM      2  C   UNL     1       1.726 -13.913  11.822  1.00  0.00     0.030 C 
BRANCH   2   3
ATOM      3  C   UNL     1       1.370 -15.123  12.651  1.00  0.00    -0.028 C 
ATOM      4  C   UNL     1       3.578 -16.238  12.258  1.00  0.00     0.039 C 
ATOM      5  C   UNL     1       2.201 -16.165  12.876  1.00  0.00    -0.080 C 
ATOM      6  C   UNL     1       1.722 -17.288  13.758  1.00  0.00     0.039 C 
ENDBRANCH   2   3
ENDBRANCH   1   2
BRANCH   1   7
ATOM      7  C   UNL     1       1.139 -14.260   9.323  1.00  0.00     0.080 C 
ATOM      8  C   UNL     1       2.683 -14.303   9.234  1.00  0.00     0.047 C 
BRANCH   7   9
ATOM      9  C   UNL     1       0.574 -15.666   9.173  1.00  0.00    -0.001 C 
ATOM     10  C   UNL     1       1.327 -16.768   9.275  1.00  0.00     0.007 C 
ENDBRANCH   7   9
BRANCH   7  11
ATOM     11  O   UNL     1       0.604 -13.427   8.318  1.00  0.00    -0.386 OA
ATOM     12  H   UNL     1      -0.264 -13.064   8.635  1.00  0.00     0.211 HD
ENDBRANCH   7  11
ENDBRANCH   1   7
TORSDOF 5
ENDMDL
