MODEL 1
REMARK VINA RESULT:     1.790      0.000      0.000
REMARK INTER + INTRA:           1.784
REMARK INTER:                   2.261
REMARK INTRA:                  -0.477
REMARK UNBOUND:                -0.477
REMARK SMILES O=C(C=Cc1ccc(O)cc1)c1ccc(O)cc1O
REMARK SMILES IDX 4 1 3 2 5 3 6 4 7 5 8 6 11 7 10 8 9 9 2 11 1 12 12 13 18 14
REMARK SMILES IDX 13 15 17 16 14 17 15 18 19 19 16 21
REMARK H PARENT 9 10 19 20 16 22
REMARK Flexibility Score: inf
ROOT
ATOM      1  C   UNL     1      -8.270  -2.126  18.361  1.00  0.00     0.012 C 
ATOM      2  C   UNL     1      -9.172  -2.757  17.596  1.00  0.00     0.053 C 
ENDROOT
BRANCH   1   3
ATOM      3  C   UNL     1      -8.240  -2.208  19.842  1.00  0.00    -0.025 A 
ATOM      4  C   UNL     1      -8.242  -3.435  20.537  1.00  0.00     0.012 A 
ATOM      5  C   UNL     1      -8.222  -3.456  21.934  1.00  0.00     0.047 A 
ATOM      6  C   UNL     1      -8.209  -2.257  22.659  1.00  0.00     0.115 A 
ATOM      7  C   UNL     1      -8.241  -1.011  20.580  1.00  0.00     0.012 A 
ATOM      8  C   UNL     1      -8.221  -1.038  21.978  1.00  0.00     0.047 A 
BRANCH   6   9
ATOM      9  O   UNL     1      -8.188  -2.268  24.052  1.00  0.00    -0.508 OA
ATOM     10  H   UNL     1      -7.335  -2.091  24.569  1.00  0.00     0.293 HD
ENDBRANCH   6   9
ENDBRANCH   1   3
BRANCH   2  11
ATOM     11  C   UNL     1      -9.180  -2.657  16.121  1.00  0.00     0.189 C 
ATOM     12  O   UNL     1      -9.022  -1.522  15.597  1.00  0.00    -0.289 OA
BRANCH  11  13
ATOM     13  C   UNL     1      -9.360  -3.830  15.234  1.00  0.00     0.064 A 
ATOM     14  C   UNL     1      -8.923  -3.814  13.893  1.00  0.00     0.130 A 
ATOM     15  C   UNL     1      -9.942  -4.999  15.754  1.00  0.00     0.020 A 
ATOM     16  C   UNL     1      -9.113  -4.944  13.084  1.00  0.00     0.093 A 
ATOM     17  C   UNL     1     -10.122  -6.122  14.942  1.00  0.00     0.047 A 
ATOM     18  C   UNL     1      -9.712  -6.095  13.603  1.00  0.00     0.119 A 
BRANCH  14  19
ATOM     19  O   UNL     1      -8.287  -2.688  13.373  1.00  0.00    -0.507 OA
ATOM     20  H   UNL     1      -8.810  -1.924  12.961  1.00  0.00     0.293 HD
ENDBRANCH  14  19
BRANCH  18  21
ATOM     21  O   UNL     1      -9.890  -7.207  12.784  1.00  0.00    -0.508 OA
ATOM     22  H   UNL     1      -9.108  -7.649  12.313  1.00  0.00     0.293 HD
ENDBRANCH  18  21
ENDBRANCH  11  13
ENDBRANCH   2  11
TORSDOF 6
ENDMDL
MODEL 2
REMARK VINA RESULT:     3.237      1.621      7.821
REMARK INTER + INTRA:           3.612
REMARK INTER:                   3.975
REMARK INTRA:                  -0.363
REMARK UNBOUND:                -0.477
REMARK SMILES O=C(C=Cc1ccc(O)cc1)c1ccc(O)cc1O
REMARK SMILES IDX 4 1 3 2 5 3 6 4 7 5 8 6 11 7 10 8 9 9 2 11 1 12 12 13 18 14
REMARK SMILES IDX 13 15 17 16 14 17 15 18 19 19 16 21
REMARK H PARENT 9 10 19 20 16 22
REMARK Flexibility Score: inf
ROOT
ATOM      1  C   UNL     1      -8.606  -2.045  17.453  1.00  0.00     0.012 C 
ATOM      2  C   UNL     1      -8.641  -2.498  18.714  1.00  0.00     0.053 C 
ENDROOT
BRANCH   1   3
ATOM      3  C   UNL     1      -8.991  -2.857  16.272  1.00  0.00    -0.025 A 
ATOM      4  C   UNL     1      -9.799  -4.009  16.370  1.00  0.00     0.012 A 
ATOM      5  C   UNL     1     -10.125  -4.744  15.227  1.00  0.00     0.047 A 
ATOM      6  C   UNL     1      -9.643  -4.349  13.972  1.00  0.00     0.115 A 
ATOM      7  C   UNL     1      -8.502  -2.479  15.009  1.00  0.00     0.012 A 
ATOM      8  C   UNL     1      -8.831  -3.217  13.868  1.00  0.00     0.047 A 
BRANCH   6   9
ATOM      9  O   UNL     1      -9.963  -5.073  12.827  1.00  0.00    -0.508 OA
ATOM     10  H   UNL     1     -10.790  -4.861  12.280  1.00  0.00     0.293 HD
ENDBRANCH   6   9
ENDBRANCH   1   3
BRANCH   2  11
ATOM     11  C   UNL     1      -8.251  -1.668  19.874  1.00  0.00     0.189 C 
ATOM     12  O   UNL     1      -7.871  -0.486  19.661  1.00  0.00    -0.289 OA
BRANCH  11  13
ATOM     13  C   UNL     1      -8.294  -2.161  21.270  1.00  0.00     0.064 A 
ATOM     14  C   UNL     1      -7.912  -1.342  22.353  1.00  0.00     0.130 A 
ATOM     15  C   UNL     1      -8.763  -3.461  21.523  1.00  0.00     0.020 A 
ATOM     16  C   UNL     1      -7.965  -1.846  23.661  1.00  0.00     0.093 A 
ATOM     17  C   UNL     1      -8.818  -3.953  22.830  1.00  0.00     0.047 A 
ATOM     18  C   UNL     1      -8.414  -3.147  23.902  1.00  0.00     0.119 A 
BRANCH  14  19
ATOM     19  O   UNL     1      -7.502  -0.028  22.132  1.00  0.00    -0.507 OA
ATOM     20  H   UNL     1      -7.814   0.734  22.723  1.00  0.00     0.293 HD
ENDBRANCH  14  19
BRANCH  18  21
ATOM     21  O   UNL     1      -8.459  -3.628  25.208  1.00  0.00    -0.508 OA
ATOM     22  H   UNL     1      -8.212  -4.586  25.429  1.00  0.00     0.293 HD
ENDBRANCH  18  21
ENDBRANCH  11  13
ENDBRANCH   2  11
TORSDOF 6
ENDMDL
MODEL 3
REMARK VINA RESULT:     3.332      1.012      1.939
REMARK INTER + INTRA:           3.731
REMARK INTER:                   3.552
REMARK INTRA:                   0.179
REMARK UNBOUND:                -0.477
REMARK SMILES O=C(C=Cc1ccc(O)cc1)c1ccc(O)cc1O
REMARK SMILES IDX 4 1 3 2 5 3 6 4 7 5 8 6 11 7 10 8 9 9 2 11 1 12 12 13 18 14
REMARK SMILES IDX 13 15 17 16 14 17 15 18 19 19 16 21
REMARK H PARENT 9 10 19 20 16 22
REMARK Flexibility Score: inf
ROOT
ATOM      1  C   UNL     1      -8.241  -2.060  18.345  1.00  0.00     0.012 C 
ATOM      2  C   UNL     1      -9.148  -2.618  17.530  1.00  0.00     0.053 C 
ENDROOT
BRANCH   1   3
ATOM      3  C   UNL     1      -8.249  -2.216  19.820  1.00  0.00    -0.025 A 
ATOM      4  C   UNL     1      -8.235  -1.115  20.702  1.00  0.00     0.012 A 
ATOM      5  C   UNL     1      -8.234  -1.318  22.085  1.00  0.00     0.047 A 
ATOM      6  C   UNL     1      -8.238  -2.617  22.609  1.00  0.00     0.115 A 
ATOM      7  C   UNL     1      -8.239  -3.515  20.358  1.00  0.00     0.012 A 
ATOM      8  C   UNL     1      -8.239  -3.712  21.742  1.00  0.00     0.047 A 
BRANCH   6   9
ATOM      9  O   UNL     1      -8.239  -2.829  23.986  1.00  0.00    -0.508 OA
ATOM     10  H   UNL     1      -7.880  -3.687  24.389  1.00  0.00     0.293 HD
ENDBRANCH   6   9
ENDBRANCH   1   3
BRANCH   2  11
ATOM     11  C   UNL     1      -9.118  -2.446  16.062  1.00  0.00     0.189 C 
ATOM     12  O   UNL     1      -9.105  -1.275  15.597  1.00  0.00    -0.289 OA
BRANCH  11  13
ATOM     13  C   UNL     1      -9.096  -3.586  15.117  1.00  0.00     0.064 A 
ATOM     14  C   UNL     1      -9.585  -4.858  15.484  1.00  0.00     0.130 A 
ATOM     15  C   UNL     1      -8.615  -3.386  13.812  1.00  0.00     0.020 A 
ATOM     16  C   UNL     1      -9.545  -5.913  14.561  1.00  0.00     0.093 A 
ATOM     17  C   UNL     1      -8.585  -4.442  12.897  1.00  0.00     0.047 A 
ATOM     18  C   UNL     1      -9.046  -5.710  13.272  1.00  0.00     0.119 A 
BRANCH  14  19
ATOM     19  O   UNL     1     -10.125  -5.065  16.753  1.00  0.00    -0.507 OA
ATOM     20  H   UNL     1     -10.884  -5.719  16.908  1.00  0.00     0.293 HD
ENDBRANCH  14  19
BRANCH  18  21
ATOM     21  O   UNL     1      -9.017  -6.771  12.370  1.00  0.00    -0.508 OA
ATOM     22  H   UNL     1      -9.843  -7.051  11.855  1.00  0.00     0.293 HD
ENDBRANCH  18  21
ENDBRANCH  11  13
ENDBRANCH   2  11
TORSDOF 6
ENDMDL
MODEL 4
REMARK VINA RESULT:     4.007      1.795      7.854
REMARK INTER + INTRA:           4.584
REMARK INTER:                   4.290
REMARK INTRA:                   0.293
REMARK UNBOUND:                -0.477
REMARK SMILES O=C(C=Cc1ccc(O)cc1)c1ccc(O)cc1O
REMARK SMILES IDX 4 1 3 2 5 3 6 4 7 5 8 6 11 7 10 8 9 9 2 11 1 12 12 13 18 14
REMARK SMILES IDX 13 15 17 16 14 17 15 18 19 19 16 21
REMARK H PARENT 9 10 19 20 16 22
REMARK Flexibility Score: inf
ROOT
ATOM      1  C   UNL     1      -8.630  -1.840  17.986  1.00  0.00     0.012 C 
ATOM      2  C   UNL     1      -8.419  -2.410  19.181  1.00  0.00     0.053 C 
ENDROOT
BRANCH   1   3
ATOM      3  C   UNL     1      -8.979  -2.598  16.759  1.00  0.00    -0.025 A 
ATOM      4  C   UNL     1      -9.836  -3.718  16.774  1.00  0.00     0.012 A 
ATOM      5  C   UNL     1     -10.125  -4.403  15.590  1.00  0.00     0.047 A 
ATOM      6  C   UNL     1      -9.559  -3.988  14.377  1.00  0.00     0.115 A 
ATOM      7  C   UNL     1      -8.406  -2.200  15.538  1.00  0.00     0.012 A 
ATOM      8  C   UNL     1      -8.699  -2.887  14.357  1.00  0.00     0.047 A 
BRANCH   6   9
ATOM      9  O   UNL     1      -9.842  -4.662  13.192  1.00  0.00    -0.508 OA
ATOM     10  H   UNL     1     -10.163  -4.170  12.367  1.00  0.00     0.293 HD
ENDBRANCH   6   9
ENDBRANCH   1   3
BRANCH   2  11
ATOM     11  C   UNL     1      -8.072  -1.631  20.389  1.00  0.00     0.189 C 
ATOM     12  O   UNL     1      -7.584  -0.479  20.237  1.00  0.00    -0.289 OA
BRANCH  11  13
ATOM     13  C   UNL     1      -8.277  -2.141  21.764  1.00  0.00     0.064 A 
ATOM     14  C   UNL     1      -8.535  -3.505  22.014  1.00  0.00     0.130 A 
ATOM     15  C   UNL     1      -8.173  -1.251  22.847  1.00  0.00     0.020 A 
ATOM     16  C   UNL     1      -8.726  -3.949  23.330  1.00  0.00     0.093 A 
ATOM     17  C   UNL     1      -8.359  -1.704  24.156  1.00  0.00     0.047 A 
ATOM     18  C   UNL     1      -8.641  -3.054  24.400  1.00  0.00     0.119 A 
BRANCH  14  19
ATOM     19  O   UNL     1      -8.581  -4.417  20.960  1.00  0.00    -0.507 OA
ATOM     20  H   UNL     1      -8.592  -4.113  19.993  1.00  0.00     0.293 HD
ENDBRANCH  14  19
BRANCH  18  21
ATOM     21  O   UNL     1      -8.833  -3.515  25.700  1.00  0.00    -0.508 OA
ATOM     22  H   UNL     1      -9.630  -3.222  26.254  1.00  0.00     0.293 HD
ENDBRANCH  18  21
ENDBRANCH  11  13
ENDBRANCH   2  11
TORSDOF 6
ENDMDL
