MODEL 1
REMARK VINA RESULT:    -5.566      0.000      0.000
REMARK INTER + INTRA:          -7.040
REMARK INTER:                  -6.705
REMARK INTRA:                  -0.335
REMARK UNBOUND:                -0.335
REMARK SMILES O=c1c(O)c(-c2ccc(O)c(O)c2)oc2cc(O)cc(O)c12
REMARK SMILES IDX 5 1 3 2 2 3 1 4 22 5 20 6 19 7 17 8 16 9 15 10 14 11 6 12
REMARK SMILES IDX 7 13 8 14 9 15 13 16 11 17 10 18 12 20 4 22 21 24 18 26
REMARK H PARENT 10 19 12 21 4 23 21 25 18 27
REMARK Flexibility Score: inf
ROOT
ATOM      1  C   UNL     1      95.688  -3.855  -8.250  1.00  0.00     0.180 A 
ATOM      2  C   UNL     1      94.968  -5.061  -8.227  1.00  0.00     0.208 A 
ATOM      3  C   UNL     1      95.110  -5.918  -7.125  1.00  0.00     0.238 A 
ATOM      4  O   UNL     1      94.420  -6.972  -7.086  1.00  0.00    -0.285 OA
ATOM      5  C   UNL     1      95.981  -5.567  -6.067  1.00  0.00     0.111 A 
ATOM      6  C   UNL     1      96.232  -6.379  -4.920  1.00  0.00     0.134 A 
ATOM      7  C   UNL     1      97.012  -5.873  -3.873  1.00  0.00     0.093 A 
ATOM      8  C   UNL     1      97.603  -4.613  -3.959  1.00  0.00     0.123 A 
ATOM      9  C   UNL     1      97.414  -3.836  -5.102  1.00  0.00     0.094 A 
ATOM     10  C   UNL     1      96.611  -4.298  -6.147  1.00  0.00     0.146 A 
ATOM     11  O   UNL     1      96.447  -3.522  -7.212  1.00  0.00    -0.452 OA
ENDROOT
BRANCH   1  12
ATOM     12  C   UNL     1      95.610  -2.911  -9.389  1.00  0.00     0.025 A 
ATOM     13  C   UNL     1      94.698  -1.848  -9.343  1.00  0.00     0.016 A 
ATOM     14  C   UNL     1      94.622  -0.936 -10.397  1.00  0.00     0.051 A 
ATOM     15  C   UNL     1      95.464  -1.057 -11.508  1.00  0.00     0.157 A 
ATOM     16  C   UNL     1      96.473  -3.022 -10.492  1.00  0.00     0.062 A 
ATOM     17  C   UNL     1      96.407  -2.110 -11.553  1.00  0.00     0.158 A 
BRANCH  15  18
ATOM     18  O   UNL     1      95.333  -0.115 -12.532  1.00  0.00    -0.504 OA
ATOM     19  H   UNL     1      96.025   0.035 -13.252  1.00  0.00     0.293 HD
ENDBRANCH  15  18
BRANCH  17  20
ATOM     20  O   UNL     1      97.294  -2.283 -12.618  1.00  0.00    -0.504 OA
ATOM     21  H   UNL     1      97.434  -3.160 -13.100  1.00  0.00     0.293 HD
ENDBRANCH  17  20
ENDBRANCH   1  12
BRANCH   2  22
ATOM     22  O   UNL     1      94.096  -5.379  -9.273  1.00  0.00    -0.502 OA
ATOM     23  H   UNL     1      93.668  -4.672  -9.858  1.00  0.00     0.293 HD
ENDBRANCH   2  22
BRANCH   6  24
ATOM     24  O   UNL     1      95.765  -7.688  -4.773  1.00  0.00    -0.507 OA
ATOM     25  H   UNL     1      95.301  -8.217  -5.496  1.00  0.00     0.293 HD
ENDBRANCH   6  24
BRANCH   8  26
ATOM     26  O   UNL     1      98.387  -4.148  -2.904  1.00  0.00    -0.508 OA
ATOM     27  H   UNL     1      98.538  -4.707  -2.071  1.00  0.00     0.293 HD
ENDBRANCH   8  26
TORSDOF 6
ENDMDL
MODEL 2
REMARK VINA RESULT:    -5.335      1.679      3.423
REMARK INTER + INTRA:          -6.761
REMARK INTER:                  -6.523
REMARK INTRA:                  -0.238
REMARK UNBOUND:                -0.335
REMARK SMILES O=c1c(O)c(-c2ccc(O)c(O)c2)oc2cc(O)cc(O)c12
REMARK SMILES IDX 5 1 3 2 2 3 1 4 22 5 20 6 19 7 17 8 16 9 15 10 14 11 6 12
REMARK SMILES IDX 7 13 8 14 9 15 13 16 11 17 10 18 12 20 4 22 21 24 18 26
REMARK H PARENT 10 19 12 21 4 23 21 25 18 27
REMARK Flexibility Score: inf
ROOT
ATOM      1  C   UNL     1      95.104  -3.966  -8.514  1.00  0.00     0.180 A 
ATOM      2  C   UNL     1      96.048  -4.237  -7.509  1.00  0.00     0.208 A 
ATOM      3  C   UNL     1      95.739  -5.187  -6.522  1.00  0.00     0.238 A 
ATOM      4  O   UNL     1      96.610  -5.464  -5.656  1.00  0.00    -0.285 OA
ATOM      5  C   UNL     1      94.486  -5.844  -6.545  1.00  0.00     0.111 A 
ATOM      6  C   UNL     1      94.052  -6.795  -5.574  1.00  0.00     0.134 A 
ATOM      7  C   UNL     1      92.845  -7.479  -5.767  1.00  0.00     0.093 A 
ATOM      8  C   UNL     1      92.027  -7.200  -6.862  1.00  0.00     0.123 A 
ATOM      9  C   UNL     1      92.413  -6.229  -7.785  1.00  0.00     0.094 A 
ATOM     10  C   UNL     1      93.629  -5.556  -7.638  1.00  0.00     0.146 A 
ATOM     11  O   UNL     1      93.964  -4.647  -8.546  1.00  0.00    -0.452 OA
ENDROOT
BRANCH   1  12
ATOM     12  C   UNL     1      95.347  -2.960  -9.573  1.00  0.00     0.025 A 
ATOM     13  C   UNL     1      94.698  -1.720  -9.509  1.00  0.00     0.016 A 
ATOM     14  C   UNL     1      94.928  -0.750 -10.487  1.00  0.00     0.051 A 
ATOM     15  C   UNL     1      95.821  -0.992 -11.537  1.00  0.00     0.157 A 
ATOM     16  C   UNL     1      96.262  -3.198 -10.613  1.00  0.00     0.062 A 
ATOM     17  C   UNL     1      96.502  -2.231 -11.596  1.00  0.00     0.158 A 
BRANCH  15  18
ATOM     18  O   UNL     1      96.002   0.017 -12.485  1.00  0.00    -0.504 OA
ATOM     19  H   UNL     1      96.716  -0.001 -13.199  1.00  0.00     0.293 HD
ENDBRANCH  15  18
BRANCH  17  20
ATOM     20  O   UNL     1      97.422  -2.537 -12.601  1.00  0.00    -0.504 OA
ATOM     21  H   UNL     1      98.423  -2.447 -12.498  1.00  0.00     0.293 HD
ENDBRANCH  17  20
ENDBRANCH   1  12
BRANCH   2  22
ATOM     22  O   UNL     1      97.288  -3.593  -7.518  1.00  0.00    -0.502 OA
ATOM     23  H   UNL     1      98.047  -3.882  -8.123  1.00  0.00     0.293 HD
ENDBRANCH   2  22
BRANCH   6  24
ATOM     24  O   UNL     1      94.749  -7.082  -4.396  1.00  0.00    -0.507 OA
ATOM     25  H   UNL     1      94.388  -6.939  -3.465  1.00  0.00     0.293 HD
ENDBRANCH   6  24
BRANCH   8  26
ATOM     26  O   UNL     1      90.825  -7.889  -7.014  1.00  0.00    -0.508 OA
ATOM     27  H   UNL     1      90.656  -8.487  -7.815  1.00  0.00     0.293 HD
ENDBRANCH   8  26
TORSDOF 6
ENDMDL
MODEL 3
REMARK VINA RESULT:    -5.000      3.388      8.216
REMARK INTER + INTRA:          -6.358
REMARK INTER:                  -6.025
REMARK INTRA:                  -0.334
REMARK UNBOUND:                -0.335
REMARK SMILES O=c1c(O)c(-c2ccc(O)c(O)c2)oc2cc(O)cc(O)c12
REMARK SMILES IDX 5 1 3 2 2 3 1 4 22 5 20 6 19 7 17 8 16 9 15 10 14 11 6 12
REMARK SMILES IDX 7 13 8 14 9 15 13 16 11 17 10 18 12 20 4 22 21 24 18 26
REMARK H PARENT 10 19 12 21 4 23 21 25 18 27
REMARK Flexibility Score: inf
ROOT
ATOM      1  C   UNL     1      97.309  -5.845  -3.462  1.00  0.00     0.180 A 
ATOM      2  C   UNL     1      97.443  -4.639  -4.172  1.00  0.00     0.208 A 
ATOM      3  C   UNL     1      96.648  -4.425  -5.309  1.00  0.00     0.238 A 
ATOM      4  O   UNL     1      96.735  -3.321  -5.908  1.00  0.00    -0.285 OA
ATOM      5  C   UNL     1      95.739  -5.425  -5.731  1.00  0.00     0.111 A 
ATOM      6  C   UNL     1      94.913  -5.331  -6.891  1.00  0.00     0.134 A 
ATOM      7  C   UNL     1      93.957  -6.323  -7.140  1.00  0.00     0.093 A 
ATOM      8  C   UNL     1      93.842  -7.437  -6.309  1.00  0.00     0.123 A 
ATOM      9  C   UNL     1      94.686  -7.568  -5.206  1.00  0.00     0.094 A 
ATOM     10  C   UNL     1      95.625  -6.577  -4.911  1.00  0.00     0.146 A 
ATOM     11  O   UNL     1      96.401  -6.735  -3.845  1.00  0.00    -0.452 OA
ENDROOT
BRANCH   1  12
ATOM     12  C   UNL     1      98.129  -6.153  -2.269  1.00  0.00     0.025 A 
ATOM     13  C   UNL     1      97.620  -5.882  -0.992  1.00  0.00     0.016 A 
ATOM     14  C   UNL     1      98.370  -6.183   0.147  1.00  0.00     0.051 A 
ATOM     15  C   UNL     1      99.633  -6.775   0.035  1.00  0.00     0.157 A 
ATOM     16  C   UNL     1      99.388  -6.768  -2.385  1.00  0.00     0.062 A 
ATOM     17  C   UNL     1     100.145  -7.077  -1.249  1.00  0.00     0.158 A 
BRANCH  15  18
ATOM     18  O   UNL     1     100.334  -7.045   1.212  1.00  0.00    -0.504 OA
ATOM     19  H   UNL     1     101.246  -6.668   1.425  1.00  0.00     0.293 HD
ENDBRANCH  15  18
BRANCH  17  20
ATOM     20  O   UNL     1     101.388  -7.685  -1.439  1.00  0.00    -0.504 OA
ATOM     21  H   UNL     1     101.532  -8.685  -1.452  1.00  0.00     0.293 HD
ENDBRANCH  17  20
ENDBRANCH   1  12
BRANCH   2  22
ATOM     22  O   UNL     1      98.331  -3.656  -3.725  1.00  0.00    -0.502 OA
ATOM     23  H   UNL     1      98.407  -3.394  -2.749  1.00  0.00     0.293 HD
ENDBRANCH   2  22
BRANCH   6  24
ATOM     24  O   UNL     1      95.010  -4.306  -7.837  1.00  0.00    -0.507 OA
ATOM     25  H   UNL     1      94.232  -3.760  -8.174  1.00  0.00     0.293 HD
ENDBRANCH   6  24
BRANCH   8  26
ATOM     26  O   UNL     1      92.890  -8.413  -6.597  1.00  0.00    -0.508 OA
ATOM     27  H   UNL     1      92.353  -8.862  -5.863  1.00  0.00     0.293 HD
ENDBRANCH   8  26
TORSDOF 6
ENDMDL
MODEL 4
REMARK VINA RESULT:    -4.931      1.920      2.729
REMARK INTER + INTRA:          -6.274
REMARK INTER:                  -6.002
REMARK INTRA:                  -0.272
REMARK UNBOUND:                -0.335
REMARK SMILES O=c1c(O)c(-c2ccc(O)c(O)c2)oc2cc(O)cc(O)c12
REMARK SMILES IDX 5 1 3 2 2 3 1 4 22 5 20 6 19 7 17 8 16 9 15 10 14 11 6 12
REMARK SMILES IDX 7 13 8 14 9 15 13 16 11 17 10 18 12 20 4 22 21 24 18 26
REMARK H PARENT 10 19 12 21 4 23 21 25 18 27
REMARK Flexibility Score: inf
ROOT
ATOM      1  C   UNL     1      95.904  -2.427  -9.354  1.00  0.00     0.180 A 
ATOM      2  C   UNL     1      94.565  -2.521  -8.939  1.00  0.00     0.208 A 
ATOM      3  C   UNL     1      94.242  -3.363  -7.863  1.00  0.00     0.238 A 
ATOM      4  O   UNL     1      93.049  -3.401  -7.463  1.00  0.00    -0.285 OA
ATOM      5  C   UNL     1      95.259  -4.111  -7.224  1.00  0.00     0.111 A 
ATOM      6  C   UNL     1      95.040  -5.025  -6.151  1.00  0.00     0.134 A 
ATOM      7  C   UNL     1      96.137  -5.613  -5.509  1.00  0.00     0.093 A 
ATOM      8  C   UNL     1      97.440  -5.371  -5.943  1.00  0.00     0.123 A 
ATOM      9  C   UNL     1      97.661  -4.526  -7.030  1.00  0.00     0.094 A 
ATOM     10  C   UNL     1      96.590  -3.897  -7.668  1.00  0.00     0.146 A 
ATOM     11  O   UNL     1      96.845  -3.091  -8.692  1.00  0.00    -0.452 OA
ENDROOT
BRANCH   1  12
ATOM     12  C   UNL     1      96.319  -1.580 -10.495  1.00  0.00     0.025 A 
ATOM     13  C   UNL     1      96.562  -2.173 -11.742  1.00  0.00     0.016 A 
ATOM     14  C   UNL     1      96.936  -1.391 -12.836  1.00  0.00     0.051 A 
ATOM     15  C   UNL     1      97.057  -0.002 -12.713  1.00  0.00     0.157 A 
ATOM     16  C   UNL     1      96.418  -0.184 -10.374  1.00  0.00     0.062 A 
ATOM     17  C   UNL     1      96.787   0.610 -11.466  1.00  0.00     0.158 A 
BRANCH  15  18
ATOM     18  O   UNL     1      97.439   0.723 -13.844  1.00  0.00    -0.504 OA
ATOM     19  H   UNL     1      98.114   0.397 -14.521  1.00  0.00     0.293 HD
ENDBRANCH  15  18
BRANCH  17  20
ATOM     20  O   UNL     1      96.867   1.991 -11.272  1.00  0.00    -0.504 OA
ATOM     21  H   UNL     1      97.367   2.620 -11.884  1.00  0.00     0.293 HD
ENDBRANCH  17  20
ENDBRANCH   1  12
BRANCH   2  22
ATOM     22  O   UNL     1      93.579  -1.756  -9.570  1.00  0.00    -0.502 OA
ATOM     23  H   UNL     1      93.735  -0.798  -9.858  1.00  0.00     0.293 HD
ENDBRANCH   2  22
BRANCH   6  24
ATOM     24  O   UNL     1      93.774  -5.408  -5.698  1.00  0.00    -0.507 OA
ATOM     25  H   UNL     1      93.215  -4.884  -5.042  1.00  0.00     0.293 HD
ENDBRANCH   6  24
BRANCH   8  26
ATOM     26  O   UNL     1      98.506  -5.986  -5.290  1.00  0.00    -0.508 OA
ATOM     27  H   UNL     1      98.645  -6.989  -5.332  1.00  0.00     0.293 HD
ENDBRANCH   8  26
TORSDOF 6
ENDMDL
MODEL 5
REMARK VINA RESULT:    -4.905      3.787      5.817
REMARK INTER + INTRA:          -6.244
REMARK INTER:                  -5.921
REMARK INTRA:                  -0.323
REMARK UNBOUND:                -0.335
REMARK SMILES O=c1c(O)c(-c2ccc(O)c(O)c2)oc2cc(O)cc(O)c12
REMARK SMILES IDX 5 1 3 2 2 3 1 4 22 5 20 6 19 7 17 8 16 9 15 10 14 11 6 12
REMARK SMILES IDX 7 13 8 14 9 15 13 16 11 17 10 18 12 20 4 22 21 24 18 26
REMARK H PARENT 10 19 12 21 4 23 21 25 18 27
REMARK Flexibility Score: inf
ROOT
ATOM      1  C   UNL     1      97.419  -5.477  -8.281  1.00  0.00     0.180 A 
ATOM      2  C   UNL     1      96.783  -5.848  -7.084  1.00  0.00     0.208 A 
ATOM      3  C   UNL     1      95.661  -5.122  -6.655  1.00  0.00     0.238 A 
ATOM      4  O   UNL     1      95.063  -5.493  -5.611  1.00  0.00    -0.285 OA
ATOM      5  C   UNL     1      95.196  -4.025  -7.420  1.00  0.00     0.111 A 
ATOM      6  C   UNL     1      94.093  -3.196  -7.061  1.00  0.00     0.134 A 
ATOM      7  C   UNL     1      93.641  -2.220  -7.958  1.00  0.00     0.093 A 
ATOM      8  C   UNL     1      94.291  -2.001  -9.172  1.00  0.00     0.123 A 
ATOM      9  C   UNL     1      95.408  -2.767  -9.507  1.00  0.00     0.094 A 
ATOM     10  C   UNL     1      95.861  -3.772  -8.648  1.00  0.00     0.146 A 
ATOM     11  O   UNL     1      96.920  -4.485  -9.010  1.00  0.00    -0.452 OA
ENDROOT
BRANCH   1  12
ATOM     12  C   UNL     1      98.622  -6.178  -8.784  1.00  0.00     0.025 A 
ATOM     13  C   UNL     1      99.893  -5.751  -8.374  1.00  0.00     0.016 A 
ATOM     14  C   UNL     1     101.039  -6.409  -8.822  1.00  0.00     0.051 A 
ATOM     15  C   UNL     1     100.940  -7.516  -9.673  1.00  0.00     0.157 A 
ATOM     16  C   UNL     1      98.518  -7.302  -9.621  1.00  0.00     0.062 A 
ATOM     17  C   UNL     1      99.662  -7.972 -10.072  1.00  0.00     0.158 A 
BRANCH  15  18
ATOM     18  O   UNL     1     102.125  -8.127 -10.090  1.00  0.00    -0.504 OA
ATOM     19  H   UNL     1     103.046  -7.758  -9.902  1.00  0.00     0.293 HD
ENDBRANCH  15  18
BRANCH  17  20
ATOM     20  O   UNL     1      99.483  -9.081 -10.902  1.00  0.00    -0.504 OA
ATOM     21  H   UNL     1      98.581  -9.411 -11.218  1.00  0.00     0.293 HD
ENDBRANCH  17  20
ENDBRANCH   1  12
BRANCH   2  22
ATOM     22  O   UNL     1      97.245  -6.947  -6.355  1.00  0.00    -0.502 OA
ATOM     23  H   UNL     1      96.735  -7.332  -5.569  1.00  0.00     0.293 HD
ENDBRANCH   2  22
BRANCH   6  24
ATOM     24  O   UNL     1      93.429  -3.269  -5.832  1.00  0.00    -0.507 OA
ATOM     25  H   UNL     1      92.692  -2.646  -5.540  1.00  0.00     0.293 HD
ENDBRANCH   6  24
BRANCH   8  26
ATOM     26  O   UNL     1      93.823  -1.011 -10.033  1.00  0.00    -0.508 OA
ATOM     27  H   UNL     1      94.457  -0.374 -10.502  1.00  0.00     0.293 HD
ENDBRANCH   8  26
TORSDOF 6
ENDMDL
MODEL 6
REMARK VINA RESULT:    -4.889      3.038      6.779
REMARK INTER + INTRA:          -6.224
REMARK INTER:                  -6.311
REMARK INTRA:                   0.087
REMARK UNBOUND:                -0.335
REMARK SMILES O=c1c(O)c(-c2ccc(O)c(O)c2)oc2cc(O)cc(O)c12
REMARK SMILES IDX 5 1 3 2 2 3 1 4 22 5 20 6 19 7 17 8 16 9 15 10 14 11 6 12
REMARK SMILES IDX 7 13 8 14 9 15 13 16 11 17 10 18 12 20 4 22 21 24 18 26
REMARK H PARENT 10 19 12 21 4 23 21 25 18 27
REMARK Flexibility Score: inf
ROOT
ATOM      1  C   UNL     1      95.078  -3.517  -9.379  1.00  0.00     0.180 A 
ATOM      2  C   UNL     1      95.776  -4.381 -10.240  1.00  0.00     0.208 A 
ATOM      3  C   UNL     1      96.528  -3.834 -11.291  1.00  0.00     0.238 A 
ATOM      4  O   UNL     1      97.195  -4.611 -12.025  1.00  0.00    -0.285 OA
ATOM      5  C   UNL     1      96.561  -2.432 -11.479  1.00  0.00     0.111 A 
ATOM      6  C   UNL     1      97.258  -1.772 -12.535  1.00  0.00     0.134 A 
ATOM      7  C   UNL     1      97.329  -0.373 -12.548  1.00  0.00     0.093 A 
ATOM      8  C   UNL     1      96.675   0.390 -11.581  1.00  0.00     0.123 A 
ATOM      9  C   UNL     1      95.941  -0.245 -10.579  1.00  0.00     0.094 A 
ATOM     10  C   UNL     1      95.881  -1.639 -10.519  1.00  0.00     0.146 A 
ATOM     11  O   UNL     1      95.181  -2.203  -9.542  1.00  0.00    -0.452 OA
ENDROOT
BRANCH   1  12
ATOM     12  C   UNL     1      94.244  -4.019  -8.264  1.00  0.00     0.025 A 
ATOM     13  C   UNL     1      94.246  -3.338  -7.039  1.00  0.00     0.016 A 
ATOM     14  C   UNL     1      93.453  -3.784  -5.980  1.00  0.00     0.051 A 
ATOM     15  C   UNL     1      92.629  -4.906  -6.128  1.00  0.00     0.157 A 
ATOM     16  C   UNL     1      93.401  -5.132  -8.423  1.00  0.00     0.062 A 
ATOM     17  C   UNL     1      92.599  -5.585  -7.369  1.00  0.00     0.158 A 
BRANCH  15  18
ATOM     18  O   UNL     1      91.865  -5.303  -5.030  1.00  0.00    -0.504 OA
ATOM     19  H   UNL     1      90.955  -5.737  -5.102  1.00  0.00     0.293 HD
ENDBRANCH  15  18
BRANCH  17  20
ATOM     20  O   UNL     1      91.788  -6.699  -7.598  1.00  0.00    -0.504 OA
ATOM     21  H   UNL     1      92.113  -7.654  -7.551  1.00  0.00     0.293 HD
ENDBRANCH  17  20
ENDBRANCH   1  12
BRANCH   2  22
ATOM     22  O   UNL     1      95.748  -5.762 -10.023  1.00  0.00    -0.502 OA
ATOM     23  H   UNL     1      94.958  -6.230  -9.596  1.00  0.00     0.293 HD
ENDBRANCH   2  22
BRANCH   6  24
ATOM     24  O   UNL     1      97.868  -2.437 -13.603  1.00  0.00    -0.507 OA
ATOM     25  H   UNL     1      97.994  -3.436 -13.662  1.00  0.00     0.293 HD
ENDBRANCH   6  24
BRANCH   8  26
ATOM     26  O   UNL     1      96.754   1.780 -11.634  1.00  0.00    -0.508 OA
ATOM     27  H   UNL     1      97.583   2.275 -11.324  1.00  0.00     0.293 HD
ENDBRANCH   8  26
TORSDOF 6
ENDMDL
MODEL 7
REMARK VINA RESULT:    -4.852      2.619      4.091
REMARK INTER + INTRA:          -6.180
REMARK INTER:                  -6.377
REMARK INTRA:                   0.197
REMARK UNBOUND:                -0.335
REMARK SMILES O=c1c(O)c(-c2ccc(O)c(O)c2)oc2cc(O)cc(O)c12
REMARK SMILES IDX 5 1 3 2 2 3 1 4 22 5 20 6 19 7 17 8 16 9 15 10 14 11 6 12
REMARK SMILES IDX 7 13 8 14 9 15 13 16 11 17 10 18 12 20 4 22 21 24 18 26
REMARK H PARENT 10 19 12 21 4 23 21 25 18 27
REMARK Flexibility Score: inf
ROOT
ATOM      1  C   UNL     1      96.852  -4.676  -5.773  1.00  0.00     0.180 A 
ATOM      2  C   UNL     1      96.896  -4.372  -4.402  1.00  0.00     0.208 A 
ATOM      3  C   UNL     1      97.771  -5.091  -3.573  1.00  0.00     0.238 A 
ATOM      4  O   UNL     1      97.846  -4.777  -2.356  1.00  0.00    -0.285 OA
ATOM      5  C   UNL     1      98.580  -6.116  -4.121  1.00  0.00     0.111 A 
ATOM      6  C   UNL     1      99.472  -6.935  -3.367  1.00  0.00     0.134 A 
ATOM      7  C   UNL     1     100.319  -7.829  -4.034  1.00  0.00     0.093 A 
ATOM      8  C   UNL     1     100.259  -7.981  -5.419  1.00  0.00     0.123 A 
ATOM      9  C   UNL     1      99.347  -7.229  -6.159  1.00  0.00     0.094 A 
ATOM     10  C   UNL     1      98.515  -6.302  -5.526  1.00  0.00     0.146 A 
ATOM     11  O   UNL     1      97.670  -5.597  -6.269  1.00  0.00    -0.452 OA
ENDROOT
BRANCH   1  12
ATOM     12  C   UNL     1      95.938  -3.979  -6.706  1.00  0.00     0.025 A 
ATOM     13  C   UNL     1      94.652  -3.623  -6.276  1.00  0.00     0.016 A 
ATOM     14  C   UNL     1      93.781  -2.948  -7.134  1.00  0.00     0.051 A 
ATOM     15  C   UNL     1      94.181  -2.601  -8.429  1.00  0.00     0.157 A 
ATOM     16  C   UNL     1      96.350  -3.612  -7.998  1.00  0.00     0.062 A 
ATOM     17  C   UNL     1      95.486  -2.931  -8.864  1.00  0.00     0.158 A 
BRANCH  15  18
ATOM     18  O   UNL     1      93.261  -1.932  -9.239  1.00  0.00    -0.504 OA
ATOM     19  H   UNL     1      92.769  -2.362 -10.008  1.00  0.00     0.293 HD
ENDBRANCH  15  18
BRANCH  17  20
ATOM     20  O   UNL     1      95.963  -2.601 -10.135  1.00  0.00    -0.504 OA
ATOM     21  H   UNL     1      96.195  -3.280 -10.846  1.00  0.00     0.293 HD
ENDBRANCH  17  20
ENDBRANCH   1  12
BRANCH   2  22
ATOM     22  O   UNL     1      96.106  -3.342  -3.885  1.00  0.00    -0.502 OA
ATOM     23  H   UNL     1      95.176  -3.501  -3.518  1.00  0.00     0.293 HD
ENDBRANCH   2  22
BRANCH   6  24
ATOM     24  O   UNL     1      99.547  -6.928  -1.971  1.00  0.00    -0.507 OA
ATOM     25  H   UNL     1     100.381  -7.121  -1.439  1.00  0.00     0.293 HD
ENDBRANCH   6  24
BRANCH   8  26
ATOM     26  O   UNL     1     101.105  -8.893  -6.046  1.00  0.00    -0.508 OA
ATOM     27  H   UNL     1     100.803  -9.837  -6.258  1.00  0.00     0.293 HD
ENDBRANCH   8  26
TORSDOF 6
ENDMDL
MODEL 8
REMARK VINA RESULT:    -4.842      3.469      7.415
REMARK INTER + INTRA:          -6.168
REMARK INTER:                  -5.872
REMARK INTRA:                  -0.296
REMARK UNBOUND:                -0.335
REMARK SMILES O=c1c(O)c(-c2ccc(O)c(O)c2)oc2cc(O)cc(O)c12
REMARK SMILES IDX 5 1 3 2 2 3 1 4 22 5 20 6 19 7 17 8 16 9 15 10 14 11 6 12
REMARK SMILES IDX 7 13 8 14 9 15 13 16 11 17 10 18 12 20 4 22 21 24 18 26
REMARK H PARENT 10 19 12 21 4 23 21 25 18 27
REMARK Flexibility Score: inf
ROOT
ATOM      1  C   UNL     1      96.549  -5.869  -4.805  1.00  0.00     0.180 A 
ATOM      2  C   UNL     1      96.421  -4.579  -5.348  1.00  0.00     0.208 A 
ATOM      3  C   UNL     1      95.347  -4.307  -6.210  1.00  0.00     0.238 A 
ATOM      4  O   UNL     1      95.207  -3.135  -6.651  1.00  0.00    -0.285 OA
ATOM      5  C   UNL     1      94.423  -5.330  -6.530  1.00  0.00     0.111 A 
ATOM      6  C   UNL     1      93.321  -5.177  -7.423  1.00  0.00     0.134 A 
ATOM      7  C   UNL     1      92.396  -6.219  -7.564  1.00  0.00     0.093 A 
ATOM      8  C   UNL     1      92.568  -7.430  -6.895  1.00  0.00     0.123 A 
ATOM      9  C   UNL     1      93.676  -7.612  -6.067  1.00  0.00     0.094 A 
ATOM     10  C   UNL     1      94.596  -6.578  -5.878  1.00  0.00     0.146 A 
ATOM     11  O   UNL     1      95.630  -6.789  -5.071  1.00  0.00    -0.452 OA
ENDROOT
BRANCH   1  12
ATOM     12  C   UNL     1      97.669  -6.239  -3.909  1.00  0.00     0.025 A 
ATOM     13  C   UNL     1      97.599  -5.914  -2.547  1.00  0.00     0.016 A 
ATOM     14  C   UNL     1      98.635  -6.271  -1.682  1.00  0.00     0.051 A 
ATOM     15  C   UNL     1      99.750  -6.973  -2.153  1.00  0.00     0.157 A 
ATOM     16  C   UNL     1      98.776  -6.963  -4.381  1.00  0.00     0.062 A 
ATOM     17  C   UNL     1      99.818  -7.329  -3.521  1.00  0.00     0.158 A 
BRANCH  15  18
ATOM     18  O   UNL     1     100.754  -7.294  -1.237  1.00  0.00    -0.504 OA
ATOM     19  H   UNL     1     100.718  -7.060  -0.255  1.00  0.00     0.293 HD
ENDBRANCH  15  18
BRANCH  17  20
ATOM     20  O   UNL     1     100.888  -8.046  -4.060  1.00  0.00    -0.504 OA
ATOM     21  H   UNL     1     100.889  -8.450  -4.986  1.00  0.00     0.293 HD
ENDBRANCH  17  20
ENDBRANCH   1  12
BRANCH   2  22
ATOM     22  O   UNL     1      97.332  -3.577  -5.002  1.00  0.00    -0.502 OA
ATOM     23  H   UNL     1      97.074  -2.599  -4.956  1.00  0.00     0.293 HD
ENDBRANCH   2  22
BRANCH   6  24
ATOM     24  O   UNL     1      93.106  -4.041  -8.210  1.00  0.00    -0.507 OA
ATOM     25  H   UNL     1      93.477  -3.125  -8.010  1.00  0.00     0.293 HD
ENDBRANCH   6  24
BRANCH   8  26
ATOM     26  O   UNL     1      91.636  -8.451  -7.072  1.00  0.00    -0.508 OA
ATOM     27  H   UNL     1      91.861  -9.288  -7.599  1.00  0.00     0.293 HD
ENDBRANCH   8  26
TORSDOF 6
ENDMDL
MODEL 9
REMARK VINA RESULT:    -4.829      1.984      7.203
REMARK INTER + INTRA:          -6.152
REMARK INTER:                  -5.889
REMARK INTRA:                  -0.263
REMARK UNBOUND:                -0.335
REMARK SMILES O=c1c(O)c(-c2ccc(O)c(O)c2)oc2cc(O)cc(O)c12
REMARK SMILES IDX 5 1 3 2 2 3 1 4 22 5 20 6 19 7 17 8 16 9 15 10 14 11 6 12
REMARK SMILES IDX 7 13 8 14 9 15 13 16 11 17 10 18 12 20 4 22 21 24 18 26
REMARK H PARENT 10 19 12 21 4 23 21 25 18 27
REMARK Flexibility Score: inf
ROOT
ATOM      1  C   UNL     1      96.736  -5.842  -5.356  1.00  0.00     0.180 A 
ATOM      2  C   UNL     1      95.431  -6.364  -5.372  1.00  0.00     0.208 A 
ATOM      3  C   UNL     1      94.518  -5.886  -6.325  1.00  0.00     0.238 A 
ATOM      4  O   UNL     1      93.367  -6.396  -6.368  1.00  0.00    -0.285 OA
ATOM      5  C   UNL     1      94.915  -4.883  -7.241  1.00  0.00     0.111 A 
ATOM      6  C   UNL     1      94.061  -4.298  -8.223  1.00  0.00     0.134 A 
ATOM      7  C   UNL     1      94.597  -3.407  -9.162  1.00  0.00     0.093 A 
ATOM      8  C   UNL     1      95.939  -3.032  -9.114  1.00  0.00     0.123 A 
ATOM      9  C   UNL     1      96.769  -3.552  -8.121  1.00  0.00     0.094 A 
ATOM     10  C   UNL     1      96.272  -4.470  -7.193  1.00  0.00     0.146 A 
ATOM     11  O   UNL     1      97.098  -4.950  -6.271  1.00  0.00    -0.452 OA
ENDROOT
BRANCH   1  12
ATOM     12  C   UNL     1      97.747  -6.278  -4.366  1.00  0.00     0.025 A 
ATOM     13  C   UNL     1      98.842  -7.044  -4.789  1.00  0.00     0.016 A 
ATOM     14  C   UNL     1      99.817  -7.448  -3.875  1.00  0.00     0.051 A 
ATOM     15  C   UNL     1      99.728  -7.083  -2.527  1.00  0.00     0.157 A 
ATOM     16  C   UNL     1      97.666  -5.890  -3.018  1.00  0.00     0.062 A 
ATOM     17  C   UNL     1      98.641  -6.287  -2.095  1.00  0.00     0.158 A 
BRANCH  15  18
ATOM     18  O   UNL     1     100.732  -7.524  -1.663  1.00  0.00    -0.504 OA
ATOM     19  H   UNL     1     101.046  -8.483  -1.606  1.00  0.00     0.293 HD
ENDBRANCH  15  18
BRANCH  17  20
ATOM     20  O   UNL     1      98.495  -5.866  -0.771  1.00  0.00    -0.504 OA
ATOM     21  H   UNL     1      98.594  -6.475   0.029  1.00  0.00     0.293 HD
ENDBRANCH  17  20
ENDBRANCH   1  12
BRANCH   2  22
ATOM     22  O   UNL     1      95.066  -7.369  -4.472  1.00  0.00    -0.502 OA
ATOM     23  H   UNL     1      94.101  -7.630  -4.310  1.00  0.00     0.293 HD
ENDBRANCH   2  22
BRANCH   6  24
ATOM     24  O   UNL     1      92.685  -4.534  -8.301  1.00  0.00    -0.507 OA
ATOM     25  H   UNL     1      92.159  -4.589  -9.159  1.00  0.00     0.293 HD
ENDBRANCH   6  24
BRANCH   8  26
ATOM     26  O   UNL     1      96.433  -2.131 -10.056  1.00  0.00    -0.508 OA
ATOM     27  H   UNL     1      96.890  -1.270  -9.775  1.00  0.00     0.293 HD
ENDBRANCH   8  26
TORSDOF 6
ENDMDL
