MODEL 1
REMARK VINA RESULT:    -5.086      0.000      0.000
REMARK INTER + INTRA:          -9.341
REMARK INTER:                  -8.208
REMARK INTRA:                  -1.132
REMARK UNBOUND:                -1.132
REMARK SMILES CCCCCCCCCCCCO
REMARK SMILES IDX 7 1 6 2 5 3 4 4 3 5 2 6 1 7 8 8 9 9 10 10 11 11 12 12 13 13
REMARK H PARENT 13 14
REMARK Flexibility Score: inf
ROOT
ATOM      1  C   UNL     1      21.030  -6.444  16.601  1.00  0.00     0.000 C 
ENDROOT
BRANCH   1   2
ATOM      2  C   UNL     1      21.020  -6.347  15.071  1.00  0.00    -0.000 C 
BRANCH   2   3
ATOM      3  C   UNL     1      21.734  -5.076  14.593  1.00  0.00    -0.000 C 
BRANCH   3   4
ATOM      4  C   UNL     1      20.723  -3.969  14.257  1.00  0.00    -0.000 C 
BRANCH   4   5
ATOM      5  C   UNL     1      20.506  -2.998  15.437  1.00  0.00    -0.000 C 
BRANCH   5   6
ATOM      6  C   UNL     1      19.169  -3.206  16.167  1.00  0.00    -0.003 C 
ATOM      7  C   UNL     1      18.107  -3.871  15.294  1.00  0.00     0.004 C 
ENDBRANCH   5   6
ENDBRANCH   4   5
ENDBRANCH   3   4
ENDBRANCH   2   3
ENDBRANCH   1   2
BRANCH   1   8
ATOM      8  C   UNL     1      19.659  -6.888  17.132  1.00  0.00     0.000 C 
BRANCH   8   9
ATOM      9  C   UNL     1      18.742  -7.433  16.025  1.00  0.00     0.000 C 
BRANCH   9  10
ATOM     10  C   UNL     1      18.280  -8.875  16.296  1.00  0.00     0.002 C 
BRANCH  10  11
ATOM     11  C   UNL     1      17.121  -9.307  15.380  1.00  0.00     0.028 C 
BRANCH  11  12
ATOM     12  C   UNL     1      16.512  -8.156  14.574  1.00  0.00     0.156 C 
BRANCH  12  13
ATOM     13  O   UNL     1      16.276  -8.557  13.253  1.00  0.00    -0.396 OA
ATOM     14  H   UNL     1      17.048  -8.230  12.723  1.00  0.00     0.210 HD
ENDBRANCH  12  13
ENDBRANCH  11  12
ENDBRANCH  10  11
ENDBRANCH   9  10
ENDBRANCH   8   9
ENDBRANCH   1   8
TORSDOF 11
ENDMDL
MODEL 2
REMARK VINA RESULT:    -4.931      4.311      6.563
REMARK INTER + INTRA:          -9.091
REMARK INTER:                  -8.036
REMARK INTRA:                  -1.054
REMARK UNBOUND:                -1.132
REMARK SMILES CCCCCCCCCCCCO
REMARK SMILES IDX 7 1 6 2 5 3 4 4 3 5 2 6 1 7 8 8 9 9 10 10 11 11 12 12 13 13
REMARK H PARENT 13 14
REMARK Flexibility Score: inf
ROOT
ATOM      1  C   UNL     1      22.363  -5.089  14.826  1.00  0.00     0.000 C 
ENDROOT
BRANCH   1   2
ATOM      2  C   UNL     1      21.208  -6.098  14.822  1.00  0.00    -0.000 C 
BRANCH   2   3
ATOM      3  C   UNL     1      20.804  -6.480  16.251  1.00  0.00    -0.000 C 
BRANCH   3   4
ATOM      4  C   UNL     1      19.405  -5.946  16.590  1.00  0.00    -0.000 C 
BRANCH   4   5
ATOM      5  C   UNL     1      19.457  -4.562  17.272  1.00  0.00    -0.000 C 
BRANCH   5   6
ATOM      6  C   UNL     1      19.087  -3.400  16.336  1.00  0.00    -0.003 C 
ATOM      7  C   UNL     1      18.231  -3.836  15.149  1.00  0.00     0.004 C 
ENDBRANCH   5   6
ENDBRANCH   4   5
ENDBRANCH   3   4
ENDBRANCH   2   3
ENDBRANCH   1   2
BRANCH   1   8
ATOM      8  C   UNL     1      23.019  -5.010  16.212  1.00  0.00     0.000 C 
BRANCH   8   9
ATOM      9  C   UNL     1      23.100  -3.572  16.750  1.00  0.00     0.000 C 
BRANCH   9  10
ATOM     10  C   UNL     1      24.489  -3.229  17.314  1.00  0.00     0.002 C 
BRANCH  10  11
ATOM     11  C   UNL     1      25.057  -1.921  16.733  1.00  0.00     0.028 C 
BRANCH  11  12
ATOM     12  C   UNL     1      25.149  -0.784  17.754  1.00  0.00     0.156 C 
BRANCH  12  13
ATOM     13  O   UNL     1      23.880  -0.246  18.001  1.00  0.00    -0.396 OA
ATOM     14  H   UNL     1      23.337  -0.984  18.384  1.00  0.00     0.210 HD
ENDBRANCH  12  13
ENDBRANCH  11  12
ENDBRANCH  10  11
ENDBRANCH   9  10
ENDBRANCH   8   9
ENDBRANCH   1   8
TORSDOF 11
ENDMDL
MODEL 3
REMARK VINA RESULT:    -4.865      1.037      1.805
REMARK INTER + INTRA:          -8.984
REMARK INTER:                  -8.137
REMARK INTRA:                  -0.846
REMARK UNBOUND:                -1.132
REMARK SMILES CCCCCCCCCCCCO
REMARK SMILES IDX 7 1 6 2 5 3 4 4 3 5 2 6 1 7 8 8 9 9 10 10 11 11 12 12 13 13
REMARK H PARENT 13 14
REMARK Flexibility Score: inf
ROOT
ATOM      1  C   UNL     1      19.350  -7.141  16.915  1.00  0.00     0.000 C 
ENDROOT
BRANCH   1   2
ATOM      2  C   UNL     1      20.723  -6.692  16.397  1.00  0.00    -0.000 C 
BRANCH   2   3
ATOM      3  C   UNL     1      20.656  -6.313  14.913  1.00  0.00    -0.000 C 
BRANCH   3   4
ATOM      4  C   UNL     1      21.413  -5.004  14.644  1.00  0.00    -0.000 C 
BRANCH   4   5
ATOM      5  C   UNL     1      20.467  -3.855  14.233  1.00  0.00    -0.000 C 
BRANCH   5   6
ATOM      6  C   UNL     1      19.086  -3.925  14.906  1.00  0.00    -0.003 C 
ATOM      7  C   UNL     1      19.081  -3.356  16.323  1.00  0.00     0.004 C 
ENDBRANCH   5   6
ENDBRANCH   4   5
ENDBRANCH   3   4
ENDBRANCH   2   3
ENDBRANCH   1   2
BRANCH   1   8
ATOM      8  C   UNL     1      18.422  -7.523  15.752  1.00  0.00     0.000 C 
BRANCH   8   9
ATOM      9  C   UNL     1      17.932  -8.977  15.837  1.00  0.00     0.000 C 
BRANCH   9  10
ATOM     10  C   UNL     1      16.537  -9.168  15.217  1.00  0.00     0.002 C 
BRANCH  10  11
ATOM     11  C   UNL     1      16.181  -8.061  14.209  1.00  0.00     0.028 C 
BRANCH  11  12
ATOM     12  C   UNL     1      14.697  -7.681  14.213  1.00  0.00     0.156 C 
BRANCH  12  13
ATOM     13  O   UNL     1      14.480  -6.558  13.404  1.00  0.00    -0.396 OA
ATOM     14  H   UNL     1      15.056  -5.838  13.771  1.00  0.00     0.210 HD
ENDBRANCH  12  13
ENDBRANCH  11  12
ENDBRANCH  10  11
ENDBRANCH   9  10
ENDBRANCH   8   9
ENDBRANCH   1   8
TORSDOF 11
ENDMDL
MODEL 4
REMARK VINA RESULT:    -4.836      4.523      6.863
REMARK INTER + INTRA:          -8.937
REMARK INTER:                  -8.175
REMARK INTRA:                  -0.762
REMARK UNBOUND:                -1.132
REMARK SMILES CCCCCCCCCCCCO
REMARK SMILES IDX 7 1 6 2 5 3 4 4 3 5 2 6 1 7 8 8 9 9 10 10 11 11 12 12 13 13
REMARK H PARENT 13 14
REMARK Flexibility Score: inf
ROOT
ATOM      1  C   UNL     1      22.664  -4.746  15.927  1.00  0.00     0.000 C 
ENDROOT
BRANCH   1   2
ATOM      2  C   UNL     1      22.011  -5.144  14.597  1.00  0.00    -0.000 C 
BRANCH   2   3
ATOM      3  C   UNL     1      20.887  -4.171  14.221  1.00  0.00    -0.000 C 
BRANCH   3   4
ATOM      4  C   UNL     1      20.544  -3.243  15.396  1.00  0.00    -0.000 C 
BRANCH   4   5
ATOM      5  C   UNL     1      19.132  -3.511  15.958  1.00  0.00    -0.000 C 
BRANCH   5   6
ATOM      6  C   UNL     1      19.130  -4.364  17.237  1.00  0.00    -0.003 C 
ATOM      7  C   UNL     1      19.298  -5.857  16.962  1.00  0.00     0.004 C 
ENDBRANCH   5   6
ENDBRANCH   4   5
ENDBRANCH   3   4
ENDBRANCH   2   3
ENDBRANCH   1   2
BRANCH   1   8
ATOM      8  C   UNL     1      24.196  -4.820  15.831  1.00  0.00     0.000 C 
BRANCH   8   9
ATOM      9  C   UNL     1      24.899  -4.077  16.978  1.00  0.00     0.000 C 
BRANCH   9  10
ATOM     10  C   UNL     1      24.412  -2.626  17.130  1.00  0.00     0.002 C 
BRANCH  10  11
ATOM     11  C   UNL     1      25.528  -1.597  16.878  1.00  0.00     0.028 C 
BRANCH  11  12
ATOM     12  C   UNL     1      25.265  -0.234  17.525  1.00  0.00     0.156 C 
BRANCH  12  13
ATOM     13  O   UNL     1      23.985  -0.204  18.094  1.00  0.00    -0.396 OA
ATOM     14  H   UNL     1      23.365  -0.542  17.397  1.00  0.00     0.210 HD
ENDBRANCH  12  13
ENDBRANCH  11  12
ENDBRANCH  10  11
ENDBRANCH   9  10
ENDBRANCH   8   9
ENDBRANCH   1   8
TORSDOF 11
ENDMDL
MODEL 5
REMARK VINA RESULT:    -4.809      4.778      7.118
REMARK INTER + INTRA:          -8.892
REMARK INTER:                  -8.099
REMARK INTRA:                  -0.793
REMARK UNBOUND:                -1.132
REMARK SMILES CCCCCCCCCCCCO
REMARK SMILES IDX 7 1 6 2 5 3 4 4 3 5 2 6 1 7 8 8 9 9 10 10 11 11 12 12 13 13
REMARK H PARENT 13 14
REMARK Flexibility Score: inf
ROOT
ATOM      1  C   UNL     1      22.716  -3.896  16.421  1.00  0.00     0.000 C 
ENDROOT
BRANCH   1   2
ATOM      2  C   UNL     1      22.980  -5.007  15.397  1.00  0.00    -0.000 C 
BRANCH   2   3
ATOM      3  C   UNL     1      21.705  -5.356  14.620  1.00  0.00    -0.000 C 
BRANCH   3   4
ATOM      4  C   UNL     1      20.834  -4.110  14.400  1.00  0.00    -0.000 C 
BRANCH   4   5
ATOM      5  C   UNL     1      19.331  -4.407  14.589  1.00  0.00    -0.000 C 
BRANCH   5   6
ATOM      6  C   UNL     1      18.681  -3.594  15.721  1.00  0.00    -0.003 C 
ATOM      7  C   UNL     1      18.995  -4.143  17.110  1.00  0.00     0.004 C 
ENDBRANCH   5   6
ENDBRANCH   4   5
ENDBRANCH   3   4
ENDBRANCH   2   3
ENDBRANCH   1   2
BRANCH   1   8
ATOM      8  C   UNL     1      23.977  -3.598  17.246  1.00  0.00     0.000 C 
BRANCH   8   9
ATOM      9  C   UNL     1      25.263  -3.655  16.405  1.00  0.00     0.000 C 
BRANCH   9  10
ATOM     10  C   UNL     1      26.206  -2.472  16.686  1.00  0.00     0.002 C 
BRANCH  10  11
ATOM     11  C   UNL     1      25.518  -1.109  16.496  1.00  0.00     0.028 C 
BRANCH  11  12
ATOM     12  C   UNL     1      25.375  -0.307  17.793  1.00  0.00     0.156 C 
BRANCH  12  13
ATOM     13  O   UNL     1      24.022  -0.126  18.108  1.00  0.00    -0.396 OA
ATOM     14  H   UNL     1      23.766  -0.897  18.678  1.00  0.00     0.210 HD
ENDBRANCH  12  13
ENDBRANCH  11  12
ENDBRANCH  10  11
ENDBRANCH   9  10
ENDBRANCH   8   9
ENDBRANCH   1   8
TORSDOF 11
ENDMDL
MODEL 6
REMARK VINA RESULT:    -4.755      3.298      5.478
REMARK INTER + INTRA:          -8.806
REMARK INTER:                  -7.674
REMARK INTRA:                  -1.132
REMARK UNBOUND:                -1.132
REMARK SMILES CCCCCCCCCCCCO
REMARK SMILES IDX 7 1 6 2 5 3 4 4 3 5 2 6 1 7 8 8 9 9 10 10 11 11 12 12 13 13
REMARK H PARENT 13 14
REMARK Flexibility Score: inf
ROOT
ATOM      1  C   UNL     1      21.357  -5.992  14.791  1.00  0.00     0.000 C 
ENDROOT
BRANCH   1   2
ATOM      2  C   UNL     1      20.979  -6.475  16.197  1.00  0.00    -0.000 C 
BRANCH   2   3
ATOM      3  C   UNL     1      19.507  -6.180  16.506  1.00  0.00    -0.000 C 
BRANCH   3   4
ATOM      4  C   UNL     1      18.776  -5.654  15.261  1.00  0.00    -0.000 C 
BRANCH   4   5
ATOM      5  C   UNL     1      18.298  -4.197  15.436  1.00  0.00    -0.000 C 
BRANCH   5   6
ATOM      6  C   UNL     1      19.041  -3.434  16.545  1.00  0.00    -0.003 C 
ATOM      7  C   UNL     1      20.118  -2.494  16.006  1.00  0.00     0.004 C 
ENDBRANCH   5   6
ENDBRANCH   4   5
ENDBRANCH   3   4
ENDBRANCH   2   3
ENDBRANCH   1   2
BRANCH   1   8
ATOM      8  C   UNL     1      22.664  -5.187  14.820  1.00  0.00     0.000 C 
BRANCH   8   9
ATOM      9  C   UNL     1      22.938  -4.549  16.191  1.00  0.00     0.000 C 
BRANCH   9  10
ATOM     10  C   UNL     1      24.440  -4.372  16.472  1.00  0.00     0.002 C 
BRANCH  10  11
ATOM     11  C   UNL     1      25.250  -5.649  16.185  1.00  0.00     0.028 C 
BRANCH  11  12
ATOM     12  C   UNL     1      25.402  -6.567  17.401  1.00  0.00     0.156 C 
BRANCH  12  13
ATOM     13  O   UNL     1      24.287  -7.406  17.520  1.00  0.00    -0.396 OA
ATOM     14  H   UNL     1      24.107  -7.491  18.492  1.00  0.00     0.210 HD
ENDBRANCH  12  13
ENDBRANCH  11  12
ENDBRANCH  10  11
ENDBRANCH   9  10
ENDBRANCH   8   9
ENDBRANCH   1   8
TORSDOF 11
ENDMDL
MODEL 7
REMARK VINA RESULT:    -4.725      1.471      2.651
REMARK INTER + INTRA:          -8.758
REMARK INTER:                  -8.029
REMARK INTRA:                  -0.728
REMARK UNBOUND:                -1.132
REMARK SMILES CCCCCCCCCCCCO
REMARK SMILES IDX 7 1 6 2 5 3 4 4 3 5 2 6 1 7 8 8 9 9 10 10 11 11 12 12 13 13
REMARK H PARENT 13 14
REMARK Flexibility Score: inf
ROOT
ATOM      1  C   UNL     1      18.476  -7.515  15.558  1.00  0.00     0.000 C 
ENDROOT
BRANCH   1   2
ATOM      2  C   UNL     1      19.907  -7.182  16.000  1.00  0.00    -0.000 C 
BRANCH   2   3
ATOM      3  C   UNL     1      19.910  -6.406  17.323  1.00  0.00    -0.000 C 
BRANCH   3   4
ATOM      4  C   UNL     1      20.202  -4.917  17.088  1.00  0.00    -0.000 C 
BRANCH   4   5
ATOM      5  C   UNL     1      18.911  -4.083  16.949  1.00  0.00    -0.000 C 
BRANCH   5   6
ATOM      6  C   UNL     1      18.564  -3.722  15.496  1.00  0.00    -0.003 C 
ATOM      7  C   UNL     1      19.778  -3.736  14.569  1.00  0.00     0.004 C 
ENDBRANCH   5   6
ENDBRANCH   4   5
ENDBRANCH   3   4
ENDBRANCH   2   3
ENDBRANCH   1   2
BRANCH   1   8
ATOM      8  C   UNL     1      18.035  -8.880  16.106  1.00  0.00     0.000 C 
BRANCH   8   9
ATOM      9  C   UNL     1      16.803  -9.443  15.379  1.00  0.00     0.000 C 
BRANCH   9  10
ATOM     10  C   UNL     1      16.131  -8.404  14.464  1.00  0.00     0.002 C 
BRANCH  10  11
ATOM     11  C   UNL     1      14.610  -8.609  14.354  1.00  0.00     0.028 C 
BRANCH  11  12
ATOM     12  C   UNL     1      13.825  -7.304  14.184  1.00  0.00     0.156 C 
BRANCH  12  13
ATOM     13  O   UNL     1      14.493  -6.445  13.302  1.00  0.00    -0.396 OA
ATOM     14  H   UNL     1      15.128  -7.012  12.793  1.00  0.00     0.210 HD
ENDBRANCH  12  13
ENDBRANCH  11  12
ENDBRANCH  10  11
ENDBRANCH   9  10
ENDBRANCH   8   9
ENDBRANCH   1   8
TORSDOF 11
ENDMDL
MODEL 8
REMARK VINA RESULT:    -4.724      3.873      6.057
REMARK INTER + INTRA:          -8.755
REMARK INTER:                  -7.624
REMARK INTRA:                  -1.132
REMARK UNBOUND:                -1.132
REMARK SMILES CCCCCCCCCCCCO
REMARK SMILES IDX 7 1 6 2 5 3 4 4 3 5 2 6 1 7 8 8 9 9 10 10 11 11 12 12 13 13
REMARK H PARENT 13 14
REMARK Flexibility Score: inf
ROOT
ATOM      1  C   UNL     1      21.155  -6.032  14.744  1.00  0.00     0.000 C 
ENDROOT
BRANCH   1   2
ATOM      2  C   UNL     1      20.935  -6.779  16.066  1.00  0.00    -0.000 C 
BRANCH   2   3
ATOM      3  C   UNL     1      19.626  -6.342  16.735  1.00  0.00    -0.000 C 
BRANCH   3   4
ATOM      4  C   UNL     1      19.755  -4.933  17.332  1.00  0.00    -0.000 C 
BRANCH   4   5
ATOM      5  C   UNL     1      18.695  -3.961  16.770  1.00  0.00    -0.000 C 
BRANCH   5   6
ATOM      6  C   UNL     1      19.201  -3.111  15.593  1.00  0.00    -0.003 C 
ATOM      7  C   UNL     1      20.580  -2.504  15.843  1.00  0.00     0.004 C 
ENDBRANCH   5   6
ENDBRANCH   4   5
ENDBRANCH   3   4
ENDBRANCH   2   3
ENDBRANCH   1   2
BRANCH   1   8
ATOM      8  C   UNL     1      22.509  -5.307  14.742  1.00  0.00     0.000 C 
BRANCH   8   9
ATOM      9  C   UNL     1      23.175  -5.289  16.128  1.00  0.00     0.000 C 
BRANCH   9  10
ATOM     10  C   UNL     1      24.435  -4.407  16.168  1.00  0.00     0.002 C 
BRANCH  10  11
ATOM     11  C   UNL     1      24.372  -3.335  17.270  1.00  0.00     0.028 C 
BRANCH  11  12
ATOM     12  C   UNL     1      24.618  -1.913  16.759  1.00  0.00     0.156 C 
BRANCH  12  13
ATOM     13  O   UNL     1      23.989  -0.980  17.594  1.00  0.00    -0.396 OA
ATOM     14  H   UNL     1      24.015  -0.115  17.109  1.00  0.00     0.210 HD
ENDBRANCH  12  13
ENDBRANCH  11  12
ENDBRANCH  10  11
ENDBRANCH   9  10
ENDBRANCH   8   9
ENDBRANCH   1   8
TORSDOF 11
ENDMDL
MODEL 9
REMARK VINA RESULT:    -4.668      3.441      4.856
REMARK INTER + INTRA:          -8.665
REMARK INTER:                  -7.690
REMARK INTRA:                  -0.976
REMARK UNBOUND:                -1.132
REMARK SMILES CCCCCCCCCCCCO
REMARK SMILES IDX 7 1 6 2 5 3 4 4 3 5 2 6 1 7 8 8 9 9 10 10 11 11 12 12 13 13
REMARK H PARENT 13 14
REMARK Flexibility Score: inf
ROOT
ATOM      1  C   UNL     1      22.127  -3.775  16.449  1.00  0.00     0.000 C 
ENDROOT
BRANCH   1   2
ATOM      2  C   UNL     1      22.691  -4.840  15.500  1.00  0.00    -0.000 C 
BRANCH   2   3
ATOM      3  C   UNL     1      24.196  -5.033  15.718  1.00  0.00    -0.000 C 
BRANCH   3   4
ATOM      4  C   UNL     1      24.734  -4.042  16.762  1.00  0.00    -0.000 C 
BRANCH   4   5
ATOM      5  C   UNL     1      26.045  -3.367  16.306  1.00  0.00    -0.000 C 
BRANCH   5   6
ATOM      6  C   UNL     1      26.153  -1.890  16.718  1.00  0.00    -0.003 C 
ATOM      7  C   UNL     1      24.799  -1.253  17.022  1.00  0.00     0.004 C 
ENDBRANCH   5   6
ENDBRANCH   4   5
ENDBRANCH   3   4
ENDBRANCH   2   3
ENDBRANCH   1   2
BRANCH   1   8
ATOM      8  C   UNL     1      20.954  -3.026  15.800  1.00  0.00     0.000 C 
BRANCH   8   9
ATOM      9  C   UNL     1      20.257  -3.849  14.704  1.00  0.00     0.000 C 
BRANCH   9  10
ATOM     10  C   UNL     1      18.914  -4.437  15.170  1.00  0.00     0.002 C 
BRANCH  10  11
ATOM     11  C   UNL     1      18.970  -5.964  15.356  1.00  0.00     0.028 C 
BRANCH  11  12
ATOM     12  C   UNL     1      19.513  -6.397  16.721  1.00  0.00     0.156 C 
BRANCH  12  13
ATOM     13  O   UNL     1      19.244  -5.418  17.686  1.00  0.00    -0.396 OA
ATOM     14  H   UNL     1      19.833  -5.621  18.457  1.00  0.00     0.210 HD
ENDBRANCH  12  13
ENDBRANCH  11  12
ENDBRANCH  10  11
ENDBRANCH   9  10
ENDBRANCH   8   9
ENDBRANCH   1   8
TORSDOF 11
ENDMDL
