MODEL 1
REMARK VINA RESULT:    -3.065      0.000      0.000
REMARK INTER + INTRA:          -3.261
REMARK INTER:                  -3.244
REMARK INTRA:                  -0.016
REMARK UNBOUND:                -0.016
REMARK SMILES O=C([O-])c1cccnc1
REMARK SMILES IDX 4 1 5 2 9 3 6 4 8 5 7 6 2 7 1 8 3 9
REMARK H PARENT
REMARK Flexibility Score: inf
ROOT
ATOM      1  C   UNL     1     -46.845 -19.496  26.893  1.00  0.00     0.016 A 
ATOM      2  C   UNL     1     -46.949 -18.096  26.889  1.00  0.00     0.013 A 
ATOM      3  C   UNL     1     -45.649 -20.079  26.437  1.00  0.00     0.120 A 
ATOM      4  C   UNL     1     -45.883 -17.314  26.439  1.00  0.00     0.021 A 
ATOM      5  N   UNL     1     -44.626 -19.295  26.005  1.00  0.00    -0.264 NA
ATOM      6  C   UNL     1     -44.717 -17.939  25.997  1.00  0.00     0.111 A 
ENDROOT
BRANCH   1   7
ATOM      7  C   UNL     1     -47.963 -20.342  27.365  1.00  0.00     0.073 C 
ATOM      8  O   UNL     1     -48.199 -20.462  28.597  1.00  0.00    -0.545 OA
ATOM      9  O   UNL     1     -48.768 -21.016  26.454  1.00  0.00    -0.545 OA
ENDBRANCH   1   7
TORSDOF 1
ENDMDL
MODEL 2
REMARK VINA RESULT:    -3.053      2.530      3.286
REMARK INTER + INTRA:          -3.248
REMARK INTER:                  -3.227
REMARK INTRA:                  -0.022
REMARK UNBOUND:                -0.016
REMARK SMILES O=C([O-])c1cccnc1
REMARK SMILES IDX 4 1 5 2 9 3 6 4 8 5 7 6 2 7 1 8 3 9
REMARK H PARENT
REMARK Flexibility Score: inf
ROOT
ATOM      1  C   UNL     1     -45.982 -21.542  27.773  1.00  0.00     0.016 A 
ATOM      2  C   UNL     1     -47.282 -21.165  28.148  1.00  0.00     0.013 A 
ATOM      3  C   UNL     1     -45.319 -20.775  26.799  1.00  0.00     0.120 A 
ATOM      4  C   UNL     1     -47.889 -20.054  27.558  1.00  0.00     0.021 A 
ATOM      5  N   UNL     1     -45.933 -19.698  26.240  1.00  0.00    -0.264 NA
ATOM      6  C   UNL     1     -47.190 -19.325  26.596  1.00  0.00     0.111 A 
ENDROOT
BRANCH   1   7
ATOM      7  C   UNL     1     -45.323 -22.716  28.385  1.00  0.00     0.073 C 
ATOM      8  O   UNL     1     -44.070 -22.749  28.518  1.00  0.00    -0.545 OA
ATOM      9  O   UNL     1     -46.077 -23.799  28.822  1.00  0.00    -0.545 OA
ENDBRANCH   1   7
TORSDOF 1
ENDMDL
MODEL 3
REMARK VINA RESULT:    -3.041      7.049      7.868
REMARK INTER + INTRA:          -3.235
REMARK INTER:                  -3.212
REMARK INTRA:                  -0.022
REMARK UNBOUND:                -0.016
REMARK SMILES O=C([O-])c1cccnc1
REMARK SMILES IDX 4 1 5 2 9 3 6 4 8 5 7 6 2 7 1 8 3 9
REMARK H PARENT
REMARK Flexibility Score: inf
ROOT
ATOM      1  C   UNL     1     -39.156 -19.944  27.199  1.00  0.00     0.016 A 
ATOM      2  C   UNL     1     -38.487 -20.450  26.074  1.00  0.00     0.013 A 
ATOM      3  C   UNL     1     -39.819 -18.709  27.084  1.00  0.00     0.120 A 
ATOM      4  C   UNL     1     -38.487 -19.733  24.876  1.00  0.00     0.021 A 
ATOM      5  N   UNL     1     -39.803 -18.031  25.905  1.00  0.00    -0.264 NA
ATOM      6  C   UNL     1     -39.158 -18.512  24.810  1.00  0.00     0.111 A 
ENDROOT
BRANCH   1   7
ATOM      7  C   UNL     1     -39.167 -20.688  28.478  1.00  0.00     0.073 C 
ATOM      8  O   UNL     1     -40.071 -20.480  29.331  1.00  0.00    -0.545 OA
ATOM      9  O   UNL     1     -38.179 -21.625  28.755  1.00  0.00    -0.545 OA
ENDBRANCH   1   7
TORSDOF 1
ENDMDL
MODEL 4
REMARK VINA RESULT:    -3.036      2.302      3.364
REMARK INTER + INTRA:          -3.230
REMARK INTER:                  -3.212
REMARK INTRA:                  -0.018
REMARK UNBOUND:                -0.016
REMARK SMILES O=C([O-])c1cccnc1
REMARK SMILES IDX 4 1 5 2 9 3 6 4 8 5 7 6 2 7 1 8 3 9
REMARK H PARENT
REMARK Flexibility Score: inf
ROOT
ATOM      1  C   UNL     1     -46.620 -19.221  26.712  1.00  0.00     0.016 A 
ATOM      2  C   UNL     1     -47.602 -19.797  27.535  1.00  0.00     0.013 A 
ATOM      3  C   UNL     1     -45.449 -19.955  26.455  1.00  0.00     0.120 A 
ATOM      4  C   UNL     1     -47.405 -21.068  28.078  1.00  0.00     0.021 A 
ATOM      5  N   UNL     1     -45.283 -21.192  26.997  1.00  0.00    -0.264 NA
ATOM      6  C   UNL     1     -46.227 -21.757  27.794  1.00  0.00     0.111 A 
ENDROOT
BRANCH   1   7
ATOM      7  C   UNL     1     -46.809 -17.875  26.128  1.00  0.00     0.073 C 
ATOM      8  O   UNL     1     -46.811 -17.715  24.878  1.00  0.00    -0.545 OA
ATOM      9  O   UNL     1     -46.986 -16.769  26.951  1.00  0.00    -0.545 OA
ENDBRANCH   1   7
TORSDOF 1
ENDMDL
MODEL 5
REMARK VINA RESULT:    -2.892      6.620      7.589
REMARK INTER + INTRA:          -3.078
REMARK INTER:                  -3.061
REMARK INTRA:                  -0.017
REMARK UNBOUND:                -0.016
REMARK SMILES O=C([O-])c1cccnc1
REMARK SMILES IDX 4 1 5 2 9 3 6 4 8 5 7 6 2 7 1 8 3 9
REMARK H PARENT
REMARK Flexibility Score: inf
ROOT
ATOM      1  C   UNL     1     -39.929 -19.558  27.038  1.00  0.00     0.016 A 
ATOM      2  C   UNL     1     -38.859 -20.020  27.821  1.00  0.00     0.013 A 
ATOM      3  C   UNL     1     -41.096 -20.341  26.972  1.00  0.00     0.120 A 
ATOM      4  C   UNL     1     -38.965 -21.230  28.511  1.00  0.00     0.021 A 
ATOM      5  N   UNL     1     -41.173 -21.515  27.654  1.00  0.00    -0.264 NA
ATOM      6  C   UNL     1     -40.143 -21.970  28.414  1.00  0.00     0.111 A 
ENDROOT
BRANCH   1   7
ATOM      7  C   UNL     1     -39.837 -18.281  26.299  1.00  0.00     0.073 C 
ATOM      8  O   UNL     1     -40.490 -17.273  26.679  1.00  0.00    -0.545 OA
ATOM      9  O   UNL     1     -39.027 -18.176  25.174  1.00  0.00    -0.545 OA
ENDBRANCH   1   7
TORSDOF 1
ENDMDL
MODEL 6
REMARK VINA RESULT:    -2.880      6.634      7.249
REMARK INTER + INTRA:          -3.064
REMARK INTER:                  -3.041
REMARK INTRA:                  -0.023
REMARK UNBOUND:                -0.016
REMARK SMILES O=C([O-])c1cccnc1
REMARK SMILES IDX 4 1 5 2 9 3 6 4 8 5 7 6 2 7 1 8 3 9
REMARK H PARENT
REMARK Flexibility Score: inf
ROOT
ATOM      1  C   UNL     1     -40.574 -22.446  28.456  1.00  0.00     0.016 A 
ATOM      2  C   UNL     1     -40.321 -21.071  28.590  1.00  0.00     0.013 A 
ATOM      3  C   UNL     1     -39.487 -23.305  28.212  1.00  0.00     0.120 A 
ATOM      4  C   UNL     1     -39.017 -20.583  28.480  1.00  0.00     0.021 A 
ATOM      5  N   UNL     1     -38.227 -22.804  28.109  1.00  0.00    -0.264 NA
ATOM      6  C   UNL     1     -37.972 -21.475  28.237  1.00  0.00     0.111 A 
ENDROOT
BRANCH   1   7
ATOM      7  C   UNL     1     -41.947 -22.982  28.568  1.00  0.00     0.073 C 
ATOM      8  O   UNL     1     -42.869 -22.282  29.066  1.00  0.00    -0.545 OA
ATOM      9  O   UNL     1     -42.239 -24.268  28.127  1.00  0.00    -0.545 OA
ENDBRANCH   1   7
TORSDOF 1
ENDMDL
MODEL 7
REMARK VINA RESULT:    -2.856      7.577      8.471
REMARK INTER + INTRA:          -3.040
REMARK INTER:                  -3.017
REMARK INTRA:                  -0.023
REMARK UNBOUND:                -0.016
REMARK SMILES O=C([O-])c1cccnc1
REMARK SMILES IDX 4 1 5 2 9 3 6 4 8 5 7 6 2 7 1 8 3 9
REMARK H PARENT
REMARK Flexibility Score: inf
ROOT
ATOM      1  C   UNL     1     -38.873 -19.964  26.701  1.00  0.00     0.016 A 
ATOM      2  C   UNL     1     -38.806 -20.270  28.070  1.00  0.00     0.013 A 
ATOM      3  C   UNL     1     -38.431 -20.928  25.778  1.00  0.00     0.120 A 
ATOM      4  C   UNL     1     -38.308 -21.505  28.489  1.00  0.00     0.021 A 
ATOM      5  N   UNL     1     -37.950 -22.123  26.212  1.00  0.00    -0.264 NA
ATOM      6  C   UNL     1     -37.881 -22.429  27.534  1.00  0.00     0.111 A 
ENDROOT
BRANCH   1   7
ATOM      7  C   UNL     1     -39.397 -18.661  26.236  1.00  0.00     0.073 C 
ATOM      8  O   UNL     1     -40.126 -17.960  26.987  1.00  0.00    -0.545 OA
ATOM      9  O   UNL     1     -39.091 -18.193  24.964  1.00  0.00    -0.545 OA
ENDBRANCH   1   7
TORSDOF 1
ENDMDL
MODEL 8
REMARK VINA RESULT:    -2.819      5.639      6.396
REMARK INTER + INTRA:          -3.000
REMARK INTER:                  -2.981
REMARK INTRA:                  -0.019
REMARK UNBOUND:                -0.016
REMARK SMILES O=C([O-])c1cccnc1
REMARK SMILES IDX 4 1 5 2 9 3 6 4 8 5 7 6 2 7 1 8 3 9
REMARK H PARENT
REMARK Flexibility Score: inf
ROOT
ATOM      1  C   UNL     1     -40.998 -21.370  28.122  1.00  0.00     0.016 A 
ATOM      2  C   UNL     1     -39.758 -20.977  28.652  1.00  0.00     0.013 A 
ATOM      3  C   UNL     1     -41.478 -20.705  26.981  1.00  0.00     0.120 A 
ATOM      4  C   UNL     1     -39.032 -19.947  28.050  1.00  0.00     0.021 A 
ATOM      5  N   UNL     1     -40.751 -19.705  26.414  1.00  0.00    -0.264 NA
ATOM      6  C   UNL     1     -39.551 -19.317  26.919  1.00  0.00     0.111 A 
ENDROOT
BRANCH   1   7
ATOM      7  C   UNL     1     -41.782 -22.458  28.746  1.00  0.00     0.073 C 
ATOM      8  O   UNL     1     -43.005 -22.298  29.004  1.00  0.00    -0.545 OA
ATOM      9  O   UNL     1     -41.180 -23.671  29.057  1.00  0.00    -0.545 OA
ENDBRANCH   1   7
TORSDOF 1
ENDMDL
MODEL 9
REMARK VINA RESULT:    -2.720      7.756      8.693
REMARK INTER + INTRA:          -2.896
REMARK INTER:                  -2.877
REMARK INTRA:                  -0.019
REMARK UNBOUND:                -0.016
REMARK SMILES O=C([O-])c1cccnc1
REMARK SMILES IDX 4 1 5 2 9 3 6 4 8 5 7 6 2 7 1 8 3 9
REMARK H PARENT
REMARK Flexibility Score: inf
ROOT
ATOM      1  C   UNL     1     -38.700 -20.375  26.262  1.00  0.00     0.016 A 
ATOM      2  C   UNL     1     -38.022 -21.215  27.160  1.00  0.00     0.013 A 
ATOM      3  C   UNL     1     -39.823 -19.667  26.726  1.00  0.00     0.120 A 
ATOM      4  C   UNL     1     -38.465 -21.336  28.478  1.00  0.00     0.021 A 
ATOM      5  N   UNL     1     -40.233 -19.803  28.015  1.00  0.00    -0.264 NA
ATOM      6  C   UNL     1     -39.584 -20.613  28.892  1.00  0.00     0.111 A 
ENDROOT
BRANCH   1   7
ATOM      7  C   UNL     1     -38.247 -20.234  24.860  1.00  0.00     0.073 C 
ATOM      8  O   UNL     1     -38.042 -21.253  24.149  1.00  0.00    -0.545 OA
ATOM      9  O   UNL     1     -38.042 -18.974  24.311  1.00  0.00    -0.545 OA
ENDBRANCH   1   7
TORSDOF 1
ENDMDL
