MODEL 1
REMARK VINA RESULT:    -8.577      0.000      0.000
REMARK INTER + INTRA:         -25.059
REMARK INTER:                 -20.360
REMARK INTRA:                  -4.699
REMARK UNBOUND:                -4.699
REMARK SMILES O=C(OC[C@@H]1O[C@@H](OC(=O)c2cc(O)c(O)c(O)c2)[C@@H](OC(=O)c2cc(O)c(O)c(O)c2)[C@H](OC(=O)c2cc(O)c(O)c(O)c2)[C@@H]1OC(=O)c1cc(O)c(O)c(O)c1)c1cc(O)c(O)c(O)c1
REMARK SMILES IDX 5 1 46 2 33 3 20 4 7 5 6 6 4 7 3 8 2 9 1 10 59 11 60 12
REMARK SMILES IDX 61 13 67 14 63 15 65 16 62 17 64 19 66 21 47 23 48 24 49 25
REMARK SMILES IDX 50 26 58 27 51 28 56 29 52 30 54 31 57 32 53 34 55 36 34 38
REMARK SMILES IDX 35 39 36 40 37 41 45 42 38 43 43 44 39 45 41 46 44 47 40 49
REMARK SMILES IDX 42 51 8 53 9 54 10 55 11 56 19 57 12 58 17 59 13 60 15 61
REMARK SMILES IDX 18 62 14 64 16 66 21 68 22 69 23 70 24 71 32 72 25 73 30 74
REMARK SMILES IDX 26 75 28 76 31 77 27 79 29 81
REMARK H PARENT 62 18 64 20 66 22 57 33 53 35 55 37 44 48 40 50 42 52 18 63
REMARK H PARENT 14 65 16 67 31 78 27 80 29 82
REMARK Flexibility Score: inf
ROOT
ATOM      1  C   UNL     1      44.512  25.551  21.502  1.00  0.00     0.205 C 
ATOM      2  C   UNL     1      43.410  26.584  21.825  1.00  0.00     0.254 C 
ATOM      3  C   UNL     1      42.080  25.845  22.073  1.00  0.00     0.267 C 
ATOM      4  C   UNL     1      41.772  24.902  20.896  1.00  0.00     0.290 C 
ATOM      5  C   UNL     1      42.990  24.011  20.597  1.00  0.00     0.357 C 
ATOM      6  O   UNL     1      44.155  24.786  20.360  1.00  0.00    -0.329 OA
ENDROOT
BRANCH   1   7
ATOM      7  C   UNL     1      45.861  26.243  21.245  1.00  0.00     0.269 C 
BRANCH   7   8
ATOM      8  O   UNL     1      46.909  25.280  21.140  1.00  0.00    -0.459 OA
BRANCH   8   9
ATOM      9  C   UNL     1      48.216  25.489  21.594  1.00  0.00     0.338 C 
ATOM     10  O   UNL     1      48.428  26.209  22.607  1.00  0.00    -0.246 OA
BRANCH   9  11
ATOM     11  C   UNL     1      49.345  24.833  20.899  1.00  0.00     0.067 A 
ATOM     12  C   UNL     1      50.593  25.466  20.827  1.00  0.00     0.066 A 
ATOM     13  C   UNL     1      51.662  24.865  20.159  1.00  0.00     0.162 A 
ATOM     14  C   UNL     1      49.183  23.575  20.298  1.00  0.00     0.066 A 
ATOM     15  C   UNL     1      51.496  23.609  19.547  1.00  0.00     0.200 A 
ATOM     16  C   UNL     1      50.242  22.955  19.627  1.00  0.00     0.162 A 
BRANCH  13  17
ATOM     17  O   UNL     1      52.883  25.540  20.098  1.00  0.00    -0.504 OA
ATOM     18  H   UNL     1      53.709  25.213  20.584  1.00  0.00     0.293 HD
ENDBRANCH  13  17
BRANCH  15  19
ATOM     19  O   UNL     1      52.585  23.051  18.871  1.00  0.00    -0.502 OA
ATOM     20  H   UNL     1      52.663  22.074  18.634  1.00  0.00     0.293 HD
ENDBRANCH  15  19
BRANCH  16  21
ATOM     21  O   UNL     1      50.008  21.697  19.065  1.00  0.00    -0.504 OA
ATOM     22  H   UNL     1      50.712  20.986  18.951  1.00  0.00     0.293 HD
ENDBRANCH  16  21
ENDBRANCH   9  11
ENDBRANCH   8   9
ENDBRANCH   7   8
ENDBRANCH   1   7
BRANCH   2  23
ATOM     23  O   UNL     1      43.266  27.485  20.727  1.00  0.00    -0.452 OA
BRANCH  23  24
ATOM     24  C   UNL     1      43.466  28.869  20.818  1.00  0.00     0.338 C 
ATOM     25  O   UNL     1      44.582  29.329  21.188  1.00  0.00    -0.246 OA
BRANCH  24  26
ATOM     26  C   UNL     1      42.363  29.789  20.472  1.00  0.00     0.067 A 
ATOM     27  C   UNL     1      41.592  30.394  21.480  1.00  0.00     0.066 A 
ATOM     28  C   UNL     1      42.080  30.075  19.129  1.00  0.00     0.066 A 
ATOM     29  C   UNL     1      40.555  31.272  21.153  1.00  0.00     0.162 A 
ATOM     30  C   UNL     1      41.040  30.946  18.792  1.00  0.00     0.162 A 
ATOM     31  C   UNL     1      40.271  31.547  19.804  1.00  0.00     0.200 A 
BRANCH  29  32
ATOM     32  O   UNL     1      39.830  31.877  22.180  1.00  0.00    -0.504 OA
ATOM     33  H   UNL     1      40.283  32.260  23.001  1.00  0.00     0.293 HD
ENDBRANCH  29  32
BRANCH  30  34
ATOM     34  O   UNL     1      40.760  31.214  17.450  1.00  0.00    -0.504 OA
ATOM     35  H   UNL     1      40.384  30.497  16.839  1.00  0.00     0.293 HD
ENDBRANCH  30  34
BRANCH  31  36
ATOM     36  O   UNL     1      39.233  32.424  19.484  1.00  0.00    -0.502 OA
ATOM     37  H   UNL     1      38.373  32.107  19.046  1.00  0.00     0.293 HD
ENDBRANCH  31  36
ENDBRANCH  24  26
ENDBRANCH  23  24
ENDBRANCH   2  23
BRANCH   3  38
ATOM     38  O   UNL     1      41.005  26.771  22.221  1.00  0.00    -0.450 OA
BRANCH  38  39
ATOM     39  C   UNL     1      40.755  27.518  23.377  1.00  0.00     0.338 C 
ATOM     40  O   UNL     1      39.680  28.169  23.490  1.00  0.00    -0.246 OA
BRANCH  39  41
ATOM     41  C   UNL     1      41.765  27.547  24.461  1.00  0.00     0.067 A 
ATOM     42  C   UNL     1      42.717  28.577  24.543  1.00  0.00     0.066 A 
ATOM     43  C   UNL     1      41.785  26.526  25.424  1.00  0.00     0.066 A 
ATOM     44  C   UNL     1      43.694  28.573  25.548  1.00  0.00     0.162 A 
ATOM     45  C   UNL     1      42.755  26.511  26.430  1.00  0.00     0.162 A 
ATOM     46  C   UNL     1      43.718  27.532  26.493  1.00  0.00     0.200 A 
BRANCH  44  47
ATOM     47  O   UNL     1      44.643  29.597  25.613  1.00  0.00    -0.504 OA
ATOM     48  H   UNL     1      44.554  30.368  26.267  1.00  0.00     0.293 HD
ENDBRANCH  44  47
BRANCH  45  49
ATOM     49  O   UNL     1      42.748  25.475  27.364  1.00  0.00    -0.504 OA
ATOM     50  H   UNL     1      43.588  24.968  27.610  1.00  0.00     0.293 HD
ENDBRANCH  45  49
BRANCH  46  51
ATOM     51  O   UNL     1      44.686  27.502  27.496  1.00  0.00    -0.502 OA
ATOM     52  H   UNL     1      44.575  26.957  28.345  1.00  0.00     0.293 HD
ENDBRANCH  46  51
ENDBRANCH  39  41
ENDBRANCH  38  39
ENDBRANCH   3  38
BRANCH   5  53
ATOM     53  O   UNL     1      43.212  23.079  21.658  1.00  0.00    -0.428 OA
BRANCH  53  54
ATOM     54  C   UNL     1      43.340  21.699  21.458  1.00  0.00     0.340 C 
ATOM     55  O   UNL     1      42.324  20.953  21.520  1.00  0.00    -0.246 OA
BRANCH  54  56
ATOM     56  C   UNL     1      44.678  21.121  21.204  1.00  0.00     0.067 A 
ATOM     57  C   UNL     1      45.308  20.342  22.189  1.00  0.00     0.066 A 
ATOM     58  C   UNL     1      45.327  21.332  19.976  1.00  0.00     0.066 A 
ATOM     59  C   UNL     1      46.575  19.788  21.956  1.00  0.00     0.162 A 
ATOM     60  C   UNL     1      46.589  20.774  19.734  1.00  0.00     0.162 A 
ATOM     61  C   UNL     1      47.221  20.007  20.726  1.00  0.00     0.200 A 
BRANCH  59  62
ATOM     62  O   UNL     1      47.196  19.021  22.938  1.00  0.00    -0.504 OA
ATOM     63  H   UNL     1      47.928  18.358  22.713  1.00  0.00     0.293 HD
ENDBRANCH  59  62
BRANCH  60  64
ATOM     64  O   UNL     1      47.215  21.001  18.509  1.00  0.00    -0.504 OA
ATOM     65  H   UNL     1      48.062  21.552  18.434  1.00  0.00     0.293 HD
ENDBRANCH  60  64
BRANCH  61  66
ATOM     66  O   UNL     1      48.485  19.468  20.475  1.00  0.00    -0.502 OA
ATOM     67  H   UNL     1      48.730  18.519  20.755  1.00  0.00     0.293 HD
ENDBRANCH  61  66
ENDBRANCH  54  56
ENDBRANCH  53  54
ENDBRANCH   5  53
BRANCH   4  68
ATOM     68  O   UNL     1      40.644  24.077  21.203  1.00  0.00    -0.448 OA
BRANCH  68  69
ATOM     69  C   UNL     1      39.651  24.435  22.127  1.00  0.00     0.339 C 
ATOM     70  O   UNL     1      38.666  25.129  21.758  1.00  0.00    -0.246 OA
BRANCH  69  71
ATOM     71  C   UNL     1      39.737  23.965  23.526  1.00  0.00     0.067 A 
ATOM     72  C   UNL     1      40.549  22.867  23.863  1.00  0.00     0.066 A 
ATOM     73  C   UNL     1      39.011  24.613  24.539  1.00  0.00     0.066 A 
ATOM     74  C   UNL     1      40.660  22.445  25.196  1.00  0.00     0.162 A 
ATOM     75  C   UNL     1      39.100  24.192  25.872  1.00  0.00     0.162 A 
ATOM     76  C   UNL     1      39.949  23.108  26.208  1.00  0.00     0.200 A 
BRANCH  74  77
ATOM     77  O   UNL     1      41.487  21.373  25.529  1.00  0.00    -0.504 OA
ATOM     78  H   UNL     1      42.478  21.497  25.671  1.00  0.00     0.293 HD
ENDBRANCH  74  77
BRANCH  75  79
ATOM     79  O   UNL     1      38.324  24.869  26.817  1.00  0.00    -0.504 OA
ATOM     80  H   UNL     1      38.172  25.865  26.815  1.00  0.00     0.293 HD
ENDBRANCH  75  79
BRANCH  76  81
ATOM     81  O   UNL     1      40.119  22.673  27.524  1.00  0.00    -0.502 OA
ATOM     82  H   UNL     1      40.240  21.709  27.778  1.00  0.00     0.293 HD
ENDBRANCH  76  81
ENDBRANCH  69  71
ENDBRANCH  68  69
ENDBRANCH   4  68
TORSDOF 31
ENDMDL
MODEL 2
REMARK VINA RESULT:    -8.508      0.144      1.788
REMARK INTER + INTRA:         -24.894
REMARK INTER:                 -20.248
REMARK INTRA:                  -4.647
REMARK UNBOUND:                -4.699
REMARK SMILES O=C(OC[C@@H]1O[C@@H](OC(=O)c2cc(O)c(O)c(O)c2)[C@@H](OC(=O)c2cc(O)c(O)c(O)c2)[C@H](OC(=O)c2cc(O)c(O)c(O)c2)[C@@H]1OC(=O)c1cc(O)c(O)c(O)c1)c1cc(O)c(O)c(O)c1
REMARK SMILES IDX 5 1 46 2 33 3 20 4 7 5 6 6 4 7 3 8 2 9 1 10 59 11 60 12
REMARK SMILES IDX 61 13 67 14 63 15 65 16 62 17 64 19 66 21 47 23 48 24 49 25
REMARK SMILES IDX 50 26 58 27 51 28 56 29 52 30 54 31 57 32 53 34 55 36 34 38
REMARK SMILES IDX 35 39 36 40 37 41 45 42 38 43 43 44 39 45 41 46 44 47 40 49
REMARK SMILES IDX 42 51 8 53 9 54 10 55 11 56 19 57 12 58 17 59 13 60 15 61
REMARK SMILES IDX 18 62 14 64 16 66 21 68 22 69 23 70 24 71 32 72 25 73 30 74
REMARK SMILES IDX 26 75 28 76 31 77 27 79 29 81
REMARK H PARENT 62 18 64 20 66 22 57 33 53 35 55 37 44 48 40 50 42 52 18 63
REMARK H PARENT 14 65 16 67 31 78 27 80 29 82
REMARK Flexibility Score: inf
ROOT
ATOM      1  C   UNL     1      44.491  25.562  21.505  1.00  0.00     0.205 C 
ATOM      2  C   UNL     1      43.403  26.612  21.820  1.00  0.00     0.254 C 
ATOM      3  C   UNL     1      42.065  25.891  22.080  1.00  0.00     0.267 C 
ATOM      4  C   UNL     1      41.742  24.940  20.914  1.00  0.00     0.290 C 
ATOM      5  C   UNL     1      42.949  24.031  20.621  1.00  0.00     0.357 C 
ATOM      6  O   UNL     1      44.122  24.789  20.373  1.00  0.00    -0.329 OA
ENDROOT
BRANCH   1   7
ATOM      7  C   UNL     1      45.848  26.235  21.237  1.00  0.00     0.269 C 
BRANCH   7   8
ATOM      8  O   UNL     1      46.883  25.258  21.136  1.00  0.00    -0.459 OA
BRANCH   8   9
ATOM      9  C   UNL     1      48.200  25.463  21.564  1.00  0.00     0.338 C 
ATOM     10  O   UNL     1      48.436  26.185  22.570  1.00  0.00    -0.246 OA
BRANCH   9  11
ATOM     11  C   UNL     1      49.312  24.799  20.848  1.00  0.00     0.067 A 
ATOM     12  C   UNL     1      50.518  25.480  20.633  1.00  0.00     0.066 A 
ATOM     13  C   UNL     1      51.569  24.871  19.945  1.00  0.00     0.162 A 
ATOM     14  C   UNL     1      49.175  23.488  20.370  1.00  0.00     0.066 A 
ATOM     15  C   UNL     1      51.428  23.560  19.455  1.00  0.00     0.200 A 
ATOM     16  C   UNL     1      50.217  22.859  19.680  1.00  0.00     0.162 A 
BRANCH  13  17
ATOM     17  O   UNL     1      52.747  25.593  19.739  1.00  0.00    -0.504 OA
ATOM     18  H   UNL     1      53.634  25.142  19.548  1.00  0.00     0.293 HD
ENDBRANCH  13  17
BRANCH  15  19
ATOM     19  O   UNL     1      52.496  22.994  18.753  1.00  0.00    -0.502 OA
ATOM     20  H   UNL     1      52.666  23.138  17.769  1.00  0.00     0.293 HD
ENDBRANCH  15  19
BRANCH  16  21
ATOM     21  O   UNL     1      50.011  21.547  19.246  1.00  0.00    -0.504 OA
ATOM     22  H   UNL     1      49.219  21.246  18.701  1.00  0.00     0.293 HD
ENDBRANCH  16  21
ENDBRANCH   9  11
ENDBRANCH   8   9
ENDBRANCH   7   8
ENDBRANCH   1   7
BRANCH   2  23
ATOM     23  O   UNL     1      43.267  27.502  20.713  1.00  0.00    -0.452 OA
BRANCH  23  24
ATOM     24  C   UNL     1      43.462  28.888  20.792  1.00  0.00     0.338 C 
ATOM     25  O   UNL     1      44.574  29.355  21.162  1.00  0.00    -0.246 OA
BRANCH  24  26
ATOM     26  C   UNL     1      42.356  29.801  20.438  1.00  0.00     0.067 A 
ATOM     27  C   UNL     1      42.077  30.101  19.093  1.00  0.00     0.066 A 
ATOM     28  C   UNL     1      41.564  30.371  21.445  1.00  0.00     0.066 A 
ATOM     29  C   UNL     1      41.025  30.957  18.758  1.00  0.00     0.162 A 
ATOM     30  C   UNL     1      40.513  31.234  21.120  1.00  0.00     0.162 A 
ATOM     31  C   UNL     1      40.240  31.532  19.773  1.00  0.00     0.200 A 
BRANCH  29  32
ATOM     32  O   UNL     1      40.759  31.211  17.412  1.00  0.00    -0.504 OA
ATOM     33  H   UNL     1      41.502  31.331  16.733  1.00  0.00     0.293 HD
ENDBRANCH  29  32
BRANCH  30  34
ATOM     34  O   UNL     1      39.739  31.805  22.132  1.00  0.00    -0.504 OA
ATOM     35  H   UNL     1      38.903  32.339  21.916  1.00  0.00     0.293 HD
ENDBRANCH  30  34
BRANCH  31  36
ATOM     36  O   UNL     1      39.191  32.388  19.432  1.00  0.00    -0.502 OA
ATOM     37  H   UNL     1      38.220  32.089  19.455  1.00  0.00     0.293 HD
ENDBRANCH  31  36
ENDBRANCH  24  26
ENDBRANCH  23  24
ENDBRANCH   2  23
BRANCH   3  38
ATOM     38  O   UNL     1      41.001  26.832  22.220  1.00  0.00    -0.450 OA
BRANCH  38  39
ATOM     39  C   UNL     1      40.743  27.570  23.381  1.00  0.00     0.338 C 
ATOM     40  O   UNL     1      39.649  28.183  23.511  1.00  0.00    -0.246 OA
BRANCH  39  41
ATOM     41  C   UNL     1      41.768  27.633  24.449  1.00  0.00     0.067 A 
ATOM     42  C   UNL     1      41.858  26.631  25.431  1.00  0.00     0.066 A 
ATOM     43  C   UNL     1      42.664  28.712  24.496  1.00  0.00     0.066 A 
ATOM     44  C   UNL     1      42.804  26.721  26.462  1.00  0.00     0.162 A 
ATOM     45  C   UNL     1      43.610  28.812  25.520  1.00  0.00     0.162 A 
ATOM     46  C   UNL     1      43.680  27.819  26.511  1.00  0.00     0.200 A 
BRANCH  44  47
ATOM     47  O   UNL     1      42.877  25.725  27.440  1.00  0.00    -0.504 OA
ATOM     48  H   UNL     1      42.953  25.948  28.427  1.00  0.00     0.293 HD
ENDBRANCH  44  47
BRANCH  45  49
ATOM     49  O   UNL     1      44.478  29.904  25.537  1.00  0.00    -0.504 OA
ATOM     50  H   UNL     1      45.347  29.890  26.055  1.00  0.00     0.293 HD
ENDBRANCH  45  49
BRANCH  46  51
ATOM     51  O   UNL     1      44.623  27.934  27.532  1.00  0.00    -0.502 OA
ATOM     52  H   UNL     1      44.493  27.512  28.445  1.00  0.00     0.293 HD
ENDBRANCH  46  51
ENDBRANCH  39  41
ENDBRANCH  38  39
ENDBRANCH   3  38
BRANCH   5  53
ATOM     53  O   UNL     1      43.163  23.108  21.692  1.00  0.00    -0.428 OA
BRANCH  53  54
ATOM     54  C   UNL     1      43.280  21.725  21.506  1.00  0.00     0.340 C 
ATOM     55  O   UNL     1      42.258  20.989  21.563  1.00  0.00    -0.246 OA
BRANCH  54  56
ATOM     56  C   UNL     1      44.617  21.133  21.273  1.00  0.00     0.067 A 
ATOM     57  C   UNL     1      45.237  20.375  22.280  1.00  0.00     0.066 A 
ATOM     58  C   UNL     1      45.272  21.309  20.044  1.00  0.00     0.066 A 
ATOM     59  C   UNL     1      46.502  19.808  22.067  1.00  0.00     0.162 A 
ATOM     60  C   UNL     1      46.532  20.739  19.822  1.00  0.00     0.162 A 
ATOM     61  C   UNL     1      47.154  19.993  20.836  1.00  0.00     0.200 A 
BRANCH  59  62
ATOM     62  O   UNL     1      47.114  19.063  23.071  1.00  0.00    -0.504 OA
ATOM     63  H   UNL     1      46.647  18.278  23.511  1.00  0.00     0.293 HD
ENDBRANCH  59  62
BRANCH  60  64
ATOM     64  O   UNL     1      47.165  20.931  18.594  1.00  0.00    -0.504 OA
ATOM     65  H   UNL     1      47.024  21.771  18.045  1.00  0.00     0.293 HD
ENDBRANCH  60  64
BRANCH  61  66
ATOM     66  O   UNL     1      48.416  19.440  20.604  1.00  0.00    -0.502 OA
ATOM     67  H   UNL     1      48.817  19.389  19.668  1.00  0.00     0.293 HD
ENDBRANCH  61  66
ENDBRANCH  54  56
ENDBRANCH  53  54
ENDBRANCH   5  53
BRANCH   4  68
ATOM     68  O   UNL     1      40.605  24.131  21.234  1.00  0.00    -0.448 OA
BRANCH  68  69
ATOM     69  C   UNL     1      39.636  24.497  22.180  1.00  0.00     0.339 C 
ATOM     70  O   UNL     1      38.639  25.184  21.829  1.00  0.00    -0.246 OA
BRANCH  69  71
ATOM     71  C   UNL     1      39.762  24.043  23.581  1.00  0.00     0.067 A 
ATOM     72  C   UNL     1      39.087  24.717  24.615  1.00  0.00     0.066 A 
ATOM     73  C   UNL     1      40.555  22.929  23.898  1.00  0.00     0.066 A 
ATOM     74  C   UNL     1      39.176  24.265  25.938  1.00  0.00     0.162 A 
ATOM     75  C   UNL     1      40.667  22.475  25.219  1.00  0.00     0.162 A 
ATOM     76  C   UNL     1      39.953  23.139  26.249  1.00  0.00     0.200 A 
BRANCH  74  77
ATOM     77  O   UNL     1      38.483  24.920  26.956  1.00  0.00    -0.504 OA
ATOM     78  H   UNL     1      38.456  24.555  27.895  1.00  0.00     0.293 HD
ENDBRANCH  74  77
BRANCH  75  79
ATOM     79  O   UNL     1      41.499  21.377  25.458  1.00  0.00    -0.504 OA
ATOM     80  H   UNL     1      41.448  20.509  24.951  1.00  0.00     0.293 HD
ENDBRANCH  75  79
BRANCH  76  81
ATOM     81  O   UNL     1      39.983  22.705  27.576  1.00  0.00    -0.502 OA
ATOM     82  H   UNL     1      40.417  21.847  27.869  1.00  0.00     0.293 HD
ENDBRANCH  76  81
ENDBRANCH  69  71
ENDBRANCH  68  69
ENDBRANCH   4  68
TORSDOF 31
ENDMDL
MODEL 3
REMARK VINA RESULT:    -8.434      2.304      8.157
REMARK INTER + INTRA:         -24.719
REMARK INTER:                 -18.530
REMARK INTRA:                  -6.189
REMARK UNBOUND:                -4.699
REMARK SMILES O=C(OC[C@@H]1O[C@@H](OC(=O)c2cc(O)c(O)c(O)c2)[C@@H](OC(=O)c2cc(O)c(O)c(O)c2)[C@H](OC(=O)c2cc(O)c(O)c(O)c2)[C@@H]1OC(=O)c1cc(O)c(O)c(O)c1)c1cc(O)c(O)c(O)c1
REMARK SMILES IDX 5 1 46 2 33 3 20 4 7 5 6 6 4 7 3 8 2 9 1 10 59 11 60 12
REMARK SMILES IDX 61 13 67 14 63 15 65 16 62 17 64 19 66 21 47 23 48 24 49 25
REMARK SMILES IDX 50 26 58 27 51 28 56 29 52 30 54 31 57 32 53 34 55 36 34 38
REMARK SMILES IDX 35 39 36 40 37 41 45 42 38 43 43 44 39 45 41 46 44 47 40 49
REMARK SMILES IDX 42 51 8 53 9 54 10 55 11 56 19 57 12 58 17 59 13 60 15 61
REMARK SMILES IDX 18 62 14 64 16 66 21 68 22 69 23 70 24 71 32 72 25 73 30 74
REMARK SMILES IDX 26 75 28 76 31 77 27 79 29 81
REMARK H PARENT 62 18 64 20 66 22 57 33 53 35 55 37 44 48 40 50 42 52 18 63
REMARK H PARENT 14 65 16 67 31 78 27 80 29 82
REMARK Flexibility Score: inf
ROOT
ATOM      1  C   UNL     1      46.842  28.691  20.869  1.00  0.00     0.205 C 
ATOM      2  C   UNL     1      46.379  27.219  20.794  1.00  0.00     0.254 C 
ATOM      3  C   UNL     1      44.888  27.138  21.178  1.00  0.00     0.267 C 
ATOM      4  C   UNL     1      44.652  27.834  22.531  1.00  0.00     0.290 C 
ATOM      5  C   UNL     1      45.266  29.245  22.517  1.00  0.00     0.357 C 
ATOM      6  O   UNL     1      46.643  29.208  22.176  1.00  0.00    -0.329 OA
ENDROOT
BRANCH   1   7
ATOM      7  C   UNL     1      48.328  28.823  20.494  1.00  0.00     0.269 C 
BRANCH   7   8
ATOM      8  O   UNL     1      48.581  28.226  19.223  1.00  0.00    -0.459 OA
BRANCH   8   9
ATOM      9  C   UNL     1      49.517  28.710  18.301  1.00  0.00     0.338 C 
ATOM     10  O   UNL     1      49.453  29.903  17.898  1.00  0.00    -0.246 OA
BRANCH   9  11
ATOM     11  C   UNL     1      50.602  27.823  17.828  1.00  0.00     0.067 A 
ATOM     12  C   UNL     1      50.322  26.780  16.935  1.00  0.00     0.066 A 
ATOM     13  C   UNL     1      51.334  25.926  16.493  1.00  0.00     0.162 A 
ATOM     14  C   UNL     1      51.921  28.007  18.269  1.00  0.00     0.066 A 
ATOM     15  C   UNL     1      52.654  26.103  16.944  1.00  0.00     0.200 A 
ATOM     16  C   UNL     1      52.950  27.163  17.837  1.00  0.00     0.162 A 
BRANCH  13  17
ATOM     17  O   UNL     1      51.005  24.889  15.617  1.00  0.00    -0.504 OA
ATOM     18  H   UNL     1      50.259  24.971  14.936  1.00  0.00     0.293 HD
ENDBRANCH  13  17
BRANCH  15  19
ATOM     19  O   UNL     1      53.635  25.213  16.495  1.00  0.00    -0.502 OA
ATOM     20  H   UNL     1      54.591  25.218  16.813  1.00  0.00     0.293 HD
ENDBRANCH  15  19
BRANCH  16  21
ATOM     21  O   UNL     1      54.241  27.417  18.308  1.00  0.00    -0.504 OA
ATOM     22  H   UNL     1      54.991  26.745  18.302  1.00  0.00     0.293 HD
ENDBRANCH  16  21
ENDBRANCH   9  11
ENDBRANCH   8   9
ENDBRANCH   7   8
ENDBRANCH   1   7
BRANCH   2  23
ATOM     23  O   UNL     1      47.155  26.430  21.696  1.00  0.00    -0.452 OA
BRANCH  23  24
ATOM     24  C   UNL     1      47.895  25.303  21.313  1.00  0.00     0.338 C 
ATOM     25  O   UNL     1      47.311  24.217  21.047  1.00  0.00    -0.246 OA
BRANCH  24  26
ATOM     26  C   UNL     1      49.366  25.397  21.218  1.00  0.00     0.067 A 
ATOM     27  C   UNL     1      50.083  24.562  20.343  1.00  0.00     0.066 A 
ATOM     28  C   UNL     1      50.064  26.330  21.999  1.00  0.00     0.066 A 
ATOM     29  C   UNL     1      51.474  24.658  20.247  1.00  0.00     0.162 A 
ATOM     30  C   UNL     1      51.456  26.428  21.915  1.00  0.00     0.162 A 
ATOM     31  C   UNL     1      52.168  25.590  21.039  1.00  0.00     0.200 A 
BRANCH  29  32
ATOM     32  O   UNL     1      52.150  23.834  19.347  1.00  0.00    -0.504 OA
ATOM     33  H   UNL     1      51.918  22.853  19.241  1.00  0.00     0.293 HD
ENDBRANCH  29  32
BRANCH  30  34
ATOM     34  O   UNL     1      52.140  27.353  22.706  1.00  0.00    -0.504 OA
ATOM     35  H   UNL     1      53.064  27.149  23.073  1.00  0.00     0.293 HD
ENDBRANCH  30  34
BRANCH  31  36
ATOM     36  O   UNL     1      53.557  25.679  20.940  1.00  0.00    -0.502 OA
ATOM     37  H   UNL     1      54.035  26.567  20.813  1.00  0.00     0.293 HD
ENDBRANCH  31  36
ENDBRANCH  24  26
ENDBRANCH  23  24
ENDBRANCH   2  23
BRANCH   3  38
ATOM     38  O   UNL     1      44.462  25.779  21.273  1.00  0.00    -0.450 OA
BRANCH  38  39
ATOM     39  C   UNL     1      43.262  25.286  20.749  1.00  0.00     0.338 C 
ATOM     40  O   UNL     1      42.563  26.005  19.984  1.00  0.00    -0.246 OA
BRANCH  39  41
ATOM     41  C   UNL     1      42.816  23.919  21.106  1.00  0.00     0.067 A 
ATOM     42  C   UNL     1      41.456  23.626  21.308  1.00  0.00     0.066 A 
ATOM     43  C   UNL     1      43.761  22.892  21.256  1.00  0.00     0.066 A 
ATOM     44  C   UNL     1      41.048  22.339  21.685  1.00  0.00     0.162 A 
ATOM     45  C   UNL     1      43.365  21.606  21.634  1.00  0.00     0.162 A 
ATOM     46  C   UNL     1      42.007  21.325  21.856  1.00  0.00     0.200 A 
BRANCH  44  47
ATOM     47  O   UNL     1      39.694  22.061  21.894  1.00  0.00    -0.504 OA
ATOM     48  H   UNL     1      39.354  21.686  22.773  1.00  0.00     0.293 HD
ENDBRANCH  44  47
BRANCH  45  49
ATOM     49  O   UNL     1      44.335  20.614  21.781  1.00  0.00    -0.504 OA
ATOM     50  H   UNL     1      45.208  20.784  22.264  1.00  0.00     0.293 HD
ENDBRANCH  45  49
BRANCH  46  51
ATOM     51  O   UNL     1      41.626  20.040  22.240  1.00  0.00    -0.502 OA
ATOM     52  H   UNL     1      41.796  19.676  23.171  1.00  0.00     0.293 HD
ENDBRANCH  46  51
ENDBRANCH  39  41
ENDBRANCH  38  39
ENDBRANCH   3  38
BRANCH   5  53
ATOM     53  O   UNL     1      44.549  30.103  21.626  1.00  0.00    -0.428 OA
BRANCH  53  54
ATOM     54  C   UNL     1      43.856  31.245  22.046  1.00  0.00     0.340 C 
ATOM     55  O   UNL     1      44.472  32.186  22.617  1.00  0.00    -0.246 OA
BRANCH  54  56
ATOM     56  C   UNL     1      42.392  31.325  21.841  1.00  0.00     0.067 A 
ATOM     57  C   UNL     1      41.521  31.228  22.939  1.00  0.00     0.066 A 
ATOM     58  C   UNL     1      41.860  31.509  20.555  1.00  0.00     0.066 A 
ATOM     59  C   UNL     1      40.133  31.306  22.754  1.00  0.00     0.162 A 
ATOM     60  C   UNL     1      40.474  31.595  20.365  1.00  0.00     0.162 A 
ATOM     61  C   UNL     1      39.606  31.486  21.464  1.00  0.00     0.200 A 
BRANCH  59  62
ATOM     62  O   UNL     1      39.275  31.204  23.846  1.00  0.00    -0.504 OA
ATOM     63  H   UNL     1      38.273  31.112  23.729  1.00  0.00     0.293 HD
ENDBRANCH  59  62
BRANCH  60  64
ATOM     64  O   UNL     1      39.968  31.775  19.078  1.00  0.00    -0.504 OA
ATOM     65  H   UNL     1      38.989  31.626  18.862  1.00  0.00     0.293 HD
ENDBRANCH  60  64
BRANCH  61  66
ATOM     66  O   UNL     1      38.226  31.561  21.257  1.00  0.00    -0.502 OA
ATOM     67  H   UNL     1      37.763  32.441  21.034  1.00  0.00     0.293 HD
ENDBRANCH  61  66
ENDBRANCH  54  56
ENDBRANCH  53  54
ENDBRANCH   5  53
BRANCH   4  68
ATOM     68  O   UNL     1      43.250  27.929  22.802  1.00  0.00    -0.448 OA
BRANCH  68  69
ATOM     69  C   UNL     1      42.687  27.693  24.065  1.00  0.00     0.339 C 
ATOM     70  O   UNL     1      42.759  28.574  24.964  1.00  0.00    -0.246 OA
BRANCH  69  71
ATOM     71  C   UNL     1      41.973  26.426  24.333  1.00  0.00     0.067 A 
ATOM     72  C   UNL     1      40.568  26.378  24.307  1.00  0.00     0.066 A 
ATOM     73  C   UNL     1      42.691  25.252  24.612  1.00  0.00     0.066 A 
ATOM     74  C   UNL     1      39.892  25.169  24.524  1.00  0.00     0.162 A 
ATOM     75  C   UNL     1      42.028  24.040  24.847  1.00  0.00     0.162 A 
ATOM     76  C   UNL     1      40.613  23.994  24.783  1.00  0.00     0.200 A 
BRANCH  74  77
ATOM     77  O   UNL     1      38.499  25.121  24.471  1.00  0.00    -0.504 OA
ATOM     78  H   UNL     1      38.009  24.262  24.275  1.00  0.00     0.293 HD
ENDBRANCH  74  77
BRANCH  75  79
ATOM     79  O   UNL     1      42.812  22.922  25.147  1.00  0.00    -0.504 OA
ATOM     80  H   UNL     1      43.273  22.353  24.456  1.00  0.00     0.293 HD
ENDBRANCH  75  79
BRANCH  76  81
ATOM     81  O   UNL     1      39.897  22.808  24.958  1.00  0.00    -0.502 OA
ATOM     82  H   UNL     1      39.210  22.473  24.305  1.00  0.00     0.293 HD
ENDBRANCH  76  81
ENDBRANCH  69  71
ENDBRANCH  68  69
ENDBRANCH   4  68
TORSDOF 31
ENDMDL
MODEL 4
REMARK VINA RESULT:    -8.363      1.982      8.133
REMARK INTER + INTRA:         -24.550
REMARK INTER:                 -18.425
REMARK INTRA:                  -6.126
REMARK UNBOUND:                -4.699
REMARK SMILES O=C(OC[C@@H]1O[C@@H](OC(=O)c2cc(O)c(O)c(O)c2)[C@@H](OC(=O)c2cc(O)c(O)c(O)c2)[C@H](OC(=O)c2cc(O)c(O)c(O)c2)[C@@H]1OC(=O)c1cc(O)c(O)c(O)c1)c1cc(O)c(O)c(O)c1
REMARK SMILES IDX 5 1 46 2 33 3 20 4 7 5 6 6 4 7 3 8 2 9 1 10 59 11 60 12
REMARK SMILES IDX 61 13 67 14 63 15 65 16 62 17 64 19 66 21 47 23 48 24 49 25
REMARK SMILES IDX 50 26 58 27 51 28 56 29 52 30 54 31 57 32 53 34 55 36 34 38
REMARK SMILES IDX 35 39 36 40 37 41 45 42 38 43 43 44 39 45 41 46 44 47 40 49
REMARK SMILES IDX 42 51 8 53 9 54 10 55 11 56 19 57 12 58 17 59 13 60 15 61
REMARK SMILES IDX 18 62 14 64 16 66 21 68 22 69 23 70 24 71 32 72 25 73 30 74
REMARK SMILES IDX 26 75 28 76 31 77 27 79 29 81
REMARK H PARENT 62 18 64 20 66 22 57 33 53 35 55 37 44 48 40 50 42 52 18 63
REMARK H PARENT 14 65 16 67 31 78 27 80 29 82
REMARK Flexibility Score: inf
ROOT
ATOM      1  C   UNL     1      42.983  26.435  21.171  1.00  0.00     0.205 C 
ATOM      2  C   UNL     1      43.976  27.585  20.891  1.00  0.00     0.254 C 
ATOM      3  C   UNL     1      45.339  26.988  20.486  1.00  0.00     0.267 C 
ATOM      4  C   UNL     1      45.800  25.962  21.538  1.00  0.00     0.290 C 
ATOM      5  C   UNL     1      44.678  24.946  21.816  1.00  0.00     0.357 C 
ATOM      6  O   UNL     1      43.476  25.594  22.203  1.00  0.00    -0.329 OA
ENDROOT
BRANCH   1   7
ATOM      7  C   UNL     1      41.605  26.982  21.581  1.00  0.00     0.269 C 
BRANCH   7   8
ATOM      8  O   UNL     1      41.375  26.774  22.973  1.00  0.00    -0.459 OA
BRANCH   8   9
ATOM      9  C   UNL     1      40.235  26.152  23.496  1.00  0.00     0.338 C 
ATOM     10  O   UNL     1      39.534  26.739  24.365  1.00  0.00    -0.246 OA
BRANCH   9  11
ATOM     11  C   UNL     1      39.837  24.818  22.998  1.00  0.00     0.067 A 
ATOM     12  C   UNL     1      40.615  23.692  23.300  1.00  0.00     0.066 A 
ATOM     13  C   UNL     1      40.260  22.429  22.822  1.00  0.00     0.162 A 
ATOM     14  C   UNL     1      38.684  24.659  22.215  1.00  0.00     0.066 A 
ATOM     15  C   UNL     1      39.110  22.272  22.027  1.00  0.00     0.200 A 
ATOM     16  C   UNL     1      38.310  23.403  21.728  1.00  0.00     0.162 A 
BRANCH  13  17
ATOM     17  O   UNL     1      41.074  21.338  23.133  1.00  0.00    -0.504 OA
ATOM     18  H   UNL     1      41.862  21.067  22.555  1.00  0.00     0.293 HD
ENDBRANCH  13  17
BRANCH  15  19
ATOM     19  O   UNL     1      38.801  20.994  21.551  1.00  0.00    -0.502 OA
ATOM     20  H   UNL     1      38.001  20.458  21.849  1.00  0.00     0.293 HD
ENDBRANCH  15  19
BRANCH  16  21
ATOM     21  O   UNL     1      37.141  23.322  20.966  1.00  0.00    -0.504 OA
ATOM     22  H   UNL     1      36.212  23.292  21.352  1.00  0.00     0.293 HD
ENDBRANCH  16  21
ENDBRANCH   9  11
ENDBRANCH   8   9
ENDBRANCH   7   8
ENDBRANCH   1   7
BRANCH   2  23
ATOM     23  O   UNL     1      44.126  28.381  22.066  1.00  0.00    -0.452 OA
BRANCH  23  24
ATOM     24  C   UNL     1      43.981  29.775  22.092  1.00  0.00     0.338 C 
ATOM     25  O   UNL     1      44.863  30.497  22.632  1.00  0.00    -0.246 OA
BRANCH  24  26
ATOM     26  C   UNL     1      42.790  30.395  21.478  1.00  0.00     0.067 A 
ATOM     27  C   UNL     1      41.587  30.506  22.198  1.00  0.00     0.066 A 
ATOM     28  C   UNL     1      42.850  30.889  20.166  1.00  0.00     0.066 A 
ATOM     29  C   UNL     1      40.463  31.102  21.619  1.00  0.00     0.162 A 
ATOM     30  C   UNL     1      41.729  31.480  19.577  1.00  0.00     0.162 A 
ATOM     31  C   UNL     1      40.529  31.587  20.301  1.00  0.00     0.200 A 
BRANCH  29  32
ATOM     32  O   UNL     1      39.296  31.221  22.374  1.00  0.00    -0.504 OA
ATOM     33  H   UNL     1      38.429  30.780  22.092  1.00  0.00     0.293 HD
ENDBRANCH  29  32
BRANCH  30  34
ATOM     34  O   UNL     1      41.798  31.957  18.266  1.00  0.00    -0.504 OA
ATOM     35  H   UNL     1      41.504  31.384  17.482  1.00  0.00     0.293 HD
ENDBRANCH  30  34
BRANCH  31  36
ATOM     36  O   UNL     1      39.402  32.179  19.729  1.00  0.00    -0.502 OA
ATOM     37  H   UNL     1      38.504  32.204  20.203  1.00  0.00     0.293 HD
ENDBRANCH  31  36
ENDBRANCH  24  26
ENDBRANCH  23  24
ENDBRANCH   2  23
BRANCH   3  38
ATOM     38  O   UNL     1      46.327  28.012  20.371  1.00  0.00    -0.450 OA
BRANCH  38  39
ATOM     39  C   UNL     1      47.066  28.273  19.212  1.00  0.00     0.338 C 
ATOM     40  O   UNL     1      46.474  28.470  18.115  1.00  0.00    -0.246 OA
BRANCH  39  41
ATOM     41  C   UNL     1      48.545  28.308  19.281  1.00  0.00     0.067 A 
ATOM     42  C   UNL     1      49.335  27.664  18.313  1.00  0.00     0.066 A 
ATOM     43  C   UNL     1      49.180  28.987  20.333  1.00  0.00     0.066 A 
ATOM     44  C   UNL     1      50.734  27.668  18.410  1.00  0.00     0.162 A 
ATOM     45  C   UNL     1      50.573  28.995  20.440  1.00  0.00     0.162 A 
ATOM     46  C   UNL     1      51.356  28.331  19.482  1.00  0.00     0.200 A 
BRANCH  44  47
ATOM     47  O   UNL     1      51.509  27.015  17.448  1.00  0.00    -0.504 OA
ATOM     48  H   UNL     1      52.421  26.629  17.667  1.00  0.00     0.293 HD
ENDBRANCH  44  47
BRANCH  45  49
ATOM     49  O   UNL     1      51.168  29.674  21.505  1.00  0.00    -0.504 OA
ATOM     50  H   UNL     1      51.842  30.414  21.360  1.00  0.00     0.293 HD
ENDBRANCH  45  49
BRANCH  46  51
ATOM     51  O   UNL     1      52.746  28.341  19.604  1.00  0.00    -0.502 OA
ATOM     52  H   UNL     1      53.360  28.570  18.830  1.00  0.00     0.293 HD
ENDBRANCH  46  51
ENDBRANCH  39  41
ENDBRANCH  38  39
ENDBRANCH   3  38
BRANCH   5  53
ATOM     53  O   UNL     1      44.456  24.109  20.679  1.00  0.00    -0.428 OA
BRANCH  53  54
ATOM     54  C   UNL     1      44.122  22.752  20.773  1.00  0.00     0.340 C 
ATOM     55  O   UNL     1      42.911  22.398  20.789  1.00  0.00    -0.246 OA
BRANCH  54  56
ATOM     56  C   UNL     1      45.199  21.743  20.884  1.00  0.00     0.067 A 
ATOM     57  C   UNL     1      46.163  21.629  19.869  1.00  0.00     0.066 A 
ATOM     58  C   UNL     1      45.276  20.900  22.004  1.00  0.00     0.066 A 
ATOM     59  C   UNL     1      47.189  20.677  19.967  1.00  0.00     0.162 A 
ATOM     60  C   UNL     1      46.302  19.953  22.111  1.00  0.00     0.162 A 
ATOM     61  C   UNL     1      47.258  19.833  21.089  1.00  0.00     0.200 A 
BRANCH  59  62
ATOM     62  O   UNL     1      48.139  20.565  18.956  1.00  0.00    -0.504 OA
ATOM     63  H   UNL     1      48.969  19.994  19.066  1.00  0.00     0.293 HD
ENDBRANCH  59  62
BRANCH  60  64
ATOM     64  O   UNL     1      46.356  19.124  23.232  1.00  0.00    -0.504 OA
ATOM     65  H   UNL     1      45.517  18.778  23.683  1.00  0.00     0.293 HD
ENDBRANCH  60  64
BRANCH  61  66
ATOM     66  O   UNL     1      48.268  18.875  21.205  1.00  0.00    -0.502 OA
ATOM     67  H   UNL     1      48.308  18.228  21.991  1.00  0.00     0.293 HD
ENDBRANCH  61  66
ENDBRANCH  54  56
ENDBRANCH  53  54
ENDBRANCH   5  53
BRANCH   4  68
ATOM     68  O   UNL     1      46.965  25.269  21.077  1.00  0.00    -0.448 OA
BRANCH  68  69
ATOM     69  C   UNL     1      48.256  25.514  21.567  1.00  0.00     0.339 C 
ATOM     70  O   UNL     1      48.417  26.215  22.603  1.00  0.00    -0.246 OA
BRANCH  69  71
ATOM     71  C   UNL     1      49.429  24.919  20.892  1.00  0.00     0.067 A 
ATOM     72  C   UNL     1      49.269  23.858  19.982  1.00  0.00     0.066 A 
ATOM     73  C   UNL     1      50.720  25.409  21.148  1.00  0.00     0.066 A 
ATOM     74  C   UNL     1      50.377  23.319  19.315  1.00  0.00     0.162 A 
ATOM     75  C   UNL     1      51.838  24.868  20.500  1.00  0.00     0.162 A 
ATOM     76  C   UNL     1      51.663  23.824  19.558  1.00  0.00     0.200 A 
BRANCH  74  77
ATOM     77  O   UNL     1      50.210  22.285  18.393  1.00  0.00    -0.504 OA
ATOM     78  H   UNL     1      49.354  21.754  18.347  1.00  0.00     0.293 HD
ENDBRANCH  74  77
BRANCH  75  79
ATOM     79  O   UNL     1      53.093  25.390  20.830  1.00  0.00    -0.504 OA
ATOM     80  H   UNL     1      53.811  25.604  20.157  1.00  0.00     0.293 HD
ENDBRANCH  75  79
BRANCH  76  81
ATOM     81  O   UNL     1      52.731  23.278  18.843  1.00  0.00    -0.502 OA
ATOM     82  H   UNL     1      53.685  23.571  18.962  1.00  0.00     0.293 HD
ENDBRANCH  76  81
ENDBRANCH  69  71
ENDBRANCH  68  69
ENDBRANCH   4  68
TORSDOF 31
ENDMDL
MODEL 5
REMARK VINA RESULT:    -8.344      2.042     11.071
REMARK INTER + INTRA:         -24.506
REMARK INTER:                 -18.767
REMARK INTRA:                  -5.739
REMARK UNBOUND:                -4.699
REMARK SMILES O=C(OC[C@@H]1O[C@@H](OC(=O)c2cc(O)c(O)c(O)c2)[C@@H](OC(=O)c2cc(O)c(O)c(O)c2)[C@H](OC(=O)c2cc(O)c(O)c(O)c2)[C@@H]1OC(=O)c1cc(O)c(O)c(O)c1)c1cc(O)c(O)c(O)c1
REMARK SMILES IDX 5 1 46 2 33 3 20 4 7 5 6 6 4 7 3 8 2 9 1 10 59 11 60 12
REMARK SMILES IDX 61 13 67 14 63 15 65 16 62 17 64 19 66 21 47 23 48 24 49 25
REMARK SMILES IDX 50 26 58 27 51 28 56 29 52 30 54 31 57 32 53 34 55 36 34 38
REMARK SMILES IDX 35 39 36 40 37 41 45 42 38 43 43 44 39 45 41 46 44 47 40 49
REMARK SMILES IDX 42 51 8 53 9 54 10 55 11 56 19 57 12 58 17 59 13 60 15 61
REMARK SMILES IDX 18 62 14 64 16 66 21 68 22 69 23 70 24 71 32 72 25 73 30 74
REMARK SMILES IDX 26 75 28 76 31 77 27 79 29 81
REMARK H PARENT 62 18 64 20 66 22 57 33 53 35 55 37 44 48 40 50 42 52 18 63
REMARK H PARENT 14 65 16 67 31 78 27 80 29 82
REMARK Flexibility Score: inf
ROOT
ATOM      1  C   UNL     1      43.526  26.267  21.955  1.00  0.00     0.205 C 
ATOM      2  C   UNL     1      44.712  25.292  21.785  1.00  0.00     0.254 C 
ATOM      3  C   UNL     1      46.003  26.102  21.554  1.00  0.00     0.267 C 
ATOM      4  C   UNL     1      45.802  27.101  20.400  1.00  0.00     0.290 C 
ATOM      5  C   UNL     1      44.523  27.926  20.629  1.00  0.00     0.357 C 
ATOM      6  O   UNL     1      43.391  27.090  20.806  1.00  0.00    -0.329 OA
ENDROOT
BRANCH   1   7
ATOM      7  C   UNL     1      42.211  25.504  22.187  1.00  0.00     0.269 C 
BRANCH   7   8
ATOM      8  O   UNL     1      41.156  26.406  22.516  1.00  0.00    -0.459 OA
BRANCH   8   9
ATOM      9  C   UNL     1      39.998  26.040  23.212  1.00  0.00     0.338 C 
ATOM     10  O   UNL     1      39.599  26.732  24.188  1.00  0.00    -0.246 OA
BRANCH   9  11
ATOM     11  C   UNL     1      39.225  24.858  22.774  1.00  0.00     0.067 A 
ATOM     12  C   UNL     1      38.606  24.846  21.517  1.00  0.00     0.066 A 
ATOM     13  C   UNL     1      37.860  23.743  21.097  1.00  0.00     0.162 A 
ATOM     14  C   UNL     1      39.095  23.738  23.608  1.00  0.00     0.066 A 
ATOM     15  C   UNL     1      37.719  22.625  21.938  1.00  0.00     0.200 A 
ATOM     16  C   UNL     1      38.353  22.622  23.206  1.00  0.00     0.162 A 
BRANCH  13  17
ATOM     17  O   UNL     1      37.246  23.782  19.844  1.00  0.00    -0.504 OA
ATOM     18  H   UNL     1      37.156  22.961  19.258  1.00  0.00     0.293 HD
ENDBRANCH  13  17
BRANCH  15  19
ATOM     19  O   UNL     1      36.946  21.549  21.490  1.00  0.00    -0.502 OA
ATOM     20  H   UNL     1      35.969  21.427  21.706  1.00  0.00     0.293 HD
ENDBRANCH  15  19
BRANCH  16  21
ATOM     21  O   UNL     1      38.279  21.538  24.086  1.00  0.00    -0.504 OA
ATOM     22  H   UNL     1      39.038  20.901  24.267  1.00  0.00     0.293 HD
ENDBRANCH  16  21
ENDBRANCH   9  11
ENDBRANCH   8   9
ENDBRANCH   7   8
ENDBRANCH   1   7
BRANCH   2  23
ATOM     23  O   UNL     1      44.469  24.439  20.666  1.00  0.00    -0.452 OA
BRANCH  23  24
ATOM     24  C   UNL     1      44.038  23.110  20.773  1.00  0.00     0.338 C 
ATOM     25  O   UNL     1      42.806  22.841  20.824  1.00  0.00    -0.246 OA
BRANCH  24  26
ATOM     26  C   UNL     1      45.036  22.022  20.823  1.00  0.00     0.067 A 
ATOM     27  C   UNL     1      45.959  21.848  19.777  1.00  0.00     0.066 A 
ATOM     28  C   UNL     1      45.078  21.155  21.924  1.00  0.00     0.066 A 
ATOM     29  C   UNL     1      46.909  20.825  19.829  1.00  0.00     0.162 A 
ATOM     30  C   UNL     1      46.020  20.125  21.983  1.00  0.00     0.162 A 
ATOM     31  C   UNL     1      46.940  19.954  20.933  1.00  0.00     0.200 A 
BRANCH  29  32
ATOM     32  O   UNL     1      47.828  20.699  18.787  1.00  0.00    -0.504 OA
ATOM     33  H   UNL     1      47.559  20.824  17.818  1.00  0.00     0.293 HD
ENDBRANCH  29  32
BRANCH  30  34
ATOM     34  O   UNL     1      46.045  19.261  23.079  1.00  0.00    -0.504 OA
ATOM     35  H   UNL     1      45.245  18.680  23.309  1.00  0.00     0.293 HD
ENDBRANCH  30  34
BRANCH  31  36
ATOM     36  O   UNL     1      47.891  18.933  20.978  1.00  0.00    -0.502 OA
ATOM     37  H   UNL     1      47.896  18.230  21.712  1.00  0.00     0.293 HD
ENDBRANCH  31  36
ENDBRANCH  24  26
ENDBRANCH  23  24
ENDBRANCH   2  23
BRANCH   3  38
ATOM     38  O   UNL     1      47.094  25.238  21.236  1.00  0.00    -0.450 OA
BRANCH  38  39
ATOM     39  C   UNL     1      48.408  25.424  21.678  1.00  0.00     0.338 C 
ATOM     40  O   UNL     1      48.637  26.122  22.704  1.00  0.00    -0.246 OA
BRANCH  39  41
ATOM     41  C   UNL     1      49.526  24.805  20.929  1.00  0.00     0.067 A 
ATOM     42  C   UNL     1      50.862  25.146  21.201  1.00  0.00     0.066 A 
ATOM     43  C   UNL     1      49.257  23.866  19.922  1.00  0.00     0.066 A 
ATOM     44  C   UNL     1      51.911  24.585  20.458  1.00  0.00     0.162 A 
ATOM     45  C   UNL     1      50.294  23.302  19.174  1.00  0.00     0.162 A 
ATOM     46  C   UNL     1      51.626  23.664  19.436  1.00  0.00     0.200 A 
BRANCH  44  47
ATOM     47  O   UNL     1      53.235  24.939  20.730  1.00  0.00    -0.504 OA
ATOM     48  H   UNL     1      53.477  25.565  21.492  1.00  0.00     0.293 HD
ENDBRANCH  44  47
BRANCH  45  49
ATOM     49  O   UNL     1      49.986  22.378  18.175  1.00  0.00    -0.504 OA
ATOM     50  H   UNL     1      49.069  21.958  18.098  1.00  0.00     0.293 HD
ENDBRANCH  45  49
BRANCH  46  51
ATOM     51  O   UNL     1      52.652  23.099  18.678  1.00  0.00    -0.502 OA
ATOM     52  H   UNL     1      52.900  23.440  17.756  1.00  0.00     0.293 HD
ENDBRANCH  46  51
ENDBRANCH  39  41
ENDBRANCH  38  39
ENDBRANCH   3  38
BRANCH   5  53
ATOM     53  O   UNL     1      44.679  28.806  21.745  1.00  0.00    -0.428 OA
BRANCH  53  54
ATOM     54  C   UNL     1      44.246  30.138  21.743  1.00  0.00     0.340 C 
ATOM     55  O   UNL     1      45.085  31.078  21.809  1.00  0.00    -0.246 OA
BRANCH  54  56
ATOM     56  C   UNL     1      42.796  30.432  21.693  1.00  0.00     0.067 A 
ATOM     57  C   UNL     1      42.273  31.227  20.661  1.00  0.00     0.066 A 
ATOM     58  C   UNL     1      41.928  29.910  22.666  1.00  0.00     0.066 A 
ATOM     59  C   UNL     1      40.900  31.508  20.605  1.00  0.00     0.162 A 
ATOM     60  C   UNL     1      40.554  30.181  22.611  1.00  0.00     0.162 A 
ATOM     61  C   UNL     1      40.037  30.987  21.584  1.00  0.00     0.200 A 
BRANCH  59  62
ATOM     62  O   UNL     1      40.389  32.302  19.581  1.00  0.00    -0.504 OA
ATOM     63  H   UNL     1      39.551  32.043  19.075  1.00  0.00     0.293 HD
ENDBRANCH  59  62
BRANCH  60  64
ATOM     64  O   UNL     1      39.712  29.655  23.591  1.00  0.00    -0.504 OA
ATOM     65  H   UNL     1      40.056  29.037  24.317  1.00  0.00     0.293 HD
ENDBRANCH  60  64
BRANCH  61  66
ATOM     66  O   UNL     1      38.667  31.258  21.549  1.00  0.00    -0.502 OA
ATOM     67  H   UNL     1      38.116  31.356  22.402  1.00  0.00     0.293 HD
ENDBRANCH  61  66
ENDBRANCH  54  56
ENDBRANCH  53  54
ENDBRANCH   5  53
BRANCH   4  68
ATOM     68  O   UNL     1      46.925  27.982  20.305  1.00  0.00    -0.448 OA
BRANCH  68  69
ATOM     69  C   UNL     1      47.629  28.216  19.114  1.00  0.00     0.339 C 
ATOM     70  O   UNL     1      47.010  28.573  18.075  1.00  0.00    -0.246 OA
BRANCH  69  71
ATOM     71  C   UNL     1      49.101  28.083  19.085  1.00  0.00     0.067 A 
ATOM     72  C   UNL     1      49.896  28.726  20.051  1.00  0.00     0.066 A 
ATOM     73  C   UNL     1      49.724  27.309  18.094  1.00  0.00     0.066 A 
ATOM     74  C   UNL     1      51.289  28.569  20.046  1.00  0.00     0.162 A 
ATOM     75  C   UNL     1      51.117  27.157  18.066  1.00  0.00     0.162 A 
ATOM     76  C   UNL     1      51.907  27.779  19.066  1.00  0.00     0.200 A 
BRANCH  74  77
ATOM     77  O   UNL     1      52.071  29.187  21.022  1.00  0.00    -0.504 OA
ATOM     78  H   UNL     1      53.011  28.877  21.217  1.00  0.00     0.293 HD
ENDBRANCH  74  77
BRANCH  75  79
ATOM     79  O   UNL     1      51.665  26.395  17.030  1.00  0.00    -0.504 OA
ATOM     80  H   UNL     1      51.343  25.475  16.774  1.00  0.00     0.293 HD
ENDBRANCH  75  79
BRANCH  76  81
ATOM     81  O   UNL     1      53.294  27.625  19.122  1.00  0.00    -0.502 OA
ATOM     82  H   UNL     1      53.941  28.389  19.035  1.00  0.00     0.293 HD
ENDBRANCH  76  81
ENDBRANCH  69  71
ENDBRANCH  68  69
ENDBRANCH   4  68
TORSDOF 31
ENDMDL
MODEL 6
REMARK VINA RESULT:    -8.294      2.049     10.840
REMARK INTER + INTRA:         -24.387
REMARK INTER:                 -19.356
REMARK INTRA:                  -5.031
REMARK UNBOUND:                -4.699
REMARK SMILES O=C(OC[C@@H]1O[C@@H](OC(=O)c2cc(O)c(O)c(O)c2)[C@@H](OC(=O)c2cc(O)c(O)c(O)c2)[C@H](OC(=O)c2cc(O)c(O)c(O)c2)[C@@H]1OC(=O)c1cc(O)c(O)c(O)c1)c1cc(O)c(O)c(O)c1
REMARK SMILES IDX 5 1 46 2 33 3 20 4 7 5 6 6 4 7 3 8 2 9 1 10 59 11 60 12
REMARK SMILES IDX 61 13 67 14 63 15 65 16 62 17 64 19 66 21 47 23 48 24 49 25
REMARK SMILES IDX 50 26 58 27 51 28 56 29 52 30 54 31 57 32 53 34 55 36 34 38
REMARK SMILES IDX 35 39 36 40 37 41 45 42 38 43 43 44 39 45 41 46 44 47 40 49
REMARK SMILES IDX 42 51 8 53 9 54 10 55 11 56 19 57 12 58 17 59 13 60 15 61
REMARK SMILES IDX 18 62 14 64 16 66 21 68 22 69 23 70 24 71 32 72 25 73 30 74
REMARK SMILES IDX 26 75 28 76 31 77 27 79 29 81
REMARK H PARENT 62 18 64 20 66 22 57 33 53 35 55 37 44 48 40 50 42 52 18 63
REMARK H PARENT 14 65 16 67 31 78 27 80 29 82
REMARK Flexibility Score: inf
ROOT
ATOM      1  C   UNL     1      43.226  26.187  21.774  1.00  0.00     0.205 C 
ATOM      2  C   UNL     1      44.443  25.241  21.683  1.00  0.00     0.254 C 
ATOM      3  C   UNL     1      45.726  26.082  21.527  1.00  0.00     0.267 C 
ATOM      4  C   UNL     1      45.572  27.069  20.356  1.00  0.00     0.290 C 
ATOM      5  C   UNL     1      44.262  27.864  20.501  1.00  0.00     0.357 C 
ATOM      6  O   UNL     1      43.142  27.000  20.614  1.00  0.00    -0.329 OA
ENDROOT
BRANCH   1   7
ATOM      7  C   UNL     1      41.918  25.392  21.930  1.00  0.00     0.269 C 
BRANCH   7   8
ATOM      8  O   UNL     1      41.580  25.244  23.308  1.00  0.00    -0.459 OA
BRANCH   8   9
ATOM      9  C   UNL     1      40.399  24.650  23.767  1.00  0.00     0.338 C 
ATOM     10  O   UNL     1      39.743  25.182  24.703  1.00  0.00    -0.246 OA
BRANCH   9  11
ATOM     11  C   UNL     1      39.907  23.411  23.126  1.00  0.00     0.067 A 
ATOM     12  C   UNL     1      40.772  22.327  22.930  1.00  0.00     0.066 A 
ATOM     13  C   UNL     1      40.325  21.158  22.310  1.00  0.00     0.162 A 
ATOM     14  C   UNL     1      38.575  23.306  22.699  1.00  0.00     0.066 A 
ATOM     15  C   UNL     1      38.992  21.056  21.872  1.00  0.00     0.200 A 
ATOM     16  C   UNL     1      38.106  22.143  22.078  1.00  0.00     0.162 A 
BRANCH  13  17
ATOM     17  O   UNL     1      41.227  20.109  22.120  1.00  0.00    -0.504 OA
ATOM     18  H   UNL     1      40.978  19.262  21.622  1.00  0.00     0.293 HD
ENDBRANCH  13  17
BRANCH  15  19
ATOM     19  O   UNL     1      38.589  19.877  21.238  1.00  0.00    -0.502 OA
ATOM     20  H   UNL     1      38.479  18.992  21.707  1.00  0.00     0.293 HD
ENDBRANCH  15  19
BRANCH  16  21
ATOM     21  O   UNL     1      36.763  22.107  21.693  1.00  0.00    -0.504 OA
ATOM     22  H   UNL     1      36.051  22.720  22.056  1.00  0.00     0.293 HD
ENDBRANCH  16  21
ENDBRANCH   9  11
ENDBRANCH   8   9
ENDBRANCH   7   8
ENDBRANCH   1   7
BRANCH   2  23
ATOM     23  O   UNL     1      44.291  24.377  20.557  1.00  0.00    -0.452 OA
BRANCH  23  24
ATOM     24  C   UNL     1      43.921  23.028  20.649  1.00  0.00     0.338 C 
ATOM     25  O   UNL     1      42.703  22.699  20.640  1.00  0.00    -0.246 OA
BRANCH  24  26
ATOM     26  C   UNL     1      44.968  21.991  20.753  1.00  0.00     0.067 A 
ATOM     27  C   UNL     1      45.023  21.136  21.868  1.00  0.00     0.066 A 
ATOM     28  C   UNL     1      45.917  21.844  19.731  1.00  0.00     0.066 A 
ATOM     29  C   UNL     1      46.008  20.150  21.961  1.00  0.00     0.162 A 
ATOM     30  C   UNL     1      46.910  20.865  19.819  1.00  0.00     0.162 A 
ATOM     31  C   UNL     1      46.961  20.013  20.937  1.00  0.00     0.200 A 
BRANCH  29  32
ATOM     32  O   UNL     1      46.014  19.300  23.069  1.00  0.00    -0.504 OA
ATOM     33  H   UNL     1      45.204  19.197  23.668  1.00  0.00     0.293 HD
ENDBRANCH  29  32
BRANCH  30  34
ATOM     34  O   UNL     1      47.857  20.735  18.800  1.00  0.00    -0.504 OA
ATOM     35  H   UNL     1      48.719  20.220  18.947  1.00  0.00     0.293 HD
ENDBRANCH  30  34
BRANCH  31  36
ATOM     36  O   UNL     1      47.943  19.027  21.037  1.00  0.00    -0.502 OA
ATOM     37  H   UNL     1      48.934  19.242  20.982  1.00  0.00     0.293 HD
ENDBRANCH  31  36
ENDBRANCH  24  26
ENDBRANCH  23  24
ENDBRANCH   2  23
BRANCH   3  38
ATOM     38  O   UNL     1      46.856  25.244  21.283  1.00  0.00    -0.450 OA
BRANCH  38  39
ATOM     39  C   UNL     1      48.162  25.535  21.690  1.00  0.00     0.338 C 
ATOM     40  O   UNL     1      48.362  26.298  22.675  1.00  0.00    -0.246 OA
BRANCH  39  41
ATOM     41  C   UNL     1      49.305  24.948  20.953  1.00  0.00     0.067 A 
ATOM     42  C   UNL     1      50.629  25.318  21.248  1.00  0.00     0.066 A 
ATOM     43  C   UNL     1      49.073  24.011  19.934  1.00  0.00     0.066 A 
ATOM     44  C   UNL     1      51.701  24.788  20.516  1.00  0.00     0.162 A 
ATOM     45  C   UNL     1      50.135  23.479  19.198  1.00  0.00     0.162 A 
ATOM     46  C   UNL     1      51.453  23.869  19.482  1.00  0.00     0.200 A 
BRANCH  44  47
ATOM     47  O   UNL     1      53.013  25.171  20.811  1.00  0.00    -0.504 OA
ATOM     48  H   UNL     1      53.795  24.896  20.226  1.00  0.00     0.293 HD
ENDBRANCH  44  47
BRANCH  45  49
ATOM     49  O   UNL     1      49.863  22.556  18.186  1.00  0.00    -0.504 OA
ATOM     50  H   UNL     1      50.599  22.063  17.699  1.00  0.00     0.293 HD
ENDBRANCH  45  49
BRANCH  46  51
ATOM     51  O   UNL     1      52.504  23.335  18.736  1.00  0.00    -0.502 OA
ATOM     52  H   UNL     1      53.034  23.886  18.070  1.00  0.00     0.293 HD
ENDBRANCH  46  51
ENDBRANCH  39  41
ENDBRANCH  38  39
ENDBRANCH   3  38
BRANCH   5  53
ATOM     53  O   UNL     1      44.327  28.753  21.619  1.00  0.00    -0.428 OA
BRANCH  53  54
ATOM     54  C   UNL     1      44.104  30.133  21.521  1.00  0.00     0.340 C 
ATOM     55  O   UNL     1      44.997  30.946  21.885  1.00  0.00    -0.246 OA
BRANCH  54  56
ATOM     56  C   UNL     1      42.804  30.626  21.014  1.00  0.00     0.067 A 
ATOM     57  C   UNL     1      42.633  30.881  19.643  1.00  0.00     0.066 A 
ATOM     58  C   UNL     1      41.727  30.831  21.891  1.00  0.00     0.066 A 
ATOM     59  C   UNL     1      41.404  31.346  19.154  1.00  0.00     0.162 A 
ATOM     60  C   UNL     1      40.494  31.288  21.408  1.00  0.00     0.162 A 
ATOM     61  C   UNL     1      40.331  31.554  20.039  1.00  0.00     0.200 A 
BRANCH  59  62
ATOM     62  O   UNL     1      41.242  31.602  17.795  1.00  0.00    -0.504 OA
ATOM     63  H   UNL     1      41.954  32.082  17.256  1.00  0.00     0.293 HD
ENDBRANCH  59  62
BRANCH  60  64
ATOM     64  O   UNL     1      39.440  31.489  22.299  1.00  0.00    -0.504 OA
ATOM     65  H   UNL     1      38.948  30.714  22.730  1.00  0.00     0.293 HD
ENDBRANCH  60  64
BRANCH  61  66
ATOM     66  O   UNL     1      39.099  32.021  19.573  1.00  0.00    -0.502 OA
ATOM     67  H   UNL     1      38.951  33.001  19.333  1.00  0.00     0.293 HD
ENDBRANCH  61  66
ENDBRANCH  54  56
ENDBRANCH  53  54
ENDBRANCH   5  53
BRANCH   4  68
ATOM     68  O   UNL     1      46.677  27.978  20.325  1.00  0.00    -0.448 OA
BRANCH  68  69
ATOM     69  C   UNL     1      47.417  28.259  19.167  1.00  0.00     0.339 C 
ATOM     70  O   UNL     1      46.824  28.569  18.099  1.00  0.00    -0.246 OA
BRANCH  69  71
ATOM     71  C   UNL     1      48.895  28.231  19.207  1.00  0.00     0.067 A 
ATOM     72  C   UNL     1      49.596  28.918  20.214  1.00  0.00     0.066 A 
ATOM     73  C   UNL     1      49.617  27.512  18.242  1.00  0.00     0.066 A 
ATOM     74  C   UNL     1      50.996  28.861  20.274  1.00  0.00     0.162 A 
ATOM     75  C   UNL     1      51.017  27.459  18.280  1.00  0.00     0.162 A 
ATOM     76  C   UNL     1      51.713  28.125  19.319  1.00  0.00     0.200 A 
BRANCH  74  77
ATOM     77  O   UNL     1      51.685  29.522  21.289  1.00  0.00    -0.504 OA
ATOM     78  H   UNL     1      51.527  30.499  21.484  1.00  0.00     0.293 HD
ENDBRANCH  74  77
BRANCH  75  79
ATOM     79  O   UNL     1      51.665  26.747  17.266  1.00  0.00    -0.504 OA
ATOM     80  H   UNL     1      52.348  26.025  17.430  1.00  0.00     0.293 HD
ENDBRANCH  75  79
BRANCH  76  81
ATOM     81  O   UNL     1      53.103  28.069  19.440  1.00  0.00    -0.502 OA
ATOM     82  H   UNL     1      53.676  28.870  19.640  1.00  0.00     0.293 HD
ENDBRANCH  76  81
ENDBRANCH  69  71
ENDBRANCH  68  69
ENDBRANCH   4  68
TORSDOF 31
ENDMDL
MODEL 7
REMARK VINA RESULT:    -8.264      1.979      2.934
REMARK INTER + INTRA:         -24.315
REMARK INTER:                 -19.507
REMARK INTRA:                  -4.808
REMARK UNBOUND:                -4.699
REMARK SMILES O=C(OC[C@@H]1O[C@@H](OC(=O)c2cc(O)c(O)c(O)c2)[C@@H](OC(=O)c2cc(O)c(O)c(O)c2)[C@H](OC(=O)c2cc(O)c(O)c(O)c2)[C@@H]1OC(=O)c1cc(O)c(O)c(O)c1)c1cc(O)c(O)c(O)c1
REMARK SMILES IDX 5 1 46 2 33 3 20 4 7 5 6 6 4 7 3 8 2 9 1 10 59 11 60 12
REMARK SMILES IDX 61 13 67 14 63 15 65 16 62 17 64 19 66 21 47 23 48 24 49 25
REMARK SMILES IDX 50 26 58 27 51 28 56 29 52 30 54 31 57 32 53 34 55 36 34 38
REMARK SMILES IDX 35 39 36 40 37 41 45 42 38 43 43 44 39 45 41 46 44 47 40 49
REMARK SMILES IDX 42 51 8 53 9 54 10 55 11 56 19 57 12 58 17 59 13 60 15 61
REMARK SMILES IDX 18 62 14 64 16 66 21 68 22 69 23 70 24 71 32 72 25 73 30 74
REMARK SMILES IDX 26 75 28 76 31 77 27 79 29 81
REMARK H PARENT 62 18 64 20 66 22 57 33 53 35 55 37 44 48 40 50 42 52 18 63
REMARK H PARENT 14 65 16 67 31 78 27 80 29 82
REMARK Flexibility Score: inf
ROOT
ATOM      1  C   UNL     1      45.285  26.209  21.499  1.00  0.00     0.205 C 
ATOM      2  C   UNL     1      44.636  27.322  22.351  1.00  0.00     0.254 C 
ATOM      3  C   UNL     1      43.416  26.744  23.095  1.00  0.00     0.267 C 
ATOM      4  C   UNL     1      42.473  26.044  22.100  1.00  0.00     0.290 C 
ATOM      5  C   UNL     1      43.262  25.050  21.230  1.00  0.00     0.357 C 
ATOM      6  O   UNL     1      44.346  25.685  20.571  1.00  0.00    -0.329 OA
ENDROOT
BRANCH   1   7
ATOM      7  C   UNL     1      46.509  26.740  20.734  1.00  0.00     0.269 C 
BRANCH   7   8
ATOM      8  O   UNL     1      47.549  25.763  20.709  1.00  0.00    -0.459 OA
BRANCH   8   9
ATOM      9  C   UNL     1      48.860  26.022  20.292  1.00  0.00     0.338 C 
ATOM     10  O   UNL     1      49.340  27.183  20.391  1.00  0.00    -0.246 OA
BRANCH   9  11
ATOM     11  C   UNL     1      49.690  24.917  19.765  1.00  0.00     0.067 A 
ATOM     12  C   UNL     1      50.809  25.194  18.968  1.00  0.00     0.066 A 
ATOM     13  C   UNL     1      51.592  24.161  18.451  1.00  0.00     0.162 A 
ATOM     14  C   UNL     1      49.369  23.581  20.047  1.00  0.00     0.066 A 
ATOM     15  C   UNL     1      51.263  22.821  18.724  1.00  0.00     0.200 A 
ATOM     16  C   UNL     1      50.141  22.531  19.540  1.00  0.00     0.162 A 
BRANCH  13  17
ATOM     17  O   UNL     1      52.688  24.483  17.647  1.00  0.00    -0.504 OA
ATOM     18  H   UNL     1      53.088  25.414  17.623  1.00  0.00     0.293 HD
ENDBRANCH  13  17
BRANCH  15  19
ATOM     19  O   UNL     1      52.060  21.814  18.170  1.00  0.00    -0.502 OA
ATOM     20  H   UNL     1      53.062  21.875  18.074  1.00  0.00     0.293 HD
ENDBRANCH  15  19
BRANCH  16  21
ATOM     21  O   UNL     1      49.767  21.227  19.876  1.00  0.00    -0.504 OA
ATOM     22  H   UNL     1      50.403  20.449  19.928  1.00  0.00     0.293 HD
ENDBRANCH  16  21
ENDBRANCH   9  11
ENDBRANCH   8   9
ENDBRANCH   7   8
ENDBRANCH   1   7
BRANCH   2  23
ATOM     23  O   UNL     1      44.222  28.392  21.500  1.00  0.00    -0.452 OA
BRANCH  23  24
ATOM     24  C   UNL     1      44.006  29.705  21.941  1.00  0.00     0.338 C 
ATOM     25  O   UNL     1      44.775  30.224  22.796  1.00  0.00    -0.246 OA
BRANCH  24  26
ATOM     26  C   UNL     1      42.873  30.479  21.395  1.00  0.00     0.067 A 
ATOM     27  C   UNL     1      42.371  30.206  20.110  1.00  0.00     0.066 A 
ATOM     28  C   UNL     1      42.279  31.493  22.161  1.00  0.00     0.066 A 
ATOM     29  C   UNL     1      41.292  30.933  19.599  1.00  0.00     0.162 A 
ATOM     30  C   UNL     1      41.205  32.230  21.655  1.00  0.00     0.162 A 
ATOM     31  C   UNL     1      40.708  31.953  20.369  1.00  0.00     0.200 A 
BRANCH  29  32
ATOM     32  O   UNL     1      40.802  30.615  18.331  1.00  0.00    -0.504 OA
ATOM     33  H   UNL     1      40.501  31.330  17.680  1.00  0.00     0.293 HD
ENDBRANCH  29  32
BRANCH  30  34
ATOM     34  O   UNL     1      40.629  33.244  22.422  1.00  0.00    -0.504 OA
ATOM     35  H   UNL     1      39.935  33.036  23.133  1.00  0.00     0.293 HD
ENDBRANCH  30  34
BRANCH  31  36
ATOM     36  O   UNL     1      39.632  32.676  19.851  1.00  0.00    -0.502 OA
ATOM     37  H   UNL     1      39.670  33.682  19.717  1.00  0.00     0.293 HD
ENDBRANCH  31  36
ENDBRANCH  24  26
ENDBRANCH  23  24
ENDBRANCH   2  23
BRANCH   3  38
ATOM     38  O   UNL     1      42.697  27.776  23.770  1.00  0.00    -0.450 OA
BRANCH  38  39
ATOM     39  C   UNL     1      42.285  27.713  25.105  1.00  0.00     0.338 C 
ATOM     40  O   UNL     1      42.612  26.727  25.822  1.00  0.00    -0.246 OA
BRANCH  39  41
ATOM     41  C   UNL     1      41.456  28.805  25.667  1.00  0.00     0.067 A 
ATOM     42  C   UNL     1      41.557  30.120  25.180  1.00  0.00     0.066 A 
ATOM     43  C   UNL     1      40.557  28.534  26.709  1.00  0.00     0.066 A 
ATOM     44  C   UNL     1      40.798  31.154  25.747  1.00  0.00     0.162 A 
ATOM     45  C   UNL     1      39.797  29.557  27.282  1.00  0.00     0.162 A 
ATOM     46  C   UNL     1      39.919  30.873  26.807  1.00  0.00     0.200 A 
BRANCH  44  47
ATOM     47  O   UNL     1      40.914  32.460  25.263  1.00  0.00    -0.504 OA
ATOM     48  H   UNL     1      40.234  33.178  25.490  1.00  0.00     0.293 HD
ENDBRANCH  44  47
BRANCH  45  49
ATOM     49  O   UNL     1      38.919  29.250  28.323  1.00  0.00    -0.504 OA
ATOM     50  H   UNL     1      39.088  29.552  29.273  1.00  0.00     0.293 HD
ENDBRANCH  45  49
BRANCH  46  51
ATOM     51  O   UNL     1      39.160  31.887  27.391  1.00  0.00    -0.502 OA
ATOM     52  H   UNL     1      39.248  32.139  28.370  1.00  0.00     0.293 HD
ENDBRANCH  46  51
ENDBRANCH  39  41
ENDBRANCH  38  39
ENDBRANCH   3  38
BRANCH   5  53
ATOM     53  O   UNL     1      43.724  23.945  22.011  1.00  0.00    -0.428 OA
BRANCH  53  54
ATOM     54  C   UNL     1      43.462  22.608  21.687  1.00  0.00     0.340 C 
ATOM     55  O   UNL     1      42.277  22.176  21.691  1.00  0.00    -0.246 OA
BRANCH  54  56
ATOM     56  C   UNL     1      44.588  21.702  21.369  1.00  0.00     0.067 A 
ATOM     57  C   UNL     1      45.030  20.767  22.319  1.00  0.00     0.066 A 
ATOM     58  C   UNL     1      45.217  21.757  20.114  1.00  0.00     0.066 A 
ATOM     59  C   UNL     1      46.094  19.903  22.025  1.00  0.00     0.162 A 
ATOM     60  C   UNL     1      46.276  20.891  19.812  1.00  0.00     0.162 A 
ATOM     61  C   UNL     1      46.723  19.966  20.769  1.00  0.00     0.200 A 
BRANCH  59  62
ATOM     62  O   UNL     1      46.531  18.981  22.973  1.00  0.00    -0.504 OA
ATOM     63  H   UNL     1      46.653  19.236  23.946  1.00  0.00     0.293 HD
ENDBRANCH  59  62
BRANCH  60  64
ATOM     64  O   UNL     1      46.887  20.967  18.560  1.00  0.00    -0.504 OA
ATOM     65  H   UNL     1      46.889  20.184  17.917  1.00  0.00     0.293 HD
ENDBRANCH  60  64
BRANCH  61  66
ATOM     66  O   UNL     1      47.788  19.117  20.457  1.00  0.00    -0.502 OA
ATOM     67  H   UNL     1      47.710  18.398  19.738  1.00  0.00     0.293 HD
ENDBRANCH  61  66
ENDBRANCH  54  56
ENDBRANCH  53  54
ENDBRANCH   5  53
BRANCH   4  68
ATOM     68  O   UNL     1      41.441  25.345  22.803  1.00  0.00    -0.448 OA
BRANCH  68  69
ATOM     69  C   UNL     1      40.072  25.596  22.621  1.00  0.00     0.339 C 
ATOM     70  O   UNL     1      39.636  26.777  22.668  1.00  0.00    -0.246 OA
BRANCH  69  71
ATOM     71  C   UNL     1      39.147  24.480  22.335  1.00  0.00     0.067 A 
ATOM     72  C   UNL     1      38.224  24.568  21.277  1.00  0.00     0.066 A 
ATOM     73  C   UNL     1      39.179  23.312  23.115  1.00  0.00     0.066 A 
ATOM     74  C   UNL     1      37.372  23.495  20.983  1.00  0.00     0.162 A 
ATOM     75  C   UNL     1      38.322  22.238  22.842  1.00  0.00     0.162 A 
ATOM     76  C   UNL     1      37.422  22.322  21.751  1.00  0.00     0.200 A 
BRANCH  74  77
ATOM     77  O   UNL     1      36.478  23.577  19.916  1.00  0.00    -0.504 OA
ATOM     78  H   UNL     1      35.918  22.786  19.635  1.00  0.00     0.293 HD
ENDBRANCH  74  77
BRANCH  75  79
ATOM     79  O   UNL     1      38.395  21.123  23.683  1.00  0.00    -0.504 OA
ATOM     80  H   UNL     1      37.682  20.414  23.744  1.00  0.00     0.293 HD
ENDBRANCH  75  79
BRANCH  76  81
ATOM     81  O   UNL     1      36.578  21.267  21.398  1.00  0.00    -0.502 OA
ATOM     82  H   UNL     1      35.575  21.335  21.399  1.00  0.00     0.293 HD
ENDBRANCH  76  81
ENDBRANCH  69  71
ENDBRANCH  68  69
ENDBRANCH   4  68
TORSDOF 31
ENDMDL
MODEL 8
REMARK VINA RESULT:    -8.239      1.960      8.199
REMARK INTER + INTRA:         -24.256
REMARK INTER:                 -18.321
REMARK INTRA:                  -5.935
REMARK UNBOUND:                -4.699
REMARK SMILES O=C(OC[C@@H]1O[C@@H](OC(=O)c2cc(O)c(O)c(O)c2)[C@@H](OC(=O)c2cc(O)c(O)c(O)c2)[C@H](OC(=O)c2cc(O)c(O)c(O)c2)[C@@H]1OC(=O)c1cc(O)c(O)c(O)c1)c1cc(O)c(O)c(O)c1
REMARK SMILES IDX 5 1 46 2 33 3 20 4 7 5 6 6 4 7 3 8 2 9 1 10 59 11 60 12
REMARK SMILES IDX 61 13 67 14 63 15 65 16 62 17 64 19 66 21 47 23 48 24 49 25
REMARK SMILES IDX 50 26 58 27 51 28 56 29 52 30 54 31 57 32 53 34 55 36 34 38
REMARK SMILES IDX 35 39 36 40 37 41 45 42 38 43 43 44 39 45 41 46 44 47 40 49
REMARK SMILES IDX 42 51 8 53 9 54 10 55 11 56 19 57 12 58 17 59 13 60 15 61
REMARK SMILES IDX 18 62 14 64 16 66 21 68 22 69 23 70 24 71 32 72 25 73 30 74
REMARK SMILES IDX 26 75 28 76 31 77 27 79 29 81
REMARK H PARENT 62 18 64 20 66 22 57 33 53 35 55 37 44 48 40 50 42 52 18 63
REMARK H PARENT 14 65 16 67 31 78 27 80 29 82
REMARK Flexibility Score: inf
ROOT
ATOM      1  C   UNL     1      43.119  26.761  21.135  1.00  0.00     0.205 C 
ATOM      2  C   UNL     1      44.191  27.829  20.826  1.00  0.00     0.254 C 
ATOM      3  C   UNL     1      45.512  27.126  20.452  1.00  0.00     0.267 C 
ATOM      4  C   UNL     1      45.894  26.106  21.539  1.00  0.00     0.290 C 
ATOM      5  C   UNL     1      44.702  25.180  21.841  1.00  0.00     0.357 C 
ATOM      6  O   UNL     1      43.546  25.921  22.197  1.00  0.00    -0.329 OA
ENDROOT
BRANCH   1   7
ATOM      7  C   UNL     1      41.780  27.415  21.515  1.00  0.00     0.269 C 
BRANCH   7   8
ATOM      8  O   UNL     1      41.513  27.242  22.906  1.00  0.00    -0.459 OA
BRANCH   8   9
ATOM      9  C   UNL     1      40.345  26.662  23.415  1.00  0.00     0.338 C 
ATOM     10  O   UNL     1      39.598  27.316  24.192  1.00  0.00    -0.246 OA
BRANCH   9  11
ATOM     11  C   UNL     1      39.974  25.289  23.009  1.00  0.00     0.067 A 
ATOM     12  C   UNL     1      40.557  24.184  23.645  1.00  0.00     0.066 A 
ATOM     13  C   UNL     1      40.228  22.883  23.260  1.00  0.00     0.162 A 
ATOM     14  C   UNL     1      39.044  25.072  21.982  1.00  0.00     0.066 A 
ATOM     15  C   UNL     1      39.304  22.665  22.222  1.00  0.00     0.200 A 
ATOM     16  C   UNL     1      38.700  23.776  21.583  1.00  0.00     0.162 A 
BRANCH  13  17
ATOM     17  O   UNL     1      40.846  21.812  23.910  1.00  0.00    -0.504 OA
ATOM     18  H   UNL     1      41.686  21.927  24.465  1.00  0.00     0.293 HD
ENDBRANCH  13  17
BRANCH  15  19
ATOM     19  O   UNL     1      39.018  21.347  21.853  1.00  0.00    -0.502 OA
ATOM     20  H   UNL     1      39.650  20.573  21.986  1.00  0.00     0.293 HD
ENDBRANCH  15  19
BRANCH  16  21
ATOM     21  O   UNL     1      37.755  23.639  20.562  1.00  0.00    -0.504 OA
ATOM     22  H   UNL     1      36.813  23.314  20.700  1.00  0.00     0.293 HD
ENDBRANCH  16  21
ENDBRANCH   9  11
ENDBRANCH   8   9
ENDBRANCH   7   8
ENDBRANCH   1   7
BRANCH   2  23
ATOM     23  O   UNL     1      44.389  28.650  21.976  1.00  0.00    -0.452 OA
BRANCH  23  24
ATOM     24  C   UNL     1      44.256  30.046  21.975  1.00  0.00     0.338 C 
ATOM     25  O   UNL     1      45.251  30.781  22.224  1.00  0.00    -0.246 OA
BRANCH  24  26
ATOM     26  C   UNL     1      42.943  30.652  21.676  1.00  0.00     0.067 A 
ATOM     27  C   UNL     1      42.547  30.887  20.347  1.00  0.00     0.066 A 
ATOM     28  C   UNL     1      42.070  30.991  22.720  1.00  0.00     0.066 A 
ATOM     29  C   UNL     1      41.300  31.451  20.065  1.00  0.00     0.162 A 
ATOM     30  C   UNL     1      40.824  31.562  22.448  1.00  0.00     0.162 A 
ATOM     31  C   UNL     1      40.434  31.797  21.118  1.00  0.00     0.200 A 
BRANCH  29  32
ATOM     32  O   UNL     1      40.929  31.643  18.734  1.00  0.00    -0.504 OA
ATOM     33  H   UNL     1      40.528  30.898  18.177  1.00  0.00     0.293 HD
ENDBRANCH  29  32
BRANCH  30  34
ATOM     34  O   UNL     1      39.969  31.907  23.497  1.00  0.00    -0.504 OA
ATOM     35  H   UNL     1      38.978  31.688  23.460  1.00  0.00     0.293 HD
ENDBRANCH  30  34
BRANCH  31  36
ATOM     36  O   UNL     1      39.191  32.361  20.829  1.00  0.00    -0.502 OA
ATOM     37  H   UNL     1      39.098  33.234  20.318  1.00  0.00     0.293 HD
ENDBRANCH  31  36
ENDBRANCH  24  26
ENDBRANCH  23  24
ENDBRANCH   2  23
BRANCH   3  38
ATOM     38  O   UNL     1      46.569  28.074  20.312  1.00  0.00    -0.450 OA
BRANCH  38  39
ATOM     39  C   UNL     1      47.271  28.309  19.125  1.00  0.00     0.338 C 
ATOM     40  O   UNL     1      46.646  28.577  18.062  1.00  0.00    -0.246 OA
BRANCH  39  41
ATOM     41  C   UNL     1      48.751  28.232  19.124  1.00  0.00     0.067 A 
ATOM     42  C   UNL     1      49.440  27.468  18.166  1.00  0.00     0.066 A 
ATOM     43  C   UNL     1      49.488  28.924  20.097  1.00  0.00     0.066 A 
ATOM     44  C   UNL     1      50.838  27.368  18.198  1.00  0.00     0.162 A 
ATOM     45  C   UNL     1      50.882  28.830  20.140  1.00  0.00     0.162 A 
ATOM     46  C   UNL     1      51.562  28.047  19.193  1.00  0.00     0.200 A 
BRANCH  44  47
ATOM     47  O   UNL     1      51.512  26.597  17.247  1.00  0.00    -0.504 OA
ATOM     48  H   UNL     1      51.382  25.593  17.183  1.00  0.00     0.293 HD
ENDBRANCH  44  47
BRANCH  45  49
ATOM     49  O   UNL     1      51.579  29.525  21.128  1.00  0.00    -0.504 OA
ATOM     50  H   UNL     1      51.152  30.272  21.660  1.00  0.00     0.293 HD
ENDBRANCH  45  49
BRANCH  46  51
ATOM     51  O   UNL     1      52.953  27.955  19.250  1.00  0.00    -0.502 OA
ATOM     52  H   UNL     1      53.512  28.526  19.875  1.00  0.00     0.293 HD
ENDBRANCH  46  51
ENDBRANCH  39  41
ENDBRANCH  38  39
ENDBRANCH   3  38
BRANCH   5  53
ATOM     53  O   UNL     1      44.429  24.323  20.729  1.00  0.00    -0.428 OA
BRANCH  53  54
ATOM     54  C   UNL     1      44.039  22.985  20.864  1.00  0.00     0.340 C 
ATOM     55  O   UNL     1      42.822  22.693  21.025  1.00  0.00    -0.246 OA
BRANCH  54  56
ATOM     56  C   UNL     1      45.067  21.921  20.845  1.00  0.00     0.067 A 
ATOM     57  C   UNL     1      45.192  21.042  21.933  1.00  0.00     0.066 A 
ATOM     58  C   UNL     1      45.919  21.770  19.738  1.00  0.00     0.066 A 
ATOM     59  C   UNL     1      46.162  20.029  21.923  1.00  0.00     0.162 A 
ATOM     60  C   UNL     1      46.885  20.755  19.719  1.00  0.00     0.162 A 
ATOM     61  C   UNL     1      47.014  19.887  20.814  1.00  0.00     0.200 A 
BRANCH  59  62
ATOM     62  O   UNL     1      46.283  19.164  23.007  1.00  0.00    -0.504 OA
ATOM     63  H   UNL     1      46.039  18.183  22.935  1.00  0.00     0.293 HD
ENDBRANCH  59  62
BRANCH  60  64
ATOM     64  O   UNL     1      47.722  20.628  18.610  1.00  0.00    -0.504 OA
ATOM     65  H   UNL     1      47.938  21.414  18.009  1.00  0.00     0.293 HD
ENDBRANCH  60  64
BRANCH  61  66
ATOM     66  O   UNL     1      47.990  18.887  20.785  1.00  0.00    -0.502 OA
ATOM     67  H   UNL     1      48.881  19.019  20.306  1.00  0.00     0.293 HD
ENDBRANCH  61  66
ENDBRANCH  54  56
ENDBRANCH  53  54
ENDBRANCH   5  53
BRANCH   4  68
ATOM     68  O   UNL     1      47.010  25.319  21.111  1.00  0.00    -0.448 OA
BRANCH  68  69
ATOM     69  C   UNL     1      48.318  25.509  21.580  1.00  0.00     0.339 C 
ATOM     70  O   UNL     1      48.519  26.152  22.646  1.00  0.00    -0.246 OA
BRANCH  69  71
ATOM     71  C   UNL     1      49.461  24.922  20.848  1.00  0.00     0.067 A 
ATOM     72  C   UNL     1      50.777  25.331  21.129  1.00  0.00     0.066 A 
ATOM     73  C   UNL     1      49.246  23.945  19.864  1.00  0.00     0.066 A 
ATOM     74  C   UNL     1      51.862  24.747  20.461  1.00  0.00     0.162 A 
ATOM     75  C   UNL     1      50.320  23.364  19.176  1.00  0.00     0.162 A 
ATOM     76  C   UNL     1      51.645  23.756  19.492  1.00  0.00     0.200 A 
BRANCH  74  77
ATOM     77  O   UNL     1      53.167  25.137  20.762  1.00  0.00    -0.504 OA
ATOM     78  H   UNL     1      53.356  25.932  21.354  1.00  0.00     0.293 HD
ENDBRANCH  74  77
BRANCH  75  79
ATOM     79  O   UNL     1      50.023  22.420  18.190  1.00  0.00    -0.504 OA
ATOM     80  H   UNL     1      49.111  22.013  18.053  1.00  0.00     0.293 HD
ENDBRANCH  75  79
BRANCH  76  81
ATOM     81  O   UNL     1      52.759  23.180  18.879  1.00  0.00    -0.502 OA
ATOM     82  H   UNL     1      53.256  23.608  18.117  1.00  0.00     0.293 HD
ENDBRANCH  76  81
ENDBRANCH  69  71
ENDBRANCH  68  69
ENDBRANCH   4  68
TORSDOF 31
ENDMDL
MODEL 9
REMARK VINA RESULT:    -8.165      2.598      6.382
REMARK INTER + INTRA:         -24.081
REMARK INTER:                 -18.300
REMARK INTRA:                  -5.781
REMARK UNBOUND:                -4.699
REMARK SMILES O=C(OC[C@@H]1O[C@@H](OC(=O)c2cc(O)c(O)c(O)c2)[C@@H](OC(=O)c2cc(O)c(O)c(O)c2)[C@H](OC(=O)c2cc(O)c(O)c(O)c2)[C@@H]1OC(=O)c1cc(O)c(O)c(O)c1)c1cc(O)c(O)c(O)c1
REMARK SMILES IDX 5 1 46 2 33 3 20 4 7 5 6 6 4 7 3 8 2 9 1 10 59 11 60 12
REMARK SMILES IDX 61 13 67 14 63 15 65 16 62 17 64 19 66 21 47 23 48 24 49 25
REMARK SMILES IDX 50 26 58 27 51 28 56 29 52 30 54 31 57 32 53 34 55 36 34 38
REMARK SMILES IDX 35 39 36 40 37 41 45 42 38 43 43 44 39 45 41 46 44 47 40 49
REMARK SMILES IDX 42 51 8 53 9 54 10 55 11 56 19 57 12 58 17 59 13 60 15 61
REMARK SMILES IDX 18 62 14 64 16 66 21 68 22 69 23 70 24 71 32 72 25 73 30 74
REMARK SMILES IDX 26 75 28 76 31 77 27 79 29 81
REMARK H PARENT 62 18 64 20 66 22 57 33 53 35 55 37 44 48 40 50 42 52 18 63
REMARK H PARENT 14 65 16 67 31 78 27 80 29 82
REMARK Flexibility Score: inf
ROOT
ATOM      1  C   UNL     1      41.980  25.248  22.232  1.00  0.00     0.205 C 
ATOM      2  C   UNL     1      42.813  26.548  22.238  1.00  0.00     0.254 C 
ATOM      3  C   UNL     1      42.490  27.350  23.515  1.00  0.00     0.267 C 
ATOM      4  C   UNL     1      40.968  27.545  23.646  1.00  0.00     0.290 C 
ATOM      5  C   UNL     1      40.247  26.193  23.501  1.00  0.00     0.357 C 
ATOM      6  O   UNL     1      40.593  25.548  22.286  1.00  0.00    -0.329 OA
ENDROOT
BRANCH   1   7
ATOM      7  C   UNL     1      42.267  24.412  20.974  1.00  0.00     0.269 C 
BRANCH   7   8
ATOM      8  O   UNL     1      43.382  23.548  21.187  1.00  0.00    -0.459 OA
BRANCH   8   9
ATOM      9  C   UNL     1      43.406  22.194  20.832  1.00  0.00     0.338 C 
ATOM     10  O   UNL     1      42.349  21.618  20.457  1.00  0.00    -0.246 OA
BRANCH   9  11
ATOM     11  C   UNL     1      44.685  21.452  20.864  1.00  0.00     0.067 A 
ATOM     12  C   UNL     1      45.563  21.512  19.774  1.00  0.00     0.066 A 
ATOM     13  C   UNL     1      46.766  20.804  19.785  1.00  0.00     0.162 A 
ATOM     14  C   UNL     1      45.035  20.676  21.979  1.00  0.00     0.066 A 
ATOM     15  C   UNL     1      47.112  20.016  20.898  1.00  0.00     0.200 A 
ATOM     16  C   UNL     1      46.236  19.961  22.011  1.00  0.00     0.162 A 
BRANCH  13  17
ATOM     17  O   UNL     1      47.602  20.879  18.669  1.00  0.00    -0.504 OA
ATOM     18  H   UNL     1      48.573  21.159  18.737  1.00  0.00     0.293 HD
ENDBRANCH  13  17
BRANCH  15  19
ATOM     19  O   UNL     1      48.315  19.305  20.861  1.00  0.00    -0.502 OA
ATOM     20  H   UNL     1      48.979  19.357  20.104  1.00  0.00     0.293 HD
ENDBRANCH  15  19
BRANCH  16  21
ATOM     21  O   UNL     1      46.522  19.221  23.162  1.00  0.00    -0.504 OA
ATOM     22  H   UNL     1      45.941  19.200  23.984  1.00  0.00     0.293 HD
ENDBRANCH  16  21
ENDBRANCH   9  11
ENDBRANCH   8   9
ENDBRANCH   7   8
ENDBRANCH   1   7
BRANCH   2  23
ATOM     23  O   UNL     1      42.491  27.325  21.084  1.00  0.00    -0.452 OA
BRANCH  23  24
ATOM     24  C   UNL     1      43.447  27.899  20.234  1.00  0.00     0.338 C 
ATOM     25  O   UNL     1      44.661  27.568  20.326  1.00  0.00    -0.246 OA
BRANCH  24  26
ATOM     26  C   UNL     1      43.023  28.893  19.228  1.00  0.00     0.067 A 
ATOM     27  C   UNL     1      43.379  28.742  17.876  1.00  0.00     0.066 A 
ATOM     28  C   UNL     1      42.250  29.998  19.612  1.00  0.00     0.066 A 
ATOM     29  C   UNL     1      42.969  29.678  16.923  1.00  0.00     0.162 A 
ATOM     30  C   UNL     1      41.841  30.943  18.667  1.00  0.00     0.162 A 
ATOM     31  C   UNL     1      42.201  30.788  17.317  1.00  0.00     0.200 A 
BRANCH  29  32
ATOM     32  O   UNL     1      43.317  29.481  15.586  1.00  0.00    -0.504 OA
ATOM     33  H   UNL     1      43.689  30.229  15.014  1.00  0.00     0.293 HD
ENDBRANCH  29  32
BRANCH  30  34
ATOM     34  O   UNL     1      41.081  32.045  19.064  1.00  0.00    -0.504 OA
ATOM     35  H   UNL     1      41.329  32.986  18.775  1.00  0.00     0.293 HD
ENDBRANCH  30  34
BRANCH  31  36
ATOM     36  O   UNL     1      41.796  31.720  16.360  1.00  0.00    -0.502 OA
ATOM     37  H   UNL     1      40.817  31.926  16.186  1.00  0.00     0.293 HD
ENDBRANCH  31  36
ENDBRANCH  24  26
ENDBRANCH  23  24
ENDBRANCH   2  23
BRANCH   3  38
ATOM     38  O   UNL     1      43.121  28.631  23.483  1.00  0.00    -0.450 OA
BRANCH  38  39
ATOM     39  C   UNL     1      44.457  28.864  23.825  1.00  0.00     0.338 C 
ATOM     40  O   UNL     1      45.062  28.069  24.595  1.00  0.00    -0.246 OA
BRANCH  39  41
ATOM     41  C   UNL     1      45.152  30.055  23.283  1.00  0.00     0.067 A 
ATOM     42  C   UNL     1      46.203  29.928  22.358  1.00  0.00     0.066 A 
ATOM     43  C   UNL     1      44.769  31.339  23.701  1.00  0.00     0.066 A 
ATOM     44  C   UNL     1      46.882  31.059  21.883  1.00  0.00     0.162 A 
ATOM     45  C   UNL     1      45.440  32.473  23.236  1.00  0.00     0.162 A 
ATOM     46  C   UNL     1      46.503  32.337  22.328  1.00  0.00     0.200 A 
BRANCH  44  47
ATOM     47  O   UNL     1      47.932  30.920  20.972  1.00  0.00    -0.504 OA
ATOM     48  H   UNL     1      48.417  30.037  20.844  1.00  0.00     0.293 HD
ENDBRANCH  44  47
BRANCH  45  49
ATOM     49  O   UNL     1      45.034  33.732  23.681  1.00  0.00    -0.504 OA
ATOM     50  H   UNL     1      45.591  34.278  24.325  1.00  0.00     0.293 HD
ENDBRANCH  45  49
BRANCH  46  51
ATOM     51  O   UNL     1      47.169  33.476  21.877  1.00  0.00    -0.502 OA
ATOM     52  H   UNL     1      47.889  33.440  21.162  1.00  0.00     0.293 HD
ENDBRANCH  46  51
ENDBRANCH  39  41
ENDBRANCH  38  39
ENDBRANCH   3  38
BRANCH   5  53
ATOM     53  O   UNL     1      40.524  25.346  24.619  1.00  0.00    -0.428 OA
BRANCH  53  54
ATOM     54  C   UNL     1      39.728  24.248  24.971  1.00  0.00     0.340 C 
ATOM     55  O   UNL     1      39.212  24.183  26.121  1.00  0.00    -0.246 OA
BRANCH  54  56
ATOM     56  C   UNL     1      39.523  23.155  23.996  1.00  0.00     0.067 A 
ATOM     57  C   UNL     1      38.314  23.060  23.287  1.00  0.00     0.066 A 
ATOM     58  C   UNL     1      40.535  22.209  23.759  1.00  0.00     0.066 A 
ATOM     59  C   UNL     1      38.112  22.029  22.359  1.00  0.00     0.162 A 
ATOM     60  C   UNL     1      40.342  21.181  22.827  1.00  0.00     0.162 A 
ATOM     61  C   UNL     1      39.127  21.083  22.130  1.00  0.00     0.200 A 
BRANCH  59  62
ATOM     62  O   UNL     1      36.910  21.938  21.663  1.00  0.00    -0.504 OA
ATOM     63  H   UNL     1      36.873  22.008  20.653  1.00  0.00     0.293 HD
ENDBRANCH  59  62
BRANCH  60  64
ATOM     64  O   UNL     1      41.359  20.252  22.612  1.00  0.00    -0.504 OA
ATOM     65  H   UNL     1      41.184  19.253  22.625  1.00  0.00     0.293 HD
ENDBRANCH  60  64
BRANCH  61  66
ATOM     66  O   UNL     1      38.945  20.045  21.213  1.00  0.00    -0.502 OA
ATOM     67  H   UNL     1      39.682  19.762  20.568  1.00  0.00     0.293 HD
ENDBRANCH  61  66
ENDBRANCH  54  56
ENDBRANCH  53  54
ENDBRANCH   5  53
BRANCH   4  68
ATOM     68  O   UNL     1      40.650  28.119  24.918  1.00  0.00    -0.448 OA
BRANCH  68  69
ATOM     69  C   UNL     1      39.882  29.283  25.071  1.00  0.00     0.339 C 
ATOM     70  O   UNL     1      39.038  29.364  26.004  1.00  0.00    -0.246 OA
BRANCH  69  71
ATOM     71  C   UNL     1      40.091  30.432  24.165  1.00  0.00     0.067 A 
ATOM     72  C   UNL     1      40.985  31.462  24.509  1.00  0.00     0.066 A 
ATOM     73  C   UNL     1      39.400  30.508  22.945  1.00  0.00     0.066 A 
ATOM     74  C   UNL     1      41.210  32.533  23.632  1.00  0.00     0.162 A 
ATOM     75  C   UNL     1      39.603  31.580  22.066  1.00  0.00     0.162 A 
ATOM     76  C   UNL     1      40.534  32.595  22.405  1.00  0.00     0.200 A 
BRANCH  74  77
ATOM     77  O   UNL     1      42.117  33.538  23.966  1.00  0.00    -0.504 OA
ATOM     78  H   UNL     1      41.898  34.513  23.828  1.00  0.00     0.293 HD
ENDBRANCH  74  77
BRANCH  75  79
ATOM     79  O   UNL     1      38.857  31.599  20.884  1.00  0.00    -0.504 OA
ATOM     80  H   UNL     1      39.060  32.193  20.097  1.00  0.00     0.293 HD
ENDBRANCH  75  79
BRANCH  76  81
ATOM     81  O   UNL     1      40.817  33.662  21.550  1.00  0.00    -0.502 OA
ATOM     82  H   UNL     1      41.454  33.598  20.775  1.00  0.00     0.293 HD
ENDBRANCH  76  81
ENDBRANCH  69  71
ENDBRANCH  68  69
ENDBRANCH   4  68
TORSDOF 31
ENDMDL
