MODEL 1
REMARK VINA RESULT:    -6.370      0.000      0.000
REMARK INTER + INTRA:         -16.297
REMARK INTER:                 -14.562
REMARK INTRA:                  -1.735
REMARK UNBOUND:                -1.735
REMARK SMILES CCCCCCCCCCCCCCCCCCCCCCCC(=O)[O-]
REMARK SMILES IDX 13 1 14 2 15 3 16 4 17 5 18 6 19 7 20 8 21 9 22 10 23 11
REMARK SMILES IDX 24 12 25 13 26 14 12 15 11 16 10 17 9 18 8 19 7 20 6 21 5 22
REMARK SMILES IDX 4 23 3 24 2 25 1 26
REMARK H PARENT
REMARK Flexibility Score: inf
ROOT
ATOM      1  C   UNL     1      87.254 319.124 198.716  1.00  0.00     0.000 C 
ENDROOT
BRANCH   1   2
ATOM      2  C   UNL     1      87.029 319.154 197.195  1.00  0.00     0.000 C 
BRANCH   2   3
ATOM      3  C   UNL     1      87.421 320.504 196.569  1.00  0.00     0.000 C 
BRANCH   3   4
ATOM      4  C   UNL     1      86.793 320.721 195.183  1.00  0.00     0.000 C 
BRANCH   4   5
ATOM      5  C   UNL     1      85.286 320.412 195.165  1.00  0.00     0.000 C 
BRANCH   5   6
ATOM      6  C   UNL     1      84.827 319.783 193.839  1.00  0.00     0.000 C 
BRANCH   6   7
ATOM      7  C   UNL     1      85.999 319.234 193.006  1.00  0.00     0.000 C 
BRANCH   7   8
ATOM      8  C   UNL     1      86.232 317.731 193.232  1.00  0.00     0.000 C 
BRANCH   8   9
ATOM      9  C   UNL     1      86.462 316.964 191.922  1.00  0.00     0.000 C 
BRANCH   9  10
ATOM     10  C   UNL     1      86.379 317.909 190.714  1.00  0.00     0.006 C 
BRANCH  10  11
ATOM     11  C   UNL     1      87.039 317.314 189.463  1.00  0.00     0.053 C 
BRANCH  11  12
ATOM     12  C   UNL     1      86.113 316.395 188.727  1.00  0.00     0.041 C 
ATOM     13  O   UNL     1      84.866 316.527 188.843  1.00  0.00    -0.550 OA
ATOM     14  O   UNL     1      86.626 315.413 187.888  1.00  0.00    -0.550 OA
ENDBRANCH  11  12
ENDBRANCH  10  11
ENDBRANCH   9  10
ENDBRANCH   8   9
ENDBRANCH   7   8
ENDBRANCH   6   7
ENDBRANCH   5   6
ENDBRANCH   4   5
ENDBRANCH   3   4
ENDBRANCH   2   3
ENDBRANCH   1   2
BRANCH   1  15
ATOM     15  C   UNL     1      87.308 320.536 199.329  1.00  0.00     0.000 C 
BRANCH  15  16
ATOM     16  C   UNL     1      88.256 320.621 200.535  1.00  0.00     0.000 C 
BRANCH  16  17
ATOM     17  C   UNL     1      87.511 320.578 201.878  1.00  0.00     0.000 C 
BRANCH  17  18
ATOM     18  C   UNL     1      88.387 321.141 203.007  1.00  0.00    -0.000 C 
BRANCH  18  19
ATOM     19  C   UNL     1      88.166 320.425 204.349  1.00  0.00    -0.000 C 
BRANCH  19  20
ATOM     20  C   UNL     1      87.477 321.322 205.393  1.00  0.00    -0.000 C 
BRANCH  20  21
ATOM     21  C   UNL     1      87.278 320.621 206.749  1.00  0.00    -0.000 C 
BRANCH  21  22
ATOM     22  C   UNL     1      85.861 320.073 206.997  1.00  0.00    -0.000 C 
BRANCH  22  23
ATOM     23  C   UNL     1      85.693 318.616 206.536  1.00  0.00    -0.000 C 
BRANCH  23  24
ATOM     24  C   UNL     1      84.767 318.478 205.315  1.00  0.00    -0.000 C 
BRANCH  24  25
ATOM     25  C   UNL     1      85.320 317.592 204.185  1.00  0.00    -0.003 C 
ATOM     26  C   UNL     1      84.894 318.060 202.793  1.00  0.00     0.004 C 
ENDBRANCH  24  25
ENDBRANCH  23  24
ENDBRANCH  22  23
ENDBRANCH  21  22
ENDBRANCH  20  21
ENDBRANCH  19  20
ENDBRANCH  18  19
ENDBRANCH  17  18
ENDBRANCH  16  17
ENDBRANCH  15  16
ENDBRANCH   1  15
TORSDOF 22
ENDMDL
MODEL 2
REMARK VINA RESULT:    -6.330      1.506      3.278
REMARK INTER + INTRA:         -16.206
REMARK INTER:                 -14.150
REMARK INTRA:                  -2.056
REMARK UNBOUND:                -1.735
REMARK SMILES CCCCCCCCCCCCCCCCCCCCCCCC(=O)[O-]
REMARK SMILES IDX 13 1 14 2 15 3 16 4 17 5 18 6 19 7 20 8 21 9 22 10 23 11
REMARK SMILES IDX 24 12 25 13 26 14 12 15 11 16 10 17 9 18 8 19 7 20 6 21 5 22
REMARK SMILES IDX 4 23 3 24 2 25 1 26
REMARK H PARENT
REMARK Flexibility Score: inf
ROOT
ATOM      1  C   UNL     1      88.859 320.425 201.591  1.00  0.00     0.000 C 
ENDROOT
BRANCH   1   2
ATOM      2  C   UNL     1      87.764 320.130 200.551  1.00  0.00     0.000 C 
BRANCH   2   3
ATOM      3  C   UNL     1      87.638 321.245 199.498  1.00  0.00     0.000 C 
BRANCH   3   4
ATOM      4  C   UNL     1      86.813 320.816 198.274  1.00  0.00     0.000 C 
BRANCH   4   5
ATOM      5  C   UNL     1      87.247 319.446 197.723  1.00  0.00     0.000 C 
BRANCH   5   6
ATOM      6  C   UNL     1      87.279 319.410 196.186  1.00  0.00     0.000 C 
BRANCH   6   7
ATOM      7  C   UNL     1      87.326 320.816 195.562  1.00  0.00     0.000 C 
BRANCH   7   8
ATOM      8  C   UNL     1      86.547 320.902 194.239  1.00  0.00     0.000 C 
BRANCH   8   9
ATOM      9  C   UNL     1      85.075 320.493 194.390  1.00  0.00     0.000 C 
BRANCH   9  10
ATOM     10  C   UNL     1      84.729 319.339 193.436  1.00  0.00     0.006 C 
BRANCH  10  11
ATOM     11  C   UNL     1      85.936 318.895 192.599  1.00  0.00     0.053 C 
BRANCH  11  12
ATOM     12  C   UNL     1      85.611 317.716 191.733  1.00  0.00     0.041 C 
ATOM     13  O   UNL     1      86.523 316.931 191.364  1.00  0.00    -0.550 OA
ATOM     14  O   UNL     1      84.295 317.468 191.360  1.00  0.00    -0.550 OA
ENDBRANCH  11  12
ENDBRANCH  10  11
ENDBRANCH   9  10
ENDBRANCH   8   9
ENDBRANCH   7   8
ENDBRANCH   6   7
ENDBRANCH   5   6
ENDBRANCH   4   5
ENDBRANCH   3   4
ENDBRANCH   2   3
ENDBRANCH   1   2
BRANCH   1  15
ATOM     15  C   UNL     1      88.279 320.889 202.939  1.00  0.00     0.000 C 
BRANCH  15  16
ATOM     16  C   UNL     1      89.340 321.518 203.854  1.00  0.00     0.000 C 
BRANCH  16  17
ATOM     17  C   UNL     1      88.946 321.468 205.339  1.00  0.00     0.000 C 
BRANCH  17  18
ATOM     18  C   UNL     1      87.445 321.182 205.496  1.00  0.00    -0.000 C 
BRANCH  18  19
ATOM     19  C   UNL     1      87.084 320.633 206.887  1.00  0.00    -0.000 C 
BRANCH  19  20
ATOM     20  C   UNL     1      86.546 319.193 206.833  1.00  0.00    -0.000 C 
BRANCH  20  21
ATOM     21  C   UNL     1      85.251 319.068 206.009  1.00  0.00    -0.000 C 
BRANCH  21  22
ATOM     22  C   UNL     1      84.931 317.647 205.511  1.00  0.00    -0.000 C 
BRANCH  22  23
ATOM     23  C   UNL     1      85.841 317.199 204.355  1.00  0.00    -0.000 C 
BRANCH  23  24
ATOM     24  C   UNL     1      85.792 318.155 203.150  1.00  0.00    -0.000 C 
BRANCH  24  25
ATOM     25  C   UNL     1      85.641 317.461 201.785  1.00  0.00    -0.003 C 
ATOM     26  C   UNL     1      84.280 316.790 201.600  1.00  0.00     0.004 C 
ENDBRANCH  24  25
ENDBRANCH  23  24
ENDBRANCH  22  23
ENDBRANCH  21  22
ENDBRANCH  20  21
ENDBRANCH  19  20
ENDBRANCH  18  19
ENDBRANCH  17  18
ENDBRANCH  16  17
ENDBRANCH  15  16
ENDBRANCH   1  15
TORSDOF 22
ENDMDL
MODEL 3
REMARK VINA RESULT:    -6.304      1.052      1.732
REMARK INTER + INTRA:         -16.146
REMARK INTER:                 -14.225
REMARK INTRA:                  -1.921
REMARK UNBOUND:                -1.735
REMARK SMILES CCCCCCCCCCCCCCCCCCCCCCCC(=O)[O-]
REMARK SMILES IDX 13 1 14 2 15 3 16 4 17 5 18 6 19 7 20 8 21 9 22 10 23 11
REMARK SMILES IDX 24 12 25 13 26 14 12 15 11 16 10 17 9 18 8 19 7 20 6 21 5 22
REMARK SMILES IDX 4 23 3 24 2 25 1 26
REMARK H PARENT
REMARK Flexibility Score: inf
ROOT
ATOM      1  C   UNL     1      87.800 320.865 199.997  1.00  0.00     0.000 C 
ENDROOT
BRANCH   1   2
ATOM      2  C   UNL     1      87.320 319.940 198.866  1.00  0.00     0.000 C 
BRANCH   2   3
ATOM      3  C   UNL     1      86.850 320.723 197.626  1.00  0.00     0.000 C 
BRANCH   3   4
ATOM      4  C   UNL     1      87.013 319.925 196.323  1.00  0.00     0.000 C 
BRANCH   4   5
ATOM      5  C   UNL     1      87.063 320.832 195.080  1.00  0.00     0.000 C 
BRANCH   5   6
ATOM      6  C   UNL     1      85.681 321.026 194.434  1.00  0.00     0.000 C 
BRANCH   6   7
ATOM      7  C   UNL     1      85.129 319.729 193.815  1.00  0.00     0.000 C 
BRANCH   7   8
ATOM      8  C   UNL     1      86.142 319.038 192.887  1.00  0.00     0.000 C 
BRANCH   8   9
ATOM      9  C   UNL     1      86.234 317.525 193.130  1.00  0.00     0.000 C 
BRANCH   9  10
ATOM     10  C   UNL     1      86.079 316.750 191.813  1.00  0.00     0.006 C 
BRANCH  10  11
ATOM     11  C   UNL     1      86.228 317.656 190.584  1.00  0.00     0.053 C 
BRANCH  11  12
ATOM     12  C   UNL     1      87.387 317.247 189.727  1.00  0.00     0.041 C 
ATOM     13  O   UNL     1      87.872 318.053 188.891  1.00  0.00    -0.550 OA
ATOM     14  O   UNL     1      87.951 315.985 189.875  1.00  0.00    -0.550 OA
ENDBRANCH  11  12
ENDBRANCH  10  11
ENDBRANCH   9  10
ENDBRANCH   8   9
ENDBRANCH   7   8
ENDBRANCH   6   7
ENDBRANCH   5   6
ENDBRANCH   4   5
ENDBRANCH   3   4
ENDBRANCH   2   3
ENDBRANCH   1   2
BRANCH   1  15
ATOM     15  C   UNL     1      87.297 320.411 201.379  1.00  0.00     0.000 C 
BRANCH  15  16
ATOM     16  C   UNL     1      88.368 319.653 202.179  1.00  0.00     0.000 C 
BRANCH  16  17
ATOM     17  C   UNL     1      88.193 319.809 203.698  1.00  0.00     0.000 C 
BRANCH  17  18
ATOM     18  C   UNL     1      88.311 321.283 204.113  1.00  0.00    -0.000 C 
BRANCH  18  19
ATOM     19  C   UNL     1      87.416 321.639 205.312  1.00  0.00    -0.000 C 
BRANCH  19  20
ATOM     20  C   UNL     1      87.562 320.644 206.476  1.00  0.00    -0.000 C 
BRANCH  20  21
ATOM     21  C   UNL     1      86.208 320.115 206.986  1.00  0.00    -0.000 C 
BRANCH  21  22
ATOM     22  C   UNL     1      85.900 318.652 206.619  1.00  0.00    -0.000 C 
BRANCH  22  23
ATOM     23  C   UNL     1      84.836 318.522 205.516  1.00  0.00    -0.000 C 
BRANCH  23  24
ATOM     24  C   UNL     1      85.298 317.645 204.339  1.00  0.00    -0.000 C 
BRANCH  24  25
ATOM     25  C   UNL     1      84.861 318.148 202.952  1.00  0.00    -0.003 C 
ATOM     26  C   UNL     1      84.722 317.025 201.924  1.00  0.00     0.004 C 
ENDBRANCH  24  25
ENDBRANCH  23  24
ENDBRANCH  22  23
ENDBRANCH  21  22
ENDBRANCH  20  21
ENDBRANCH  19  20
ENDBRANCH  18  19
ENDBRANCH  17  18
ENDBRANCH  16  17
ENDBRANCH  15  16
ENDBRANCH   1  15
TORSDOF 22
ENDMDL
MODEL 4
REMARK VINA RESULT:    -6.275      3.570     11.187
REMARK INTER + INTRA:         -16.081
REMARK INTER:                 -14.283
REMARK INTRA:                  -1.798
REMARK UNBOUND:                -1.735
REMARK SMILES CCCCCCCCCCCCCCCCCCCCCCCC(=O)[O-]
REMARK SMILES IDX 13 1 14 2 15 3 16 4 17 5 18 6 19 7 20 8 21 9 22 10 23 11
REMARK SMILES IDX 24 12 25 13 26 14 12 15 11 16 10 17 9 18 8 19 7 20 6 21 5 22
REMARK SMILES IDX 4 23 3 24 2 25 1 26
REMARK H PARENT
REMARK Flexibility Score: inf
ROOT
ATOM      1  C   UNL     1      88.385 320.864 201.372  1.00  0.00     0.000 C 
ENDROOT
BRANCH   1   2
ATOM      2  C   UNL     1      87.973 320.826 202.854  1.00  0.00     0.000 C 
BRANCH   2   3
ATOM      3  C   UNL     1      89.043 321.438 203.777  1.00  0.00     0.000 C 
BRANCH   3   4
ATOM      4  C   UNL     1      88.613 321.460 205.252  1.00  0.00     0.000 C 
BRANCH   4   5
ATOM      5  C   UNL     1      87.227 320.828 205.470  1.00  0.00     0.000 C 
BRANCH   5   6
ATOM      6  C   UNL     1      86.997 320.394 206.927  1.00  0.00     0.000 C 
BRANCH   6   7
ATOM      7  C   UNL     1      86.180 319.094 207.037  1.00  0.00     0.000 C 
BRANCH   7   8
ATOM      8  C   UNL     1      85.091 318.986 205.957  1.00  0.00     0.000 C 
BRANCH   8   9
ATOM      9  C   UNL     1      85.035 317.596 205.309  1.00  0.00     0.000 C 
BRANCH   9  10
ATOM     10  C   UNL     1      85.959 317.526 204.084  1.00  0.00     0.006 C 
BRANCH  10  11
ATOM     11  C   UNL     1      85.317 318.145 202.835  1.00  0.00     0.053 C 
BRANCH  11  12
ATOM     12  C   UNL     1      85.066 317.119 201.772  1.00  0.00     0.041 C 
ATOM     13  O   UNL     1      83.962 316.515 201.723  1.00  0.00    -0.550 OA
ATOM     14  O   UNL     1      86.040 316.853 200.817  1.00  0.00    -0.550 OA
ENDBRANCH  11  12
ENDBRANCH  10  11
ENDBRANCH   9  10
ENDBRANCH   8   9
ENDBRANCH   7   8
ENDBRANCH   6   7
ENDBRANCH   5   6
ENDBRANCH   4   5
ENDBRANCH   3   4
ENDBRANCH   2   3
ENDBRANCH   1   2
BRANCH   1  15
ATOM     15  C   UNL     1      87.488 319.975 200.491  1.00  0.00     0.000 C 
BRANCH  15  16
ATOM     16  C   UNL     1      87.284 320.554 199.083  1.00  0.00     0.000 C 
BRANCH  16  17
ATOM     17  C   UNL     1      87.275 319.470 197.993  1.00  0.00     0.000 C 
BRANCH  17  18
ATOM     18  C   UNL     1      86.494 319.943 196.759  1.00  0.00    -0.000 C 
BRANCH  18  19
ATOM     19  C   UNL     1      87.394 320.593 195.695  1.00  0.00    -0.000 C 
BRANCH  19  20
ATOM     20  C   UNL     1      86.617 320.996 194.429  1.00  0.00    -0.000 C 
BRANCH  20  21
ATOM     21  C   UNL     1      85.182 320.437 194.403  1.00  0.00    -0.000 C 
BRANCH  21  22
ATOM     22  C   UNL     1      84.951 319.281 193.412  1.00  0.00    -0.000 C 
BRANCH  22  23
ATOM     23  C   UNL     1      86.129 319.078 192.444  1.00  0.00    -0.000 C 
BRANCH  23  24
ATOM     24  C   UNL     1      86.280 317.617 191.986  1.00  0.00    -0.000 C 
BRANCH  24  25
ATOM     25  C   UNL     1      85.522 317.267 190.693  1.00  0.00    -0.003 C 
ATOM     26  C   UNL     1      86.451 316.987 189.511  1.00  0.00     0.004 C 
ENDBRANCH  24  25
ENDBRANCH  23  24
ENDBRANCH  22  23
ENDBRANCH  21  22
ENDBRANCH  20  21
ENDBRANCH  19  20
ENDBRANCH  18  19
ENDBRANCH  17  18
ENDBRANCH  16  17
ENDBRANCH  15  16
ENDBRANCH   1  15
TORSDOF 22
ENDMDL
MODEL 5
REMARK VINA RESULT:    -6.225      4.838     11.590
REMARK INTER + INTRA:         -15.966
REMARK INTER:                 -13.644
REMARK INTRA:                  -2.322
REMARK UNBOUND:                -1.735
REMARK SMILES CCCCCCCCCCCCCCCCCCCCCCCC(=O)[O-]
REMARK SMILES IDX 13 1 14 2 15 3 16 4 17 5 18 6 19 7 20 8 21 9 22 10 23 11
REMARK SMILES IDX 24 12 25 13 26 14 12 15 11 16 10 17 9 18 8 19 7 20 6 21 5 22
REMARK SMILES IDX 4 23 3 24 2 25 1 26
REMARK H PARENT
REMARK Flexibility Score: inf
ROOT
ATOM      1  C   UNL     1      87.978 320.516 200.631  1.00  0.00     0.000 C 
ENDROOT
BRANCH   1   2
ATOM      2  C   UNL     1      86.980 320.452 201.800  1.00  0.00     0.000 C 
BRANCH   2   3
ATOM      3  C   UNL     1      87.033 319.106 202.544  1.00  0.00     0.000 C 
BRANCH   3   4
ATOM      4  C   UNL     1      85.870 318.173 202.169  1.00  0.00     0.000 C 
BRANCH   4   5
ATOM      5  C   UNL     1      84.910 317.926 203.346  1.00  0.00     0.000 C 
BRANCH   5   6
ATOM      6  C   UNL     1      85.644 317.802 204.692  1.00  0.00     0.000 C 
BRANCH   6   7
ATOM      7  C   UNL     1      85.251 318.910 205.685  1.00  0.00     0.000 C 
BRANCH   7   8
ATOM      8  C   UNL     1      86.084 318.870 206.977  1.00  0.00     0.000 C 
BRANCH   8   9
ATOM      9  C   UNL     1      87.009 320.087 207.125  1.00  0.00     0.000 C 
BRANCH   9  10
ATOM     10  C   UNL     1      87.180 320.808 205.780  1.00  0.00     0.006 C 
BRANCH  10  11
ATOM     11  C   UNL     1      88.517 321.556 205.687  1.00  0.00     0.053 C 
BRANCH  11  12
ATOM     12  C   UNL     1      89.420 320.958 204.652  1.00  0.00     0.041 C 
ATOM     13  O   UNL     1      89.746 321.624 203.635  1.00  0.00    -0.550 OA
ATOM     14  O   UNL     1      89.926 319.675 204.827  1.00  0.00    -0.550 OA
ENDBRANCH  11  12
ENDBRANCH  10  11
ENDBRANCH   9  10
ENDBRANCH   8   9
ENDBRANCH   7   8
ENDBRANCH   6   7
ENDBRANCH   5   6
ENDBRANCH   4   5
ENDBRANCH   3   4
ENDBRANCH   2   3
ENDBRANCH   1   2
BRANCH   1  15
ATOM     15  C   UNL     1      87.421 319.875 199.347  1.00  0.00     0.000 C 
BRANCH  15  16
ATOM     16  C   UNL     1      87.149 320.906 198.241  1.00  0.00     0.000 C 
BRANCH  16  17
ATOM     17  C   UNL     1      86.482 320.284 197.004  1.00  0.00     0.000 C 
BRANCH  17  18
ATOM     18  C   UNL     1      87.282 320.605 195.733  1.00  0.00    -0.000 C 
BRANCH  18  19
ATOM     19  C   UNL     1      86.388 321.016 194.552  1.00  0.00    -0.000 C 
BRANCH  19  20
ATOM     20  C   UNL     1      85.032 320.288 194.554  1.00  0.00    -0.000 C 
BRANCH  20  21
ATOM     21  C   UNL     1      84.824 319.406 193.309  1.00  0.00    -0.000 C 
BRANCH  21  22
ATOM     22  C   UNL     1      86.117 318.920 192.631  1.00  0.00    -0.000 C 
BRANCH  22  23
ATOM     23  C   UNL     1      86.124 317.405 192.370  1.00  0.00    -0.000 C 
BRANCH  23  24
ATOM     24  C   UNL     1      86.201 316.575 193.664  1.00  0.00    -0.000 C 
BRANCH  24  25
ATOM     25  C   UNL     1      87.123 317.160 194.749  1.00  0.00    -0.003 C 
ATOM     26  C   UNL     1      86.725 316.740 196.164  1.00  0.00     0.004 C 
ENDBRANCH  24  25
ENDBRANCH  23  24
ENDBRANCH  22  23
ENDBRANCH  21  22
ENDBRANCH  20  21
ENDBRANCH  19  20
ENDBRANCH  18  19
ENDBRANCH  17  18
ENDBRANCH  16  17
ENDBRANCH  15  16
ENDBRANCH   1  15
TORSDOF 22
ENDMDL
MODEL 6
REMARK VINA RESULT:    -6.169      4.067     12.280
REMARK INTER + INTRA:         -15.839
REMARK INTER:                 -14.383
REMARK INTRA:                  -1.456
REMARK UNBOUND:                -1.735
REMARK SMILES CCCCCCCCCCCCCCCCCCCCCCCC(=O)[O-]
REMARK SMILES IDX 13 1 14 2 15 3 16 4 17 5 18 6 19 7 20 8 21 9 22 10 23 11
REMARK SMILES IDX 24 12 25 13 26 14 12 15 11 16 10 17 9 18 8 19 7 20 6 21 5 22
REMARK SMILES IDX 4 23 3 24 2 25 1 26
REMARK H PARENT
REMARK Flexibility Score: inf
ROOT
ATOM      1  C   UNL     1      87.218 320.990 198.360  1.00  0.00     0.000 C 
ENDROOT
BRANCH   1   2
ATOM      2  C   UNL     1      87.621 320.070 199.525  1.00  0.00     0.000 C 
BRANCH   2   3
ATOM      3  C   UNL     1      88.032 320.859 200.782  1.00  0.00     0.000 C 
BRANCH   3   4
ATOM      4  C   UNL     1      87.227 320.454 202.027  1.00  0.00     0.000 C 
BRANCH   4   5
ATOM      5  C   UNL     1      88.073 320.493 203.312  1.00  0.00     0.000 C 
BRANCH   5   6
ATOM      6  C   UNL     1      87.662 321.635 204.257  1.00  0.00     0.000 C 
BRANCH   6   7
ATOM      7  C   UNL     1      87.666 321.210 205.736  1.00  0.00     0.000 C 
BRANCH   7   8
ATOM      8  C   UNL     1      87.189 319.763 205.937  1.00  0.00     0.000 C 
BRANCH   8   9
ATOM      9  C   UNL     1      85.756 319.680 206.481  1.00  0.00     0.000 C 
BRANCH   9  10
ATOM     10  C   UNL     1      84.929 318.657 205.687  1.00  0.00     0.006 C 
BRANCH  10  11
ATOM     11  C   UNL     1      85.812 317.632 204.963  1.00  0.00     0.053 C 
BRANCH  11  12
ATOM     12  C   UNL     1      85.513 317.575 203.497  1.00  0.00     0.041 C 
ATOM     13  O   UNL     1      84.592 318.283 203.011  1.00  0.00    -0.550 OA
ATOM     14  O   UNL     1      86.272 316.764 202.661  1.00  0.00    -0.550 OA
ENDBRANCH  11  12
ENDBRANCH  10  11
ENDBRANCH   9  10
ENDBRANCH   8   9
ENDBRANCH   7   8
ENDBRANCH   6   7
ENDBRANCH   5   6
ENDBRANCH   4   5
ENDBRANCH   3   4
ENDBRANCH   2   3
ENDBRANCH   1   2
BRANCH   1  15
ATOM     15  C   UNL     1      86.595 320.213 197.187  1.00  0.00     0.000 C 
BRANCH  15  16
ATOM     16  C   UNL     1      87.398 320.362 195.885  1.00  0.00     0.000 C 
BRANCH  16  17
ATOM     17  C   UNL     1      86.546 320.891 194.721  1.00  0.00     0.000 C 
BRANCH  17  18
ATOM     18  C   UNL     1      85.089 320.425 194.855  1.00  0.00    -0.000 C 
BRANCH  18  19
ATOM     19  C   UNL     1      84.614 319.595 193.651  1.00  0.00    -0.000 C 
BRANCH  19  20
ATOM     20  C   UNL     1      85.781 318.995 192.849  1.00  0.00    -0.000 C 
BRANCH  20  21
ATOM     21  C   UNL     1      85.313 318.064 191.715  1.00  0.00    -0.000 C 
BRANCH  21  22
ATOM     22  C   UNL     1      86.443 317.362 190.940  1.00  0.00    -0.000 C 
BRANCH  22  23
ATOM     23  C   UNL     1      86.061 317.039 189.486  1.00  0.00    -0.000 C 
BRANCH  23  24
ATOM     24  C   UNL     1      87.076 316.112 188.793  1.00  0.00    -0.000 C 
BRANCH  24  25
ATOM     25  C   UNL     1      88.500 316.172 189.372  1.00  0.00    -0.003 C 
ATOM     26  C   UNL     1      89.406 317.159 188.634  1.00  0.00     0.004 C 
ENDBRANCH  24  25
ENDBRANCH  23  24
ENDBRANCH  22  23
ENDBRANCH  21  22
ENDBRANCH  20  21
ENDBRANCH  19  20
ENDBRANCH  18  19
ENDBRANCH  17  18
ENDBRANCH  16  17
ENDBRANCH  15  16
ENDBRANCH   1  15
TORSDOF 22
ENDMDL
MODEL 7
REMARK VINA RESULT:    -6.163      4.316     11.235
REMARK INTER + INTRA:         -15.824
REMARK INTER:                 -13.397
REMARK INTRA:                  -2.427
REMARK UNBOUND:                -1.735
REMARK SMILES CCCCCCCCCCCCCCCCCCCCCCCC(=O)[O-]
REMARK SMILES IDX 13 1 14 2 15 3 16 4 17 5 18 6 19 7 20 8 21 9 22 10 23 11
REMARK SMILES IDX 24 12 25 13 26 14 12 15 11 16 10 17 9 18 8 19 7 20 6 21 5 22
REMARK SMILES IDX 4 23 3 24 2 25 1 26
REMARK H PARENT
REMARK Flexibility Score: inf
ROOT
ATOM      1  C   UNL     1      88.190 320.655 200.408  1.00  0.00     0.000 C 
ENDROOT
BRANCH   1   2
ATOM      2  C   UNL     1      87.452 320.499 201.748  1.00  0.00     0.000 C 
BRANCH   2   3
ATOM      3  C   UNL     1      88.356 320.806 202.956  1.00  0.00     0.000 C 
BRANCH   3   4
ATOM      4  C   UNL     1      87.589 321.439 204.127  1.00  0.00     0.000 C 
BRANCH   4   5
ATOM      5  C   UNL     1      88.343 321.310 205.463  1.00  0.00     0.000 C 
BRANCH   5   6
ATOM      6  C   UNL     1      87.428 320.873 206.619  1.00  0.00     0.000 C 
BRANCH   6   7
ATOM      7  C   UNL     1      87.749 319.455 207.125  1.00  0.00     0.000 C 
BRANCH   7   8
ATOM      8  C   UNL     1      86.748 318.404 206.617  1.00  0.00     0.000 C 
BRANCH   8   9
ATOM      9  C   UNL     1      85.374 319.005 206.289  1.00  0.00     0.000 C 
BRANCH   9  10
ATOM     10  C   UNL     1      84.645 318.157 205.235  1.00  0.00     0.006 C 
BRANCH  10  11
ATOM     11  C   UNL     1      85.252 318.322 203.835  1.00  0.00     0.053 C 
BRANCH  11  12
ATOM     12  C   UNL     1      85.872 317.049 203.343  1.00  0.00     0.041 C 
ATOM     13  O   UNL     1      87.110 316.994 203.118  1.00  0.00    -0.550 OA
ATOM     14  O   UNL     1      85.088 315.916 203.164  1.00  0.00    -0.550 OA
ENDBRANCH  11  12
ENDBRANCH  10  11
ENDBRANCH   9  10
ENDBRANCH   8   9
ENDBRANCH   7   8
ENDBRANCH   6   7
ENDBRANCH   5   6
ENDBRANCH   4   5
ENDBRANCH   3   4
ENDBRANCH   2   3
ENDBRANCH   1   2
BRANCH   1  15
ATOM     15  C   UNL     1      87.485 319.911 199.260  1.00  0.00     0.000 C 
BRANCH  15  16
ATOM     16  C   UNL     1      86.938 320.863 198.185  1.00  0.00     0.000 C 
BRANCH  16  17
ATOM     17  C   UNL     1      86.461 320.122 196.925  1.00  0.00     0.000 C 
BRANCH  17  18
ATOM     18  C   UNL     1      87.325 320.497 195.712  1.00  0.00    -0.000 C 
BRANCH  18  19
ATOM     19  C   UNL     1      86.496 321.021 194.528  1.00  0.00    -0.000 C 
BRANCH  19  20
ATOM     20  C   UNL     1      85.051 320.493 194.537  1.00  0.00    -0.000 C 
BRANCH  20  21
ATOM     21  C   UNL     1      84.807 319.396 193.484  1.00  0.00    -0.000 C 
BRANCH  21  22
ATOM     22  C   UNL     1      86.055 318.963 192.693  1.00  0.00    -0.000 C 
BRANCH  22  23
ATOM     23  C   UNL     1      86.236 317.437 192.649  1.00  0.00    -0.000 C 
BRANCH  23  24
ATOM     24  C   UNL     1      86.071 316.775 194.028  1.00  0.00    -0.000 C 
BRANCH  24  25
ATOM     25  C   UNL     1      87.270 316.956 194.976  1.00  0.00    -0.003 C 
ATOM     26  C   UNL     1      86.971 316.522 196.411  1.00  0.00     0.004 C 
ENDBRANCH  24  25
ENDBRANCH  23  24
ENDBRANCH  22  23
ENDBRANCH  21  22
ENDBRANCH  20  21
ENDBRANCH  19  20
ENDBRANCH  18  19
ENDBRANCH  17  18
ENDBRANCH  16  17
ENDBRANCH  15  16
ENDBRANCH   1  15
TORSDOF 22
ENDMDL
MODEL 8
REMARK VINA RESULT:    -6.152      1.234      2.525
REMARK INTER + INTRA:         -15.800
REMARK INTER:                 -14.177
REMARK INTRA:                  -1.623
REMARK UNBOUND:                -1.735
REMARK SMILES CCCCCCCCCCCCCCCCCCCCCCCC(=O)[O-]
REMARK SMILES IDX 13 1 14 2 15 3 16 4 17 5 18 6 19 7 20 8 21 9 22 10 23 11
REMARK SMILES IDX 24 12 25 13 26 14 12 15 11 16 10 17 9 18 8 19 7 20 6 21 5 22
REMARK SMILES IDX 4 23 3 24 2 25 1 26
REMARK H PARENT
REMARK Flexibility Score: inf
ROOT
ATOM      1  C   UNL     1      87.204 319.297 197.791  1.00  0.00     0.000 C 
ENDROOT
BRANCH   1   2
ATOM      2  C   UNL     1      87.244 319.309 196.253  1.00  0.00     0.000 C 
BRANCH   2   3
ATOM      3  C   UNL     1      87.353 320.734 195.680  1.00  0.00     0.000 C 
BRANCH   3   4
ATOM      4  C   UNL     1      86.557 320.912 194.377  1.00  0.00     0.000 C 
BRANCH   4   5
ATOM      5  C   UNL     1      85.069 320.556 194.544  1.00  0.00     0.000 C 
BRANCH   5   6
ATOM      6  C   UNL     1      84.632 319.400 193.629  1.00  0.00     0.000 C 
BRANCH   6   7
ATOM      7  C   UNL     1      85.767 318.907 192.714  1.00  0.00     0.000 C 
BRANCH   7   8
ATOM      8  C   UNL     1      85.281 317.902 191.657  1.00  0.00     0.000 C 
BRANCH   8   9
ATOM      9  C   UNL     1      86.434 317.147 190.981  1.00  0.00     0.000 C 
BRANCH   9  10
ATOM     10  C   UNL     1      86.486 317.462 189.479  1.00  0.00     0.006 C 
BRANCH  10  11
ATOM     11  C   UNL     1      87.886 317.898 189.023  1.00  0.00     0.053 C 
BRANCH  11  12
ATOM     12  C   UNL     1      88.730 316.728 188.619  1.00  0.00     0.041 C 
ATOM     13  O   UNL     1      89.937 316.665 188.973  1.00  0.00    -0.550 OA
ATOM     14  O   UNL     1      88.175 315.692 187.877  1.00  0.00    -0.550 OA
ENDBRANCH  11  12
ENDBRANCH  10  11
ENDBRANCH   9  10
ENDBRANCH   8   9
ENDBRANCH   7   8
ENDBRANCH   6   7
ENDBRANCH   5   6
ENDBRANCH   4   5
ENDBRANCH   3   4
ENDBRANCH   2   3
ENDBRANCH   1   2
BRANCH   1  15
ATOM     15  C   UNL     1      86.992 320.701 198.384  1.00  0.00     0.000 C 
BRANCH  15  16
ATOM     16  C   UNL     1      87.626 320.859 199.774  1.00  0.00     0.000 C 
BRANCH  16  17
ATOM     17  C   UNL     1      87.647 319.542 200.567  1.00  0.00     0.000 C 
BRANCH  17  18
ATOM     18  C   UNL     1      86.714 319.623 201.785  1.00  0.00    -0.000 C 
BRANCH  18  19
ATOM     19  C   UNL     1      86.123 318.259 202.176  1.00  0.00    -0.000 C 
BRANCH  19  20
ATOM     20  C   UNL     1      86.239 317.974 203.684  1.00  0.00    -0.000 C 
BRANCH  20  21
ATOM     21  C   UNL     1      85.104 318.614 204.504  1.00  0.00    -0.000 C 
BRANCH  21  22
ATOM     22  C   UNL     1      85.319 318.609 206.028  1.00  0.00    -0.000 C 
BRANCH  22  23
ATOM     23  C   UNL     1      85.979 319.899 206.544  1.00  0.00    -0.000 C 
BRANCH  23  24
ATOM     24  C   UNL     1      87.362 320.154 205.921  1.00  0.00    -0.000 C 
BRANCH  24  25
ATOM     25  C   UNL     1      87.517 321.525 205.239  1.00  0.00    -0.003 C 
ATOM     26  C   UNL     1      88.622 321.548 204.183  1.00  0.00     0.004 C 
ENDBRANCH  24  25
ENDBRANCH  23  24
ENDBRANCH  22  23
ENDBRANCH  21  22
ENDBRANCH  20  21
ENDBRANCH  19  20
ENDBRANCH  18  19
ENDBRANCH  17  18
ENDBRANCH  16  17
ENDBRANCH  15  16
ENDBRANCH   1  15
TORSDOF 22
ENDMDL
MODEL 9
REMARK VINA RESULT:    -6.151      5.057     11.599
REMARK INTER + INTRA:         -15.797
REMARK INTER:                 -12.928
REMARK INTRA:                  -2.869
REMARK UNBOUND:                -1.735
REMARK SMILES CCCCCCCCCCCCCCCCCCCCCCCC(=O)[O-]
REMARK SMILES IDX 13 1 14 2 15 3 16 4 17 5 18 6 19 7 20 8 21 9 22 10 23 11
REMARK SMILES IDX 24 12 25 13 26 14 12 15 11 16 10 17 9 18 8 19 7 20 6 21 5 22
REMARK SMILES IDX 4 23 3 24 2 25 1 26
REMARK H PARENT
REMARK Flexibility Score: inf
ROOT
ATOM      1  C   UNL     1      88.322 319.048 202.429  1.00  0.00     0.000 C 
ENDROOT
BRANCH   1   2
ATOM      2  C   UNL     1      86.866 319.456 202.708  1.00  0.00     0.000 C 
BRANCH   2   3
ATOM      3  C   UNL     1      85.930 318.241 202.840  1.00  0.00     0.000 C 
BRANCH   3   4
ATOM      4  C   UNL     1      85.355 318.084 204.256  1.00  0.00     0.000 C 
BRANCH   4   5
ATOM      5  C   UNL     1      86.400 317.570 205.262  1.00  0.00     0.000 C 
BRANCH   5   6
ATOM      6  C   UNL     1      86.144 318.076 206.692  1.00  0.00     0.000 C 
BRANCH   6   7
ATOM      7  C   UNL     1      85.648 319.533 206.725  1.00  0.00     0.000 C 
BRANCH   7   8
ATOM      8  C   UNL     1      86.777 320.536 207.007  1.00  0.00     0.000 C 
BRANCH   8   9
ATOM      9  C   UNL     1      87.240 321.279 205.745  1.00  0.00     0.000 C 
BRANCH   9  10
ATOM     10  C   UNL     1      88.773 321.295 205.653  1.00  0.00     0.006 C 
BRANCH  10  11
ATOM     11  C   UNL     1      89.384 319.903 205.871  1.00  0.00     0.053 C 
BRANCH  11  12
ATOM     12  C   UNL     1      90.733 319.780 205.231  1.00  0.00     0.041 C 
ATOM     13  O   UNL     1      91.541 318.897 205.621  1.00  0.00    -0.550 OA
ATOM     14  O   UNL     1      91.085 320.621 204.181  1.00  0.00    -0.550 OA
ENDBRANCH  11  12
ENDBRANCH  10  11
ENDBRANCH   9  10
ENDBRANCH   8   9
ENDBRANCH   7   8
ENDBRANCH   6   7
ENDBRANCH   5   6
ENDBRANCH   4   5
ENDBRANCH   3   4
ENDBRANCH   2   3
ENDBRANCH   1   2
BRANCH   1  15
ATOM     15  C   UNL     1      88.870 319.678 201.135  1.00  0.00     0.000 C 
BRANCH  15  16
ATOM     16  C   UNL     1      88.014 320.854 200.641  1.00  0.00     0.000 C 
BRANCH  16  17
ATOM     17  C   UNL     1      87.403 320.600 199.254  1.00  0.00     0.000 C 
BRANCH  17  18
ATOM     18  C   UNL     1      87.658 319.155 198.802  1.00  0.00    -0.000 C 
BRANCH  18  19
ATOM     19  C   UNL     1      87.092 318.858 197.403  1.00  0.00    -0.000 C 
BRANCH  19  20
ATOM     20  C   UNL     1      86.462 320.098 196.744  1.00  0.00    -0.000 C 
BRANCH  20  21
ATOM     21  C   UNL     1      87.324 320.675 195.606  1.00  0.00    -0.000 C 
BRANCH  21  22
ATOM     22  C   UNL     1      86.557 321.007 194.313  1.00  0.00    -0.000 C 
BRANCH  22  23
ATOM     23  C   UNL     1      85.104 320.505 194.333  1.00  0.00    -0.000 C 
BRANCH  23  24
ATOM     24  C   UNL     1      84.866 319.322 193.377  1.00  0.00    -0.000 C 
BRANCH  24  25
ATOM     25  C   UNL     1      86.149 318.673 192.827  1.00  0.00    -0.003 C 
ATOM     26  C   UNL     1      86.579 317.436 193.615  1.00  0.00     0.004 C 
ENDBRANCH  24  25
ENDBRANCH  23  24
ENDBRANCH  22  23
ENDBRANCH  21  22
ENDBRANCH  20  21
ENDBRANCH  19  20
ENDBRANCH  18  19
ENDBRANCH  17  18
ENDBRANCH  16  17
ENDBRANCH  15  16
ENDBRANCH   1  15
TORSDOF 22
ENDMDL
