MODEL 1
REMARK VINA RESULT:    -4.193      0.000      0.000
REMARK INTER + INTRA:          -8.016
REMARK INTER:                  -7.134
REMARK INTRA:                  -0.882
REMARK UNBOUND:                -0.882
REMARK SMILES CCCCCCCCCCCCCC(=O)[O-]
REMARK SMILES IDX 8 1 9 2 10 3 11 4 12 5 13 6 14 7 15 8 16 9 7 10 6 11 5 12
REMARK SMILES IDX 4 13 3 14 2 15 1 16
REMARK H PARENT
REMARK Flexibility Score: inf
ROOT
ATOM      1  C   UNL     1      11.026  17.400  15.973  1.00  0.00     0.000 C 
ENDROOT
BRANCH   1   2
ATOM      2  C   UNL     1      10.795  16.056  16.681  1.00  0.00     0.000 C 
BRANCH   2   3
ATOM      3  C   UNL     1      12.107  15.353  17.061  1.00  0.00     0.000 C 
BRANCH   3   4
ATOM      4  C   UNL     1      13.188  16.374  17.436  1.00  0.00     0.000 C 
BRANCH   4   5
ATOM      5  C   UNL     1      14.403  16.258  16.502  1.00  0.00     0.006 C 
BRANCH   5   6
ATOM      6  C   UNL     1      14.827  17.617  15.931  1.00  0.00     0.053 C 
BRANCH   6   7
ATOM      7  C   UNL     1      16.299  17.673  15.660  1.00  0.00     0.041 C 
ATOM      8  O   UNL     1      17.109  17.880  16.601  1.00  0.00    -0.550 OA
ATOM      9  O   UNL     1      16.778  17.462  14.373  1.00  0.00    -0.550 OA
ENDBRANCH   6   7
ENDBRANCH   5   6
ENDBRANCH   4   5
ENDBRANCH   3   4
ENDBRANCH   2   3
ENDBRANCH   1   2
BRANCH   1  10
ATOM     10  C   UNL     1      11.276  17.241  14.466  1.00  0.00     0.000 C 
BRANCH  10  11
ATOM     11  C   UNL     1      11.033  18.562  13.727  1.00  0.00    -0.000 C 
BRANCH  11  12
ATOM     12  C   UNL     1      10.393  18.314  12.353  1.00  0.00    -0.000 C 
BRANCH  12  13
ATOM     13  C   UNL     1      10.223  16.819  12.030  1.00  0.00    -0.000 C 
BRANCH  13  14
ATOM     14  C   UNL     1       8.765  16.351  11.865  1.00  0.00    -0.000 C 
BRANCH  14  15
ATOM     15  C   UNL     1       8.432  15.928  10.428  1.00  0.00    -0.003 C 
ATOM     16  C   UNL     1       8.390  17.136   9.496  1.00  0.00     0.004 C 
ENDBRANCH  14  15
ENDBRANCH  13  14
ENDBRANCH  12  13
ENDBRANCH  11  12
ENDBRANCH  10  11
ENDBRANCH   1  10
TORSDOF 12
ENDMDL
MODEL 2
REMARK VINA RESULT:    -4.093      1.609      3.247
REMARK INTER + INTRA:          -7.846
REMARK INTER:                  -6.647
REMARK INTRA:                  -1.199
REMARK UNBOUND:                -0.882
REMARK SMILES CCCCCCCCCCCCCC(=O)[O-]
REMARK SMILES IDX 8 1 9 2 10 3 11 4 12 5 13 6 14 7 15 8 16 9 7 10 6 11 5 12
REMARK SMILES IDX 4 13 3 14 2 15 1 16
REMARK H PARENT
REMARK Flexibility Score: inf
ROOT
ATOM      1  C   UNL     1       9.635  19.261  13.043  1.00  0.00     0.000 C 
ENDROOT
BRANCH   1   2
ATOM      2  C   UNL     1      10.691  18.162  13.240  1.00  0.00     0.000 C 
BRANCH   2   3
ATOM      3  C   UNL     1      11.223  18.103  14.680  1.00  0.00     0.000 C 
BRANCH   3   4
ATOM      4  C   UNL     1      10.929  16.741  15.318  1.00  0.00     0.000 C 
BRANCH   4   5
ATOM      5  C   UNL     1      11.262  16.751  16.818  1.00  0.00     0.006 C 
BRANCH   5   6
ATOM      6  C   UNL     1      12.497  15.902  17.144  1.00  0.00     0.053 C 
BRANCH   6   7
ATOM      7  C   UNL     1      13.760  16.704  17.076  1.00  0.00     0.041 C 
ATOM      8  O   UNL     1      13.826  17.829  17.637  1.00  0.00    -0.550 OA
ATOM      9  O   UNL     1      14.874  16.194  16.421  1.00  0.00    -0.550 OA
ENDBRANCH   6   7
ENDBRANCH   5   6
ENDBRANCH   4   5
ENDBRANCH   3   4
ENDBRANCH   2   3
ENDBRANCH   1   2
BRANCH   1  10
ATOM     10  C   UNL     1       9.532  19.729  11.584  1.00  0.00     0.000 C 
BRANCH  10  11
ATOM     11  C   UNL     1      10.281  18.774  10.647  1.00  0.00    -0.000 C 
BRANCH  11  12
ATOM     12  C   UNL     1       9.485  18.535   9.354  1.00  0.00    -0.000 C 
BRANCH  12  13
ATOM     13  C   UNL     1       8.623  17.261   9.407  1.00  0.00    -0.000 C 
BRANCH  13  14
ATOM     14  C   UNL     1       7.211  17.455   9.991  1.00  0.00    -0.000 C 
BRANCH  14  15
ATOM     15  C   UNL     1       6.965  16.612  11.250  1.00  0.00    -0.003 C 
ATOM     16  C   UNL     1       8.232  15.873  11.672  1.00  0.00     0.004 C 
ENDBRANCH  14  15
ENDBRANCH  13  14
ENDBRANCH  12  13
ENDBRANCH  11  12
ENDBRANCH  10  11
ENDBRANCH   1  10
TORSDOF 12
ENDMDL
MODEL 3
REMARK VINA RESULT:    -4.027      3.762      6.760
REMARK INTER + INTRA:          -7.734
REMARK INTER:                  -6.499
REMARK INTRA:                  -1.234
REMARK UNBOUND:                -0.882
REMARK SMILES CCCCCCCCCCCCCC(=O)[O-]
REMARK SMILES IDX 8 1 9 2 10 3 11 4 12 5 13 6 14 7 15 8 16 9 7 10 6 11 5 12
REMARK SMILES IDX 4 13 3 14 2 15 1 16
REMARK H PARENT
REMARK Flexibility Score: inf
ROOT
ATOM      1  C   UNL     1      13.409  19.208  14.882  1.00  0.00     0.000 C 
ENDROOT
BRANCH   1   2
ATOM      2  C   UNL     1      12.205  19.741  14.090  1.00  0.00     0.000 C 
BRANCH   2   3
ATOM      3  C   UNL     1      10.928  18.922  14.330  1.00  0.00     0.000 C 
BRANCH   3   4
ATOM      4  C   UNL     1      10.945  17.625  13.512  1.00  0.00     0.000 C 
BRANCH   4   5
ATOM      5  C   UNL     1      10.012  17.730  12.295  1.00  0.00     0.006 C 
BRANCH   5   6
ATOM      6  C   UNL     1       9.830  16.381  11.587  1.00  0.00     0.053 C 
BRANCH   6   7
ATOM      7  C   UNL     1       8.658  16.395  10.655  1.00  0.00     0.041 C 
ATOM      8  O   UNL     1       7.557  15.899  11.014  1.00  0.00    -0.550 OA
ATOM      9  O   UNL     1       8.771  16.986   9.403  1.00  0.00    -0.550 OA
ENDBRANCH   6   7
ENDBRANCH   5   6
ENDBRANCH   4   5
ENDBRANCH   3   4
ENDBRANCH   2   3
ENDBRANCH   1   2
BRANCH   1  10
ATOM     10  C   UNL     1      13.502  19.808  16.293  1.00  0.00     0.000 C 
BRANCH  10  11
ATOM     11  C   UNL     1      13.692  18.708  17.345  1.00  0.00    -0.000 C 
BRANCH  11  12
ATOM     12  C   UNL     1      14.768  17.704  16.904  1.00  0.00    -0.000 C 
BRANCH  12  13
ATOM     13  C   UNL     1      14.235  16.264  16.790  1.00  0.00    -0.000 C 
BRANCH  13  14
ATOM     14  C   UNL     1      12.863  16.024  17.448  1.00  0.00    -0.000 C 
BRANCH  14  15
ATOM     15  C   UNL     1      11.809  15.506  16.459  1.00  0.00    -0.003 C 
ATOM     16  C   UNL     1      10.409  15.962  16.860  1.00  0.00     0.004 C 
ENDBRANCH  14  15
ENDBRANCH  13  14
ENDBRANCH  12  13
ENDBRANCH  11  12
ENDBRANCH  10  11
ENDBRANCH   1  10
TORSDOF 12
ENDMDL
MODEL 4
REMARK VINA RESULT:    -4.024      2.653      4.484
REMARK INTER + INTRA:          -7.729
REMARK INTER:                  -5.986
REMARK INTRA:                  -1.742
REMARK UNBOUND:                -0.882
REMARK SMILES CCCCCCCCCCCCCC(=O)[O-]
REMARK SMILES IDX 8 1 9 2 10 3 11 4 12 5 13 6 14 7 15 8 16 9 7 10 6 11 5 12
REMARK SMILES IDX 4 13 3 14 2 15 1 16
REMARK H PARENT
REMARK Flexibility Score: inf
ROOT
ATOM      1  C   UNL     1      12.890  15.964  17.623  1.00  0.00     0.000 C 
ENDROOT
BRANCH   1   2
ATOM      2  C   UNL     1      14.224  16.654  17.299  1.00  0.00     0.000 C 
BRANCH   2   3
ATOM      3  C   UNL     1      14.717  16.353  15.876  1.00  0.00     0.000 C 
BRANCH   3   4
ATOM      4  C   UNL     1      16.233  16.554  15.766  1.00  0.00     0.000 C 
BRANCH   4   5
ATOM      5  C   UNL     1      16.567  17.724  14.829  1.00  0.00     0.006 C 
BRANCH   5   6
ATOM      6  C   UNL     1      17.390  18.813  15.530  1.00  0.00     0.053 C 
BRANCH   6   7
ATOM      7  C   UNL     1      18.829  18.778  15.115  1.00  0.00     0.041 C 
ATOM      8  O   UNL     1      19.261  19.592  14.258  1.00  0.00    -0.550 OA
ATOM      9  O   UNL     1      19.700  17.867  15.701  1.00  0.00    -0.550 OA
ENDBRANCH   6   7
ENDBRANCH   5   6
ENDBRANCH   4   5
ENDBRANCH   3   4
ENDBRANCH   2   3
ENDBRANCH   1   2
BRANCH   1  10
ATOM     10  C   UNL     1      12.124  15.533  16.363  1.00  0.00     0.000 C 
BRANCH  10  11
ATOM     11  C   UNL     1      11.024  16.543  16.017  1.00  0.00    -0.000 C 
BRANCH  11  12
ATOM     12  C   UNL     1      11.226  17.115  14.606  1.00  0.00    -0.000 C 
BRANCH  12  13
ATOM     13  C   UNL     1      11.311  18.652  14.586  1.00  0.00    -0.000 C 
BRANCH  13  14
ATOM     14  C   UNL     1      12.003  19.281  15.810  1.00  0.00    -0.000 C 
BRANCH  14  15
ATOM     15  C   UNL     1      13.399  19.833  15.488  1.00  0.00    -0.003 C 
ATOM     16  C   UNL     1      14.110  20.299  16.756  1.00  0.00     0.004 C 
ENDBRANCH  14  15
ENDBRANCH  13  14
ENDBRANCH  12  13
ENDBRANCH  11  12
ENDBRANCH  10  11
ENDBRANCH   1  10
TORSDOF 12
ENDMDL
MODEL 5
REMARK VINA RESULT:    -4.017      1.761      3.668
REMARK INTER + INTRA:          -7.716
REMARK INTER:                  -6.449
REMARK INTRA:                  -1.267
REMARK UNBOUND:                -0.882
REMARK SMILES CCCCCCCCCCCCCC(=O)[O-]
REMARK SMILES IDX 8 1 9 2 10 3 11 4 12 5 13 6 14 7 15 8 16 9 7 10 6 11 5 12
REMARK SMILES IDX 4 13 3 14 2 15 1 16
REMARK H PARENT
REMARK Flexibility Score: inf
ROOT
ATOM      1  C   UNL     1      10.259  16.976  12.282  1.00  0.00     0.000 C 
ENDROOT
BRANCH   1   2
ATOM      2  C   UNL     1      10.146  18.314  13.030  1.00  0.00     0.000 C 
BRANCH   2   3
ATOM      3  C   UNL     1      11.034  18.370  14.282  1.00  0.00     0.000 C 
BRANCH   3   4
ATOM      4  C   UNL     1      11.583  16.981  14.628  1.00  0.00     0.000 C 
BRANCH   4   5
ATOM      5  C   UNL     1      11.061  16.506  15.993  1.00  0.00     0.006 C 
BRANCH   5   6
ATOM      6  C   UNL     1      12.143  15.790  16.811  1.00  0.00     0.053 C 
BRANCH   6   7
ATOM      7  C   UNL     1      13.419  16.574  16.853  1.00  0.00     0.041 C 
ATOM      8  O   UNL     1      13.509  17.601  17.576  1.00  0.00    -0.550 OA
ATOM      9  O   UNL     1      14.520  16.150  16.119  1.00  0.00    -0.550 OA
ENDBRANCH   6   7
ENDBRANCH   5   6
ENDBRANCH   4   5
ENDBRANCH   3   4
ENDBRANCH   2   3
ENDBRANCH   1   2
BRANCH   1  10
ATOM     10  C   UNL     1       8.974  16.139  12.367  1.00  0.00     0.000 C 
BRANCH  10  11
ATOM     11  C   UNL     1       8.359  15.936  10.977  1.00  0.00    -0.000 C 
BRANCH  11  12
ATOM     12  C   UNL     1       7.070  16.758  10.821  1.00  0.00    -0.000 C 
BRANCH  12  13
ATOM     13  C   UNL     1       7.215  17.918   9.819  1.00  0.00    -0.000 C 
BRANCH  13  14
ATOM     14  C   UNL     1       7.829  19.205  10.400  1.00  0.00    -0.000 C 
BRANCH  14  15
ATOM     15  C   UNL     1       8.933  19.795   9.511  1.00  0.00    -0.003 C 
ATOM     16  C   UNL     1       9.905  18.712   9.052  1.00  0.00     0.004 C 
ENDBRANCH  14  15
ENDBRANCH  13  14
ENDBRANCH  12  13
ENDBRANCH  11  12
ENDBRANCH  10  11
ENDBRANCH   1  10
TORSDOF 12
ENDMDL
MODEL 6
REMARK VINA RESULT:    -4.013      3.384      5.286
REMARK INTER + INTRA:          -7.710
REMARK INTER:                  -6.469
REMARK INTRA:                  -1.241
REMARK UNBOUND:                -0.882
REMARK SMILES CCCCCCCCCCCCCC(=O)[O-]
REMARK SMILES IDX 8 1 9 2 10 3 11 4 12 5 13 6 14 7 15 8 16 9 7 10 6 11 5 12
REMARK SMILES IDX 4 13 3 14 2 15 1 16
REMARK H PARENT
REMARK Flexibility Score: inf
ROOT
ATOM      1  C   UNL     1      14.789  16.570  16.133  1.00  0.00     0.000 C 
ENDROOT
BRANCH   1   2
ATOM      2  C   UNL     1      16.268  16.519  15.721  1.00  0.00     0.000 C 
BRANCH   2   3
ATOM      3  C   UNL     1      16.599  17.490  14.578  1.00  0.00     0.000 C 
BRANCH   3   4
ATOM      4  C   UNL     1      17.739  18.435  14.973  1.00  0.00     0.000 C 
BRANCH   4   5
ATOM      5  C   UNL     1      18.400  17.983  16.285  1.00  0.00     0.006 C 
BRANCH   5   6
ATOM      6  C   UNL     1      19.931  18.050  16.216  1.00  0.00     0.053 C 
BRANCH   6   7
ATOM      7  C   UNL     1      20.556  17.905  17.569  1.00  0.00     0.041 C 
ATOM      8  O   UNL     1      20.718  16.763  18.074  1.00  0.00    -0.550 OA
ATOM      9  O   UNL     1      20.991  19.030  18.259  1.00  0.00    -0.550 OA
ENDBRANCH   6   7
ENDBRANCH   5   6
ENDBRANCH   4   5
ENDBRANCH   3   4
ENDBRANCH   2   3
ENDBRANCH   1   2
BRANCH   1  10
ATOM     10  C   UNL     1      14.554  17.412  17.396  1.00  0.00     0.000 C 
BRANCH  10  11
ATOM     11  C   UNL     1      13.985  18.791  17.038  1.00  0.00    -0.000 C 
BRANCH  11  12
ATOM     12  C   UNL     1      12.452  18.798  17.145  1.00  0.00    -0.000 C 
BRANCH  12  13
ATOM     13  C   UNL     1      11.754  18.618  15.784  1.00  0.00    -0.000 C 
BRANCH  13  14
ATOM     14  C   UNL     1      11.282  17.185  15.480  1.00  0.00    -0.000 C 
BRANCH  14  15
ATOM     15  C   UNL     1      10.754  16.454  16.722  1.00  0.00    -0.003 C 
ATOM     16  C   UNL     1      11.475  15.124  16.924  1.00  0.00     0.004 C 
ENDBRANCH  14  15
ENDBRANCH  13  14
ENDBRANCH  12  13
ENDBRANCH  11  12
ENDBRANCH  10  11
ENDBRANCH   1  10
TORSDOF 12
ENDMDL
MODEL 7
REMARK VINA RESULT:    -4.006      3.119      4.535
REMARK INTER + INTRA:          -7.698
REMARK INTER:                  -5.888
REMARK INTRA:                  -1.809
REMARK UNBOUND:                -0.882
REMARK SMILES CCCCCCCCCCCCCC(=O)[O-]
REMARK SMILES IDX 8 1 9 2 10 3 11 4 12 5 13 6 14 7 15 8 16 9 7 10 6 11 5 12
REMARK SMILES IDX 4 13 3 14 2 15 1 16
REMARK H PARENT
REMARK Flexibility Score: inf
ROOT
ATOM      1  C   UNL     1      13.987  19.009  18.061  1.00  0.00     0.000 C 
ENDROOT
BRANCH   1   2
ATOM      2  C   UNL     1      15.079  17.941  17.895  1.00  0.00     0.000 C 
BRANCH   2   3
ATOM      3  C   UNL     1      16.439  18.539  17.507  1.00  0.00     0.000 C 
BRANCH   3   4
ATOM      4  C   UNL     1      17.131  17.684  16.439  1.00  0.00     0.000 C 
BRANCH   4   5
ATOM      5  C   UNL     1      16.244  17.535  15.193  1.00  0.00     0.006 C 
BRANCH   5   6
ATOM      6  C   UNL     1      16.967  17.969  13.912  1.00  0.00     0.053 C 
BRANCH   6   7
ATOM      7  C   UNL     1      16.476  19.294  13.417  1.00  0.00     0.041 C 
ATOM      8  O   UNL     1      15.965  20.120  14.218  1.00  0.00    -0.550 OA
ATOM      9  O   UNL     1      16.612  19.631  12.076  1.00  0.00    -0.550 OA
ENDBRANCH   6   7
ENDBRANCH   5   6
ENDBRANCH   4   5
ENDBRANCH   3   4
ENDBRANCH   2   3
ENDBRANCH   1   2
BRANCH   1  10
ATOM     10  C   UNL     1      13.755  19.823  16.779  1.00  0.00     0.000 C 
BRANCH  10  11
ATOM     11  C   UNL     1      12.447  19.406  16.094  1.00  0.00    -0.000 C 
BRANCH  11  12
ATOM     12  C   UNL     1      12.727  18.559  14.843  1.00  0.00    -0.000 C 
BRANCH  12  13
ATOM     13  C   UNL     1      12.066  17.169  14.899  1.00  0.00    -0.000 C 
BRANCH  13  14
ATOM     14  C   UNL     1      12.804  16.133  15.766  1.00  0.00    -0.000 C 
BRANCH  14  15
ATOM     15  C   UNL     1      12.021  15.743  17.028  1.00  0.00    -0.003 C 
ATOM     16  C   UNL     1      10.516  15.850  16.794  1.00  0.00     0.004 C 
ENDBRANCH  14  15
ENDBRANCH  13  14
ENDBRANCH  12  13
ENDBRANCH  11  12
ENDBRANCH  10  11
ENDBRANCH   1  10
TORSDOF 12
ENDMDL
MODEL 8
REMARK VINA RESULT:    -3.978      3.341      6.597
REMARK INTER + INTRA:          -7.650
REMARK INTER:                  -6.278
REMARK INTRA:                  -1.372
REMARK UNBOUND:                -0.882
REMARK SMILES CCCCCCCCCCCCCC(=O)[O-]
REMARK SMILES IDX 8 1 9 2 10 3 11 4 12 5 13 6 14 7 15 8 16 9 7 10 6 11 5 12
REMARK SMILES IDX 4 13 3 14 2 15 1 16
REMARK H PARENT
REMARK Flexibility Score: inf
ROOT
ATOM      1  C   UNL     1      11.550  15.833  16.886  1.00  0.00     0.000 C 
ENDROOT
BRANCH   1   2
ATOM      2  C   UNL     1      11.434  17.196  16.185  1.00  0.00     0.000 C 
BRANCH   2   3
ATOM      3  C   UNL     1      11.439  17.077  14.654  1.00  0.00     0.000 C 
BRANCH   3   4
ATOM      4  C   UNL     1      11.008  18.395  14.000  1.00  0.00     0.000 C 
BRANCH   4   5
ATOM      5  C   UNL     1      10.583  18.172  12.539  1.00  0.00     0.006 C 
BRANCH   5   6
ATOM      6  C   UNL     1       9.847  16.840  12.346  1.00  0.00     0.053 C 
BRANCH   6   7
ATOM      7  C   UNL     1       9.327  16.689  10.950  1.00  0.00     0.041 C 
ATOM      8  O   UNL     1       9.720  17.465  10.040  1.00  0.00    -0.550 OA
ATOM      9  O   UNL     1       8.433  15.669  10.647  1.00  0.00    -0.550 OA
ENDBRANCH   6   7
ENDBRANCH   5   6
ENDBRANCH   4   5
ENDBRANCH   3   4
ENDBRANCH   2   3
ENDBRANCH   1   2
BRANCH   1  10
ATOM     10  C   UNL     1      12.910  15.633  17.572  1.00  0.00     0.000 C 
BRANCH  10  11
ATOM     11  C   UNL     1      13.869  16.781  17.233  1.00  0.00    -0.000 C 
BRANCH  11  12
ATOM     12  C   UNL     1      14.879  16.355  16.157  1.00  0.00    -0.000 C 
BRANCH  12  13
ATOM     13  C   UNL     1      15.451  17.544  15.365  1.00  0.00    -0.000 C 
BRANCH  13  14
ATOM     14  C   UNL     1      15.248  18.922  16.023  1.00  0.00    -0.000 C 
BRANCH  14  15
ATOM     15  C   UNL     1      14.362  19.857  15.189  1.00  0.00    -0.003 C 
ATOM     16  C   UNL     1      13.246  20.459  16.039  1.00  0.00     0.004 C 
ENDBRANCH  14  15
ENDBRANCH  13  14
ENDBRANCH  12  13
ENDBRANCH  11  12
ENDBRANCH  10  11
ENDBRANCH   1  10
TORSDOF 12
ENDMDL
MODEL 9
REMARK VINA RESULT:    -3.957      3.830      7.486
REMARK INTER + INTRA:          -7.615
REMARK INTER:                  -5.614
REMARK INTRA:                  -2.002
REMARK UNBOUND:                -0.882
REMARK SMILES CCCCCCCCCCCCCC(=O)[O-]
REMARK SMILES IDX 8 1 9 2 10 3 11 4 12 5 13 6 14 7 15 8 16 9 7 10 6 11 5 12
REMARK SMILES IDX 4 13 3 14 2 15 1 16
REMARK H PARENT
REMARK Flexibility Score: inf
ROOT
ATOM      1  C   UNL     1      16.723  17.691  14.612  1.00  0.00     0.000 C 
ENDROOT
BRANCH   1   2
ATOM      2  C   UNL     1      15.387  17.776  15.368  1.00  0.00     0.000 C 
BRANCH   2   3
ATOM      3  C   UNL     1      15.038  16.473  16.102  1.00  0.00     0.000 C 
BRANCH   3   4
ATOM      4  C   UNL     1      13.988  16.721  17.191  1.00  0.00     0.000 C 
BRANCH   4   5
ATOM      5  C   UNL     1      13.222  18.027  16.930  1.00  0.00     0.006 C 
BRANCH   5   6
ATOM      6  C   UNL     1      11.702  17.834  17.012  1.00  0.00     0.053 C 
BRANCH   6   7
ATOM      7  C   UNL     1      11.219  16.801  16.041  1.00  0.00     0.041 C 
ATOM      8  O   UNL     1      11.363  16.979  14.803  1.00  0.00    -0.550 OA
ATOM      9  O   UNL     1      10.639  15.627  16.505  1.00  0.00    -0.550 OA
ENDBRANCH   6   7
ENDBRANCH   5   6
ENDBRANCH   4   5
ENDBRANCH   3   4
ENDBRANCH   2   3
ENDBRANCH   1   2
BRANCH   1  10
ATOM     10  C   UNL     1      17.634  18.898  14.882  1.00  0.00     0.000 C 
BRANCH  10  11
ATOM     11  C   UNL     1      18.975  18.452  15.476  1.00  0.00    -0.000 C 
BRANCH  11  12
ATOM     12  C   UNL     1      18.797  17.941  16.913  1.00  0.00    -0.000 C 
BRANCH  12  13
ATOM     13  C   UNL     1      18.175  18.991  17.852  1.00  0.00    -0.000 C 
BRANCH  13  14
ATOM     14  C   UNL     1      16.953  18.504  18.653  1.00  0.00    -0.000 C 
BRANCH  14  15
ATOM     15  C   UNL     1      15.960  19.631  18.970  1.00  0.00    -0.003 C 
ATOM     16  C   UNL     1      15.813  20.583  17.787  1.00  0.00     0.004 C 
ENDBRANCH  14  15
ENDBRANCH  13  14
ENDBRANCH  12  13
ENDBRANCH  11  12
ENDBRANCH  10  11
ENDBRANCH   1  10
TORSDOF 12
ENDMDL
