MODEL 1
REMARK VINA RESULT:    -4.137      0.000      0.000
REMARK INTER + INTRA:         -10.040
REMARK INTER:                  -8.007
REMARK INTRA:                  -2.033
REMARK UNBOUND:                -2.033
REMARK SMILES CCCCCCCCCCCCCCCCCC(=O)[O-]
REMARK SMILES IDX 10 1 11 2 12 3 13 4 14 5 15 6 16 7 17 8 18 9 19 10 20 11
REMARK SMILES IDX 9 12 8 13 7 14 6 15 5 16 4 17 3 18 2 19 1 20
REMARK H PARENT
REMARK Flexibility Score: inf
ROOT
ATOM      1  C   UNL     1      98.696 -68.645   3.710  1.00  0.00     0.000 C 
ENDROOT
BRANCH   1   2
ATOM      2  C   UNL     1      97.876 -67.426   4.158  1.00  0.00     0.000 C 
BRANCH   2   3
ATOM      3  C   UNL     1      98.696 -66.125   4.142  1.00  0.00     0.000 C 
BRANCH   3   4
ATOM      4  C   UNL     1      98.750 -65.479   2.747  1.00  0.00     0.000 C 
BRANCH   4   5
ATOM      5  C   UNL     1     100.189 -65.228   2.260  1.00  0.00     0.000 C 
BRANCH   5   6
ATOM      6  C   UNL     1     100.502 -65.757   0.849  1.00  0.00     0.000 C 
BRANCH   6   7
ATOM      7  C   UNL     1      99.427 -66.714   0.315  1.00  0.00     0.006 C 
BRANCH   7   8
ATOM      8  C   UNL     1      99.951 -68.152   0.264  1.00  0.00     0.053 C 
BRANCH   8   9
ATOM      9  C   UNL     1      98.888 -69.083  -0.225  1.00  0.00     0.041 C 
ATOM     10  O   UNL     1      98.322 -68.875  -1.329  1.00  0.00    -0.550 OA
ATOM     11  O   UNL     1      98.550 -70.205   0.521  1.00  0.00    -0.550 OA
ENDBRANCH   8   9
ENDBRANCH   7   8
ENDBRANCH   6   7
ENDBRANCH   5   6
ENDBRANCH   4   5
ENDBRANCH   3   4
ENDBRANCH   2   3
ENDBRANCH   1   2
BRANCH   1  12
ATOM     12  C   UNL     1     100.072 -68.661   4.386  1.00  0.00     0.000 C 
BRANCH  12  13
ATOM     13  C   UNL     1     100.023 -69.434   5.714  1.00  0.00    -0.000 C 
BRANCH  13  14
ATOM     14  C   UNL     1     100.935 -68.825   6.791  1.00  0.00    -0.000 C 
BRANCH  14  15
ATOM     15  C   UNL     1     101.400 -67.402   6.434  1.00  0.00    -0.000 C 
BRANCH  15  16
ATOM     16  C   UNL     1     100.957 -66.360   7.473  1.00  0.00    -0.000 C 
BRANCH  16  17
ATOM     17  C   UNL     1     101.330 -66.759   8.913  1.00  0.00    -0.000 C 
BRANCH  17  18
ATOM     18  C   UNL     1     100.258 -66.353   9.936  1.00  0.00    -0.000 C 
BRANCH  18  19
ATOM     19  C   UNL     1     100.117 -67.370  11.078  1.00  0.00    -0.003 C 
ATOM     20  C   UNL     1     100.475 -68.777  10.607  1.00  0.00     0.004 C 
ENDBRANCH  18  19
ENDBRANCH  17  18
ENDBRANCH  16  17
ENDBRANCH  15  16
ENDBRANCH  14  15
ENDBRANCH  13  14
ENDBRANCH  12  13
ENDBRANCH   1  12
TORSDOF 16
ENDMDL
MODEL 2
REMARK VINA RESULT:    -4.102      1.003      1.420
REMARK INTER + INTRA:          -9.973
REMARK INTER:                  -7.633
REMARK INTRA:                  -2.340
REMARK UNBOUND:                -2.033
REMARK SMILES CCCCCCCCCCCCCCCCCC(=O)[O-]
REMARK SMILES IDX 10 1 11 2 12 3 13 4 14 5 15 6 16 7 17 8 18 9 19 10 20 11
REMARK SMILES IDX 9 12 8 13 7 14 6 15 5 16 4 17 3 18 2 19 1 20
REMARK H PARENT
REMARK Flexibility Score: inf
ROOT
ATOM      1  C   UNL     1      97.952 -67.334   3.694  1.00  0.00     0.000 C 
ENDROOT
BRANCH   1   2
ATOM      2  C   UNL     1      98.792 -66.169   4.240  1.00  0.00     0.000 C 
BRANCH   2   3
ATOM      3  C   UNL     1      99.755 -65.592   3.189  1.00  0.00     0.000 C 
BRANCH   3   4
ATOM      4  C   UNL     1     101.208 -66.052   3.405  1.00  0.00     0.000 C 
BRANCH   4   5
ATOM      5  C   UNL     1     101.879 -66.542   2.109  1.00  0.00     0.000 C 
BRANCH   5   6
ATOM      6  C   UNL     1     101.234 -67.784   1.469  1.00  0.00     0.000 C 
BRANCH   6   7
ATOM      7  C   UNL     1     100.634 -67.501   0.084  1.00  0.00     0.006 C 
BRANCH   7   8
ATOM      8  C   UNL     1      99.111 -67.666   0.105  1.00  0.00     0.053 C 
BRANCH   8   9
ATOM      9  C   UNL     1      98.722 -69.024  -0.385  1.00  0.00     0.041 C 
ATOM     10  O   UNL     1      98.426 -69.202  -1.594  1.00  0.00    -0.550 OA
ATOM     11  O   UNL     1      98.725 -70.105   0.489  1.00  0.00    -0.550 OA
ENDBRANCH   8   9
ENDBRANCH   7   8
ENDBRANCH   6   7
ENDBRANCH   5   6
ENDBRANCH   4   5
ENDBRANCH   3   4
ENDBRANCH   2   3
ENDBRANCH   1   2
BRANCH   1  12
ATOM     12  C   UNL     1      98.735 -68.650   3.748  1.00  0.00     0.000 C 
BRANCH  12  13
ATOM     13  C   UNL     1      99.403 -68.836   5.120  1.00  0.00    -0.000 C 
BRANCH  13  14
ATOM     14  C   UNL     1     100.838 -69.379   5.015  1.00  0.00    -0.000 C 
BRANCH  14  15
ATOM     15  C   UNL     1     101.784 -68.749   6.051  1.00  0.00    -0.000 C 
BRANCH  15  16
ATOM     16  C   UNL     1     101.108 -67.632   6.863  1.00  0.00    -0.000 C 
BRANCH  16  17
ATOM     17  C   UNL     1     101.257 -67.829   8.383  1.00  0.00    -0.000 C 
BRANCH  17  18
ATOM     18  C   UNL     1     100.609 -66.695   9.192  1.00  0.00    -0.000 C 
BRANCH  18  19
ATOM     19  C   UNL     1     100.242 -67.124  10.621  1.00  0.00    -0.003 C 
ATOM     20  C   UNL     1     100.270 -68.644  10.761  1.00  0.00     0.004 C 
ENDBRANCH  18  19
ENDBRANCH  17  18
ENDBRANCH  16  17
ENDBRANCH  15  16
ENDBRANCH  14  15
ENDBRANCH  13  14
ENDBRANCH  12  13
ENDBRANCH   1  12
TORSDOF 16
ENDMDL
MODEL 3
REMARK VINA RESULT:    -4.058      1.181      1.834
REMARK INTER + INTRA:          -9.887
REMARK INTER:                  -8.441
REMARK INTRA:                  -1.447
REMARK UNBOUND:                -2.033
REMARK SMILES CCCCCCCCCCCCCCCCCC(=O)[O-]
REMARK SMILES IDX 10 1 11 2 12 3 13 4 14 5 15 6 16 7 17 8 18 9 19 10 20 11
REMARK SMILES IDX 9 12 8 13 7 14 6 15 5 16 4 17 3 18 2 19 1 20
REMARK H PARENT
REMARK Flexibility Score: inf
ROOT
ATOM      1  C   UNL     1      99.526 -68.619   4.076  1.00  0.00     0.000 C 
ENDROOT
BRANCH   1   2
ATOM      2  C   UNL     1      98.062 -68.154   4.051  1.00  0.00     0.000 C 
BRANCH   2   3
ATOM      3  C   UNL     1      97.927 -66.644   3.794  1.00  0.00     0.000 C 
BRANCH   3   4
ATOM      4  C   UNL     1      99.291 -65.943   3.666  1.00  0.00     0.000 C 
BRANCH   4   5
ATOM      5  C   UNL     1      99.406 -65.086   2.392  1.00  0.00     0.000 C 
BRANCH   5   6
ATOM      6  C   UNL     1      98.516 -65.537   1.220  1.00  0.00     0.000 C 
BRANCH   6   7
ATOM      7  C   UNL     1      99.322 -66.013   0.003  1.00  0.00     0.006 C 
BRANCH   7   8
ATOM      8  C   UNL     1      98.852 -67.396  -0.457  1.00  0.00     0.053 C 
BRANCH   8   9
ATOM      9  C   UNL     1      99.531 -68.472   0.328  1.00  0.00     0.041 C 
ATOM     10  O   UNL     1      98.967 -69.582   0.504  1.00  0.00    -0.550 OA
ATOM     11  O   UNL     1     100.808 -68.262   0.834  1.00  0.00    -0.550 OA
ENDBRANCH   8   9
ENDBRANCH   7   8
ENDBRANCH   6   7
ENDBRANCH   5   6
ENDBRANCH   4   5
ENDBRANCH   3   4
ENDBRANCH   2   3
ENDBRANCH   1   2
BRANCH   1  12
ATOM     12  C   UNL     1      99.833 -69.400   5.359  1.00  0.00     0.000 C 
BRANCH  12  13
ATOM     13  C   UNL     1     101.328 -69.744   5.448  1.00  0.00    -0.000 C 
BRANCH  13  14
ATOM     14  C   UNL     1     101.977 -69.242   6.749  1.00  0.00    -0.000 C 
BRANCH  14  15
ATOM     15  C   UNL     1     100.945 -68.701   7.752  1.00  0.00    -0.000 C 
BRANCH  15  16
ATOM     16  C   UNL     1     101.547 -68.462   9.146  1.00  0.00    -0.000 C 
BRANCH  16  17
ATOM     17  C   UNL     1     100.578 -68.834  10.284  1.00  0.00    -0.000 C 
BRANCH  17  18
ATOM     18  C   UNL     1     100.062 -67.604  11.046  1.00  0.00    -0.000 C 
BRANCH  18  19
ATOM     19  C   UNL     1     100.503 -66.282  10.401  1.00  0.00    -0.003 C 
ATOM     20  C   UNL     1      99.767 -65.096  11.021  1.00  0.00     0.004 C 
ENDBRANCH  18  19
ENDBRANCH  17  18
ENDBRANCH  16  17
ENDBRANCH  15  16
ENDBRANCH  14  15
ENDBRANCH  13  14
ENDBRANCH  12  13
ENDBRANCH   1  12
TORSDOF 16
ENDMDL
MODEL 4
REMARK VINA RESULT:    -4.014      0.819      1.340
REMARK INTER + INTRA:          -9.802
REMARK INTER:                  -7.386
REMARK INTRA:                  -2.416
REMARK UNBOUND:                -2.033
REMARK SMILES CCCCCCCCCCCCCCCCCC(=O)[O-]
REMARK SMILES IDX 10 1 11 2 12 3 13 4 14 5 15 6 16 7 17 8 18 9 19 10 20 11
REMARK SMILES IDX 9 12 8 13 7 14 6 15 5 16 4 17 3 18 2 19 1 20
REMARK H PARENT
REMARK Flexibility Score: inf
ROOT
ATOM      1  C   UNL     1      98.384 -68.478   3.453  1.00  0.00     0.000 C 
ENDROOT
BRANCH   1   2
ATOM      2  C   UNL     1      97.291 -67.487   3.882  1.00  0.00     0.000 C 
BRANCH   2   3
ATOM      3  C   UNL     1      97.791 -66.034   3.916  1.00  0.00     0.000 C 
BRANCH   3   4
ATOM      4  C   UNL     1      98.156 -65.503   2.519  1.00  0.00     0.000 C 
BRANCH   4   5
ATOM      5  C   UNL     1      99.647 -65.143   2.386  1.00  0.00     0.000 C 
BRANCH   5   6
ATOM      6  C   UNL     1     100.419 -65.944   1.322  1.00  0.00     0.000 C 
BRANCH   6   7
ATOM      7  C   UNL     1      99.499 -66.743   0.388  1.00  0.00     0.006 C 
BRANCH   7   8
ATOM      8  C   UNL     1     100.048 -68.154   0.155  1.00  0.00     0.053 C 
BRANCH   8   9
ATOM      9  C   UNL     1      98.964 -69.068  -0.320  1.00  0.00     0.041 C 
ATOM     10  O   UNL     1      98.652 -70.085   0.352  1.00  0.00    -0.550 OA
ATOM     11  O   UNL     1      98.269 -68.775  -1.487  1.00  0.00    -0.550 OA
ENDBRANCH   8   9
ENDBRANCH   7   8
ENDBRANCH   6   7
ENDBRANCH   5   6
ENDBRANCH   4   5
ENDBRANCH   3   4
ENDBRANCH   2   3
ENDBRANCH   1   2
BRANCH   1  12
ATOM     12  C   UNL     1      99.394 -68.707   4.583  1.00  0.00     0.000 C 
BRANCH  12  13
ATOM     13  C   UNL     1     100.822 -68.376   4.119  1.00  0.00    -0.000 C 
BRANCH  13  14
ATOM     14  C   UNL     1     101.474 -67.261   4.952  1.00  0.00    -0.000 C 
BRANCH  14  15
ATOM     15  C   UNL     1     100.636 -66.876   6.183  1.00  0.00    -0.000 C 
BRANCH  15  16
ATOM     16  C   UNL     1     101.443 -66.080   7.221  1.00  0.00    -0.000 C 
BRANCH  16  17
ATOM     17  C   UNL     1     101.408 -66.720   8.621  1.00  0.00    -0.000 C 
BRANCH  17  18
ATOM     18  C   UNL     1     100.947 -68.186   8.588  1.00  0.00    -0.000 C 
BRANCH  18  19
ATOM     19  C   UNL     1     100.615 -68.731   9.985  1.00  0.00    -0.003 C 
ATOM     20  C   UNL     1     100.181 -67.607  10.923  1.00  0.00     0.004 C 
ENDBRANCH  18  19
ENDBRANCH  17  18
ENDBRANCH  16  17
ENDBRANCH  15  16
ENDBRANCH  14  15
ENDBRANCH  13  14
ENDBRANCH  12  13
ENDBRANCH   1  12
TORSDOF 16
ENDMDL
MODEL 5
REMARK VINA RESULT:    -3.963      3.688      7.545
REMARK INTER + INTRA:          -9.702
REMARK INTER:                  -6.914
REMARK INTRA:                  -2.788
REMARK UNBOUND:                -2.033
REMARK SMILES CCCCCCCCCCCCCCCCCC(=O)[O-]
REMARK SMILES IDX 10 1 11 2 12 3 13 4 14 5 15 6 16 7 17 8 18 9 19 10 20 11
REMARK SMILES IDX 9 12 8 13 7 14 6 15 5 16 4 17 3 18 2 19 1 20
REMARK H PARENT
REMARK Flexibility Score: inf
ROOT
ATOM      1  C   UNL     1      97.567 -67.695   3.945  1.00  0.00     0.000 C 
ENDROOT
BRANCH   1   2
ATOM      2  C   UNL     1      98.744 -68.655   3.709  1.00  0.00     0.000 C 
BRANCH   2   3
ATOM      3  C   UNL     1      99.465 -69.036   5.013  1.00  0.00     0.000 C 
BRANCH   3   4
ATOM      4  C   UNL     1     100.995 -69.068   4.851  1.00  0.00     0.000 C 
BRANCH   4   5
ATOM      5  C   UNL     1     101.690 -67.851   5.489  1.00  0.00     0.000 C 
BRANCH   5   6
ATOM      6  C   UNL     1     100.943 -67.222   6.678  1.00  0.00     0.000 C 
BRANCH   6   7
ATOM      7  C   UNL     1     101.602 -67.529   8.030  1.00  0.00     0.006 C 
BRANCH   7   8
ATOM      8  C   UNL     1     100.897 -68.696   8.729  1.00  0.00     0.053 C 
BRANCH   8   9
ATOM      9  C   UNL     1     100.434 -68.290  10.092  1.00  0.00     0.041 C 
ATOM     10  O   UNL     1     100.398 -69.131  11.027  1.00  0.00    -0.550 OA
ATOM     11  O   UNL     1     100.078 -66.970  10.341  1.00  0.00    -0.550 OA
ENDBRANCH   8   9
ENDBRANCH   7   8
ENDBRANCH   6   7
ENDBRANCH   5   6
ENDBRANCH   4   5
ENDBRANCH   3   4
ENDBRANCH   2   3
ENDBRANCH   1   2
BRANCH   1  12
ATOM     12  C   UNL     1      97.830 -66.333   3.292  1.00  0.00     0.000 C 
BRANCH  12  13
ATOM     13  C   UNL     1      98.735 -65.464   4.179  1.00  0.00    -0.000 C 
BRANCH  13  14
ATOM     14  C   UNL     1     100.108 -65.193   3.543  1.00  0.00    -0.000 C 
BRANCH  14  15
ATOM     15  C   UNL     1     100.171 -65.627   2.069  1.00  0.00    -0.000 C 
BRANCH  15  16
ATOM     16  C   UNL     1     101.263 -66.677   1.809  1.00  0.00    -0.000 C 
BRANCH  16  17
ATOM     17  C   UNL     1     100.824 -67.756   0.803  1.00  0.00    -0.000 C 
BRANCH  17  18
ATOM     18  C   UNL     1      99.443 -67.469   0.193  1.00  0.00    -0.000 C 
BRANCH  18  19
ATOM     19  C   UNL     1      98.943 -68.612  -0.702  1.00  0.00    -0.003 C 
ATOM     20  C   UNL     1      98.423 -69.778   0.137  1.00  0.00     0.004 C 
ENDBRANCH  18  19
ENDBRANCH  17  18
ENDBRANCH  16  17
ENDBRANCH  15  16
ENDBRANCH  14  15
ENDBRANCH  13  14
ENDBRANCH  12  13
ENDBRANCH   1  12
TORSDOF 16
ENDMDL
MODEL 6
REMARK VINA RESULT:    -3.867      1.461      2.362
REMARK INTER + INTRA:          -9.517
REMARK INTER:                  -8.156
REMARK INTRA:                  -1.361
REMARK UNBOUND:                -2.033
REMARK SMILES CCCCCCCCCCCCCCCCCC(=O)[O-]
REMARK SMILES IDX 10 1 11 2 12 3 13 4 14 5 15 6 16 7 17 8 18 9 19 10 20 11
REMARK SMILES IDX 9 12 8 13 7 14 6 15 5 16 4 17 3 18 2 19 1 20
REMARK H PARENT
REMARK Flexibility Score: inf
ROOT
ATOM      1  C   UNL     1      97.659 -67.571   3.896  1.00  0.00     0.000 C 
ENDROOT
BRANCH   1   2
ATOM      2  C   UNL     1      98.230 -66.162   3.676  1.00  0.00     0.000 C 
BRANCH   2   3
ATOM      3  C   UNL     1      98.099 -65.693   2.217  1.00  0.00     0.000 C 
BRANCH   3   4
ATOM      4  C   UNL     1      99.456 -65.624   1.495  1.00  0.00     0.000 C 
BRANCH   4   5
ATOM      5  C   UNL     1      99.465 -66.399   0.165  1.00  0.00     0.000 C 
BRANCH   5   6
ATOM      6  C   UNL     1      99.393 -67.931   0.301  1.00  0.00     0.000 C 
BRANCH   6   7
ATOM      7  C   UNL     1      98.823 -68.617  -0.949  1.00  0.00     0.006 C 
BRANCH   7   8
ATOM      8  C   UNL     1      99.268 -67.890  -2.222  1.00  0.00     0.053 C 
BRANCH   8   9
ATOM      9  C   UNL     1      98.090 -67.575  -3.088  1.00  0.00     0.041 C 
ATOM     10  O   UNL     1      96.953 -67.409  -2.576  1.00  0.00    -0.550 OA
ATOM     11  O   UNL     1      98.256 -67.425  -4.459  1.00  0.00    -0.550 OA
ENDBRANCH   8   9
ENDBRANCH   7   8
ENDBRANCH   6   7
ENDBRANCH   5   6
ENDBRANCH   4   5
ENDBRANCH   3   4
ENDBRANCH   2   3
ENDBRANCH   1   2
BRANCH   1  12
ATOM     12  C   UNL     1      98.734 -68.641   3.677  1.00  0.00     0.000 C 
BRANCH  12  13
ATOM     13  C   UNL     1      99.896 -68.463   4.669  1.00  0.00    -0.000 C 
BRANCH  13  14
ATOM     14  C   UNL     1     100.161 -69.725   5.507  1.00  0.00    -0.000 C 
BRANCH  14  15
ATOM     15  C   UNL     1     100.602 -69.396   6.943  1.00  0.00    -0.000 C 
BRANCH  15  16
ATOM     16  C   UNL     1     100.939 -67.908   7.130  1.00  0.00    -0.000 C 
BRANCH  16  17
ATOM     17  C   UNL     1     101.222 -67.542   8.599  1.00  0.00    -0.000 C 
BRANCH  17  18
ATOM     18  C   UNL     1     100.876 -68.683   9.569  1.00  0.00    -0.000 C 
BRANCH  18  19
ATOM     19  C   UNL     1     100.274 -68.175  10.887  1.00  0.00    -0.003 C 
ATOM     20  C   UNL     1     100.019 -66.671  10.829  1.00  0.00     0.004 C 
ENDBRANCH  18  19
ENDBRANCH  17  18
ENDBRANCH  16  17
ENDBRANCH  15  16
ENDBRANCH  14  15
ENDBRANCH  13  14
ENDBRANCH  12  13
ENDBRANCH   1  12
TORSDOF 16
ENDMDL
MODEL 7
REMARK VINA RESULT:    -3.662      1.581      4.548
REMARK INTER + INTRA:          -9.120
REMARK INTER:                  -7.304
REMARK INTRA:                  -1.816
REMARK UNBOUND:                -2.033
REMARK SMILES CCCCCCCCCCCCCCCCCC(=O)[O-]
REMARK SMILES IDX 10 1 11 2 12 3 13 4 14 5 15 6 16 7 17 8 18 9 19 10 20 11
REMARK SMILES IDX 9 12 8 13 7 14 6 15 5 16 4 17 3 18 2 19 1 20
REMARK H PARENT
REMARK Flexibility Score: inf
ROOT
ATOM      1  C   UNL     1     101.491 -68.951   9.299  1.00  0.00     0.000 C 
ENDROOT
BRANCH   1   2
ATOM      2  C   UNL     1     101.057 -68.518   7.890  1.00  0.00     0.000 C 
BRANCH   2   3
ATOM      3  C   UNL     1     101.694 -69.377   6.786  1.00  0.00     0.000 C 
BRANCH   3   4
ATOM      4  C   UNL     1     100.656 -69.926   5.792  1.00  0.00     0.000 C 
BRANCH   4   5
ATOM      5  C   UNL     1      99.597 -68.880   5.395  1.00  0.00     0.000 C 
BRANCH   5   6
ATOM      6  C   UNL     1      99.112 -68.964   3.937  1.00  0.00     0.000 C 
BRANCH   6   7
ATOM      7  C   UNL     1      98.291 -67.740   3.507  1.00  0.00     0.006 C 
BRANCH   7   8
ATOM      8  C   UNL     1      98.739 -67.238   2.131  1.00  0.00     0.053 C 
BRANCH   8   9
ATOM      9  C   UNL     1      99.606 -68.253   1.456  1.00  0.00     0.041 C 
ATOM     10  O   UNL     1      99.093 -69.147   0.736  1.00  0.00    -0.550 OA
ATOM     11  O   UNL     1     100.987 -68.186   1.592  1.00  0.00    -0.550 OA
ENDBRANCH   8   9
ENDBRANCH   7   8
ENDBRANCH   6   7
ENDBRANCH   5   6
ENDBRANCH   4   5
ENDBRANCH   3   4
ENDBRANCH   2   3
ENDBRANCH   1   2
BRANCH   1  12
ATOM     12  C   UNL     1     100.410 -68.621  10.334  1.00  0.00     0.000 C 
BRANCH  12  13
ATOM     13  C   UNL     1     100.996 -67.811  11.502  1.00  0.00    -0.000 C 
BRANCH  13  14
ATOM     14  C   UNL     1     101.205 -66.329  11.152  1.00  0.00    -0.000 C 
BRANCH  14  15
ATOM     15  C   UNL     1      99.988 -65.713  10.442  1.00  0.00    -0.000 C 
BRANCH  15  16
ATOM     16  C   UNL     1     100.378 -64.921   9.183  1.00  0.00    -0.000 C 
BRANCH  16  17
ATOM     17  C   UNL     1     101.856 -65.112   8.795  1.00  0.00    -0.000 C 
BRANCH  17  18
ATOM     18  C   UNL     1     102.096 -64.955   7.286  1.00  0.00    -0.000 C 
BRANCH  18  19
ATOM     19  C   UNL     1     100.830 -65.217   6.457  1.00  0.00    -0.003 C 
ATOM     20  C   UNL     1     101.183 -65.741   5.067  1.00  0.00     0.004 C 
ENDBRANCH  18  19
ENDBRANCH  17  18
ENDBRANCH  16  17
ENDBRANCH  15  16
ENDBRANCH  14  15
ENDBRANCH  13  14
ENDBRANCH  12  13
ENDBRANCH   1  12
TORSDOF 16
ENDMDL
MODEL 8
REMARK VINA RESULT:    -3.640      2.021      3.340
REMARK INTER + INTRA:          -9.078
REMARK INTER:                  -6.375
REMARK INTRA:                  -2.702
REMARK UNBOUND:                -2.033
REMARK SMILES CCCCCCCCCCCCCCCCCC(=O)[O-]
REMARK SMILES IDX 10 1 11 2 12 3 13 4 14 5 15 6 16 7 17 8 18 9 19 10 20 11
REMARK SMILES IDX 9 12 8 13 7 14 6 15 5 16 4 17 3 18 2 19 1 20
REMARK H PARENT
REMARK Flexibility Score: inf
ROOT
ATOM      1  C   UNL     1      97.970 -67.709   3.873  1.00  0.00     0.000 C 
ENDROOT
BRANCH   1   2
ATOM      2  C   UNL     1      98.545 -68.020   2.483  1.00  0.00     0.000 C 
BRANCH   2   3
ATOM      3  C   UNL     1     100.066 -68.245   2.509  1.00  0.00     0.000 C 
BRANCH   3   4
ATOM      4  C   UNL     1     100.800 -67.440   1.422  1.00  0.00     0.000 C 
BRANCH   4   5
ATOM      5  C   UNL     1      99.864 -66.505   0.636  1.00  0.00     0.000 C 
BRANCH   5   6
ATOM      6  C   UNL     1     100.110 -66.461  -0.883  1.00  0.00     0.000 C 
BRANCH   6   7
ATOM      7  C   UNL     1     100.492 -67.828  -1.468  1.00  0.00     0.006 C 
BRANCH   7   8
ATOM      8  C   UNL     1      99.554 -68.213  -2.616  1.00  0.00     0.053 C 
BRANCH   8   9
ATOM      9  C   UNL     1      98.177 -68.487  -2.102  1.00  0.00     0.041 C 
ATOM     10  O   UNL     1      97.969 -69.460  -1.332  1.00  0.00    -0.550 OA
ATOM     11  O   UNL     1      97.128 -67.641  -2.440  1.00  0.00    -0.550 OA
ENDBRANCH   8   9
ENDBRANCH   7   8
ENDBRANCH   6   7
ENDBRANCH   5   6
ENDBRANCH   4   5
ENDBRANCH   3   4
ENDBRANCH   2   3
ENDBRANCH   1   2
BRANCH   1  12
ATOM     12  C   UNL     1      97.206 -66.380   3.868  1.00  0.00     0.000 C 
BRANCH  12  13
ATOM     13  C   UNL     1      98.164 -65.196   3.658  1.00  0.00    -0.000 C 
BRANCH  13  14
ATOM     14  C   UNL     1      99.161 -65.027   4.816  1.00  0.00    -0.000 C 
BRANCH  14  15
ATOM     15  C   UNL     1     100.625 -65.107   4.350  1.00  0.00    -0.000 C 
BRANCH  15  16
ATOM     16  C   UNL     1     101.445 -66.128   5.155  1.00  0.00    -0.000 C 
BRANCH  16  17
ATOM     17  C   UNL     1     100.658 -66.721   6.339  1.00  0.00    -0.000 C 
BRANCH  17  18
ATOM     18  C   UNL     1     101.296 -68.007   6.887  1.00  0.00    -0.000 C 
BRANCH  18  19
ATOM     19  C   UNL     1     101.481 -69.081   5.805  1.00  0.00    -0.003 C 
ATOM     20  C   UNL     1     100.247 -69.974   5.701  1.00  0.00     0.004 C 
ENDBRANCH  18  19
ENDBRANCH  17  18
ENDBRANCH  16  17
ENDBRANCH  15  16
ENDBRANCH  14  15
ENDBRANCH  13  14
ENDBRANCH  12  13
ENDBRANCH   1  12
TORSDOF 16
ENDMDL
MODEL 9
REMARK VINA RESULT:    -3.611      4.110      8.343
REMARK INTER + INTRA:          -9.022
REMARK INTER:                  -7.241
REMARK INTRA:                  -1.781
REMARK UNBOUND:                -2.033
REMARK SMILES CCCCCCCCCCCCCCCCCC(=O)[O-]
REMARK SMILES IDX 10 1 11 2 12 3 13 4 14 5 15 6 16 7 17 8 18 9 19 10 20 11
REMARK SMILES IDX 9 12 8 13 7 14 6 15 5 16 4 17 3 18 2 19 1 20
REMARK H PARENT
REMARK Flexibility Score: inf
ROOT
ATOM      1  C   UNL     1     100.084 -68.588   4.591  1.00  0.00     0.000 C 
ENDROOT
BRANCH   1   2
ATOM      2  C   UNL     1     100.115 -69.553   5.786  1.00  0.00     0.000 C 
BRANCH   2   3
ATOM      3  C   UNL     1     101.028 -69.059   6.920  1.00  0.00     0.000 C 
BRANCH   3   4
ATOM      4  C   UNL     1     101.481 -67.602   6.720  1.00  0.00     0.000 C 
BRANCH   4   5
ATOM      5  C   UNL     1     100.838 -66.631   7.727  1.00  0.00     0.000 C 
BRANCH   5   6
ATOM      6  C   UNL     1     101.389 -66.718   9.162  1.00  0.00     0.000 C 
BRANCH   6   7
ATOM      7  C   UNL     1     100.298 -66.993  10.207  1.00  0.00     0.006 C 
BRANCH   7   8
ATOM      8  C   UNL     1     100.288 -68.470  10.611  1.00  0.00     0.053 C 
BRANCH   8   9
ATOM      9  C   UNL     1     101.253 -68.717  11.727  1.00  0.00     0.041 C 
ATOM     10  O   UNL     1     101.624 -67.769  12.466  1.00  0.00    -0.550 OA
ATOM     11  O   UNL     1     101.712 -70.005  11.975  1.00  0.00    -0.550 OA
ENDBRANCH   8   9
ENDBRANCH   7   8
ENDBRANCH   6   7
ENDBRANCH   5   6
ENDBRANCH   4   5
ENDBRANCH   3   4
ENDBRANCH   2   3
ENDBRANCH   1   2
BRANCH   1  12
ATOM     12  C   UNL     1      98.732 -68.648   3.870  1.00  0.00     0.000 C 
BRANCH  12  13
ATOM     13  C   UNL     1      98.000 -67.300   3.964  1.00  0.00    -0.000 C 
BRANCH  13  14
ATOM     14  C   UNL     1      98.962 -66.103   4.029  1.00  0.00    -0.000 C 
BRANCH  14  15
ATOM     15  C   UNL     1      98.793 -65.145   2.837  1.00  0.00    -0.000 C 
BRANCH  15  16
ATOM     16  C   UNL     1      99.455 -65.677   1.556  1.00  0.00    -0.000 C 
BRANCH  16  17
ATOM     17  C   UNL     1      98.469 -65.783   0.378  1.00  0.00    -0.000 C 
BRANCH  17  18
ATOM     18  C   UNL     1      98.886 -66.850  -0.647  1.00  0.00    -0.000 C 
BRANCH  18  19
ATOM     19  C   UNL     1      99.670 -68.007  -0.009  1.00  0.00    -0.003 C 
ATOM     20  C   UNL     1      98.778 -69.230   0.190  1.00  0.00     0.004 C 
ENDBRANCH  18  19
ENDBRANCH  17  18
ENDBRANCH  16  17
ENDBRANCH  15  16
ENDBRANCH  14  15
ENDBRANCH  13  14
ENDBRANCH  12  13
ENDBRANCH   1  12
TORSDOF 16
ENDMDL
