MODEL 1
REMARK VINA RESULT:    -4.210      0.000      0.000
REMARK INTER + INTRA:         -14.922
REMARK INTER:                 -10.609
REMARK INTRA:                  -4.313
REMARK UNBOUND:                -4.313
REMARK SMILES CCCCCCCCCCCCCCCCCCCCCCCCCCCC(=O)[O-]
REMARK SMILES IDX 15 1 16 2 17 3 18 4 19 5 20 6 21 7 22 8 23 9 24 10 25 11
REMARK SMILES IDX 26 12 27 13 28 14 29 15 30 16 14 17 13 18 12 19 11 20 10 21
REMARK SMILES IDX 9 22 8 23 7 24 6 25 5 26 4 27 3 28 2 29 1 30
REMARK H PARENT
REMARK Flexibility Score: inf
ROOT
ATOM      1  C   UNL     1      20.073  23.941  21.758  1.00  0.00     0.000 C 
ENDROOT
BRANCH   1   2
ATOM      2  C   UNL     1      19.877  24.949  20.614  1.00  0.00     0.000 C 
BRANCH   2   3
ATOM      3  C   UNL     1      19.024  24.387  19.466  1.00  0.00     0.000 C 
BRANCH   3   4
ATOM      4  C   UNL     1      19.751  24.544  18.123  1.00  0.00     0.000 C 
BRANCH   4   5
ATOM      5  C   UNL     1      21.250  24.209  18.211  1.00  0.00     0.000 C 
BRANCH   5   6
ATOM      6  C   UNL     1      21.512  22.699  18.336  1.00  0.00     0.000 C 
BRANCH   6   7
ATOM      7  C   UNL     1      22.415  22.343  19.533  1.00  0.00     0.000 C 
BRANCH   7   8
ATOM      8  C   UNL     1      21.772  21.424  20.594  1.00  0.00     0.000 C 
BRANCH   8   9
ATOM      9  C   UNL     1      22.749  20.790  21.602  1.00  0.00     0.000 C 
BRANCH   9  10
ATOM     10  C   UNL     1      22.756  19.252  21.538  1.00  0.00     0.000 C 
BRANCH  10  11
ATOM     11  C   UNL     1      24.039  18.692  20.904  1.00  0.00     0.000 C 
BRANCH  11  12
ATOM     12  C   UNL     1      23.997  17.164  20.721  1.00  0.00     0.006 C 
BRANCH  12  13
ATOM     13  C   UNL     1      22.563  16.616  20.760  1.00  0.00     0.053 C 
BRANCH  13  14
ATOM     14  C   UNL     1      22.204  15.895  19.496  1.00  0.00     0.041 C 
ATOM     15  O   UNL     1      21.137  15.231  19.424  1.00  0.00    -0.550 OA
ATOM     16  O   UNL     1      23.038  15.976  18.388  1.00  0.00    -0.550 OA
ENDBRANCH  13  14
ENDBRANCH  12  13
ENDBRANCH  11  12
ENDBRANCH  10  11
ENDBRANCH   9  10
ENDBRANCH   8   9
ENDBRANCH   7   8
ENDBRANCH   6   7
ENDBRANCH   5   6
ENDBRANCH   4   5
ENDBRANCH   3   4
ENDBRANCH   2   3
ENDBRANCH   1   2
BRANCH   1  17
ATOM     17  C   UNL     1      18.741  23.368  22.272  1.00  0.00     0.000 C 
BRANCH  17  18
ATOM     18  C   UNL     1      18.510  21.913  21.828  1.00  0.00     0.000 C 
BRANCH  18  19
ATOM     19  C   UNL     1      17.042  21.606  21.448  1.00  0.00     0.000 C 
BRANCH  19  20
ATOM     20  C   UNL     1      16.880  21.227  19.966  1.00  0.00     0.000 C 
BRANCH  20  21
ATOM     21  C   UNL     1      18.235  21.176  19.234  1.00  0.00     0.000 C 
BRANCH  21  22
ATOM     22  C   UNL     1      18.322  19.984  18.265  1.00  0.00    -0.000 C 
BRANCH  22  23
ATOM     23  C   UNL     1      18.382  18.627  18.997  1.00  0.00    -0.000 C 
BRANCH  23  24
ATOM     24  C   UNL     1      19.375  18.625  20.176  1.00  0.00    -0.000 C 
BRANCH  24  25
ATOM     25  C   UNL     1      19.001  17.579  21.241  1.00  0.00    -0.000 C 
BRANCH  25  26
ATOM     26  C   UNL     1      17.896  18.062  22.193  1.00  0.00    -0.000 C 
BRANCH  26  27
ATOM     27  C   UNL     1      17.715  17.145  23.418  1.00  0.00    -0.000 C 
BRANCH  27  28
ATOM     28  C   UNL     1      18.742  15.993  23.452  1.00  0.00    -0.000 C 
BRANCH  28  29
ATOM     29  C   UNL     1      19.665  16.017  24.683  1.00  0.00    -0.003 C 
ATOM     30  C   UNL     1      19.564  17.309  25.489  1.00  0.00     0.004 C 
ENDBRANCH  28  29
ENDBRANCH  27  28
ENDBRANCH  26  27
ENDBRANCH  25  26
ENDBRANCH  24  25
ENDBRANCH  23  24
ENDBRANCH  22  23
ENDBRANCH  21  22
ENDBRANCH  20  21
ENDBRANCH  19  20
ENDBRANCH  18  19
ENDBRANCH  17  18
ENDBRANCH   1  17
TORSDOF 26
ENDMDL
MODEL 2
REMARK VINA RESULT:    -4.194      1.855      6.330
REMARK INTER + INTRA:         -14.883
REMARK INTER:                 -10.137
REMARK INTRA:                  -4.746
REMARK UNBOUND:                -4.313
REMARK SMILES CCCCCCCCCCCCCCCCCCCCCCCCCCCC(=O)[O-]
REMARK SMILES IDX 15 1 16 2 17 3 18 4 19 5 20 6 21 7 22 8 23 9 24 10 25 11
REMARK SMILES IDX 26 12 27 13 28 14 29 15 30 16 14 17 13 18 12 19 11 20 10 21
REMARK SMILES IDX 9 22 8 23 7 24 6 25 5 26 4 27 3 28 2 29 1 30
REMARK H PARENT
REMARK Flexibility Score: inf
ROOT
ATOM      1  C   UNL     1      22.864  19.631  21.736  1.00  0.00     0.000 C 
ENDROOT
BRANCH   1   2
ATOM      2  C   UNL     1      24.051  19.314  20.812  1.00  0.00     0.000 C 
BRANCH   2   3
ATOM      3  C   UNL     1      24.653  17.925  21.071  1.00  0.00     0.000 C 
BRANCH   3   4
ATOM      4  C   UNL     1      25.531  17.486  19.890  1.00  0.00     0.000 C 
BRANCH   4   5
ATOM      5  C   UNL     1      24.767  16.639  18.858  1.00  0.00     0.000 C 
BRANCH   5   6
ATOM      6  C   UNL     1      23.702  15.737  19.504  1.00  0.00     0.000 C 
BRANCH   6   7
ATOM      7  C   UNL     1      22.330  15.835  18.810  1.00  0.00     0.000 C 
BRANCH   7   8
ATOM      8  C   UNL     1      21.108  15.622  19.730  1.00  0.00     0.000 C 
BRANCH   8   9
ATOM      9  C   UNL     1      20.941  16.654  20.861  1.00  0.00     0.000 C 
BRANCH   9  10
ATOM     10  C   UNL     1      19.810  17.661  20.586  1.00  0.00     0.000 C 
BRANCH  10  11
ATOM     11  C   UNL     1      18.441  16.983  20.417  1.00  0.00     0.000 C 
BRANCH  11  12
ATOM     12  C   UNL     1      17.387  17.507  21.408  1.00  0.00     0.006 C 
BRANCH  12  13
ATOM     13  C   UNL     1      18.005  17.890  22.761  1.00  0.00     0.053 C 
BRANCH  13  14
ATOM     14  C   UNL     1      18.040  16.730  23.709  1.00  0.00     0.041 C 
ATOM     15  O   UNL     1      19.067  16.009  23.794  1.00  0.00    -0.550 OA
ATOM     16  O   UNL     1      16.944  16.461  24.518  1.00  0.00    -0.550 OA
ENDBRANCH  13  14
ENDBRANCH  12  13
ENDBRANCH  11  12
ENDBRANCH  10  11
ENDBRANCH   9  10
ENDBRANCH   8   9
ENDBRANCH   7   8
ENDBRANCH   6   7
ENDBRANCH   5   6
ENDBRANCH   4   5
ENDBRANCH   3   4
ENDBRANCH   2   3
ENDBRANCH   1   2
BRANCH   1  17
ATOM     17  C   UNL     1      21.803  20.509  21.052  1.00  0.00     0.000 C 
BRANCH  17  18
ATOM     18  C   UNL     1      22.160  22.005  21.084  1.00  0.00     0.000 C 
BRANCH  18  19
ATOM     19  C   UNL     1      22.640  22.558  19.720  1.00  0.00     0.000 C 
BRANCH  19  20
ATOM     20  C   UNL     1      21.595  22.378  18.607  1.00  0.00     0.000 C 
BRANCH  20  21
ATOM     21  C   UNL     1      21.413  23.663  17.774  1.00  0.00     0.000 C 
BRANCH  21  22
ATOM     22  C   UNL     1      20.179  24.467  18.218  1.00  0.00    -0.000 C 
BRANCH  22  23
ATOM     23  C   UNL     1      20.453  25.335  19.464  1.00  0.00    -0.000 C 
BRANCH  23  24
ATOM     24  C   UNL     1      19.860  24.735  20.754  1.00  0.00    -0.000 C 
BRANCH  24  25
ATOM     25  C   UNL     1      18.773  23.687  20.454  1.00  0.00    -0.000 C 
BRANCH  25  26
ATOM     26  C   UNL     1      18.545  22.712  21.619  1.00  0.00    -0.000 C 
BRANCH  26  27
ATOM     27  C   UNL     1      18.347  21.257  21.154  1.00  0.00    -0.000 C 
BRANCH  27  28
ATOM     28  C   UNL     1      17.555  21.160  19.832  1.00  0.00    -0.000 C 
BRANCH  28  29
ATOM     29  C   UNL     1      18.349  20.530  18.674  1.00  0.00    -0.003 C 
ATOM     30  C   UNL     1      18.251  21.323  17.373  1.00  0.00     0.004 C 
ENDBRANCH  28  29
ENDBRANCH  27  28
ENDBRANCH  26  27
ENDBRANCH  25  26
ENDBRANCH  24  25
ENDBRANCH  23  24
ENDBRANCH  22  23
ENDBRANCH  21  22
ENDBRANCH  20  21
ENDBRANCH  19  20
ENDBRANCH  18  19
ENDBRANCH  17  18
ENDBRANCH   1  17
TORSDOF 26
ENDMDL
MODEL 3
REMARK VINA RESULT:    -4.151      1.347      2.032
REMARK INTER + INTRA:         -14.773
REMARK INTER:                  -9.904
REMARK INTRA:                  -4.870
REMARK UNBOUND:                -4.313
REMARK SMILES CCCCCCCCCCCCCCCCCCCCCCCCCCCC(=O)[O-]
REMARK SMILES IDX 15 1 16 2 17 3 18 4 19 5 20 6 21 7 22 8 23 9 24 10 25 11
REMARK SMILES IDX 26 12 27 13 28 14 29 15 30 16 14 17 13 18 12 19 11 20 10 21
REMARK SMILES IDX 9 22 8 23 7 24 6 25 5 26 4 27 3 28 2 29 1 30
REMARK H PARENT
REMARK Flexibility Score: inf
ROOT
ATOM      1  C   UNL     1      20.013  23.882  21.808  1.00  0.00     0.000 C 
ENDROOT
BRANCH   1   2
ATOM      2  C   UNL     1      19.868  24.854  20.626  1.00  0.00     0.000 C 
BRANCH   2   3
ATOM      3  C   UNL     1      19.051  24.263  19.466  1.00  0.00     0.000 C 
BRANCH   3   4
ATOM      4  C   UNL     1      19.833  24.358  18.149  1.00  0.00     0.000 C 
BRANCH   4   5
ATOM      5  C   UNL     1      21.337  24.093  18.325  1.00  0.00     0.000 C 
BRANCH   5   6
ATOM      6  C   UNL     1      21.662  22.597  18.469  1.00  0.00     0.000 C 
BRANCH   6   7
ATOM      7  C   UNL     1      22.481  22.279  19.735  1.00  0.00     0.000 C 
BRANCH   7   8
ATOM      8  C   UNL     1      21.816  21.295  20.722  1.00  0.00     0.000 C 
BRANCH   8   9
ATOM      9  C   UNL     1      22.770  20.605  21.715  1.00  0.00     0.000 C 
BRANCH   9  10
ATOM     10  C   UNL     1      23.071  19.144  21.335  1.00  0.00     0.000 C 
BRANCH  10  11
ATOM     11  C   UNL     1      24.311  19.010  20.436  1.00  0.00     0.000 C 
BRANCH  11  12
ATOM     12  C   UNL     1      24.750  17.548  20.239  1.00  0.00     0.006 C 
BRANCH  12  13
ATOM     13  C   UNL     1      23.554  16.607  20.035  1.00  0.00     0.053 C 
BRANCH  13  14
ATOM     14  C   UNL     1      23.567  15.971  18.678  1.00  0.00     0.041 C 
ATOM     15  O   UNL     1      24.635  15.908  18.015  1.00  0.00    -0.550 OA
ATOM     16  O   UNL     1      22.403  15.424  18.155  1.00  0.00    -0.550 OA
ENDBRANCH  13  14
ENDBRANCH  12  13
ENDBRANCH  11  12
ENDBRANCH  10  11
ENDBRANCH   9  10
ENDBRANCH   8   9
ENDBRANCH   7   8
ENDBRANCH   6   7
ENDBRANCH   5   6
ENDBRANCH   4   5
ENDBRANCH   3   4
ENDBRANCH   2   3
ENDBRANCH   1   2
BRANCH   1  17
ATOM     17  C   UNL     1      18.654  23.386  22.332  1.00  0.00     0.000 C 
BRANCH  17  18
ATOM     18  C   UNL     1      18.394  21.907  21.999  1.00  0.00     0.000 C 
BRANCH  18  19
ATOM     19  C   UNL     1      16.966  21.632  21.469  1.00  0.00     0.000 C 
BRANCH  19  20
ATOM     20  C   UNL     1      16.967  20.892  20.121  1.00  0.00     0.000 C 
BRANCH  20  21
ATOM     21  C   UNL     1      18.375  20.837  19.495  1.00  0.00     0.000 C 
BRANCH  21  22
ATOM     22  C   UNL     1      18.328  20.942  17.961  1.00  0.00    -0.000 C 
BRANCH  22  23
ATOM     23  C   UNL     1      17.333  19.947  17.328  1.00  0.00    -0.000 C 
BRANCH  23  24
ATOM     24  C   UNL     1      17.899  18.517  17.225  1.00  0.00    -0.000 C 
BRANCH  24  25
ATOM     25  C   UNL     1      17.131  17.529  18.122  1.00  0.00    -0.000 C 
BRANCH  25  26
ATOM     26  C   UNL     1      18.049  16.505  18.806  1.00  0.00    -0.000 C 
BRANCH  26  27
ATOM     27  C   UNL     1      19.428  17.085  19.174  1.00  0.00    -0.000 C 
BRANCH  27  28
ATOM     28  C   UNL     1      19.856  16.728  20.613  1.00  0.00    -0.000 C 
BRANCH  28  29
ATOM     29  C   UNL     1      19.696  17.884  21.616  1.00  0.00    -0.003 C 
ATOM     30  C   UNL     1      18.256  18.085  22.083  1.00  0.00     0.004 C 
ENDBRANCH  28  29
ENDBRANCH  27  28
ENDBRANCH  26  27
ENDBRANCH  25  26
ENDBRANCH  24  25
ENDBRANCH  23  24
ENDBRANCH  22  23
ENDBRANCH  21  22
ENDBRANCH  20  21
ENDBRANCH  19  20
ENDBRANCH  18  19
ENDBRANCH  17  18
ENDBRANCH   1  17
TORSDOF 26
ENDMDL
MODEL 4
REMARK VINA RESULT:    -4.132      1.612      2.002
REMARK INTER + INTRA:         -14.726
REMARK INTER:                 -10.802
REMARK INTRA:                  -3.924
REMARK UNBOUND:                -4.313
REMARK SMILES CCCCCCCCCCCCCCCCCCCCCCCCCCCC(=O)[O-]
REMARK SMILES IDX 15 1 16 2 17 3 18 4 19 5 20 6 21 7 22 8 23 9 24 10 25 11
REMARK SMILES IDX 26 12 27 13 28 14 29 15 30 16 14 17 13 18 12 19 11 20 10 21
REMARK SMILES IDX 9 22 8 23 7 24 6 25 5 26 4 27 3 28 2 29 1 30
REMARK H PARENT
REMARK Flexibility Score: inf
ROOT
ATOM      1  C   UNL     1      20.035  23.913  21.740  1.00  0.00     0.000 C 
ENDROOT
BRANCH   1   2
ATOM      2  C   UNL     1      19.862  24.898  20.573  1.00  0.00     0.000 C 
BRANCH   2   3
ATOM      3  C   UNL     1      19.072  24.297  19.399  1.00  0.00     0.000 C 
BRANCH   3   4
ATOM      4  C   UNL     1      19.817  24.517  18.076  1.00  0.00     0.000 C 
BRANCH   4   5
ATOM      5  C   UNL     1      21.298  24.107  18.146  1.00  0.00     0.000 C 
BRANCH   5   6
ATOM      6  C   UNL     1      21.483  22.599  18.381  1.00  0.00     0.000 C 
BRANCH   6   7
ATOM      7  C   UNL     1      22.384  22.285  19.591  1.00  0.00     0.000 C 
BRANCH   7   8
ATOM      8  C   UNL     1      21.801  21.278  20.606  1.00  0.00     0.000 C 
BRANCH   8   9
ATOM      9  C   UNL     1      22.836  20.456  21.395  1.00  0.00     0.000 C 
BRANCH   9  10
ATOM     10  C   UNL     1      22.350  19.029  21.710  1.00  0.00     0.000 C 
BRANCH  10  11
ATOM     11  C   UNL     1      23.397  17.958  21.367  1.00  0.00     0.000 C 
BRANCH  11  12
ATOM     12  C   UNL     1      24.676  18.548  20.746  1.00  0.00     0.006 C 
BRANCH  12  13
ATOM     13  C   UNL     1      25.046  17.862  19.424  1.00  0.00     0.053 C 
BRANCH  13  14
ATOM     14  C   UNL     1      26.433  17.295  19.456  1.00  0.00     0.041 C 
ATOM     15  O   UNL     1      27.232  17.622  20.371  1.00  0.00    -0.550 OA
ATOM     16  O   UNL     1      26.836  16.385  18.487  1.00  0.00    -0.550 OA
ENDBRANCH  13  14
ENDBRANCH  12  13
ENDBRANCH  11  12
ENDBRANCH  10  11
ENDBRANCH   9  10
ENDBRANCH   8   9
ENDBRANCH   7   8
ENDBRANCH   6   7
ENDBRANCH   5   6
ENDBRANCH   4   5
ENDBRANCH   3   4
ENDBRANCH   2   3
ENDBRANCH   1   2
BRANCH   1  17
ATOM     17  C   UNL     1      18.692  23.497  22.363  1.00  0.00     0.000 C 
BRANCH  17  18
ATOM     18  C   UNL     1      18.391  21.999  22.180  1.00  0.00     0.000 C 
BRANCH  18  19
ATOM     19  C   UNL     1      16.947  21.710  21.701  1.00  0.00     0.000 C 
BRANCH  19  20
ATOM     20  C   UNL     1      16.901  21.112  20.285  1.00  0.00     0.000 C 
BRANCH  20  21
ATOM     21  C   UNL     1      18.313  20.866  19.718  1.00  0.00     0.000 C 
BRANCH  21  22
ATOM     22  C   UNL     1      18.272  20.100  18.384  1.00  0.00    -0.000 C 
BRANCH  22  23
ATOM     23  C   UNL     1      18.509  18.585  18.563  1.00  0.00    -0.000 C 
BRANCH  23  24
ATOM     24  C   UNL     1      19.406  18.257  19.772  1.00  0.00    -0.000 C 
BRANCH  24  25
ATOM     25  C   UNL     1      19.887  16.795  19.751  1.00  0.00    -0.000 C 
BRANCH  25  26
ATOM     26  C   UNL     1      19.352  15.972  20.932  1.00  0.00    -0.000 C 
BRANCH  26  27
ATOM     27  C   UNL     1      20.454  15.567  21.930  1.00  0.00    -0.000 C 
BRANCH  27  28
ATOM     28  C   UNL     1      19.965  15.591  23.394  1.00  0.00    -0.000 C 
BRANCH  28  29
ATOM     29  C   UNL     1      19.483  16.973  23.868  1.00  0.00    -0.003 C 
ATOM     30  C   UNL     1      19.484  17.125  25.387  1.00  0.00     0.004 C 
ENDBRANCH  28  29
ENDBRANCH  27  28
ENDBRANCH  26  27
ENDBRANCH  25  26
ENDBRANCH  24  25
ENDBRANCH  23  24
ENDBRANCH  22  23
ENDBRANCH  21  22
ENDBRANCH  20  21
ENDBRANCH  19  20
ENDBRANCH  18  19
ENDBRANCH  17  18
ENDBRANCH   1  17
TORSDOF 26
ENDMDL
MODEL 5
REMARK VINA RESULT:    -4.019      2.318      5.702
REMARK INTER + INTRA:         -14.442
REMARK INTER:                 -11.060
REMARK INTRA:                  -3.382
REMARK UNBOUND:                -4.313
REMARK SMILES CCCCCCCCCCCCCCCCCCCCCCCCCCCC(=O)[O-]
REMARK SMILES IDX 15 1 16 2 17 3 18 4 19 5 20 6 21 7 22 8 23 9 24 10 25 11
REMARK SMILES IDX 26 12 27 13 28 14 29 15 30 16 14 17 13 18 12 19 11 20 10 21
REMARK SMILES IDX 9 22 8 23 7 24 6 25 5 26 4 27 3 28 2 29 1 30
REMARK H PARENT
REMARK Flexibility Score: inf
ROOT
ATOM      1  C   UNL     1      20.574  24.474  17.567  1.00  0.00     0.000 C 
ENDROOT
BRANCH   1   2
ATOM      2  C   UNL     1      20.548  22.967  17.266  1.00  0.00     0.000 C 
BRANCH   2   3
ATOM      3  C   UNL     1      19.132  22.373  17.322  1.00  0.00     0.000 C 
BRANCH   3   4
ATOM      4  C   UNL     1      19.026  21.330  18.444  1.00  0.00     0.000 C 
BRANCH   4   5
ATOM      5  C   UNL     1      17.588  21.148  18.958  1.00  0.00     0.000 C 
BRANCH   5   6
ATOM      6  C   UNL     1      17.433  21.545  20.435  1.00  0.00     0.000 C 
BRANCH   6   7
ATOM      7  C   UNL     1      17.525  20.342  21.393  1.00  0.00     0.000 C 
BRANCH   7   8
ATOM      8  C   UNL     1      17.512  18.955  20.715  1.00  0.00     0.000 C 
BRANCH   8   9
ATOM      9  C   UNL     1      18.774  18.099  20.931  1.00  0.00     0.000 C 
BRANCH   9  10
ATOM     10  C   UNL     1      18.536  16.604  20.650  1.00  0.00     0.000 C 
BRANCH  10  11
ATOM     11  C   UNL     1      19.098  15.696  21.756  1.00  0.00     0.000 C 
BRANCH  11  12
ATOM     12  C   UNL     1      20.077  16.428  22.690  1.00  0.00     0.006 C 
BRANCH  12  13
ATOM     13  C   UNL     1      20.030  15.879  24.123  1.00  0.00     0.053 C 
BRANCH  13  14
ATOM     14  C   UNL     1      19.256  16.775  25.042  1.00  0.00     0.041 C 
ATOM     15  O   UNL     1      17.998  16.795  25.000  1.00  0.00    -0.550 OA
ATOM     16  O   UNL     1      19.924  17.570  25.963  1.00  0.00    -0.550 OA
ENDBRANCH  13  14
ENDBRANCH  12  13
ENDBRANCH  11  12
ENDBRANCH  10  11
ENDBRANCH   9  10
ENDBRANCH   8   9
ENDBRANCH   7   8
ENDBRANCH   6   7
ENDBRANCH   5   6
ENDBRANCH   4   5
ENDBRANCH   3   4
ENDBRANCH   2   3
ENDBRANCH   1   2
BRANCH   1  17
ATOM     17  C   UNL     1      20.998  24.779  19.014  1.00  0.00     0.000 C 
BRANCH  17  18
ATOM     18  C   UNL     1      19.797  24.995  19.951  1.00  0.00     0.000 C 
BRANCH  18  19
ATOM     19  C   UNL     1      19.777  24.035  21.165  1.00  0.00     0.000 C 
BRANCH  19  20
ATOM     20  C   UNL     1      21.133  23.348  21.400  1.00  0.00     0.000 C 
BRANCH  20  21
ATOM     21  C   UNL     1      21.080  21.843  21.076  1.00  0.00     0.000 C 
BRANCH  21  22
ATOM     22  C   UNL     1      22.472  21.275  20.748  1.00  0.00    -0.000 C 
BRANCH  22  23
ATOM     23  C   UNL     1      22.937  20.215  21.769  1.00  0.00    -0.000 C 
BRANCH  23  24
ATOM     24  C   UNL     1      22.288  18.836  21.539  1.00  0.00    -0.000 C 
BRANCH  24  25
ATOM     25  C   UNL     1      23.325  17.773  21.133  1.00  0.00    -0.000 C 
BRANCH  25  26
ATOM     26  C   UNL     1      24.773  18.269  21.264  1.00  0.00    -0.000 C 
BRANCH  26  27
ATOM     27  C   UNL     1      25.470  18.454  19.903  1.00  0.00    -0.000 C 
BRANCH  27  28
ATOM     28  C   UNL     1      26.189  17.174  19.427  1.00  0.00    -0.000 C 
BRANCH  28  29
ATOM     29  C   UNL     1      25.341  16.294  18.492  1.00  0.00    -0.003 C 
ATOM     30  C   UNL     1      25.991  16.057  17.131  1.00  0.00     0.004 C 
ENDBRANCH  28  29
ENDBRANCH  27  28
ENDBRANCH  26  27
ENDBRANCH  25  26
ENDBRANCH  24  25
ENDBRANCH  23  24
ENDBRANCH  22  23
ENDBRANCH  21  22
ENDBRANCH  20  21
ENDBRANCH  19  20
ENDBRANCH  18  19
ENDBRANCH  17  18
ENDBRANCH   1  17
TORSDOF 26
ENDMDL
MODEL 6
REMARK VINA RESULT:    -4.013      2.164      5.836
REMARK INTER + INTRA:         -14.427
REMARK INTER:                 -10.531
REMARK INTRA:                  -3.895
REMARK UNBOUND:                -4.313
REMARK SMILES CCCCCCCCCCCCCCCCCCCCCCCCCCCC(=O)[O-]
REMARK SMILES IDX 15 1 16 2 17 3 18 4 19 5 20 6 21 7 22 8 23 9 24 10 25 11
REMARK SMILES IDX 26 12 27 13 28 14 29 15 30 16 14 17 13 18 12 19 11 20 10 21
REMARK SMILES IDX 9 22 8 23 7 24 6 25 5 26 4 27 3 28 2 29 1 30
REMARK H PARENT
REMARK Flexibility Score: inf
ROOT
ATOM      1  C   UNL     1      18.192  18.789  21.105  1.00  0.00     0.000 C 
ENDROOT
BRANCH   1   2
ATOM      2  C   UNL     1      17.583  19.261  19.775  1.00  0.00     0.000 C 
BRANCH   2   3
ATOM      3  C   UNL     1      17.130  20.729  19.816  1.00  0.00     0.000 C 
BRANCH   3   4
ATOM      4  C   UNL     1      17.290  21.383  18.436  1.00  0.00     0.000 C 
BRANCH   4   5
ATOM      5  C   UNL     1      18.718  21.263  17.878  1.00  0.00     0.000 C 
BRANCH   5   6
ATOM      6  C   UNL     1      19.110  22.459  16.995  1.00  0.00     0.000 C 
BRANCH   6   7
ATOM      7  C   UNL     1      20.617  22.773  17.044  1.00  0.00     0.000 C 
BRANCH   7   8
ATOM      8  C   UNL     1      20.980  24.204  17.501  1.00  0.00     0.000 C 
BRANCH   8   9
ATOM      9  C   UNL     1      19.870  24.960  18.254  1.00  0.00     0.000 C 
BRANCH   9  10
ATOM     10  C   UNL     1      20.061  24.933  19.782  1.00  0.00     0.000 C 
BRANCH  10  11
ATOM     11  C   UNL     1      19.155  23.902  20.474  1.00  0.00     0.000 C 
BRANCH  11  12
ATOM     12  C   UNL     1      19.907  23.045  21.508  1.00  0.00     0.006 C 
BRANCH  12  13
ATOM     13  C   UNL     1      20.526  21.789  20.878  1.00  0.00     0.053 C 
BRANCH  13  14
ATOM     14  C   UNL     1      22.024  21.833  20.896  1.00  0.00     0.041 C 
ATOM     15  O   UNL     1      22.668  21.207  21.778  1.00  0.00    -0.550 OA
ATOM     16  O   UNL     1      22.711  22.547  19.923  1.00  0.00    -0.550 OA
ENDBRANCH  13  14
ENDBRANCH  12  13
ENDBRANCH  11  12
ENDBRANCH  10  11
ENDBRANCH   9  10
ENDBRANCH   8   9
ENDBRANCH   7   8
ENDBRANCH   6   7
ENDBRANCH   5   6
ENDBRANCH   4   5
ENDBRANCH   3   4
ENDBRANCH   2   3
ENDBRANCH   1   2
BRANCH   1  17
ATOM     17  C   UNL     1      17.122  18.350  22.120  1.00  0.00     0.000 C 
BRANCH  17  18
ATOM     18  C   UNL     1      17.432  16.984  22.756  1.00  0.00     0.000 C 
BRANCH  18  19
ATOM     19  C   UNL     1      18.057  17.085  24.168  1.00  0.00     0.000 C 
BRANCH  19  20
ATOM     20  C   UNL     1      19.279  16.168  24.342  1.00  0.00     0.000 C 
BRANCH  20  21
ATOM     21  C   UNL     1      20.301  16.348  23.203  1.00  0.00     0.000 C 
BRANCH  21  22
ATOM     22  C   UNL     1      20.649  15.012  22.525  1.00  0.00    -0.000 C 
BRANCH  22  23
ATOM     23  C   UNL     1      20.063  14.896  21.102  1.00  0.00    -0.000 C 
BRANCH  23  24
ATOM     24  C   UNL     1      20.759  15.828  20.090  1.00  0.00    -0.000 C 
BRANCH  24  25
ATOM     25  C   UNL     1      22.181  15.346  19.750  1.00  0.00    -0.000 C 
BRANCH  25  26
ATOM     26  C   UNL     1      23.212  16.485  19.740  1.00  0.00    -0.000 C 
BRANCH  26  27
ATOM     27  C   UNL     1      23.318  17.212  21.093  1.00  0.00    -0.000 C 
BRANCH  27  28
ATOM     28  C   UNL     1      24.324  18.381  21.060  1.00  0.00    -0.000 C 
BRANCH  28  29
ATOM     29  C   UNL     1      25.262  18.363  19.840  1.00  0.00    -0.003 C 
ATOM     30  C   UNL     1      26.697  17.972  20.186  1.00  0.00     0.004 C 
ENDBRANCH  28  29
ENDBRANCH  27  28
ENDBRANCH  26  27
ENDBRANCH  25  26
ENDBRANCH  24  25
ENDBRANCH  23  24
ENDBRANCH  22  23
ENDBRANCH  21  22
ENDBRANCH  20  21
ENDBRANCH  19  20
ENDBRANCH  18  19
ENDBRANCH  17  18
ENDBRANCH   1  17
TORSDOF 26
ENDMDL
MODEL 7
REMARK VINA RESULT:    -3.873      2.145      5.359
REMARK INTER + INTRA:         -14.073
REMARK INTER:                  -9.824
REMARK INTRA:                  -4.249
REMARK UNBOUND:                -4.313
REMARK SMILES CCCCCCCCCCCCCCCCCCCCCCCCCCCC(=O)[O-]
REMARK SMILES IDX 15 1 16 2 17 3 18 4 19 5 20 6 21 7 22 8 23 9 24 10 25 11
REMARK SMILES IDX 26 12 27 13 28 14 29 15 30 16 14 17 13 18 12 19 11 20 10 21
REMARK SMILES IDX 9 22 8 23 7 24 6 25 5 26 4 27 3 28 2 29 1 30
REMARK H PARENT
REMARK Flexibility Score: inf
ROOT
ATOM      1  C   UNL     1      20.635  23.558  21.536  1.00  0.00     0.000 C 
ENDROOT
BRANCH   1   2
ATOM      2  C   UNL     1      19.904  24.566  20.635  1.00  0.00     0.000 C 
BRANCH   2   3
ATOM      3  C   UNL     1      20.591  24.755  19.274  1.00  0.00     0.000 C 
BRANCH   3   4
ATOM      4  C   UNL     1      19.618  24.444  18.128  1.00  0.00     0.000 C 
BRANCH   4   5
ATOM      5  C   UNL     1      18.700  23.248  18.430  1.00  0.00     0.000 C 
BRANCH   5   6
ATOM      6  C   UNL     1      19.368  21.898  18.123  1.00  0.00     0.000 C 
BRANCH   6   7
ATOM      7  C   UNL     1      18.774  20.734  18.939  1.00  0.00     0.000 C 
BRANCH   7   8
ATOM      8  C   UNL     1      18.449  21.059  20.413  1.00  0.00     0.000 C 
BRANCH   8   9
ATOM      9  C   UNL     1      17.206  20.357  20.989  1.00  0.00     0.000 C 
BRANCH   9  10
ATOM     10  C   UNL     1      17.559  19.263  22.013  1.00  0.00     0.000 C 
BRANCH  10  11
ATOM     11  C   UNL     1      17.196  17.852  21.523  1.00  0.00     0.000 C 
BRANCH  11  12
ATOM     12  C   UNL     1      17.472  16.764  22.575  1.00  0.00     0.006 C 
BRANCH  12  13
ATOM     13  C   UNL     1      18.073  17.345  23.863  1.00  0.00     0.053 C 
BRANCH  13  14
ATOM     14  C   UNL     1      18.967  16.362  24.557  1.00  0.00     0.041 C 
ATOM     15  O   UNL     1      19.888  16.764  25.315  1.00  0.00    -0.550 OA
ATOM     16  O   UNL     1      18.767  14.998  24.386  1.00  0.00    -0.550 OA
ENDBRANCH  13  14
ENDBRANCH  12  13
ENDBRANCH  11  12
ENDBRANCH  10  11
ENDBRANCH   9  10
ENDBRANCH   8   9
ENDBRANCH   7   8
ENDBRANCH   6   7
ENDBRANCH   5   6
ENDBRANCH   4   5
ENDBRANCH   3   4
ENDBRANCH   2   3
ENDBRANCH   1   2
BRANCH   1  17
ATOM     17  C   UNL     1      21.749  22.803  20.792  1.00  0.00     0.000 C 
BRANCH  17  18
ATOM     18  C   UNL     1      22.469  21.777  21.683  1.00  0.00     0.000 C 
BRANCH  18  19
ATOM     19  C   UNL     1      22.869  20.480  20.939  1.00  0.00     0.000 C 
BRANCH  19  20
ATOM     20  C   UNL     1      22.499  19.209  21.721  1.00  0.00     0.000 C 
BRANCH  20  21
ATOM     21  C   UNL     1      21.124  18.654  21.301  1.00  0.00     0.000 C 
BRANCH  21  22
ATOM     22  C   UNL     1      21.056  17.123  21.435  1.00  0.00    -0.000 C 
BRANCH  22  23
ATOM     23  C   UNL     1      20.333  16.455  20.246  1.00  0.00    -0.000 C 
BRANCH  23  24
ATOM     24  C   UNL     1      21.039  15.175  19.758  1.00  0.00    -0.000 C 
BRANCH  24  25
ATOM     25  C   UNL     1      22.571  15.297  19.838  1.00  0.00    -0.000 C 
BRANCH  25  26
ATOM     26  C   UNL     1      23.231  15.475  18.463  1.00  0.00    -0.000 C 
BRANCH  26  27
ATOM     27  C   UNL     1      24.477  16.379  18.506  1.00  0.00    -0.000 C 
BRANCH  27  28
ATOM     28  C   UNL     1      24.616  17.133  19.845  1.00  0.00    -0.000 C 
BRANCH  28  29
ATOM     29  C   UNL     1      25.635  18.285  19.810  1.00  0.00    -0.003 C 
ATOM     30  C   UNL     1      26.991  17.910  20.404  1.00  0.00     0.004 C 
ENDBRANCH  28  29
ENDBRANCH  27  28
ENDBRANCH  26  27
ENDBRANCH  25  26
ENDBRANCH  24  25
ENDBRANCH  23  24
ENDBRANCH  22  23
ENDBRANCH  21  22
ENDBRANCH  20  21
ENDBRANCH  19  20
ENDBRANCH  18  19
ENDBRANCH  17  18
ENDBRANCH   1  17
TORSDOF 26
ENDMDL
MODEL 8
REMARK VINA RESULT:    -3.853      2.870      6.251
REMARK INTER + INTRA:         -14.022
REMARK INTER:                  -9.499
REMARK INTRA:                  -4.523
REMARK UNBOUND:                -4.313
REMARK SMILES CCCCCCCCCCCCCCCCCCCCCCCCCCCC(=O)[O-]
REMARK SMILES IDX 15 1 16 2 17 3 18 4 19 5 20 6 21 7 22 8 23 9 24 10 25 11
REMARK SMILES IDX 26 12 27 13 28 14 29 15 30 16 14 17 13 18 12 19 11 20 10 21
REMARK SMILES IDX 9 22 8 23 7 24 6 25 5 26 4 27 3 28 2 29 1 30
REMARK H PARENT
REMARK Flexibility Score: inf
ROOT
ATOM      1  C   UNL     1      21.580  17.957  21.387  1.00  0.00     0.000 C 
ENDROOT
BRANCH   1   2
ATOM      2  C   UNL     1      23.054  18.383  21.475  1.00  0.00     0.000 C 
BRANCH   2   3
ATOM      3  C   UNL     1      23.275  19.850  21.075  1.00  0.00     0.000 C 
BRANCH   3   4
ATOM      4  C   UNL     1      22.009  20.679  21.334  1.00  0.00     0.000 C 
BRANCH   4   5
ATOM      5  C   UNL     1      22.223  22.186  21.111  1.00  0.00     0.000 C 
BRANCH   5   6
ATOM      6  C   UNL     1      22.582  22.522  19.654  1.00  0.00     0.000 C 
BRANCH   6   7
ATOM      7  C   UNL     1      21.580  23.490  18.996  1.00  0.00     0.000 C 
BRANCH   7   8
ATOM      8  C   UNL     1      21.084  23.074  17.594  1.00  0.00     0.000 C 
BRANCH   8   9
ATOM      9  C   UNL     1      19.585  22.734  17.494  1.00  0.00     0.000 C 
BRANCH   9  10
ATOM     10  C   UNL     1      19.192  21.518  18.352  1.00  0.00     0.000 C 
BRANCH  10  11
ATOM     11  C   UNL     1      17.672  21.394  18.543  1.00  0.00     0.000 C 
BRANCH  11  12
ATOM     12  C   UNL     1      17.258  21.345  20.024  1.00  0.00     0.006 C 
BRANCH  12  13
ATOM     13  C   UNL     1      18.469  21.414  20.966  1.00  0.00     0.053 C 
BRANCH  13  14
ATOM     14  C   UNL     1      18.514  22.705  21.726  1.00  0.00     0.041 C 
ATOM     15  O   UNL     1      18.978  23.744  21.188  1.00  0.00    -0.550 OA
ATOM     16  O   UNL     1      18.019  22.766  23.022  1.00  0.00    -0.550 OA
ENDBRANCH  13  14
ENDBRANCH  12  13
ENDBRANCH  11  12
ENDBRANCH  10  11
ENDBRANCH   9  10
ENDBRANCH   8   9
ENDBRANCH   7   8
ENDBRANCH   6   7
ENDBRANCH   5   6
ENDBRANCH   4   5
ENDBRANCH   3   4
ENDBRANCH   2   3
ENDBRANCH   1   2
BRANCH   1  17
ATOM     17  C   UNL     1      21.385  16.452  21.641  1.00  0.00     0.000 C 
BRANCH  17  18
ATOM     18  C   UNL     1      19.926  16.002  21.454  1.00  0.00     0.000 C 
BRANCH  18  19
ATOM     19  C   UNL     1      18.897  17.145  21.632  1.00  0.00     0.000 C 
BRANCH  19  20
ATOM     20  C   UNL     1      18.002  17.333  20.396  1.00  0.00     0.000 C 
BRANCH  20  21
ATOM     21  C   UNL     1      18.778  17.936  19.209  1.00  0.00     0.000 C 
BRANCH  21  22
ATOM     22  C   UNL     1      18.458  17.218  17.887  1.00  0.00    -0.000 C 
BRANCH  22  23
ATOM     23  C   UNL     1      19.182  15.862  17.757  1.00  0.00    -0.000 C 
BRANCH  23  24
ATOM     24  C   UNL     1      20.649  16.006  17.307  1.00  0.00    -0.000 C 
BRANCH  24  25
ATOM     25  C   UNL     1      21.610  15.220  18.218  1.00  0.00    -0.000 C 
BRANCH  25  26
ATOM     26  C   UNL     1      23.081  15.369  17.806  1.00  0.00    -0.000 C 
BRANCH  26  27
ATOM     27  C   UNL     1      24.009  15.690  18.993  1.00  0.00    -0.000 C 
BRANCH  27  28
ATOM     28  C   UNL     1      24.854  16.960  18.759  1.00  0.00    -0.000 C 
BRANCH  28  29
ATOM     29  C   UNL     1      26.273  16.882  19.347  1.00  0.00    -0.003 C 
ATOM     30  C   UNL     1      26.614  18.054  20.264  1.00  0.00     0.004 C 
ENDBRANCH  28  29
ENDBRANCH  27  28
ENDBRANCH  26  27
ENDBRANCH  25  26
ENDBRANCH  24  25
ENDBRANCH  23  24
ENDBRANCH  22  23
ENDBRANCH  21  22
ENDBRANCH  20  21
ENDBRANCH  19  20
ENDBRANCH  18  19
ENDBRANCH  17  18
ENDBRANCH   1  17
TORSDOF 26
ENDMDL
MODEL 9
REMARK VINA RESULT:    -3.843      2.625      5.706
REMARK INTER + INTRA:         -13.999
REMARK INTER:                  -9.888
REMARK INTRA:                  -4.111
REMARK UNBOUND:                -4.313
REMARK SMILES CCCCCCCCCCCCCCCCCCCCCCCCCCCC(=O)[O-]
REMARK SMILES IDX 15 1 16 2 17 3 18 4 19 5 20 6 21 7 22 8 23 9 24 10 25 11
REMARK SMILES IDX 26 12 27 13 28 14 29 15 30 16 14 17 13 18 12 19 11 20 10 21
REMARK SMILES IDX 9 22 8 23 7 24 6 25 5 26 4 27 3 28 2 29 1 30
REMARK H PARENT
REMARK Flexibility Score: inf
ROOT
ATOM      1  C   UNL     1      23.466  19.080  21.448  1.00  0.00     0.000 C 
ENDROOT
BRANCH   1   2
ATOM      2  C   UNL     1      22.175  19.795  21.018  1.00  0.00     0.000 C 
BRANCH   2   3
ATOM      3  C   UNL     1      22.202  21.302  21.317  1.00  0.00     0.000 C 
BRANCH   3   4
ATOM      4  C   UNL     1      22.047  22.114  20.023  1.00  0.00     0.000 C 
BRANCH   4   5
ATOM      5  C   UNL     1      21.552  23.549  20.272  1.00  0.00     0.000 C 
BRANCH   5   6
ATOM      6  C   UNL     1      21.000  24.212  19.000  1.00  0.00     0.000 C 
BRANCH   6   7
ATOM      7  C   UNL     1      21.413  23.478  17.710  1.00  0.00     0.000 C 
BRANCH   7   8
ATOM      8  C   UNL     1      20.248  22.903  16.875  1.00  0.00     0.000 C 
BRANCH   8   9
ATOM      9  C   UNL     1      18.934  22.668  17.643  1.00  0.00     0.000 C 
BRANCH   9  10
ATOM     10  C   UNL     1      18.761  21.206  18.093  1.00  0.00     0.000 C 
BRANCH  10  11
ATOM     11  C   UNL     1      17.805  21.064  19.289  1.00  0.00     0.000 C 
BRANCH  11  12
ATOM     12  C   UNL     1      18.538  20.749  20.605  1.00  0.00     0.006 C 
BRANCH  12  13
ATOM     13  C   UNL     1      17.620  20.893  21.827  1.00  0.00     0.053 C 
BRANCH  13  14
ATOM     14  C   UNL     1      17.786  22.223  22.499  1.00  0.00     0.041 C 
ATOM     15  O   UNL     1      17.217  22.455  23.597  1.00  0.00    -0.550 OA
ATOM     16  O   UNL     1      18.588  23.198  21.922  1.00  0.00    -0.550 OA
ENDBRANCH  13  14
ENDBRANCH  12  13
ENDBRANCH  11  12
ENDBRANCH  10  11
ENDBRANCH   9  10
ENDBRANCH   8   9
ENDBRANCH   7   8
ENDBRANCH   6   7
ENDBRANCH   5   6
ENDBRANCH   4   5
ENDBRANCH   3   4
ENDBRANCH   2   3
ENDBRANCH   1   2
BRANCH   1  17
ATOM     17  C   UNL     1      24.452  18.895  20.281  1.00  0.00     0.000 C 
BRANCH  17  18
ATOM     18  C   UNL     1      25.029  17.471  20.212  1.00  0.00     0.000 C 
BRANCH  18  19
ATOM     19  C   UNL     1      25.016  16.865  18.788  1.00  0.00     0.000 C 
BRANCH  19  20
ATOM     20  C   UNL     1      23.800  15.956  18.542  1.00  0.00     0.000 C 
BRANCH  20  21
ATOM     21  C   UNL     1      23.133  15.518  19.860  1.00  0.00     0.000 C 
BRANCH  21  22
ATOM     22  C   UNL     1      21.738  16.142  20.035  1.00  0.00    -0.000 C 
BRANCH  22  23
ATOM     23  C   UNL     1      20.865  16.010  18.769  1.00  0.00    -0.000 C 
BRANCH  23  24
ATOM     24  C   UNL     1      19.549  16.808  18.863  1.00  0.00    -0.000 C 
BRANCH  24  25
ATOM     25  C   UNL     1      19.329  17.391  20.270  1.00  0.00    -0.000 C 
BRANCH  25  26
ATOM     26  C   UNL     1      17.924  17.110  20.822  1.00  0.00    -0.000 C 
BRANCH  26  27
ATOM     27  C   UNL     1      17.921  16.802  22.331  1.00  0.00    -0.000 C 
BRANCH  27  28
ATOM     28  C   UNL     1      19.337  16.822  22.942  1.00  0.00    -0.000 C 
BRANCH  28  29
ATOM     29  C   UNL     1      19.420  16.198  24.346  1.00  0.00    -0.003 C 
ATOM     30  C   UNL     1      19.489  17.233  25.466  1.00  0.00     0.004 C 
ENDBRANCH  28  29
ENDBRANCH  27  28
ENDBRANCH  26  27
ENDBRANCH  25  26
ENDBRANCH  24  25
ENDBRANCH  23  24
ENDBRANCH  22  23
ENDBRANCH  21  22
ENDBRANCH  20  21
ENDBRANCH  19  20
ENDBRANCH  18  19
ENDBRANCH  17  18
ENDBRANCH   1  17
TORSDOF 26
ENDMDL
