MODEL 1
REMARK VINA RESULT:    -3.084      0.000      0.000
REMARK INTER + INTRA:         -13.381
REMARK INTER:                  -7.770
REMARK INTRA:                  -5.610
REMARK UNBOUND:                -5.610
REMARK SMILES CCCCCCCCCCCCCCCCCCCCCCCCCCCC(=O)[O-]
REMARK SMILES IDX 15 1 16 2 17 3 18 4 19 5 20 6 21 7 22 8 23 9 24 10 25 11
REMARK SMILES IDX 26 12 27 13 28 14 29 15 30 16 14 17 13 18 12 19 11 20 10 21
REMARK SMILES IDX 9 22 8 23 7 24 6 25 5 26 4 27 3 28 2 29 1 30
REMARK H PARENT
REMARK Flexibility Score: inf
ROOT
ATOM      1  C   UNL     1      11.245   4.826  33.233  1.00  0.00     0.000 C 
ENDROOT
BRANCH   1   2
ATOM      2  C   UNL     1      11.929   6.105  32.721  1.00  0.00     0.000 C 
BRANCH   2   3
ATOM      3  C   UNL     1      11.281   7.385  33.274  1.00  0.00     0.000 C 
BRANCH   3   4
ATOM      4  C   UNL     1      10.725   8.296  32.165  1.00  0.00     0.000 C 
BRANCH   4   5
ATOM      5  C   UNL     1       9.187   8.320  32.053  1.00  0.00     0.000 C 
BRANCH   5   6
ATOM      6  C   UNL     1       8.603   7.551  30.851  1.00  0.00     0.000 C 
BRANCH   6   7
ATOM      7  C   UNL     1       8.065   6.146  31.175  1.00  0.00     0.000 C 
BRANCH   7   8
ATOM      8  C   UNL     1       8.641   5.056  30.259  1.00  0.00     0.000 C 
BRANCH   8   9
ATOM      9  C   UNL     1       9.791   5.611  29.407  1.00  0.00     0.000 C 
BRANCH   9  10
ATOM     10  C   UNL     1      11.061   4.745  29.482  1.00  0.00     0.000 C 
BRANCH  10  11
ATOM     11  C   UNL     1      12.001   4.856  28.264  1.00  0.00     0.000 C 
BRANCH  11  12
ATOM     12  C   UNL     1      13.256   5.720  28.486  1.00  0.00     0.006 C 
BRANCH  12  13
ATOM     13  C   UNL     1      14.473   5.214  27.700  1.00  0.00     0.053 C 
BRANCH  13  14
ATOM     14  C   UNL     1      14.513   5.841  26.340  1.00  0.00     0.041 C 
ATOM     15  O   UNL     1      15.137   5.278  25.400  1.00  0.00    -0.550 OA
ATOM     16  O   UNL     1      13.877   7.057  26.117  1.00  0.00    -0.550 OA
ENDBRANCH  13  14
ENDBRANCH  12  13
ENDBRANCH  11  12
ENDBRANCH  10  11
ENDBRANCH   9  10
ENDBRANCH   8   9
ENDBRANCH   7   8
ENDBRANCH   6   7
ENDBRANCH   5   6
ENDBRANCH   4   5
ENDBRANCH   3   4
ENDBRANCH   2   3
ENDBRANCH   1   2
BRANCH   1  17
ATOM     17  C   UNL     1      10.080   5.117  34.193  1.00  0.00     0.000 C 
BRANCH  17  18
ATOM     18  C   UNL     1       8.969   4.065  34.050  1.00  0.00     0.000 C 
BRANCH  18  19
ATOM     19  C   UNL     1       9.353   2.920  33.097  1.00  0.00     0.000 C 
BRANCH  19  20
ATOM     20  C   UNL     1       8.158   2.024  32.736  1.00  0.00     0.000 C 
BRANCH  20  21
ATOM     21  C   UNL     1       8.514   0.944  31.699  1.00  0.00     0.000 C 
BRANCH  21  22
ATOM     22  C   UNL     1       8.650   1.485  30.261  1.00  0.00    -0.000 C 
BRANCH  22  23
ATOM     23  C   UNL     1      10.050   1.231  29.675  1.00  0.00    -0.000 C 
BRANCH  23  24
ATOM     24  C   UNL     1      11.023   0.631  30.704  1.00  0.00    -0.000 C 
BRANCH  24  25
ATOM     25  C   UNL     1      12.099   1.637  31.152  1.00  0.00    -0.000 C 
BRANCH  25  26
ATOM     26  C   UNL     1      13.505   1.251  30.663  1.00  0.00    -0.000 C 
BRANCH  26  27
ATOM     27  C   UNL     1      14.243   2.424  29.999  1.00  0.00    -0.000 C 
BRANCH  27  28
ATOM     28  C   UNL     1      15.350   2.964  30.919  1.00  0.00    -0.000 C 
BRANCH  28  29
ATOM     29  C   UNL     1      15.007   4.340  31.510  1.00  0.00    -0.003 C 
ATOM     30  C   UNL     1      15.154   4.385  33.032  1.00  0.00     0.004 C 
ENDBRANCH  28  29
ENDBRANCH  27  28
ENDBRANCH  26  27
ENDBRANCH  25  26
ENDBRANCH  24  25
ENDBRANCH  23  24
ENDBRANCH  22  23
ENDBRANCH  21  22
ENDBRANCH  20  21
ENDBRANCH  19  20
ENDBRANCH  18  19
ENDBRANCH  17  18
ENDBRANCH   1  17
TORSDOF 26
ENDMDL
MODEL 2
REMARK VINA RESULT:    -2.946      2.301      5.609
REMARK INTER + INTRA:         -13.035
REMARK INTER:                  -7.461
REMARK INTRA:                  -5.574
REMARK UNBOUND:                -5.610
REMARK SMILES CCCCCCCCCCCCCCCCCCCCCCCCCCCC(=O)[O-]
REMARK SMILES IDX 15 1 16 2 17 3 18 4 19 5 20 6 21 7 22 8 23 9 24 10 25 11
REMARK SMILES IDX 26 12 27 13 28 14 29 15 30 16 14 17 13 18 12 19 11 20 10 21
REMARK SMILES IDX 9 22 8 23 7 24 6 25 5 26 4 27 3 28 2 29 1 30
REMARK H PARENT
REMARK Flexibility Score: inf
ROOT
ATOM      1  C   UNL     1       9.491   5.986  29.207  1.00  0.00     0.000 C 
ENDROOT
BRANCH   1   2
ATOM      2  C   UNL     1       8.418   5.765  30.288  1.00  0.00     0.000 C 
BRANCH   2   3
ATOM      3  C   UNL     1       8.139   7.033  31.112  1.00  0.00     0.000 C 
BRANCH   3   4
ATOM      4  C   UNL     1       9.380   7.933  31.256  1.00  0.00     0.000 C 
BRANCH   4   5
ATOM      5  C   UNL     1       9.712   8.357  32.701  1.00  0.00     0.000 C 
BRANCH   5   6
ATOM      6  C   UNL     1      11.092   7.902  33.218  1.00  0.00     0.000 C 
BRANCH   6   7
ATOM      7  C   UNL     1      11.513   6.484  32.791  1.00  0.00     0.000 C 
BRANCH   7   8
ATOM      8  C   UNL     1      11.194   5.418  33.849  1.00  0.00     0.000 C 
BRANCH   8   9
ATOM      9  C   UNL     1       9.829   4.770  33.577  1.00  0.00     0.000 C 
BRANCH   9  10
ATOM     10  C   UNL     1       9.929   3.522  32.683  1.00  0.00     0.000 C 
BRANCH  10  11
ATOM     11  C   UNL     1       8.643   2.674  32.598  1.00  0.00     0.000 C 
BRANCH  11  12
ATOM     12  C   UNL     1       8.720   1.468  31.643  1.00  0.00     0.006 C 
BRANCH  12  13
ATOM     13  C   UNL     1       9.118   1.865  30.215  1.00  0.00     0.053 C 
BRANCH  13  14
ATOM     14  C   UNL     1      10.313   1.081  29.769  1.00  0.00     0.041 C 
ATOM     15  O   UNL     1      11.344   1.675  29.353  1.00  0.00    -0.550 OA
ATOM     16  O   UNL     1      10.280  -0.309  29.794  1.00  0.00    -0.550 OA
ENDBRANCH  13  14
ENDBRANCH  12  13
ENDBRANCH  11  12
ENDBRANCH  10  11
ENDBRANCH   9  10
ENDBRANCH   8   9
ENDBRANCH   7   8
ENDBRANCH   6   7
ENDBRANCH   5   6
ENDBRANCH   4   5
ENDBRANCH   3   4
ENDBRANCH   2   3
ENDBRANCH   1   2
BRANCH   1  17
ATOM     17  C   UNL     1      10.729   5.097  29.406  1.00  0.00     0.000 C 
BRANCH  17  18
ATOM     18  C   UNL     1      12.024   5.899  29.208  1.00  0.00     0.000 C 
BRANCH  18  19
ATOM     19  C   UNL     1      12.965   5.261  28.172  1.00  0.00     0.000 C 
BRANCH  19  20
ATOM     20  C   UNL     1      14.001   6.255  27.623  1.00  0.00     0.000 C 
BRANCH  20  21
ATOM     21  C   UNL     1      15.349   5.590  27.292  1.00  0.00     0.000 C 
BRANCH  21  22
ATOM     22  C   UNL     1      16.196   5.250  28.535  1.00  0.00    -0.000 C 
BRANCH  22  23
ATOM     23  C   UNL     1      16.361   3.732  28.728  1.00  0.00    -0.000 C 
BRANCH  23  24
ATOM     24  C   UNL     1      15.787   3.239  30.067  1.00  0.00    -0.000 C 
BRANCH  24  25
ATOM     25  C   UNL     1      15.774   4.340  31.142  1.00  0.00    -0.000 C 
BRANCH  25  26
ATOM     26  C   UNL     1      14.360   4.621  31.678  1.00  0.00    -0.000 C 
BRANCH  26  27
ATOM     27  C   UNL     1      13.421   3.412  31.536  1.00  0.00    -0.000 C 
BRANCH  27  28
ATOM     28  C   UNL     1      13.549   2.478  32.751  1.00  0.00    -0.000 C 
BRANCH  28  29
ATOM     29  C   UNL     1      13.190   1.022  32.416  1.00  0.00    -0.003 C 
ATOM     30  C   UNL     1      11.959   0.524  33.176  1.00  0.00     0.004 C 
ENDBRANCH  28  29
ENDBRANCH  27  28
ENDBRANCH  26  27
ENDBRANCH  25  26
ENDBRANCH  24  25
ENDBRANCH  23  24
ENDBRANCH  22  23
ENDBRANCH  21  22
ENDBRANCH  20  21
ENDBRANCH  19  20
ENDBRANCH  18  19
ENDBRANCH  17  18
ENDBRANCH   1  17
TORSDOF 26
ENDMDL
MODEL 3
REMARK VINA RESULT:    -2.912      1.701      2.182
REMARK INTER + INTRA:         -12.948
REMARK INTER:                  -7.384
REMARK INTRA:                  -5.563
REMARK UNBOUND:                -5.610
REMARK SMILES CCCCCCCCCCCCCCCCCCCCCCCCCCCC(=O)[O-]
REMARK SMILES IDX 15 1 16 2 17 3 18 4 19 5 20 6 21 7 22 8 23 9 24 10 25 11
REMARK SMILES IDX 26 12 27 13 28 14 29 15 30 16 14 17 13 18 12 19 11 20 10 21
REMARK SMILES IDX 9 22 8 23 7 24 6 25 5 26 4 27 3 28 2 29 1 30
REMARK H PARENT
REMARK Flexibility Score: inf
ROOT
ATOM      1  C   UNL     1      10.642   5.391  33.253  1.00  0.00     0.000 C 
ENDROOT
BRANCH   1   2
ATOM      2  C   UNL     1      10.476   6.772  33.909  1.00  0.00     0.000 C 
BRANCH   2   3
ATOM      3  C   UNL     1      11.195   7.887  33.131  1.00  0.00     0.000 C 
BRANCH   3   4
ATOM      4  C   UNL     1      10.477   8.255  31.820  1.00  0.00     0.000 C 
BRANCH   4   5
ATOM      5  C   UNL     1       8.937   8.234  31.892  1.00  0.00     0.000 C 
BRANCH   5   6
ATOM      6  C   UNL     1       8.244   7.298  30.882  1.00  0.00     0.000 C 
BRANCH   6   7
ATOM      7  C   UNL     1       9.128   6.833  29.711  1.00  0.00     0.000 C 
BRANCH   7   8
ATOM      8  C   UNL     1       9.167   5.305  29.558  1.00  0.00     0.000 C 
BRANCH   8   9
ATOM      9  C   UNL     1      10.613   4.790  29.585  1.00  0.00     0.000 C 
BRANCH   9  10
ATOM     10  C   UNL     1      11.651   5.922  29.512  1.00  0.00     0.000 C 
BRANCH  10  11
ATOM     11  C   UNL     1      12.770   5.719  28.471  1.00  0.00     0.000 C 
BRANCH  11  12
ATOM     12  C   UNL     1      13.243   4.263  28.297  1.00  0.00     0.006 C 
BRANCH  12  13
ATOM     13  C   UNL     1      14.764   4.149  28.128  1.00  0.00     0.053 C 
BRANCH  13  14
ATOM     14  C   UNL     1      15.468   4.998  29.140  1.00  0.00     0.041 C 
ATOM     15  O   UNL     1      16.203   5.952  28.768  1.00  0.00    -0.550 OA
ATOM     16  O   UNL     1      15.328   4.722  30.496  1.00  0.00    -0.550 OA
ENDBRANCH  13  14
ENDBRANCH  12  13
ENDBRANCH  11  12
ENDBRANCH  10  11
ENDBRANCH   9  10
ENDBRANCH   8   9
ENDBRANCH   7   8
ENDBRANCH   6   7
ENDBRANCH   5   6
ENDBRANCH   4   5
ENDBRANCH   3   4
ENDBRANCH   2   3
ENDBRANCH   1   2
BRANCH   1  17
ATOM     17  C   UNL     1       9.341   4.573  33.248  1.00  0.00     0.000 C 
BRANCH  17  18
ATOM     18  C   UNL     1       9.585   3.146  32.733  1.00  0.00     0.000 C 
BRANCH  18  19
ATOM     19  C   UNL     1       8.313   2.282  32.750  1.00  0.00     0.000 C 
BRANCH  19  20
ATOM     20  C   UNL     1       8.346   1.159  31.702  1.00  0.00     0.000 C 
BRANCH  20  21
ATOM     21  C   UNL     1       8.633   1.676  30.281  1.00  0.00     0.000 C 
BRANCH  21  22
ATOM     22  C   UNL     1       9.941   1.129  29.674  1.00  0.00    -0.000 C 
BRANCH  22  23
ATOM     23  C   UNL     1      10.501  -0.059  30.475  1.00  0.00    -0.000 C 
BRANCH  23  24
ATOM     24  C   UNL     1      11.863   0.250  31.119  1.00  0.00    -0.000 C 
BRANCH  24  25
ATOM     25  C   UNL     1      12.452   1.587  30.637  1.00  0.00    -0.000 C 
BRANCH  25  26
ATOM     26  C   UNL     1      12.906   2.483  31.801  1.00  0.00    -0.000 C 
BRANCH  26  27
ATOM     27  C   UNL     1      12.965   1.731  33.140  1.00  0.00    -0.000 C 
BRANCH  27  28
ATOM     28  C   UNL     1      13.942   2.418  34.108  1.00  0.00    -0.000 C 
BRANCH  28  29
ATOM     29  C   UNL     1      13.332   3.658  34.781  1.00  0.00    -0.003 C 
ATOM     30  C   UNL     1      12.253   3.305  35.807  1.00  0.00     0.004 C 
ENDBRANCH  28  29
ENDBRANCH  27  28
ENDBRANCH  26  27
ENDBRANCH  25  26
ENDBRANCH  24  25
ENDBRANCH  23  24
ENDBRANCH  22  23
ENDBRANCH  21  22
ENDBRANCH  20  21
ENDBRANCH  19  20
ENDBRANCH  18  19
ENDBRANCH  17  18
ENDBRANCH   1  17
TORSDOF 26
ENDMDL
MODEL 4
REMARK VINA RESULT:    -2.912      1.242      3.343
REMARK INTER + INTRA:         -12.947
REMARK INTER:                  -8.245
REMARK INTRA:                  -4.702
REMARK UNBOUND:                -5.610
REMARK SMILES CCCCCCCCCCCCCCCCCCCCCCCCCCCC(=O)[O-]
REMARK SMILES IDX 15 1 16 2 17 3 18 4 19 5 20 6 21 7 22 8 23 9 24 10 25 11
REMARK SMILES IDX 26 12 27 13 28 14 29 15 30 16 14 17 13 18 12 19 11 20 10 21
REMARK SMILES IDX 9 22 8 23 7 24 6 25 5 26 4 27 3 28 2 29 1 30
REMARK H PARENT
REMARK Flexibility Score: inf
ROOT
ATOM      1  C   UNL     1      10.581   8.177  32.171  1.00  0.00     0.000 C 
ENDROOT
BRANCH   1   2
ATOM      2  C   UNL     1       9.080   8.509  32.129  1.00  0.00     0.000 C 
BRANCH   2   3
ATOM      3  C   UNL     1       8.397   8.004  30.847  1.00  0.00     0.000 C 
BRANCH   3   4
ATOM      4  C   UNL     1       7.875   6.562  30.982  1.00  0.00     0.000 C 
BRANCH   4   5
ATOM      5  C   UNL     1       8.236   5.626  29.810  1.00  0.00     0.000 C 
BRANCH   5   6
ATOM      6  C   UNL     1       9.663   5.793  29.251  1.00  0.00     0.000 C 
BRANCH   6   7
ATOM      7  C   UNL     1      10.740   4.942  29.948  1.00  0.00     0.000 C 
BRANCH   7   8
ATOM      8  C   UNL     1      12.146   5.551  29.844  1.00  0.00     0.000 C 
BRANCH   8   9
ATOM      9  C   UNL     1      12.739   5.323  28.447  1.00  0.00     0.000 C 
BRANCH   9  10
ATOM     10  C   UNL     1      14.218   5.736  28.351  1.00  0.00     0.000 C 
BRANCH  10  11
ATOM     11  C   UNL     1      14.610   6.469  27.052  1.00  0.00     0.000 C 
BRANCH  11  12
ATOM     12  C   UNL     1      13.910   5.960  25.779  1.00  0.00     0.006 C 
BRANCH  12  13
ATOM     13  C   UNL     1      14.887   5.331  24.776  1.00  0.00     0.053 C 
BRANCH  13  14
ATOM     14  C   UNL     1      15.446   4.054  25.321  1.00  0.00     0.041 C 
ATOM     15  O   UNL     1      14.696   3.056  25.497  1.00  0.00    -0.550 OA
ATOM     16  O   UNL     1      16.793   3.972  25.653  1.00  0.00    -0.550 OA
ENDBRANCH  13  14
ENDBRANCH  12  13
ENDBRANCH  11  12
ENDBRANCH  10  11
ENDBRANCH   9  10
ENDBRANCH   8   9
ENDBRANCH   7   8
ENDBRANCH   6   7
ENDBRANCH   5   6
ENDBRANCH   4   5
ENDBRANCH   3   4
ENDBRANCH   2   3
ENDBRANCH   1   2
BRANCH   1  17
ATOM     17  C   UNL     1      11.023   7.583  33.518  1.00  0.00     0.000 C 
BRANCH  17  18
ATOM     18  C   UNL     1      12.108   6.513  33.322  1.00  0.00     0.000 C 
BRANCH  18  19
ATOM     19  C   UNL     1      11.675   5.128  33.832  1.00  0.00     0.000 C 
BRANCH  19  20
ATOM     20  C   UNL     1      10.215   5.103  34.310  1.00  0.00     0.000 C 
BRANCH  20  21
ATOM     21  C   UNL     1       9.265   4.442  33.294  1.00  0.00     0.000 C 
BRANCH  21  22
ATOM     22  C   UNL     1       9.495   2.927  33.123  1.00  0.00    -0.000 C 
BRANCH  22  23
ATOM     23  C   UNL     1       8.278   2.221  32.500  1.00  0.00    -0.000 C 
BRANCH  23  24
ATOM     24  C   UNL     1       8.676   1.058  31.576  1.00  0.00    -0.000 C 
BRANCH  24  25
ATOM     25  C   UNL     1       8.784   1.489  30.103  1.00  0.00    -0.000 C 
BRANCH  25  26
ATOM     26  C   UNL     1      10.006   0.877  29.399  1.00  0.00    -0.000 C 
BRANCH  26  27
ATOM     27  C   UNL     1      11.245   1.783  29.469  1.00  0.00    -0.000 C 
BRANCH  27  28
ATOM     28  C   UNL     1      12.285   1.211  30.446  1.00  0.00    -0.000 C 
BRANCH  28  29
ATOM     29  C   UNL     1      12.725   2.233  31.505  1.00  0.00    -0.003 C 
ATOM     30  C   UNL     1      14.136   2.770  31.260  1.00  0.00     0.004 C 
ENDBRANCH  28  29
ENDBRANCH  27  28
ENDBRANCH  26  27
ENDBRANCH  25  26
ENDBRANCH  24  25
ENDBRANCH  23  24
ENDBRANCH  22  23
ENDBRANCH  21  22
ENDBRANCH  20  21
ENDBRANCH  19  20
ENDBRANCH  18  19
ENDBRANCH  17  18
ENDBRANCH   1  17
TORSDOF 26
ENDMDL
MODEL 5
REMARK VINA RESULT:    -2.910      2.641      5.234
REMARK INTER + INTRA:         -12.944
REMARK INTER:                  -7.374
REMARK INTRA:                  -5.570
REMARK UNBOUND:                -5.610
REMARK SMILES CCCCCCCCCCCCCCCCCCCCCCCCCCCC(=O)[O-]
REMARK SMILES IDX 15 1 16 2 17 3 18 4 19 5 20 6 21 7 22 8 23 9 24 10 25 11
REMARK SMILES IDX 26 12 27 13 28 14 29 15 30 16 14 17 13 18 12 19 11 20 10 21
REMARK SMILES IDX 9 22 8 23 7 24 6 25 5 26 4 27 3 28 2 29 1 30
REMARK H PARENT
REMARK Flexibility Score: inf
ROOT
ATOM      1  C   UNL     1       8.301   7.618  30.767  1.00  0.00     0.000 C 
ENDROOT
BRANCH   1   2
ATOM      2  C   UNL     1       8.990   8.278  31.974  1.00  0.00     0.000 C 
BRANCH   2   3
ATOM      3  C   UNL     1      10.498   7.980  32.031  1.00  0.00     0.000 C 
BRANCH   3   4
ATOM      4  C   UNL     1      10.961   7.527  33.428  1.00  0.00     0.000 C 
BRANCH   4   5
ATOM      5  C   UNL     1      11.942   6.337  33.434  1.00  0.00     0.000 C 
BRANCH   5   6
ATOM      6  C   UNL     1      11.291   4.950  33.607  1.00  0.00     0.000 C 
BRANCH   6   7
ATOM      7  C   UNL     1       9.773   4.968  33.861  1.00  0.00     0.000 C 
BRANCH   7   8
ATOM      8  C   UNL     1       9.302   3.820  34.765  1.00  0.00     0.000 C 
BRANCH   8   9
ATOM      9  C   UNL     1       8.103   3.090  34.142  1.00  0.00     0.000 C 
BRANCH   9  10
ATOM     10  C   UNL     1       8.505   1.793  33.419  1.00  0.00     0.000 C 
BRANCH  10  11
ATOM     11  C   UNL     1       8.491   1.871  31.878  1.00  0.00     0.000 C 
BRANCH  11  12
ATOM     12  C   UNL     1       9.785   1.399  31.190  1.00  0.00     0.006 C 
BRANCH  12  13
ATOM     13  C   UNL     1      10.462   0.238  31.930  1.00  0.00     0.053 C 
BRANCH  13  14
ATOM     14  C   UNL     1      11.873   0.595  32.284  1.00  0.00     0.041 C 
ATOM     15  O   UNL     1      12.836   0.018  31.712  1.00  0.00    -0.550 OA
ATOM     16  O   UNL     1      12.122   1.552  33.260  1.00  0.00    -0.550 OA
ENDBRANCH  13  14
ENDBRANCH  12  13
ENDBRANCH  11  12
ENDBRANCH  10  11
ENDBRANCH   9  10
ENDBRANCH   8   9
ENDBRANCH   7   8
ENDBRANCH   6   7
ENDBRANCH   5   6
ENDBRANCH   4   5
ENDBRANCH   3   4
ENDBRANCH   2   3
ENDBRANCH   1   2
BRANCH   1  17
ATOM     17  C   UNL     1       8.085   6.108  30.957  1.00  0.00     0.000 C 
BRANCH  17  18
ATOM     18  C   UNL     1       8.655   5.313  29.772  1.00  0.00     0.000 C 
BRANCH  18  19
ATOM     19  C   UNL     1      10.045   4.725  30.065  1.00  0.00     0.000 C 
BRANCH  19  20
ATOM     20  C   UNL     1      11.176   5.509  29.382  1.00  0.00     0.000 C 
BRANCH  20  21
ATOM     21  C   UNL     1      12.563   5.190  29.968  1.00  0.00     0.000 C 
BRANCH  21  22
ATOM     22  C   UNL     1      12.694   3.750  30.504  1.00  0.00    -0.000 C 
BRANCH  22  23
ATOM     23  C   UNL     1      13.392   2.817  29.499  1.00  0.00    -0.000 C 
BRANCH  23  24
ATOM     24  C   UNL     1      12.397   2.052  28.611  1.00  0.00    -0.000 C 
BRANCH  24  25
ATOM     25  C   UNL     1      12.523   2.432  27.125  1.00  0.00    -0.000 C 
BRANCH  25  26
ATOM     26  C   UNL     1      13.743   3.326  26.848  1.00  0.00    -0.000 C 
BRANCH  26  27
ATOM     27  C   UNL     1      13.350   4.738  26.386  1.00  0.00    -0.000 C 
BRANCH  27  28
ATOM     28  C   UNL     1      14.594   5.629  26.235  1.00  0.00    -0.000 C 
BRANCH  28  29
ATOM     29  C   UNL     1      14.842   6.509  27.470  1.00  0.00    -0.003 C 
ATOM     30  C   UNL     1      15.852   5.896  28.442  1.00  0.00     0.004 C 
ENDBRANCH  28  29
ENDBRANCH  27  28
ENDBRANCH  26  27
ENDBRANCH  25  26
ENDBRANCH  24  25
ENDBRANCH  23  24
ENDBRANCH  22  23
ENDBRANCH  21  22
ENDBRANCH  20  21
ENDBRANCH  19  20
ENDBRANCH  18  19
ENDBRANCH  17  18
ENDBRANCH   1  17
TORSDOF 26
ENDMDL
MODEL 6
REMARK VINA RESULT:    -2.908      2.143      3.592
REMARK INTER + INTRA:         -12.939
REMARK INTER:                  -7.243
REMARK INTRA:                  -5.696
REMARK UNBOUND:                -5.610
REMARK SMILES CCCCCCCCCCCCCCCCCCCCCCCCCCCC(=O)[O-]
REMARK SMILES IDX 15 1 16 2 17 3 18 4 19 5 20 6 21 7 22 8 23 9 24 10 25 11
REMARK SMILES IDX 26 12 27 13 28 14 29 15 30 16 14 17 13 18 12 19 11 20 10 21
REMARK SMILES IDX 9 22 8 23 7 24 6 25 5 26 4 27 3 28 2 29 1 30
REMARK H PARENT
REMARK Flexibility Score: inf
ROOT
ATOM      1  C   UNL     1      10.836   7.863  33.364  1.00  0.00     0.000 C 
ENDROOT
BRANCH   1   2
ATOM      2  C   UNL     1      10.465   8.256  31.924  1.00  0.00     0.000 C 
BRANCH   2   3
ATOM      3  C   UNL     1       8.950   8.200  31.665  1.00  0.00     0.000 C 
BRANCH   3   4
ATOM      4  C   UNL     1       8.607   7.695  30.252  1.00  0.00     0.000 C 
BRANCH   4   5
ATOM      5  C   UNL     1       8.070   6.252  30.188  1.00  0.00     0.000 C 
BRANCH   5   6
ATOM      6  C   UNL     1       9.146   5.148  30.199  1.00  0.00     0.000 C 
BRANCH   6   7
ATOM      7  C   UNL     1      10.277   5.329  29.169  1.00  0.00     0.000 C 
BRANCH   7   8
ATOM      8  C   UNL     1      11.634   5.643  29.816  1.00  0.00     0.000 C 
BRANCH   8   9
ATOM      9  C   UNL     1      12.751   5.651  28.763  1.00  0.00     0.000 C 
BRANCH   9  10
ATOM     10  C   UNL     1      13.236   4.238  28.397  1.00  0.00     0.000 C 
BRANCH  10  11
ATOM     11  C   UNL     1      14.741   3.983  28.623  1.00  0.00     0.000 C 
BRANCH  11  12
ATOM     12  C   UNL     1      15.409   4.903  29.661  1.00  0.00     0.006 C 
BRANCH  12  13
ATOM     13  C   UNL     1      15.057   4.523  31.106  1.00  0.00     0.053 C 
BRANCH  13  14
ATOM     14  C   UNL     1      16.048   3.538  31.643  1.00  0.00     0.041 C 
ATOM     15  O   UNL     1      15.884   2.303  31.451  1.00  0.00    -0.550 OA
ATOM     16  O   UNL     1      17.143   3.983  32.375  1.00  0.00    -0.550 OA
ENDBRANCH  13  14
ENDBRANCH  12  13
ENDBRANCH  11  12
ENDBRANCH  10  11
ENDBRANCH   9  10
ENDBRANCH   8   9
ENDBRANCH   7   8
ENDBRANCH   6   7
ENDBRANCH   5   6
ENDBRANCH   4   5
ENDBRANCH   3   4
ENDBRANCH   2   3
ENDBRANCH   1   2
BRANCH   1  17
ATOM     17  C   UNL     1      11.762   6.639  33.428  1.00  0.00     0.000 C 
BRANCH  17  18
ATOM     18  C   UNL     1      11.077   5.463  34.141  1.00  0.00     0.000 C 
BRANCH  18  19
ATOM     19  C   UNL     1       9.762   5.042  33.464  1.00  0.00     0.000 C 
BRANCH  19  20
ATOM     20  C   UNL     1       9.081   3.862  34.174  1.00  0.00     0.000 C 
BRANCH  20  21
ATOM     21  C   UNL     1       8.215   3.013  33.226  1.00  0.00     0.000 C 
BRANCH  21  22
ATOM     22  C   UNL     1       8.292   1.498  33.504  1.00  0.00    -0.000 C 
BRANCH  22  23
ATOM     23  C   UNL     1       8.266   0.668  32.209  1.00  0.00    -0.000 C 
BRANCH  23  24
ATOM     24  C   UNL     1       8.593   1.506  30.962  1.00  0.00    -0.000 C 
BRANCH  24  25
ATOM     25  C   UNL     1       9.682   0.859  30.088  1.00  0.00    -0.000 C 
BRANCH  25  26
ATOM     26  C   UNL     1      10.852   1.814  29.803  1.00  0.00    -0.000 C 
BRANCH  26  27
ATOM     27  C   UNL     1      12.058   1.566  30.723  1.00  0.00    -0.000 C 
BRANCH  27  28
ATOM     28  C   UNL     1      12.092   2.594  31.866  1.00  0.00    -0.000 C 
BRANCH  28  29
ATOM     29  C   UNL     1      12.066   1.935  33.254  1.00  0.00    -0.003 C 
ATOM     30  C   UNL     1      11.889   0.417  33.185  1.00  0.00     0.004 C 
ENDBRANCH  28  29
ENDBRANCH  27  28
ENDBRANCH  26  27
ENDBRANCH  25  26
ENDBRANCH  24  25
ENDBRANCH  23  24
ENDBRANCH  22  23
ENDBRANCH  21  22
ENDBRANCH  20  21
ENDBRANCH  19  20
ENDBRANCH  18  19
ENDBRANCH  17  18
ENDBRANCH   1  17
TORSDOF 26
ENDMDL
MODEL 7
REMARK VINA RESULT:    -2.908      1.407      5.059
REMARK INTER + INTRA:         -12.939
REMARK INTER:                  -8.065
REMARK INTRA:                  -4.874
REMARK UNBOUND:                -5.610
REMARK SMILES CCCCCCCCCCCCCCCCCCCCCCCCCCCC(=O)[O-]
REMARK SMILES IDX 15 1 16 2 17 3 18 4 19 5 20 6 21 7 22 8 23 9 24 10 25 11
REMARK SMILES IDX 26 12 27 13 28 14 29 15 30 16 14 17 13 18 12 19 11 20 10 21
REMARK SMILES IDX 9 22 8 23 7 24 6 25 5 26 4 27 3 28 2 29 1 30
REMARK H PARENT
REMARK Flexibility Score: inf
ROOT
ATOM      1  C   UNL     1      11.654   1.748  28.826  1.00  0.00     0.000 C 
ENDROOT
BRANCH   1   2
ATOM      2  C   UNL     1      12.706   2.858  28.665  1.00  0.00     0.000 C 
BRANCH   2   3
ATOM      3  C   UNL     1      12.077   4.246  28.461  1.00  0.00     0.000 C 
BRANCH   3   4
ATOM      4  C   UNL     1      12.542   5.270  29.512  1.00  0.00     0.000 C 
BRANCH   4   5
ATOM      5  C   UNL     1      12.415   4.805  30.976  1.00  0.00     0.000 C 
BRANCH   5   6
ATOM      6  C   UNL     1      13.717   4.860  31.799  1.00  0.00     0.000 C 
BRANCH   6   7
ATOM      7  C   UNL     1      14.809   3.867  31.360  1.00  0.00     0.000 C 
BRANCH   7   8
ATOM      8  C   UNL     1      16.218   4.476  31.380  1.00  0.00     0.000 C 
BRANCH   8   9
ATOM      9  C   UNL     1      16.877   4.375  29.997  1.00  0.00     0.000 C 
BRANCH   9  10
ATOM     10  C   UNL     1      16.010   4.976  28.878  1.00  0.00     0.000 C 
BRANCH  10  11
ATOM     11  C   UNL     1      16.286   4.420  27.466  1.00  0.00     0.000 C 
BRANCH  11  12
ATOM     12  C   UNL     1      15.151   4.632  26.448  1.00  0.00     0.006 C 
BRANCH  12  13
ATOM     13  C   UNL     1      14.739   6.105  26.315  1.00  0.00     0.053 C 
BRANCH  13  14
ATOM     14  C   UNL     1      13.812   6.285  25.153  1.00  0.00     0.041 C 
ATOM     15  O   UNL     1      13.678   7.418  24.618  1.00  0.00    -0.550 OA
ATOM     16  O   UNL     1      13.081   5.204  24.674  1.00  0.00    -0.550 OA
ENDBRANCH  13  14
ENDBRANCH  12  13
ENDBRANCH  11  12
ENDBRANCH  10  11
ENDBRANCH   9  10
ENDBRANCH   8   9
ENDBRANCH   7   8
ENDBRANCH   6   7
ENDBRANCH   5   6
ENDBRANCH   4   5
ENDBRANCH   3   4
ENDBRANCH   2   3
ENDBRANCH   1   2
BRANCH   1  17
ATOM     17  C   UNL     1      10.660   2.029  29.964  1.00  0.00     0.000 C 
BRANCH  17  18
ATOM     18  C   UNL     1       9.364   1.225  29.779  1.00  0.00     0.000 C 
BRANCH  18  19
ATOM     19  C   UNL     1       8.472   1.239  31.032  1.00  0.00     0.000 C 
BRANCH  19  20
ATOM     20  C   UNL     1       9.239   0.863  32.309  1.00  0.00     0.000 C 
BRANCH  20  21
ATOM     21  C   UNL     1       9.266   1.999  33.346  1.00  0.00     0.000 C 
BRANCH  21  22
ATOM     22  C   UNL     1       8.334   3.178  32.999  1.00  0.00    -0.000 C 
BRANCH  22  23
ATOM     23  C   UNL     1       9.116   4.424  32.548  1.00  0.00    -0.000 C 
BRANCH  23  24
ATOM     24  C   UNL     1       8.300   5.329  31.610  1.00  0.00    -0.000 C 
BRANCH  24  25
ATOM     25  C   UNL     1       8.737   5.197  30.140  1.00  0.00    -0.000 C 
BRANCH  25  26
ATOM     26  C   UNL     1       9.193   6.538  29.540  1.00  0.00    -0.000 C 
BRANCH  26  27
ATOM     27  C   UNL     1       9.114   7.696  30.547  1.00  0.00    -0.000 C 
BRANCH  27  28
ATOM     28  C   UNL     1      10.505   8.023  31.113  1.00  0.00    -0.000 C 
BRANCH  28  29
ATOM     29  C   UNL     1      10.475   8.323  32.620  1.00  0.00    -0.003 C 
ATOM     30  C   UNL     1      11.349   7.366  33.432  1.00  0.00     0.004 C 
ENDBRANCH  28  29
ENDBRANCH  27  28
ENDBRANCH  26  27
ENDBRANCH  25  26
ENDBRANCH  24  25
ENDBRANCH  23  24
ENDBRANCH  22  23
ENDBRANCH  21  22
ENDBRANCH  20  21
ENDBRANCH  19  20
ENDBRANCH  18  19
ENDBRANCH  17  18
ENDBRANCH   1  17
TORSDOF 26
ENDMDL
MODEL 8
REMARK VINA RESULT:    -2.903      2.185      5.181
REMARK INTER + INTRA:         -12.925
REMARK INTER:                  -7.827
REMARK INTRA:                  -5.098
REMARK UNBOUND:                -5.610
REMARK SMILES CCCCCCCCCCCCCCCCCCCCCCCCCCCC(=O)[O-]
REMARK SMILES IDX 15 1 16 2 17 3 18 4 19 5 20 6 21 7 22 8 23 9 24 10 25 11
REMARK SMILES IDX 26 12 27 13 28 14 29 15 30 16 14 17 13 18 12 19 11 20 10 21
REMARK SMILES IDX 9 22 8 23 7 24 6 25 5 26 4 27 3 28 2 29 1 30
REMARK H PARENT
REMARK Flexibility Score: inf
ROOT
ATOM      1  C   UNL     1      11.514   5.309  34.180  1.00  0.00     0.000 C 
ENDROOT
BRANCH   1   2
ATOM      2  C   UNL     1      10.067   5.541  34.649  1.00  0.00     0.000 C 
BRANCH   2   3
ATOM      3  C   UNL     1       9.194   4.281  34.522  1.00  0.00     0.000 C 
BRANCH   3   4
ATOM      4  C   UNL     1       9.984   2.984  34.774  1.00  0.00     0.000 C 
BRANCH   4   5
ATOM      5  C   UNL     1       9.250   1.687  34.379  1.00  0.00     0.000 C 
BRANCH   5   6
ATOM      6  C   UNL     1       8.141   1.855  33.321  1.00  0.00     0.000 C 
BRANCH   6   7
ATOM      7  C   UNL     1       8.455   1.242  31.944  1.00  0.00     0.000 C 
BRANCH   7   8
ATOM      8  C   UNL     1       9.094   2.245  30.972  1.00  0.00     0.000 C 
BRANCH   8   9
ATOM      9  C   UNL     1      10.154   1.559  30.098  1.00  0.00     0.000 C 
BRANCH   9  10
ATOM     10  C   UNL     1      11.421   1.180  30.884  1.00  0.00     0.000 C 
BRANCH  10  11
ATOM     11  C   UNL     1      11.879   2.219  31.929  1.00  0.00     0.000 C 
BRANCH  11  12
ATOM     12  C   UNL     1      13.366   2.608  31.852  1.00  0.00     0.006 C 
BRANCH  12  13
ATOM     13  C   UNL     1      13.975   2.902  33.230  1.00  0.00     0.053 C 
BRANCH  13  14
ATOM     14  C   UNL     1      14.906   4.072  33.152  1.00  0.00     0.041 C 
ATOM     15  O   UNL     1      15.415   4.406  32.048  1.00  0.00    -0.550 OA
ATOM     16  O   UNL     1      15.227   4.782  34.303  1.00  0.00    -0.550 OA
ENDBRANCH  13  14
ENDBRANCH  12  13
ENDBRANCH  11  12
ENDBRANCH  10  11
ENDBRANCH   9  10
ENDBRANCH   8   9
ENDBRANCH   7   8
ENDBRANCH   6   7
ENDBRANCH   5   6
ENDBRANCH   4   5
ENDBRANCH   3   4
ENDBRANCH   2   3
ENDBRANCH   1   2
BRANCH   1  17
ATOM     17  C   UNL     1      11.991   6.367  33.172  1.00  0.00     0.000 C 
BRANCH  17  18
ATOM     18  C   UNL     1      11.257   7.700  33.380  1.00  0.00     0.000 C 
BRANCH  18  19
ATOM     19  C   UNL     1      10.600   8.224  32.091  1.00  0.00     0.000 C 
BRANCH  19  20
ATOM     20  C   UNL     1       9.084   8.426  32.240  1.00  0.00     0.000 C 
BRANCH  20  21
ATOM     21  C   UNL     1       8.276   7.720  31.136  1.00  0.00     0.000 C 
BRANCH  21  22
ATOM     22  C   UNL     1       8.286   6.182  31.247  1.00  0.00    -0.000 C 
BRANCH  22  23
ATOM     23  C   UNL     1       8.543   5.503  29.890  1.00  0.00    -0.000 C 
BRANCH  23  24
ATOM     24  C   UNL     1       9.896   5.899  29.276  1.00  0.00    -0.000 C 
BRANCH  24  25
ATOM     25  C   UNL     1      11.077   5.165  29.934  1.00  0.00    -0.000 C 
BRANCH  25  26
ATOM     26  C   UNL     1      12.016   4.518  28.903  1.00  0.00    -0.000 C 
BRANCH  26  27
ATOM     27  C   UNL     1      13.492   4.881  29.135  1.00  0.00    -0.000 C 
BRANCH  27  28
ATOM     28  C   UNL     1      14.258   4.928  27.803  1.00  0.00    -0.000 C 
BRANCH  28  29
ATOM     29  C   UNL     1      14.777   6.335  27.469  1.00  0.00    -0.003 C 
ATOM     30  C   UNL     1      14.023   6.985  26.308  1.00  0.00     0.004 C 
ENDBRANCH  28  29
ENDBRANCH  27  28
ENDBRANCH  26  27
ENDBRANCH  25  26
ENDBRANCH  24  25
ENDBRANCH  23  24
ENDBRANCH  22  23
ENDBRANCH  21  22
ENDBRANCH  20  21
ENDBRANCH  19  20
ENDBRANCH  18  19
ENDBRANCH  17  18
ENDBRANCH   1  17
TORSDOF 26
ENDMDL
MODEL 9
REMARK VINA RESULT:    -2.846      2.529      5.112
REMARK INTER + INTRA:         -12.782
REMARK INTER:                  -7.868
REMARK INTRA:                  -4.915
REMARK UNBOUND:                -5.610
REMARK SMILES CCCCCCCCCCCCCCCCCCCCCCCCCCCC(=O)[O-]
REMARK SMILES IDX 15 1 16 2 17 3 18 4 19 5 20 6 21 7 22 8 23 9 24 10 25 11
REMARK SMILES IDX 26 12 27 13 28 14 29 15 30 16 14 17 13 18 12 19 11 20 10 21
REMARK SMILES IDX 9 22 8 23 7 24 6 25 5 26 4 27 3 28 2 29 1 30
REMARK H PARENT
REMARK Flexibility Score: inf
ROOT
ATOM      1  C   UNL     1       8.200   5.162  31.809  1.00  0.00     0.000 C 
ENDROOT
BRANCH   1   2
ATOM      2  C   UNL     1       8.642   5.869  30.516  1.00  0.00     0.000 C 
BRANCH   2   3
ATOM      3  C   UNL     1       8.686   7.399  30.663  1.00  0.00     0.000 C 
BRANCH   3   4
ATOM      4  C   UNL     1      10.074   7.915  31.087  1.00  0.00     0.000 C 
BRANCH   4   5
ATOM      5  C   UNL     1      10.203   8.286  32.578  1.00  0.00     0.000 C 
BRANCH   5   6
ATOM      6  C   UNL     1      11.235   7.461  33.373  1.00  0.00     0.000 C 
BRANCH   6   7
ATOM      7  C   UNL     1      10.638   6.369  34.279  1.00  0.00     0.000 C 
BRANCH   7   8
ATOM      8  C   UNL     1      11.591   5.186  34.500  1.00  0.00     0.000 C 
BRANCH   8   9
ATOM      9  C   UNL     1      12.821   5.296  33.588  1.00  0.00     0.000 C 
BRANCH   9  10
ATOM     10  C   UNL     1      13.144   3.980  32.861  1.00  0.00     0.000 C 
BRANCH  10  11
ATOM     11  C   UNL     1      12.600   3.876  31.421  1.00  0.00     0.000 C 
BRANCH  11  12
ATOM     12  C   UNL     1      12.366   5.223  30.714  1.00  0.00     0.006 C 
BRANCH  12  13
ATOM     13  C   UNL     1      12.078   5.065  29.215  1.00  0.00     0.053 C 
BRANCH  13  14
ATOM     14  C   UNL     1      13.320   5.309  28.416  1.00  0.00     0.041 C 
ATOM     15  O   UNL     1      13.423   6.341  27.701  1.00  0.00    -0.550 OA
ATOM     16  O   UNL     1      14.357   4.383  28.445  1.00  0.00    -0.550 OA
ENDBRANCH  13  14
ENDBRANCH  12  13
ENDBRANCH  11  12
ENDBRANCH  10  11
ENDBRANCH   9  10
ENDBRANCH   8   9
ENDBRANCH   7   8
ENDBRANCH   6   7
ENDBRANCH   5   6
ENDBRANCH   4   5
ENDBRANCH   3   4
ENDBRANCH   2   3
ENDBRANCH   1   2
BRANCH   1  17
ATOM     17  C   UNL     1       9.086   3.957  32.162  1.00  0.00     0.000 C 
BRANCH  17  18
ATOM     18  C   UNL     1       9.022   2.883  31.066  1.00  0.00     0.000 C 
BRANCH  18  19
ATOM     19  C   UNL     1       9.223   1.460  31.615  1.00  0.00     0.000 C 
BRANCH  19  20
ATOM     20  C   UNL     1       7.941   0.875  32.227  1.00  0.00     0.000 C 
BRANCH  20  21
ATOM     21  C   UNL     1       8.021   0.730  33.757  1.00  0.00     0.000 C 
BRANCH  21  22
ATOM     22  C   UNL     1       9.447   0.895  34.322  1.00  0.00    -0.000 C 
BRANCH  22  23
ATOM     23  C   UNL     1       9.537   2.043  35.343  1.00  0.00    -0.000 C 
BRANCH  23  24
ATOM     24  C   UNL     1       8.157   2.594  35.739  1.00  0.00    -0.000 C 
BRANCH  24  25
ATOM     25  C   UNL     1       8.135   4.131  35.806  1.00  0.00    -0.000 C 
BRANCH  25  26
ATOM     26  C   UNL     1       8.290   4.660  37.241  1.00  0.00    -0.000 C 
BRANCH  26  27
ATOM     27  C   UNL     1       9.749   4.986  37.598  1.00  0.00    -0.000 C 
BRANCH  27  28
ATOM     28  C   UNL     1      10.042   4.637  39.066  1.00  0.00    -0.000 C 
BRANCH  28  29
ATOM     29  C   UNL     1      10.366   5.877  39.914  1.00  0.00    -0.003 C 
ATOM     30  C   UNL     1      11.756   5.813  40.550  1.00  0.00     0.004 C 
ENDBRANCH  28  29
ENDBRANCH  27  28
ENDBRANCH  26  27
ENDBRANCH  25  26
ENDBRANCH  24  25
ENDBRANCH  23  24
ENDBRANCH  22  23
ENDBRANCH  21  22
ENDBRANCH  20  21
ENDBRANCH  19  20
ENDBRANCH  18  19
ENDBRANCH  17  18
ENDBRANCH   1  17
TORSDOF 26
ENDMDL
