MODEL 1
REMARK VINA RESULT:    -5.328      0.000      0.000
REMARK INTER + INTRA:         -13.111
REMARK INTER:                 -10.312
REMARK INTRA:                  -2.799
REMARK UNBOUND:                -2.799
REMARK SMILES CCCCCCCCCCCCCCCCCC(=O)[O-]
REMARK SMILES IDX 10 1 11 2 12 3 13 4 14 5 15 6 16 7 17 8 18 9 19 10 20 11
REMARK SMILES IDX 9 12 8 13 7 14 6 15 5 16 4 17 3 18 2 19 1 20
REMARK H PARENT
REMARK Flexibility Score: inf
ROOT
ATOM      1  C   UNL     1     102.582 105.478 233.163  1.00  0.00     0.000 C 
ENDROOT
BRANCH   1   2
ATOM      2  C   UNL     1     101.265 106.263 233.061  1.00  0.00     0.000 C 
BRANCH   2   3
ATOM      3  C   UNL     1     100.572 106.000 231.719  1.00  0.00     0.000 C 
BRANCH   3   4
ATOM      4  C   UNL     1     101.596 105.874 230.585  1.00  0.00     0.000 C 
BRANCH   4   5
ATOM      5  C   UNL     1     101.046 105.013 229.438  1.00  0.00     0.000 C 
BRANCH   5   6
ATOM      6  C   UNL     1     101.772 103.661 229.302  1.00  0.00     0.000 C 
BRANCH   6   7
ATOM      7  C   UNL     1     103.042 103.515 230.160  1.00  0.00     0.006 C 
BRANCH   7   8
ATOM      8  C   UNL     1     103.325 102.064 230.568  1.00  0.00     0.053 C 
BRANCH   8   9
ATOM      9  C   UNL     1     104.788 101.866 230.810  1.00  0.00     0.041 C 
ATOM     10  O   UNL     1     105.243 100.712 231.034  1.00  0.00    -0.550 OA
ATOM     11  O   UNL     1     105.643 102.959 230.832  1.00  0.00    -0.550 OA
ENDBRANCH   8   9
ENDBRANCH   7   8
ENDBRANCH   6   7
ENDBRANCH   5   6
ENDBRANCH   4   5
ENDBRANCH   3   4
ENDBRANCH   2   3
ENDBRANCH   1   2
BRANCH   1  12
ATOM     12  C   UNL     1     103.606 106.157 234.086  1.00  0.00     0.000 C 
BRANCH  12  13
ATOM     13  C   UNL     1     105.025 106.158 233.492  1.00  0.00    -0.000 C 
BRANCH  13  14
ATOM     14  C   UNL     1     105.030 106.217 231.954  1.00  0.00    -0.000 C 
BRANCH  14  15
ATOM     15  C   UNL     1     105.077 107.637 231.355  1.00  0.00    -0.000 C 
BRANCH  15  16
ATOM     16  C   UNL     1     104.557 107.755 229.909  1.00  0.00    -0.000 C 
BRANCH  16  17
ATOM     17  C   UNL     1     105.054 106.657 228.947  1.00  0.00    -0.000 C 
BRANCH  17  18
ATOM     18  C   UNL     1     104.101 106.336 227.782  1.00  0.00    -0.000 C 
BRANCH  18  19
ATOM     19  C   UNL     1     104.500 105.065 227.018  1.00  0.00    -0.003 C 
ATOM     20  C   UNL     1     105.739 104.420 227.634  1.00  0.00     0.004 C 
ENDBRANCH  18  19
ENDBRANCH  17  18
ENDBRANCH  16  17
ENDBRANCH  15  16
ENDBRANCH  14  15
ENDBRANCH  13  14
ENDBRANCH  12  13
ENDBRANCH   1  12
TORSDOF 16
ENDMDL
MODEL 2
REMARK VINA RESULT:    -5.308      1.421      4.213
REMARK INTER + INTRA:         -13.071
REMARK INTER:                 -10.343
REMARK INTRA:                  -2.727
REMARK UNBOUND:                -2.799
REMARK SMILES CCCCCCCCCCCCCCCCCC(=O)[O-]
REMARK SMILES IDX 10 1 11 2 12 3 13 4 14 5 15 6 16 7 17 8 18 9 19 10 20 11
REMARK SMILES IDX 9 12 8 13 7 14 6 15 5 16 4 17 3 18 2 19 1 20
REMARK H PARENT
REMARK Flexibility Score: inf
ROOT
ATOM      1  C   UNL     1     102.432 105.290 228.257  1.00  0.00     0.000 C 
ENDROOT
BRANCH   1   2
ATOM      2  C   UNL     1     101.561 104.025 228.300  1.00  0.00     0.000 C 
BRANCH   2   3
ATOM      3  C   UNL     1     100.899 103.860 229.673  1.00  0.00     0.000 C 
BRANCH   3   4
ATOM      4  C   UNL     1     101.272 102.514 230.307  1.00  0.00     0.000 C 
BRANCH   4   5
ATOM      5  C   UNL     1     102.536 102.643 231.170  1.00  0.00     0.000 C 
BRANCH   5   6
ATOM      6  C   UNL     1     103.730 101.850 230.607  1.00  0.00     0.000 C 
BRANCH   6   7
ATOM      7  C   UNL     1     104.901 102.711 230.098  1.00  0.00     0.006 C 
BRANCH   7   8
ATOM      8  C   UNL     1     105.482 103.630 231.180  1.00  0.00     0.053 C 
BRANCH   8   9
ATOM      9  C   UNL     1     106.529 102.910 231.969  1.00  0.00     0.041 C 
ATOM     10  O   UNL     1     106.855 103.323 233.114  1.00  0.00    -0.550 OA
ATOM     11  O   UNL     1     107.176 101.809 231.424  1.00  0.00    -0.550 OA
ENDBRANCH   8   9
ENDBRANCH   7   8
ENDBRANCH   6   7
ENDBRANCH   5   6
ENDBRANCH   4   5
ENDBRANCH   3   4
ENDBRANCH   2   3
ENDBRANCH   1   2
BRANCH   1  12
ATOM     12  C   UNL     1     103.725 105.092 227.449  1.00  0.00     0.000 C 
BRANCH  12  13
ATOM     13  C   UNL     1     104.944 105.748 228.118  1.00  0.00    -0.000 C 
BRANCH  13  14
ATOM     14  C   UNL     1     104.654 107.174 228.621  1.00  0.00    -0.000 C 
BRANCH  14  15
ATOM     15  C   UNL     1     105.496 107.624 229.831  1.00  0.00    -0.000 C 
BRANCH  15  16
ATOM     16  C   UNL     1     104.887 107.300 231.209  1.00  0.00    -0.000 C 
BRANCH  16  17
ATOM     17  C   UNL     1     103.349 107.202 231.235  1.00  0.00    -0.000 C 
BRANCH  17  18
ATOM     18  C   UNL     1     102.781 106.144 232.197  1.00  0.00    -0.000 C 
BRANCH  18  19
ATOM     19  C   UNL     1     101.267 106.283 232.411  1.00  0.00    -0.003 C 
ATOM     20  C   UNL     1     100.954 106.760 233.827  1.00  0.00     0.004 C 
ENDBRANCH  18  19
ENDBRANCH  17  18
ENDBRANCH  16  17
ENDBRANCH  15  16
ENDBRANCH  14  15
ENDBRANCH  13  14
ENDBRANCH  12  13
ENDBRANCH   1  12
TORSDOF 16
ENDMDL
MODEL 3
REMARK VINA RESULT:    -5.302      1.087      4.055
REMARK INTER + INTRA:         -13.061
REMARK INTER:                 -10.339
REMARK INTRA:                  -2.722
REMARK UNBOUND:                -2.799
REMARK SMILES CCCCCCCCCCCCCCCCCC(=O)[O-]
REMARK SMILES IDX 10 1 11 2 12 3 13 4 14 5 15 6 16 7 17 8 18 9 19 10 20 11
REMARK SMILES IDX 9 12 8 13 7 14 6 15 5 16 4 17 3 18 2 19 1 20
REMARK H PARENT
REMARK Flexibility Score: inf
ROOT
ATOM      1  C   UNL     1     104.207 106.295 227.805  1.00  0.00     0.000 C 
ENDROOT
BRANCH   1   2
ATOM      2  C   UNL     1     103.451 105.031 227.370  1.00  0.00     0.000 C 
BRANCH   2   3
ATOM      3  C   UNL     1     101.939 105.204 227.558  1.00  0.00     0.000 C 
BRANCH   3   4
ATOM      4  C   UNL     1     101.293 103.904 228.054  1.00  0.00     0.000 C 
BRANCH   4   5
ATOM      5  C   UNL     1     101.156 103.904 229.583  1.00  0.00     0.000 C 
BRANCH   5   6
ATOM      6  C   UNL     1     101.127 102.486 230.183  1.00  0.00     0.000 C 
BRANCH   6   7
ATOM      7  C   UNL     1     102.477 101.982 230.726  1.00  0.00     0.006 C 
BRANCH   7   8
ATOM      8  C   UNL     1     103.558 103.069 230.746  1.00  0.00     0.053 C 
BRANCH   8   9
ATOM      9  C   UNL     1     104.893 102.485 230.407  1.00  0.00     0.041 C 
ATOM     10  O   UNL     1     105.545 102.922 229.421  1.00  0.00    -0.550 OA
ATOM     11  O   UNL     1     105.398 101.428 231.153  1.00  0.00    -0.550 OA
ENDBRANCH   8   9
ENDBRANCH   7   8
ENDBRANCH   6   7
ENDBRANCH   5   6
ENDBRANCH   4   5
ENDBRANCH   3   4
ENDBRANCH   2   3
ENDBRANCH   1   2
BRANCH   1  12
ATOM     12  C   UNL     1     104.549 106.295 229.304  1.00  0.00     0.000 C 
BRANCH  12  13
ATOM     13  C   UNL     1     104.449 107.696 229.931  1.00  0.00    -0.000 C 
BRANCH  13  14
ATOM     14  C   UNL     1     103.023 108.041 230.398  1.00  0.00    -0.000 C 
BRANCH  14  15
ATOM     15  C   UNL     1     102.178 106.838 230.861  1.00  0.00    -0.000 C 
BRANCH  15  16
ATOM     16  C   UNL     1     101.860 106.804 232.369  1.00  0.00    -0.000 C 
BRANCH  16  17
ATOM     17  C   UNL     1     102.445 105.598 233.131  1.00  0.00    -0.000 C 
BRANCH  17  18
ATOM     18  C   UNL     1     103.609 105.932 234.080  1.00  0.00    -0.000 C 
BRANCH  18  19
ATOM     19  C   UNL     1     104.879 106.369 233.335  1.00  0.00    -0.003 C 
ATOM     20  C   UNL     1     105.780 105.174 233.038  1.00  0.00     0.004 C 
ENDBRANCH  18  19
ENDBRANCH  17  18
ENDBRANCH  16  17
ENDBRANCH  15  16
ENDBRANCH  14  15
ENDBRANCH  13  14
ENDBRANCH  12  13
ENDBRANCH   1  12
TORSDOF 16
ENDMDL
MODEL 4
REMARK VINA RESULT:    -5.302      2.206      3.678
REMARK INTER + INTRA:         -13.060
REMARK INTER:                 -10.596
REMARK INTRA:                  -2.464
REMARK UNBOUND:                -2.799
REMARK SMILES CCCCCCCCCCCCCCCCCC(=O)[O-]
REMARK SMILES IDX 10 1 11 2 12 3 13 4 14 5 15 6 16 7 17 8 18 9 19 10 20 11
REMARK SMILES IDX 9 12 8 13 7 14 6 15 5 16 4 17 3 18 2 19 1 20
REMARK H PARENT
REMARK Flexibility Score: inf
ROOT
ATOM      1  C   UNL     1     106.254 105.321 233.387  1.00  0.00     0.000 C 
ENDROOT
BRANCH   1   2
ATOM      2  C   UNL     1     106.125 104.323 232.227  1.00  0.00     0.000 C 
BRANCH   2   3
ATOM      3  C   UNL     1     106.833 103.004 232.556  1.00  0.00     0.000 C 
BRANCH   3   4
ATOM      4  C   UNL     1     106.496 101.924 231.520  1.00  0.00     0.000 C 
BRANCH   4   5
ATOM      5  C   UNL     1     105.665 102.506 230.367  1.00  0.00     0.000 C 
BRANCH   5   6
ATOM      6  C   UNL     1     104.357 101.731 230.120  1.00  0.00     0.000 C 
BRANCH   6   7
ATOM      7  C   UNL     1     103.109 102.334 230.790  1.00  0.00     0.006 C 
BRANCH   7   8
ATOM      8  C   UNL     1     102.577 103.574 230.059  1.00  0.00     0.053 C 
BRANCH   8   9
ATOM      9  C   UNL     1     101.238 103.290 229.455  1.00  0.00     0.041 C 
ATOM     10  O   UNL     1     100.314 102.805 230.161  1.00  0.00    -0.550 OA
ATOM     11  O   UNL     1     101.023 103.520 228.103  1.00  0.00    -0.550 OA
ENDBRANCH   8   9
ENDBRANCH   7   8
ENDBRANCH   6   7
ENDBRANCH   5   6
ENDBRANCH   4   5
ENDBRANCH   3   4
ENDBRANCH   2   3
ENDBRANCH   1   2
BRANCH   1  12
ATOM     12  C   UNL     1     105.038 106.255 233.503  1.00  0.00     0.000 C 
BRANCH  12  13
ATOM     13  C   UNL     1     103.890 105.847 232.564  1.00  0.00    -0.000 C 
BRANCH  13  14
ATOM     14  C   UNL     1     103.559 106.930 231.520  1.00  0.00    -0.000 C 
BRANCH  14  15
ATOM     15  C   UNL     1     104.740 107.834 231.119  1.00  0.00    -0.000 C 
BRANCH  15  16
ATOM     16  C   UNL     1     105.713 107.222 230.092  1.00  0.00    -0.000 C 
BRANCH  16  17
ATOM     17  C   UNL     1     105.065 106.774 228.767  1.00  0.00    -0.000 C 
BRANCH  17  18
ATOM     18  C   UNL     1     105.436 105.352 228.311  1.00  0.00    -0.000 C 
BRANCH  18  19
ATOM     19  C   UNL     1     104.727 104.938 227.013  1.00  0.00    -0.003 C 
ATOM     20  C   UNL     1     103.351 105.590 226.907  1.00  0.00     0.004 C 
ENDBRANCH  18  19
ENDBRANCH  17  18
ENDBRANCH  16  17
ENDBRANCH  15  16
ENDBRANCH  14  15
ENDBRANCH  13  14
ENDBRANCH  12  13
ENDBRANCH   1  12
TORSDOF 16
ENDMDL
MODEL 5
REMARK VINA RESULT:    -5.301      1.421      4.056
REMARK INTER + INTRA:         -13.059
REMARK INTER:                 -10.317
REMARK INTRA:                  -2.742
REMARK UNBOUND:                -2.799
REMARK SMILES CCCCCCCCCCCCCCCCCC(=O)[O-]
REMARK SMILES IDX 10 1 11 2 12 3 13 4 14 5 15 6 16 7 17 8 18 9 19 10 20 11
REMARK SMILES IDX 9 12 8 13 7 14 6 15 5 16 4 17 3 18 2 19 1 20
REMARK H PARENT
REMARK Flexibility Score: inf
ROOT
ATOM      1  C   UNL     1     104.046 107.821 230.477  1.00  0.00     0.000 C 
ENDROOT
BRANCH   1   2
ATOM      2  C   UNL     1     102.534 107.565 230.559  1.00  0.00     0.000 C 
BRANCH   2   3
ATOM      3  C   UNL     1     102.167 106.856 231.868  1.00  0.00     0.000 C 
BRANCH   3   4
ATOM      4  C   UNL     1     103.172 105.743 232.192  1.00  0.00     0.000 C 
BRANCH   4   5
ATOM      5  C   UNL     1     104.006 106.098 233.432  1.00  0.00     0.000 C 
BRANCH   5   6
ATOM      6  C   UNL     1     105.462 105.608 233.336  1.00  0.00     0.000 C 
BRANCH   6   7
ATOM      7  C   UNL     1     105.801 104.822 232.056  1.00  0.00     0.006 C 
BRANCH   7   8
ATOM      8  C   UNL     1     106.570 103.525 232.335  1.00  0.00     0.053 C 
BRANCH   8   9
ATOM      9  C   UNL     1     106.511 102.616 231.148  1.00  0.00     0.041 C 
ATOM     10  O   UNL     1     106.737 103.066 229.993  1.00  0.00    -0.550 OA
ATOM     11  O   UNL     1     106.162 101.283 231.312  1.00  0.00    -0.550 OA
ENDBRANCH   8   9
ENDBRANCH   7   8
ENDBRANCH   6   7
ENDBRANCH   5   6
ENDBRANCH   4   5
ENDBRANCH   3   4
ENDBRANCH   2   3
ENDBRANCH   1   2
BRANCH   1  12
ATOM     12  C   UNL     1     104.566 107.845 229.031  1.00  0.00     0.000 C 
BRANCH  12  13
ATOM     13  C   UNL     1     105.334 106.565 228.659  1.00  0.00    -0.000 C 
BRANCH  13  14
ATOM     14  C   UNL     1     104.430 105.321 228.601  1.00  0.00    -0.000 C 
BRANCH  14  15
ATOM     15  C   UNL     1     103.567 105.199 227.330  1.00  0.00    -0.000 C 
BRANCH  15  16
ATOM     16  C   UNL     1     102.046 105.304 227.559  1.00  0.00    -0.000 C 
BRANCH  16  17
ATOM     17  C   UNL     1     101.382 104.029 228.116  1.00  0.00    -0.000 C 
BRANCH  17  18
ATOM     18  C   UNL     1     101.042 104.077 229.616  1.00  0.00    -0.000 C 
BRANCH  18  19
ATOM     19  C   UNL     1     101.356 102.761 230.342  1.00  0.00    -0.003 C 
ATOM     20  C   UNL     1     102.854 102.471 230.331  1.00  0.00     0.004 C 
ENDBRANCH  18  19
ENDBRANCH  17  18
ENDBRANCH  16  17
ENDBRANCH  15  16
ENDBRANCH  14  15
ENDBRANCH  13  14
ENDBRANCH  12  13
ENDBRANCH   1  12
TORSDOF 16
ENDMDL
MODEL 6
REMARK VINA RESULT:    -5.288      1.732      4.408
REMARK INTER + INTRA:         -13.033
REMARK INTER:                 -10.120
REMARK INTRA:                  -2.914
REMARK UNBOUND:                -2.799
REMARK SMILES CCCCCCCCCCCCCCCCCC(=O)[O-]
REMARK SMILES IDX 10 1 11 2 12 3 13 4 14 5 15 6 16 7 17 8 18 9 19 10 20 11
REMARK SMILES IDX 9 12 8 13 7 14 6 15 5 16 4 17 3 18 2 19 1 20
REMARK H PARENT
REMARK Flexibility Score: inf
ROOT
ATOM      1  C   UNL     1     101.593 104.551 227.837  1.00  0.00     0.000 C 
ENDROOT
BRANCH   1   2
ATOM      2  C   UNL     1     102.847 105.421 228.010  1.00  0.00     0.000 C 
BRANCH   2   3
ATOM      3  C   UNL     1     103.632 105.519 226.697  1.00  0.00     0.000 C 
BRANCH   3   4
ATOM      4  C   UNL     1     104.939 104.719 226.775  1.00  0.00     0.000 C 
BRANCH   4   5
ATOM      5  C   UNL     1     105.504 104.724 228.203  1.00  0.00     0.000 C 
BRANCH   5   6
ATOM      6  C   UNL     1     106.475 103.559 228.467  1.00  0.00     0.000 C 
BRANCH   6   7
ATOM      7  C   UNL     1     106.978 103.449 229.918  1.00  0.00     0.006 C 
BRANCH   7   8
ATOM      8  C   UNL     1     106.468 104.583 230.816  1.00  0.00     0.053 C 
BRANCH   8   9
ATOM      9  C   UNL     1     106.391 104.128 232.239  1.00  0.00     0.041 C 
ATOM     10  O   UNL     1     106.664 102.935 232.540  1.00  0.00    -0.550 OA
ATOM     11  O   UNL     1     105.976 105.009 233.229  1.00  0.00    -0.550 OA
ENDBRANCH   8   9
ENDBRANCH   7   8
ENDBRANCH   6   7
ENDBRANCH   5   6
ENDBRANCH   4   5
ENDBRANCH   3   4
ENDBRANCH   2   3
ENDBRANCH   1   2
BRANCH   1  12
ATOM     12  C   UNL     1     101.266 103.726 229.092  1.00  0.00     0.000 C 
BRANCH  12  13
ATOM     13  C   UNL     1     102.529 103.270 229.842  1.00  0.00    -0.000 C 
BRANCH  13  14
ATOM     14  C   UNL     1     102.703 103.973 231.201  1.00  0.00    -0.000 C 
BRANCH  14  15
ATOM     15  C   UNL     1     101.533 104.883 231.621  1.00  0.00    -0.000 C 
BRANCH  15  16
ATOM     16  C   UNL     1     101.879 106.380 231.740  1.00  0.00    -0.000 C 
BRANCH  16  17
ATOM     17  C   UNL     1     103.369 106.722 231.542  1.00  0.00    -0.000 C 
BRANCH  17  18
ATOM     18  C   UNL     1     103.643 107.910 230.603  1.00  0.00    -0.000 C 
BRANCH  18  19
ATOM     19  C   UNL     1     105.063 107.893 230.018  1.00  0.00    -0.003 C 
ATOM     20  C   UNL     1     105.071 108.408 228.581  1.00  0.00     0.004 C 
ENDBRANCH  18  19
ENDBRANCH  17  18
ENDBRANCH  16  17
ENDBRANCH  15  16
ENDBRANCH  14  15
ENDBRANCH  13  14
ENDBRANCH  12  13
ENDBRANCH   1  12
TORSDOF 16
ENDMDL
MODEL 7
REMARK VINA RESULT:    -5.267      1.409      3.932
REMARK INTER + INTRA:         -12.992
REMARK INTER:                  -9.987
REMARK INTRA:                  -3.005
REMARK UNBOUND:                -2.799
REMARK SMILES CCCCCCCCCCCCCCCCCC(=O)[O-]
REMARK SMILES IDX 10 1 11 2 12 3 13 4 14 5 15 6 16 7 17 8 18 9 19 10 20 11
REMARK SMILES IDX 9 12 8 13 7 14 6 15 5 16 4 17 3 18 2 19 1 20
REMARK H PARENT
REMARK Flexibility Score: inf
ROOT
ATOM      1  C   UNL     1     102.002 106.983 231.260  1.00  0.00     0.000 C 
ENDROOT
BRANCH   1   2
ATOM      2  C   UNL     1     101.413 106.385 232.546  1.00  0.00     0.000 C 
BRANCH   2   3
ATOM      3  C   UNL     1     102.522 105.871 233.471  1.00  0.00     0.000 C 
BRANCH   3   4
ATOM      4  C   UNL     1     103.899 106.009 232.810  1.00  0.00     0.000 C 
BRANCH   4   5
ATOM      5  C   UNL     1     105.006 106.145 233.866  1.00  0.00     0.000 C 
BRANCH   5   6
ATOM      6  C   UNL     1     106.317 105.452 233.453  1.00  0.00     0.000 C 
BRANCH   6   7
ATOM      7  C   UNL     1     106.196 104.490 232.257  1.00  0.00     0.006 C 
BRANCH   7   8
ATOM      8  C   UNL     1     106.691 103.074 232.575  1.00  0.00     0.053 C 
BRANCH   8   9
ATOM      9  C   UNL     1     106.774 102.256 231.325  1.00  0.00     0.041 C 
ATOM     10  O   UNL     1     107.441 102.670 230.340  1.00  0.00    -0.550 OA
ATOM     11  O   UNL     1     106.081 101.057 231.232  1.00  0.00    -0.550 OA
ENDBRANCH   8   9
ENDBRANCH   7   8
ENDBRANCH   6   7
ENDBRANCH   5   6
ENDBRANCH   4   5
ENDBRANCH   3   4
ENDBRANCH   2   3
ENDBRANCH   1   2
BRANCH   1  12
ATOM     12  C   UNL     1     101.295 106.477 229.993  1.00  0.00     0.000 C 
BRANCH  12  13
ATOM     13  C   UNL     1     100.414 105.246 230.262  1.00  0.00    -0.000 C 
BRANCH  13  14
ATOM     14  C   UNL     1     100.970 103.961 229.622  1.00  0.00    -0.000 C 
BRANCH  14  15
ATOM     15  C   UNL     1     101.759 103.044 230.576  1.00  0.00    -0.000 C 
BRANCH  15  16
ATOM     16  C   UNL     1     103.286 103.254 230.572  1.00  0.00    -0.000 C 
BRANCH  16  17
ATOM     17  C   UNL     1     103.874 103.729 229.229  1.00  0.00    -0.000 C 
BRANCH  17  18
ATOM     18  C   UNL     1     104.550 105.111 229.269  1.00  0.00    -0.000 C 
BRANCH  18  19
ATOM     19  C   UNL     1     104.644 105.769 227.884  1.00  0.00    -0.003 C 
ATOM     20  C   UNL     1     103.429 105.425 227.028  1.00  0.00     0.004 C 
ENDBRANCH  18  19
ENDBRANCH  17  18
ENDBRANCH  16  17
ENDBRANCH  15  16
ENDBRANCH  14  15
ENDBRANCH  13  14
ENDBRANCH  12  13
ENDBRANCH   1  12
TORSDOF 16
ENDMDL
MODEL 8
REMARK VINA RESULT:    -5.250      2.539      4.408
REMARK INTER + INTRA:         -12.959
REMARK INTER:                 -10.045
REMARK INTRA:                  -2.914
REMARK UNBOUND:                -2.799
REMARK SMILES CCCCCCCCCCCCCCCCCC(=O)[O-]
REMARK SMILES IDX 10 1 11 2 12 3 13 4 14 5 15 6 16 7 17 8 18 9 19 10 20 11
REMARK SMILES IDX 9 12 8 13 7 14 6 15 5 16 4 17 3 18 2 19 1 20
REMARK H PARENT
REMARK Flexibility Score: inf
ROOT
ATOM      1  C   UNL     1     105.508 107.109 229.887  1.00  0.00     0.000 C 
ENDROOT
BRANCH   1   2
ATOM      2  C   UNL     1     104.366 106.838 228.896  1.00  0.00     0.000 C 
BRANCH   2   3
ATOM      3  C   UNL     1     104.609 105.538 228.121  1.00  0.00     0.000 C 
BRANCH   3   4
ATOM      4  C   UNL     1     103.431 105.222 227.191  1.00  0.00     0.000 C 
BRANCH   4   5
ATOM      5  C   UNL     1     102.110 105.171 227.972  1.00  0.00     0.000 C 
BRANCH   5   6
ATOM      6  C   UNL     1     101.943 103.872 228.783  1.00  0.00     0.000 C 
BRANCH   6   7
ATOM      7  C   UNL     1     101.465 104.067 230.233  1.00  0.00     0.006 C 
BRANCH   7   8
ATOM      8  C   UNL     1     101.094 105.521 230.550  1.00  0.00     0.053 C 
BRANCH   8   9
ATOM      9  C   UNL     1      99.979 105.571 231.546  1.00  0.00     0.041 C 
ATOM     10  O   UNL     1     100.103 106.241 232.605  1.00  0.00    -0.550 OA
ATOM     11  O   UNL     1      98.818 104.842 231.325  1.00  0.00    -0.550 OA
ENDBRANCH   8   9
ENDBRANCH   7   8
ENDBRANCH   6   7
ENDBRANCH   5   6
ENDBRANCH   4   5
ENDBRANCH   3   4
ENDBRANCH   2   3
ENDBRANCH   1   2
BRANCH   1  12
ATOM     12  C   UNL     1     105.002 107.575 231.262  1.00  0.00     0.000 C 
BRANCH  12  13
ATOM     13  C   UNL     1     104.058 106.554 231.919  1.00  0.00    -0.000 C 
BRANCH  13  14
ATOM     14  C   UNL     1     104.532 106.115 233.316  1.00  0.00    -0.000 C 
BRANCH  14  15
ATOM     15  C   UNL     1     106.041 105.827 233.434  1.00  0.00    -0.000 C 
BRANCH  15  16
ATOM     16  C   UNL     1     106.474 104.416 232.992  1.00  0.00    -0.000 C 
BRANCH  16  17
ATOM     17  C   UNL     1     107.191 104.351 231.629  1.00  0.00    -0.000 C 
BRANCH  17  18
ATOM     18  C   UNL     1     106.478 103.504 230.560  1.00  0.00    -0.000 C 
BRANCH  18  19
ATOM     19  C   UNL     1     105.038 103.139 230.951  1.00  0.00    -0.003 C 
ATOM     20  C   UNL     1     104.637 101.786 230.369  1.00  0.00     0.004 C 
ENDBRANCH  18  19
ENDBRANCH  17  18
ENDBRANCH  16  17
ENDBRANCH  15  16
ENDBRANCH  14  15
ENDBRANCH  13  14
ENDBRANCH  12  13
ENDBRANCH   1  12
TORSDOF 16
ENDMDL
MODEL 9
REMARK VINA RESULT:    -5.214      2.433      5.580
REMARK INTER + INTRA:         -12.890
REMARK INTER:                 -10.422
REMARK INTRA:                  -2.468
REMARK UNBOUND:                -2.799
REMARK SMILES CCCCCCCCCCCCCCCCCC(=O)[O-]
REMARK SMILES IDX 10 1 11 2 12 3 13 4 14 5 15 6 16 7 17 8 18 9 19 10 20 11
REMARK SMILES IDX 9 12 8 13 7 14 6 15 5 16 4 17 3 18 2 19 1 20
REMARK H PARENT
REMARK Flexibility Score: inf
ROOT
ATOM      1  C   UNL     1     104.523 105.088 227.423  1.00  0.00     0.000 C 
ENDROOT
BRANCH   1   2
ATOM      2  C   UNL     1     105.232 105.861 228.545  1.00  0.00     0.000 C 
BRANCH   2   3
ATOM      3  C   UNL     1     104.836 107.342 228.528  1.00  0.00     0.000 C 
BRANCH   3   4
ATOM      4  C   UNL     1     105.305 108.053 229.803  1.00  0.00     0.000 C 
BRANCH   4   5
ATOM      5  C   UNL     1     104.362 107.756 230.978  1.00  0.00     0.000 C 
BRANCH   5   6
ATOM      6  C   UNL     1     102.891 108.088 230.666  1.00  0.00     0.000 C 
BRANCH   6   7
ATOM      7  C   UNL     1     101.897 106.942 230.926  1.00  0.00     0.006 C 
BRANCH   7   8
ATOM      8  C   UNL     1     102.372 105.973 232.017  1.00  0.00     0.053 C 
BRANCH   8   9
ATOM      9  C   UNL     1     101.647 106.234 233.299  1.00  0.00     0.041 C 
ATOM     10  O   UNL     1     102.197 105.973 234.403  1.00  0.00    -0.550 OA
ATOM     11  O   UNL     1     100.349 106.725 233.276  1.00  0.00    -0.550 OA
ENDBRANCH   8   9
ENDBRANCH   7   8
ENDBRANCH   6   7
ENDBRANCH   5   6
ENDBRANCH   4   5
ENDBRANCH   3   4
ENDBRANCH   2   3
ENDBRANCH   1   2
BRANCH   1  12
ATOM     12  C   UNL     1     103.183 105.725 227.020  1.00  0.00     0.000 C 
BRANCH  12  13
ATOM     13  C   UNL     1     101.978 105.019 227.663  1.00  0.00    -0.000 C 
BRANCH  13  14
ATOM     14  C   UNL     1     102.380 104.077 228.813  1.00  0.00    -0.000 C 
BRANCH  14  15
ATOM     15  C   UNL     1     101.242 103.197 229.366  1.00  0.00    -0.000 C 
BRANCH  15  16
ATOM     16  C   UNL     1     101.669 102.168 230.430  1.00  0.00    -0.000 C 
BRANCH  16  17
ATOM     17  C   UNL     1     102.989 102.492 231.158  1.00  0.00    -0.000 C 
BRANCH  17  18
ATOM     18  C   UNL     1     104.190 101.624 230.743  1.00  0.00    -0.000 C 
BRANCH  18  19
ATOM     19  C   UNL     1     105.540 102.259 231.106  1.00  0.00    -0.003 C 
ATOM     20  C   UNL     1     105.372 103.729 231.480  1.00  0.00     0.004 C 
ENDBRANCH  18  19
ENDBRANCH  17  18
ENDBRANCH  16  17
ENDBRANCH  15  16
ENDBRANCH  14  15
ENDBRANCH  13  14
ENDBRANCH  12  13
ENDBRANCH   1  12
TORSDOF 16
ENDMDL
