MODEL 1
REMARK VINA RESULT:    59.340      0.000      0.000
REMARK INTER + INTRA:          80.060
REMARK INTER:                  80.154
REMARK INTRA:                  -0.094
REMARK UNBOUND:                -0.094
REMARK SMILES O=c1c(-c2ccc(O)cc2)coc2c([C@H]3O[C@@H](CO)[C@@H](O)[C@@H](O)[C@H]3O)c(O)ccc12
REMARK SMILES IDX 3 1 11 2 12 3 13 4 30 5 2 6 1 7 29 8 28 9 26 10 14 11 4 12
REMARK SMILES IDX 5 13 6 14 7 15 10 16 9 17 8 18 15 20 24 21 16 22 22 23 17 24
REMARK SMILES IDX 20 25 25 26 23 28 18 30 19 31 21 33 27 35
REMARK H PARENT 8 19 25 27 23 29 19 32 21 34 27 36
REMARK Flexibility Score: inf
ROOT
ATOM      1  C   UNL     1      17.676  98.939   8.475  1.00  0.00     0.065 A 
ATOM      2  C   UNL     1      18.416  97.792   8.161  1.00  0.00     0.208 A 
ATOM      3  O   UNL     1      17.942  96.580   8.424  1.00  0.00    -0.463 OA
ATOM      4  C   UNL     1      16.757  96.360   8.990  1.00  0.00     0.147 A 
ATOM      5  C   UNL     1      15.935  97.467   9.317  1.00  0.00     0.066 A 
ATOM      6  C   UNL     1      16.415  98.767   9.071  1.00  0.00     0.200 A 
ATOM      7  O   UNL     1      15.725  99.773   9.395  1.00  0.00    -0.288 OA
ATOM      8  C   UNL     1      14.663  97.251   9.856  1.00  0.00     0.020 A 
ATOM      9  C   UNL     1      14.184  95.958  10.013  1.00  0.00     0.047 A 
ATOM     10  C   UNL     1      14.973  94.851   9.678  1.00  0.00     0.125 A 
ATOM     11  C   UNL     1      16.322  95.026   9.248  1.00  0.00     0.069 A 
ENDROOT
BRANCH   1  12
ATOM     12  C   UNL     1      18.228 100.283   8.173  1.00  0.00    -0.011 A 
ATOM     13  C   UNL     1      18.788 101.075   9.191  1.00  0.00     0.013 A 
ATOM     14  C   UNL     1      19.298 102.344   8.900  1.00  0.00     0.047 A 
ATOM     15  C   UNL     1      19.250 102.840   7.591  1.00  0.00     0.115 A 
ATOM     16  C   UNL     1      18.178 100.791   6.862  1.00  0.00     0.013 A 
ATOM     17  C   UNL     1      18.689 102.061   6.576  1.00  0.00     0.047 A 
BRANCH  15  18
ATOM     18  O   UNL     1      19.756 104.102   7.291  1.00  0.00    -0.508 OA
ATOM     19  H   UNL     1      19.188 104.936   7.383  1.00  0.00     0.293 HD
ENDBRANCH  15  18
ENDBRANCH   1  12
BRANCH  11  20
ATOM     20  C   UNL     1      17.268  93.845   8.923  1.00  0.00     0.188 C 
ATOM     21  C   UNL     1      18.515  93.707   9.849  1.00  0.00     0.179 C 
ATOM     22  O   UNL     1      17.724  93.975   7.580  1.00  0.00    -0.362 OA
ATOM     23  C   UNL     1      19.406  92.536   9.387  1.00  0.00     0.177 C 
ATOM     24  C   UNL     1      18.362  92.793   7.132  1.00  0.00     0.176 C 
ATOM     25  C   UNL     1      19.696  92.610   7.878  1.00  0.00     0.177 C 
BRANCH  21  26
ATOM     26  O   UNL     1      19.256  94.905   9.832  1.00  0.00    -0.387 OA
ATOM     27  H   UNL     1      19.304  95.213   8.890  1.00  0.00     0.211 HD
ENDBRANCH  21  26
BRANCH  23  28
ATOM     28  O   UNL     1      20.601  92.530  10.125  1.00  0.00    -0.387 OA
ATOM     29  H   UNL     1      20.461  93.133  10.902  1.00  0.00     0.211 HD
ENDBRANCH  23  28
BRANCH  24  30
ATOM     30  C   UNL     1      18.592  92.882   5.616  1.00  0.00     0.191 C 
BRANCH  30  31
ATOM     31  O   UNL     1      17.676  92.067   4.936  1.00  0.00    -0.394 OA
ATOM     32  H   UNL     1      16.969  92.666   4.583  1.00  0.00     0.210 HD
ENDBRANCH  30  31
ENDBRANCH  24  30
BRANCH  25  33
ATOM     33  O   UNL     1      20.555  93.686   7.596  1.00  0.00    -0.388 OA
ATOM     34  H   UNL     1      20.105  94.245   6.911  1.00  0.00     0.211 HD
ENDBRANCH  25  33
ENDBRANCH  11  20
BRANCH  10  35
ATOM     35  O   UNL     1      14.386  93.591   9.757  1.00  0.00    -0.507 OA
ATOM     36  H   UNL     1      13.844  93.298  10.561  1.00  0.00     0.293 HD
ENDBRANCH  10  35
TORSDOF 9
ENDMDL
