MODEL 1
REMARK VINA RESULT:    -4.324      0.000      0.000
REMARK INTER + INTRA:          -5.218
REMARK INTER:                  -5.208
REMARK INTRA:                  -0.009
REMARK UNBOUND:                -0.009
REMARK SMILES CC[C@H](C)[C@@H]([NH3+])C(=O)[O-]
REMARK SMILES IDX 3 1 4 2 5 3 6 4 7 8 8 9 9 10 2 11 1 12
REMARK H PARENT 6 5 6 6 6 7
REMARK Flexibility Score: inf
ROOT
ATOM      1  C   UNL     1      11.166  -1.500 -32.353  1.00  0.00     0.050 C 
ATOM      2  C   UNL     1      10.955  -0.778 -31.007  1.00  0.00     0.014 C 
ENDROOT
BRANCH   1   3
ATOM      3  C   UNL     1       9.824  -1.868 -33.058  1.00  0.00     0.230 C 
BRANCH   3   4
ATOM      4  N   UNL     1       8.964  -2.733 -32.235  1.00  0.00    -0.350 N 
ATOM      5  H   UNL     1       9.114  -3.743 -32.460  1.00  0.00     0.345 HD
ATOM      6  H   UNL     1       9.182  -2.581 -31.223  1.00  0.00     0.345 HD
ATOM      7  H   UNL     1       7.958  -2.492 -32.382  1.00  0.00     0.345 HD
ENDBRANCH   3   4
BRANCH   3   8
ATOM      8  C   UNL     1       9.080  -0.628 -33.491  1.00  0.00     0.099 C 
ATOM      9  O   UNL     1       9.265  -0.155 -34.644  1.00  0.00    -0.544 OA
ATOM     10  O   UNL     1       8.222   0.029 -32.615  1.00  0.00    -0.544 OA
ENDBRANCH   3   8
ENDBRANCH   1   3
BRANCH   1  11
ATOM     11  C   UNL     1      12.071  -2.746 -32.184  1.00  0.00     0.006 C 
ATOM     12  C   UNL     1      12.327  -3.476 -33.504  1.00  0.00     0.004 C 
ENDBRANCH   1  11
TORSDOF 4
ENDMDL
MODEL 2
REMARK VINA RESULT:    -4.198      2.300      3.524
REMARK INTER + INTRA:          -5.066
REMARK INTER:                  -4.924
REMARK INTRA:                  -0.142
REMARK UNBOUND:                -0.009
REMARK SMILES CC[C@H](C)[C@@H]([NH3+])C(=O)[O-]
REMARK SMILES IDX 3 1 4 2 5 3 6 4 7 8 8 9 9 10 2 11 1 12
REMARK H PARENT 6 5 6 6 6 7
REMARK Flexibility Score: inf
ROOT
ATOM      1  C   UNL     1       9.858  -0.638 -32.237  1.00  0.00     0.050 C 
ATOM      2  C   UNL     1       8.674  -0.485 -33.212  1.00  0.00     0.014 C 
ENDROOT
BRANCH   1   3
ATOM      3  C   UNL     1      10.188  -2.129 -31.917  1.00  0.00     0.230 C 
BRANCH   3   4
ATOM      4  N   UNL     1       9.113  -3.051 -32.314  1.00  0.00    -0.350 N 
ATOM      5  H   UNL     1       8.709  -3.545 -31.486  1.00  0.00     0.345 HD
ATOM      6  H   UNL     1       8.349  -2.514 -32.786  1.00  0.00     0.345 HD
ATOM      7  H   UNL     1       9.471  -3.756 -32.997  1.00  0.00     0.345 HD
ENDBRANCH   3   4
BRANCH   3   8
ATOM      8  C   UNL     1      11.502  -2.539 -32.536  1.00  0.00     0.099 C 
ATOM      9  O   UNL     1      12.406  -1.680 -32.718  1.00  0.00    -0.544 OA
ATOM     10  O   UNL     1      11.715  -3.850 -32.950  1.00  0.00    -0.544 OA
ENDBRANCH   3   8
ENDBRANCH   1   3
BRANCH   1  11
ATOM     11  C   UNL     1       9.623   0.175 -30.939  1.00  0.00     0.006 C 
ATOM     12  C   UNL     1      10.849   0.197 -30.024  1.00  0.00     0.004 C 
ENDBRANCH   1  11
TORSDOF 4
ENDMDL
MODEL 3
REMARK VINA RESULT:    -4.070      2.136      3.389
REMARK INTER + INTRA:          -4.912
REMARK INTER:                  -4.995
REMARK INTRA:                   0.083
REMARK UNBOUND:                -0.009
REMARK SMILES CC[C@H](C)[C@@H]([NH3+])C(=O)[O-]
REMARK SMILES IDX 3 1 4 2 5 3 6 4 7 8 8 9 9 10 2 11 1 12
REMARK H PARENT 6 5 6 6 6 7
REMARK Flexibility Score: inf
ROOT
ATOM      1  C   UNL     1       8.854  -0.886 -32.794  1.00  0.00     0.050 C 
ATOM      2  C   UNL     1       8.671   0.348 -31.888  1.00  0.00     0.014 C 
ENDROOT
BRANCH   1   3
ATOM      3  C   UNL     1       9.633  -2.041 -32.090  1.00  0.00     0.230 C 
BRANCH   3   4
ATOM      4  N   UNL     1       9.122  -3.374 -32.443  1.00  0.00    -0.350 N 
ATOM      5  H   UNL     1       8.481  -3.745 -31.706  1.00  0.00     0.345 HD
ATOM      6  H   UNL     1       8.594  -3.318 -33.345  1.00  0.00     0.345 HD
ATOM      7  H   UNL     1       9.913  -4.043 -32.582  1.00  0.00     0.345 HD
ENDBRANCH   3   4
BRANCH   3   8
ATOM      8  C   UNL     1      11.114  -1.944 -32.364  1.00  0.00     0.099 C 
ATOM      9  O   UNL     1      11.780  -0.987 -31.887  1.00  0.00    -0.544 OA
ATOM     10  O   UNL     1      11.750  -2.877 -33.178  1.00  0.00    -0.544 OA
ENDBRANCH   3   8
ENDBRANCH   1   3
BRANCH   1  11
ATOM     11  C   UNL     1       9.518  -0.501 -34.139  1.00  0.00     0.006 C 
ATOM     12  C   UNL     1       8.561   0.227 -35.085  1.00  0.00     0.004 C 
ENDBRANCH   1  11
TORSDOF 4
ENDMDL
MODEL 4
REMARK VINA RESULT:    -3.976     17.803     18.423
REMARK INTER + INTRA:          -4.798
REMARK INTER:                  -4.738
REMARK INTRA:                  -0.060
REMARK UNBOUND:                -0.009
REMARK SMILES CC[C@H](C)[C@@H]([NH3+])C(=O)[O-]
REMARK SMILES IDX 3 1 4 2 5 3 6 4 7 8 8 9 9 10 2 11 1 12
REMARK H PARENT 6 5 6 6 6 7
REMARK Flexibility Score: inf
ROOT
ATOM      1  C   UNL     1       1.569 -10.360 -19.225  1.00  0.00     0.050 C 
ATOM      2  C   UNL     1       3.085 -10.527 -19.446  1.00  0.00     0.014 C 
ENDROOT
BRANCH   1   3
ATOM      3  C   UNL     1       0.994  -9.087 -19.921  1.00  0.00     0.230 C 
BRANCH   3   4
ATOM      4  N   UNL     1       1.820  -8.630 -21.050  1.00  0.00    -0.350 N 
ATOM      5  H   UNL     1       2.092  -7.627 -20.942  1.00  0.00     0.345 HD
ATOM      6  H   UNL     1       2.691  -9.208 -21.101  1.00  0.00     0.345 HD
ATOM      7  H   UNL     1       1.306  -8.755 -21.951  1.00  0.00     0.345 HD
ENDBRANCH   3   4
BRANCH   3   8
ATOM      8  C   UNL     1      -0.435  -9.304 -20.355  1.00  0.00     0.099 C 
ATOM      9  O   UNL     1      -1.102  -8.343 -20.823  1.00  0.00    -0.544 OA
ATOM     10  O   UNL     1      -1.045 -10.545 -20.204  1.00  0.00    -0.544 OA
ENDBRANCH   3   8
ENDBRANCH   1   3
BRANCH   1  11
ATOM     11  C   UNL     1       1.216 -10.381 -17.717  1.00  0.00     0.006 C 
ATOM     12  C   UNL     1       0.823 -11.774 -17.220  1.00  0.00     0.004 C 
ENDBRANCH   1  11
TORSDOF 4
ENDMDL
MODEL 5
REMARK VINA RESULT:    -3.887     18.080     18.777
REMARK INTER + INTRA:          -4.692
REMARK INTER:                  -4.565
REMARK INTRA:                  -0.127
REMARK UNBOUND:                -0.009
REMARK SMILES CC[C@H](C)[C@@H]([NH3+])C(=O)[O-]
REMARK SMILES IDX 3 1 4 2 5 3 6 4 7 8 8 9 9 10 2 11 1 12
REMARK H PARENT 6 5 6 6 6 7
REMARK Flexibility Score: inf
ROOT
ATOM      1  C   UNL     1       1.654  -9.265 -19.553  1.00  0.00     0.050 C 
ATOM      2  C   UNL     1       2.801 -10.290 -19.455  1.00  0.00     0.014 C 
ENDROOT
BRANCH   1   3
ATOM      3  C   UNL     1       0.333  -9.772 -18.896  1.00  0.00     0.230 C 
BRANCH   3   4
ATOM      4  N   UNL     1       0.189 -11.235 -18.956  1.00  0.00    -0.350 N 
ATOM      5  H   UNL     1      -0.710 -11.511 -19.412  1.00  0.00     0.345 HD
ATOM      6  H   UNL     1       0.981 -11.641 -19.507  1.00  0.00     0.345 HD
ATOM      7  H   UNL     1       0.230 -11.644 -17.995  1.00  0.00     0.345 HD
ENDBRANCH   3   4
BRANCH   3   8
ATOM      8  C   UNL     1       0.208  -9.278 -17.475  1.00  0.00     0.099 C 
ATOM      9  O   UNL     1       0.697  -9.953 -16.530  1.00  0.00    -0.544 OA
ATOM     10  O   UNL     1      -0.482  -8.105 -17.187  1.00  0.00    -0.544 OA
ENDBRANCH   3   8
ENDBRANCH   1   3
BRANCH   1  11
ATOM     11  C   UNL     1       1.418  -8.826 -21.020  1.00  0.00     0.006 C 
ATOM     12  C   UNL     1      -0.043  -8.470 -21.305  1.00  0.00     0.004 C 
ENDBRANCH   1  11
TORSDOF 4
ENDMDL
MODEL 6
REMARK VINA RESULT:    -3.862     17.745     18.265
REMARK INTER + INTRA:          -4.661
REMARK INTER:                  -4.565
REMARK INTRA:                  -0.096
REMARK UNBOUND:                -0.009
REMARK SMILES CC[C@H](C)[C@@H]([NH3+])C(=O)[O-]
REMARK SMILES IDX 3 1 4 2 5 3 6 4 7 8 8 9 9 10 2 11 1 12
REMARK H PARENT 6 5 6 6 6 7
REMARK Flexibility Score: inf
ROOT
ATOM      1  C   UNL     1       1.351  -9.859 -18.877  1.00  0.00     0.050 C 
ATOM      2  C   UNL     1       0.884 -10.230 -17.456  1.00  0.00     0.014 C 
ENDROOT
BRANCH   1   3
ATOM      3  C   UNL     1       0.269 -10.151 -19.963  1.00  0.00     0.230 C 
BRANCH   3   4
ATOM      4  N   UNL     1      -0.952 -10.753 -19.407  1.00  0.00    -0.350 N 
ATOM      5  H   UNL     1      -1.008 -10.616 -18.372  1.00  0.00     0.345 HD
ATOM      6  H   UNL     1      -1.792 -10.310 -19.847  1.00  0.00     0.345 HD
ATOM      7  H   UNL     1      -0.985 -11.775 -19.622  1.00  0.00     0.345 HD
ENDBRANCH   3   4
BRANCH   3   8
ATOM      8  C   UNL     1      -0.058  -8.907 -20.753  1.00  0.00     0.099 C 
ATOM      9  O   UNL     1       0.821  -8.379 -21.485  1.00  0.00    -0.544 OA
ATOM     10  O   UNL     1      -1.308  -8.307 -20.650  1.00  0.00    -0.544 OA
ENDBRANCH   3   8
ENDBRANCH   1   3
BRANCH   1  11
ATOM     11  C   UNL     1       2.694 -10.548 -19.224  1.00  0.00     0.006 C 
ATOM     12  C   UNL     1       2.624 -12.072 -19.115  1.00  0.00     0.004 C 
ENDBRANCH   1  11
TORSDOF 4
ENDMDL
MODEL 7
REMARK VINA RESULT:    -3.851     18.312     18.888
REMARK INTER + INTRA:          -4.649
REMARK INTER:                  -4.579
REMARK INTRA:                  -0.070
REMARK UNBOUND:                -0.009
REMARK SMILES CC[C@H](C)[C@@H]([NH3+])C(=O)[O-]
REMARK SMILES IDX 3 1 4 2 5 3 6 4 7 8 8 9 9 10 2 11 1 12
REMARK H PARENT 6 5 6 6 6 7
REMARK Flexibility Score: inf
ROOT
ATOM      1  C   UNL     1       0.900  -9.188 -18.826  1.00  0.00     0.050 C 
ATOM      2  C   UNL     1       0.921 -10.037 -17.539  1.00  0.00     0.014 C 
ENDROOT
BRANCH   1   3
ATOM      3  C   UNL     1      -0.381  -9.426 -19.685  1.00  0.00     0.230 C 
BRANCH   3   4
ATOM      4  N   UNL     1      -0.164  -9.173 -21.118  1.00  0.00    -0.350 N 
ATOM      5  H   UNL     1       0.854  -9.152 -21.352  1.00  0.00     0.345 HD
ATOM      6  H   UNL     1      -0.620  -9.930 -21.679  1.00  0.00     0.345 HD
ATOM      7  H   UNL     1      -0.602  -8.266 -21.398  1.00  0.00     0.345 HD
ENDBRANCH   3   4
BRANCH   3   8
ATOM      8  C   UNL     1      -0.936 -10.812 -19.463  1.00  0.00     0.099 C 
ATOM      9  O   UNL     1      -0.391 -11.803 -20.020  1.00  0.00    -0.544 OA
ATOM     10  O   UNL     1      -2.072 -11.008 -18.685  1.00  0.00    -0.544 OA
ENDBRANCH   3   8
ENDBRANCH   1   3
BRANCH   1  11
ATOM     11  C   UNL     1       2.184  -9.407 -19.663  1.00  0.00     0.006 C 
ATOM     12  C   UNL     1       2.943 -10.674 -19.264  1.00  0.00     0.004 C 
ENDBRANCH   1  11
TORSDOF 4
ENDMDL
MODEL 8
REMARK VINA RESULT:    -3.777     18.432     19.074
REMARK INTER + INTRA:          -4.559
REMARK INTER:                  -4.515
REMARK INTRA:                  -0.044
REMARK UNBOUND:                -0.009
REMARK SMILES CC[C@H](C)[C@@H]([NH3+])C(=O)[O-]
REMARK SMILES IDX 3 1 4 2 5 3 6 4 7 8 8 9 9 10 2 11 1 12
REMARK H PARENT 6 5 6 6 6 7
REMARK Flexibility Score: inf
ROOT
ATOM      1  C   UNL     1       0.617  -9.835 -19.945  1.00  0.00     0.050 C 
ATOM      2  C   UNL     1       0.003  -8.751 -20.853  1.00  0.00     0.014 C 
ENDROOT
BRANCH   1   3
ATOM      3  C   UNL     1      -0.296 -10.193 -18.731  1.00  0.00     0.230 C 
BRANCH   3   4
ATOM      4  N   UNL     1      -0.291 -11.629 -18.415  1.00  0.00    -0.350 N 
ATOM      5  H   UNL     1      -0.554 -11.802 -17.419  1.00  0.00     0.345 HD
ATOM      6  H   UNL     1      -0.977 -12.124 -19.031  1.00  0.00     0.345 HD
ATOM      7  H   UNL     1       0.652 -12.040 -18.600  1.00  0.00     0.345 HD
ENDBRANCH   3   4
BRANCH   3   8
ATOM      8  C   UNL     1       0.071  -9.375 -17.516  1.00  0.00     0.099 C 
ATOM      9  O   UNL     1       0.709  -9.908 -16.570  1.00  0.00    -0.544 OA
ATOM     10  O   UNL     1      -0.328  -8.047 -17.406  1.00  0.00    -0.544 OA
ENDBRANCH   3   8
ENDBRANCH   1   3
BRANCH   1  11
ATOM     11  C   UNL     1       2.039  -9.437 -19.480  1.00  0.00     0.006 C 
ATOM     12  C   UNL     1       3.003 -10.624 -19.437  1.00  0.00     0.004 C 
ENDBRANCH   1  11
TORSDOF 4
ENDMDL
MODEL 9
REMARK VINA RESULT:    -3.739     18.423     19.132
REMARK INTER + INTRA:          -4.513
REMARK INTER:                  -4.510
REMARK INTRA:                  -0.003
REMARK UNBOUND:                -0.009
REMARK SMILES CC[C@H](C)[C@@H]([NH3+])C(=O)[O-]
REMARK SMILES IDX 3 1 4 2 5 3 6 4 7 8 8 9 9 10 2 11 1 12
REMARK H PARENT 6 5 6 6 6 7
REMARK Flexibility Score: inf
ROOT
ATOM      1  C   UNL     1      -0.230 -10.385 -18.055  1.00  0.00     0.050 C 
ATOM      2  C   UNL     1       0.908 -10.492 -17.020  1.00  0.00     0.014 C 
ENDROOT
BRANCH   1   3
ATOM      3  C   UNL     1       0.248 -10.682 -19.510  1.00  0.00     0.230 C 
BRANCH   3   4
ATOM      4  N   UNL     1      -0.837 -11.155 -20.384  1.00  0.00    -0.350 N 
ATOM      5  H   UNL     1      -1.193 -10.388 -20.998  1.00  0.00     0.345 HD
ATOM      6  H   UNL     1      -0.483 -11.931 -20.991  1.00  0.00     0.345 HD
ATOM      7  H   UNL     1      -1.624 -11.536 -19.813  1.00  0.00     0.345 HD
ENDBRANCH   3   4
BRANCH   3   8
ATOM      8  C   UNL     1       0.937  -9.481 -20.112  1.00  0.00     0.099 C 
ATOM      9  O   UNL     1       0.382  -8.841 -21.044  1.00  0.00    -0.544 OA
ATOM     10  O   UNL     1       2.202  -9.095 -19.681  1.00  0.00    -0.544 OA
ENDBRANCH   3   8
ENDBRANCH   1   3
BRANCH   1  11
ATOM     11  C   UNL     1      -0.940  -9.012 -17.967  1.00  0.00     0.006 C 
ATOM     12  C   UNL     1      -0.534  -8.212 -16.728  1.00  0.00     0.004 C 
ENDBRANCH   1  11
TORSDOF 4
ENDMDL
