MODEL 1
REMARK VINA RESULT:    -3.347      0.000      0.000
REMARK INTER + INTRA:          -3.994
REMARK INTER:                  -3.934
REMARK INTRA:                  -0.061
REMARK UNBOUND:                -0.061
REMARK SMILES CCCCC(=O)[O-]
REMARK SMILES IDX 4 1 5 2 6 3 7 4 3 5 2 6 1 7
REMARK H PARENT
REMARK Flexibility Score: inf
ROOT
ATOM      1  C   UNL     1      48.563  59.307  20.911  1.00  0.00     0.053 C 
ENDROOT
BRANCH   1   2
ATOM      2  C   UNL     1      49.622  59.756  19.954  1.00  0.00     0.041 C 
ATOM      3  O   UNL     1      50.823  59.828  20.324  1.00  0.00    -0.550 OA
ATOM      4  O   UNL     1      49.275  60.143  18.665  1.00  0.00    -0.550 OA
ENDBRANCH   1   2
BRANCH   1   5
ATOM      5  C   UNL     1      47.183  59.360  20.243  1.00  0.00     0.006 C 
BRANCH   5   6
ATOM      6  C   UNL     1      46.138  60.084  21.108  1.00  0.00    -0.003 C 
ATOM      7  C   UNL     1      46.652  60.405  22.510  1.00  0.00     0.004 C 
ENDBRANCH   5   6
ENDBRANCH   1   5
TORSDOF 3
ENDMDL
MODEL 2
REMARK VINA RESULT:    -3.232      9.095      9.822
REMARK INTER + INTRA:          -3.860
REMARK INTER:                  -3.757
REMARK INTRA:                  -0.103
REMARK UNBOUND:                -0.061
REMARK SMILES CCCCC(=O)[O-]
REMARK SMILES IDX 4 1 5 2 6 3 7 4 3 5 2 6 1 7
REMARK H PARENT
REMARK Flexibility Score: inf
ROOT
ATOM      1  C   UNL     1      45.023  61.802  11.827  1.00  0.00     0.053 C 
ENDROOT
BRANCH   1   2
ATOM      2  C   UNL     1      44.284  60.601  12.327  1.00  0.00     0.041 C 
ATOM      3  O   UNL     1      44.660  60.017  13.378  1.00  0.00    -0.550 OA
ATOM      4  O   UNL     1      43.209  60.096  11.607  1.00  0.00    -0.550 OA
ENDBRANCH   1   2
BRANCH   1   5
ATOM      5  C   UNL     1      44.606  63.051  12.615  1.00  0.00     0.006 C 
BRANCH   5   6
ATOM      6  C   UNL     1      43.482  63.837  11.922  1.00  0.00    -0.003 C 
ATOM      7  C   UNL     1      42.114  63.595  12.557  1.00  0.00     0.004 C 
ENDBRANCH   5   6
ENDBRANCH   1   5
TORSDOF 3
ENDMDL
MODEL 3
REMARK VINA RESULT:    -3.215      8.973      9.692
REMARK INTER + INTRA:          -3.839
REMARK INTER:                  -3.823
REMARK INTRA:                  -0.016
REMARK UNBOUND:                -0.061
REMARK SMILES CCCCC(=O)[O-]
REMARK SMILES IDX 4 1 5 2 6 3 7 4 3 5 2 6 1 7
REMARK H PARENT
REMARK Flexibility Score: inf
ROOT
ATOM      1  C   UNL     1      44.220  63.710  12.346  1.00  0.00     0.053 C 
ENDROOT
BRANCH   1   2
ATOM      2  C   UNL     1      44.891  62.385  12.532  1.00  0.00     0.041 C 
ATOM      3  O   UNL     1      45.299  62.034  13.670  1.00  0.00    -0.550 OA
ATOM      4  O   UNL     1      45.108  61.557  11.438  1.00  0.00    -0.550 OA
ENDBRANCH   1   2
BRANCH   1   5
ATOM      5  C   UNL     1      42.726  63.516  12.059  1.00  0.00     0.006 C 
BRANCH   5   6
ATOM      6  C   UNL     1      42.074  62.490  12.999  1.00  0.00    -0.003 C 
ATOM      7  C   UNL     1      40.838  63.041  13.709  1.00  0.00     0.004 C 
ENDBRANCH   5   6
ENDBRANCH   1   5
TORSDOF 3
ENDMDL
MODEL 4
REMARK VINA RESULT:    -3.209      9.340     10.300
REMARK INTER + INTRA:          -3.833
REMARK INTER:                  -3.702
REMARK INTRA:                  -0.131
REMARK UNBOUND:                -0.061
REMARK SMILES CCCCC(=O)[O-]
REMARK SMILES IDX 4 1 5 2 6 3 7 4 3 5 2 6 1 7
REMARK H PARENT
REMARK Flexibility Score: inf
ROOT
ATOM      1  C   UNL     1      43.569  63.669  12.263  1.00  0.00     0.053 C 
ENDROOT
BRANCH   1   2
ATOM      2  C   UNL     1      42.196  63.082  12.364  1.00  0.00     0.041 C 
ATOM      3  O   UNL     1      41.376  63.528  13.209  1.00  0.00    -0.550 OA
ATOM      4  O   UNL     1      41.838  62.009  11.557  1.00  0.00    -0.550 OA
ENDBRANCH   1   2
BRANCH   1   5
ATOM      5  C   UNL     1      44.612  62.559  12.081  1.00  0.00     0.006 C 
BRANCH   5   6
ATOM      6  C   UNL     1      44.892  61.794  13.384  1.00  0.00    -0.003 C 
ATOM      7  C   UNL     1      44.540  60.310  13.286  1.00  0.00     0.004 C 
ENDBRANCH   5   6
ENDBRANCH   1   5
TORSDOF 3
ENDMDL
MODEL 5
REMARK VINA RESULT:    -3.205      9.307     10.208
REMARK INTER + INTRA:          -3.828
REMARK INTER:                  -3.719
REMARK INTRA:                  -0.109
REMARK UNBOUND:                -0.061
REMARK SMILES CCCCC(=O)[O-]
REMARK SMILES IDX 4 1 5 2 6 3 7 4 3 5 2 6 1 7
REMARK H PARENT
REMARK Flexibility Score: inf
ROOT
ATOM      1  C   UNL     1      44.587  63.382  12.606  1.00  0.00     0.053 C 
ENDROOT
BRANCH   1   2
ATOM      2  C   UNL     1      43.245  63.826  12.114  1.00  0.00     0.041 C 
ATOM      3  O   UNL     1      42.201  63.502  12.740  1.00  0.00    -0.550 OA
ATOM      4  O   UNL     1      43.143  64.556  10.937  1.00  0.00    -0.550 OA
ENDBRANCH   1   2
BRANCH   1   5
ATOM      5  C   UNL     1      44.881  61.952  12.137  1.00  0.00     0.006 C 
BRANCH   5   6
ATOM      6  C   UNL     1      44.576  60.903  13.218  1.00  0.00    -0.003 C 
ATOM      7  C   UNL     1      43.399  60.000  12.849  1.00  0.00     0.004 C 
ENDBRANCH   5   6
ENDBRANCH   1   5
TORSDOF 3
ENDMDL
MODEL 6
REMARK VINA RESULT:    -3.202      1.460      2.108
REMARK INTER + INTRA:          -3.824
REMARK INTER:                  -3.759
REMARK INTRA:                  -0.065
REMARK UNBOUND:                -0.061
REMARK SMILES CCCCC(=O)[O-]
REMARK SMILES IDX 4 1 5 2 6 3 7 4 3 5 2 6 1 7
REMARK H PARENT
REMARK Flexibility Score: inf
ROOT
ATOM      1  C   UNL     1      48.763  59.436  21.956  1.00  0.00     0.053 C 
ENDROOT
BRANCH   1   2
ATOM      2  C   UNL     1      49.999  60.265  21.798  1.00  0.00     0.041 C 
ATOM      3  O   UNL     1      50.564  60.761  22.808  1.00  0.00    -0.550 OA
ATOM      4  O   UNL     1      50.501  60.530  20.530  1.00  0.00    -0.550 OA
ENDBRANCH   1   2
BRANCH   1   5
ATOM      5  C   UNL     1      47.916  59.959  23.123  1.00  0.00     0.006 C 
BRANCH   5   6
ATOM      6  C   UNL     1      46.592  60.584  22.655  1.00  0.00    -0.003 C 
ATOM      7  C   UNL     1      46.136  60.055  21.296  1.00  0.00     0.004 C 
ENDBRANCH   5   6
ENDBRANCH   1   5
TORSDOF 3
ENDMDL
MODEL 7
REMARK VINA RESULT:    -3.177      8.668      9.519
REMARK INTER + INTRA:          -3.795
REMARK INTER:                  -3.684
REMARK INTRA:                  -0.111
REMARK UNBOUND:                -0.061
REMARK SMILES CCCCC(=O)[O-]
REMARK SMILES IDX 4 1 5 2 6 3 7 4 3 5 2 6 1 7
REMARK H PARENT
REMARK Flexibility Score: inf
ROOT
ATOM      1  C   UNL     1      42.783  61.474  13.777  1.00  0.00     0.053 C 
ENDROOT
BRANCH   1   2
ATOM      2  C   UNL     1      44.224  61.116  13.587  1.00  0.00     0.041 C 
ATOM      3  O   UNL     1      44.554  59.930  13.325  1.00  0.00    -0.550 OA
ATOM      4  O   UNL     1      45.207  62.085  13.747  1.00  0.00    -0.550 OA
ENDBRANCH   1   2
BRANCH   1   5
ATOM      5  C   UNL     1      42.202  62.055  12.482  1.00  0.00     0.006 C 
BRANCH   5   6
ATOM      6  C   UNL     1      42.258  63.590  12.448  1.00  0.00    -0.003 C 
ATOM      7  C   UNL     1      43.325  64.122  11.492  1.00  0.00     0.004 C 
ENDBRANCH   5   6
ENDBRANCH   1   5
TORSDOF 3
ENDMDL
MODEL 8
REMARK VINA RESULT:    -3.164      2.559      3.795
REMARK INTER + INTRA:          -3.780
REMARK INTER:                  -3.677
REMARK INTRA:                  -0.103
REMARK UNBOUND:                -0.061
REMARK SMILES CCCCC(=O)[O-]
REMARK SMILES IDX 4 1 5 2 6 3 7 4 3 5 2 6 1 7
REMARK H PARENT
REMARK Flexibility Score: inf
ROOT
ATOM      1  C   UNL     1      46.838  60.465  22.623  1.00  0.00     0.053 C 
ENDROOT
BRANCH   1   2
ATOM      2  C   UNL     1      46.178  59.966  21.376  1.00  0.00     0.041 C 
ATOM      3  O   UNL     1      44.933  59.780  21.348  1.00  0.00    -0.550 OA
ATOM      4  O   UNL     1      46.945  59.661  20.258  1.00  0.00    -0.550 OA
ENDBRANCH   1   2
BRANCH   1   5
ATOM      5  C   UNL     1      48.045  59.586  22.976  1.00  0.00     0.006 C 
BRANCH   5   6
ATOM      6  C   UNL     1      49.383  60.313  22.769  1.00  0.00    -0.003 C 
ATOM      7  C   UNL     1      50.238  59.678  21.673  1.00  0.00     0.004 C 
ENDBRANCH   5   6
ENDBRANCH   1   5
TORSDOF 3
ENDMDL
MODEL 9
REMARK VINA RESULT:    -3.128      9.692     10.665
REMARK INTER + INTRA:          -3.737
REMARK INTER:                  -3.712
REMARK INTRA:                  -0.026
REMARK UNBOUND:                -0.061
REMARK SMILES CCCCC(=O)[O-]
REMARK SMILES IDX 4 1 5 2 6 3 7 4 3 5 2 6 1 7
REMARK H PARENT
REMARK Flexibility Score: inf
ROOT
ATOM      1  C   UNL     1      44.201  61.661  11.335  1.00  0.00     0.053 C 
ENDROOT
BRANCH   1   2
ATOM      2  C   UNL     1      44.697  62.440  12.512  1.00  0.00     0.041 C 
ATOM      3  O   UNL     1      45.130  61.842  13.533  1.00  0.00    -0.550 OA
ATOM      4  O   UNL     1      44.636  63.828  12.503  1.00  0.00    -0.550 OA
ENDBRANCH   1   2
BRANCH   1   5
ATOM      5  C   UNL     1      45.338  60.829  10.729  1.00  0.00     0.006 C 
BRANCH   5   6
ATOM      6  C   UNL     1      44.922  60.121   9.430  1.00  0.00    -0.003 C 
ATOM      7  C   UNL     1      44.155  61.037   8.477  1.00  0.00     0.004 C 
ENDBRANCH   5   6
ENDBRANCH   1   5
TORSDOF 3
ENDMDL
