MODEL 1
REMARK VINA RESULT:    -3.210      0.000      0.000
REMARK INTER + INTRA:          -4.860
REMARK INTER:                  -4.712
REMARK INTRA:                  -0.148
REMARK UNBOUND:                -0.148
REMARK SMILES O=C([O-])CCCCCCCC(=O)[O-]
REMARK SMILES IDX 7 1 6 2 5 3 4 4 2 5 1 6 3 7 8 8 9 9 10 10 11 11 12 12 13 13
REMARK H PARENT
REMARK Flexibility Score: inf
ROOT
ATOM      1  C   UNL     1      45.233 -23.949  -1.141  1.00  0.00     0.000 C 
ENDROOT
BRANCH   1   2
ATOM      2  C   UNL     1      46.072 -23.446   0.044  1.00  0.00     0.000 C 
BRANCH   2   3
ATOM      3  C   UNL     1      46.097 -24.437   1.217  1.00  0.00     0.006 C 
BRANCH   3   4
ATOM      4  C   UNL     1      45.460 -25.773   0.820  1.00  0.00     0.053 C 
BRANCH   4   5
ATOM      5  C   UNL     1      45.701 -26.803   1.878  1.00  0.00     0.041 C 
ATOM      6  O   UNL     1      45.764 -28.022   1.572  1.00  0.00    -0.550 OA
ATOM      7  O   UNL     1      45.807 -26.421   3.209  1.00  0.00    -0.550 OA
ENDBRANCH   4   5
ENDBRANCH   3   4
ENDBRANCH   2   3
ENDBRANCH   1   2
BRANCH   1   8
ATOM      8  C   UNL     1      46.084 -24.247  -2.384  1.00  0.00     0.000 C 
BRANCH   8   9
ATOM      9  C   UNL     1      45.289 -25.062  -3.411  1.00  0.00     0.006 C 
BRANCH   9  10
ATOM     10  C   UNL     1      46.119 -25.318  -4.673  1.00  0.00     0.053 C 
BRANCH  10  11
ATOM     11  C   UNL     1      45.902 -24.228  -5.673  1.00  0.00     0.041 C 
ATOM     12  O   UNL     1      46.125 -23.028  -5.362  1.00  0.00    -0.550 OA
ATOM     13  O   UNL     1      45.405 -24.531  -6.936  1.00  0.00    -0.550 OA
ENDBRANCH  10  11
ENDBRANCH   9  10
ENDBRANCH   8   9
ENDBRANCH   1   8
TORSDOF 8
ENDMDL
MODEL 2
REMARK VINA RESULT:    -2.591      2.663      8.141
REMARK INTER + INTRA:          -3.952
REMARK INTER:                  -3.772
REMARK INTRA:                  -0.180
REMARK UNBOUND:                -0.148
REMARK SMILES O=C([O-])CCCCCCCC(=O)[O-]
REMARK SMILES IDX 7 1 6 2 5 3 4 4 2 5 1 6 3 7 8 8 9 9 10 10 11 11 12 12 13 13
REMARK H PARENT
REMARK Flexibility Score: inf
ROOT
ATOM      1  C   UNL     1      44.915 -25.809   1.870  1.00  0.00     0.000 C 
ENDROOT
BRANCH   1   2
ATOM      2  C   UNL     1      45.321 -24.585   1.035  1.00  0.00     0.000 C 
BRANCH   2   3
ATOM      3  C   UNL     1      45.939 -24.968  -0.317  1.00  0.00     0.006 C 
BRANCH   3   4
ATOM      4  C   UNL     1      45.747 -23.848  -1.345  1.00  0.00     0.053 C 
BRANCH   4   5
ATOM      5  C   UNL     1      45.658 -24.414  -2.727  1.00  0.00     0.041 C 
ATOM      6  O   UNL     1      46.125 -23.775  -3.705  1.00  0.00    -0.550 OA
ATOM      7  O   UNL     1      45.016 -25.627  -2.940  1.00  0.00    -0.550 OA
ENDBRANCH   4   5
ENDBRANCH   3   4
ENDBRANCH   2   3
ENDBRANCH   1   2
BRANCH   1   8
ATOM      8  C   UNL     1      46.093 -26.411   2.650  1.00  0.00     0.000 C 
BRANCH   8   9
ATOM      9  C   UNL     1      45.603 -27.155   3.898  1.00  0.00     0.006 C 
BRANCH   9  10
ATOM     10  C   UNL     1      46.125 -26.490   5.176  1.00  0.00     0.053 C 
BRANCH  10  11
ATOM     11  C   UNL     1      45.998 -27.421   6.340  1.00  0.00     0.041 C 
ATOM     12  O   UNL     1      46.077 -28.665   6.169  1.00  0.00    -0.550 OA
ATOM     13  O   UNL     1      45.743 -26.915   7.610  1.00  0.00    -0.550 OA
ENDBRANCH  10  11
ENDBRANCH   9  10
ENDBRANCH   8   9
ENDBRANCH   1   8
TORSDOF 8
ENDMDL
MODEL 3
REMARK VINA RESULT:    -2.340      4.849     10.081
REMARK INTER + INTRA:          -3.582
REMARK INTER:                  -3.318
REMARK INTRA:                  -0.264
REMARK UNBOUND:                -0.148
REMARK SMILES O=C([O-])CCCCCCCC(=O)[O-]
REMARK SMILES IDX 7 1 6 2 5 3 4 4 2 5 1 6 3 7 8 8 9 9 10 10 11 11 12 12 13 13
REMARK H PARENT
REMARK Flexibility Score: inf
ROOT
ATOM      1  C   UNL     1      46.124 -27.005   5.700  1.00  0.00     0.000 C 
ENDROOT
BRANCH   1   2
ATOM      2  C   UNL     1      46.125 -26.158   4.419  1.00  0.00     0.000 C 
BRANCH   2   3
ATOM      3  C   UNL     1      45.602 -26.929   3.198  1.00  0.00     0.006 C 
BRANCH   3   4
ATOM      4  C   UNL     1      44.787 -26.014   2.279  1.00  0.00     0.053 C 
BRANCH   4   5
ATOM      5  C   UNL     1      45.605 -25.587   1.102  1.00  0.00     0.041 C 
ATOM      6  O   UNL     1      45.911 -26.419   0.208  1.00  0.00    -0.550 OA
ATOM      7  O   UNL     1      46.073 -24.282   1.018  1.00  0.00    -0.550 OA
ENDBRANCH   4   5
ENDBRANCH   3   4
ENDBRANCH   2   3
ENDBRANCH   1   2
BRANCH   1   8
ATOM      8  C   UNL     1      45.814 -26.178   6.957  1.00  0.00     0.000 C 
BRANCH   8   9
ATOM      9  C   UNL     1      45.709 -27.077   8.194  1.00  0.00     0.006 C 
BRANCH   9  10
ATOM     10  C   UNL     1      46.097 -28.520   7.861  1.00  0.00     0.053 C 
BRANCH  10  11
ATOM     11  C   UNL     1      45.673 -29.444   8.958  1.00  0.00     0.041 C 
ATOM     12  O   UNL     1      45.797 -30.689   8.822  1.00  0.00    -0.550 OA
ATOM     13  O   UNL     1      45.093 -28.932  10.113  1.00  0.00    -0.550 OA
ENDBRANCH  10  11
ENDBRANCH   9  10
ENDBRANCH   8   9
ENDBRANCH   1   8
TORSDOF 8
ENDMDL
MODEL 4
REMARK VINA RESULT:    -2.287      1.004      6.885
REMARK INTER + INTRA:          -3.505
REMARK INTER:                  -3.539
REMARK INTRA:                   0.033
REMARK UNBOUND:                -0.148
REMARK SMILES O=C([O-])CCCCCCCC(=O)[O-]
REMARK SMILES IDX 7 1 6 2 5 3 4 4 2 5 1 6 3 7 8 8 9 9 10 10 11 11 12 12 13 13
REMARK H PARENT
REMARK Flexibility Score: inf
ROOT
ATOM      1  C   UNL     1      45.081 -24.730  -2.505  1.00  0.00     0.000 C 
ENDROOT
BRANCH   1   2
ATOM      2  C   UNL     1      45.938 -25.787  -3.217  1.00  0.00     0.000 C 
BRANCH   2   3
ATOM      3  C   UNL     1      46.121 -25.493  -4.713  1.00  0.00     0.006 C 
BRANCH   3   4
ATOM      4  C   UNL     1      45.934 -24.001  -5.006  1.00  0.00     0.053 C 
BRANCH   4   5
ATOM      5  C   UNL     1      45.924 -23.753  -6.481  1.00  0.00     0.041 C 
ATOM      6  O   UNL     1      45.954 -24.720  -7.287  1.00  0.00    -0.550 OA
ATOM      7  O   UNL     1      45.930 -22.452  -6.967  1.00  0.00    -0.550 OA
ENDBRANCH   4   5
ENDBRANCH   3   4
ENDBRANCH   2   3
ENDBRANCH   1   2
BRANCH   1   8
ATOM      8  C   UNL     1      45.895 -23.865  -1.531  1.00  0.00     0.000 C 
BRANCH   8   9
ATOM      9  C   UNL     1      45.750 -24.373  -0.092  1.00  0.00     0.006 C 
BRANCH   9  10
ATOM     10  C   UNL     1      46.125 -25.854   0.010  1.00  0.00     0.053 C 
BRANCH  10  11
ATOM     11  C   UNL     1      45.595 -26.443   1.279  1.00  0.00     0.041 C 
ATOM     12  O   UNL     1      44.899 -25.744   2.061  1.00  0.00    -0.550 OA
ATOM     13  O   UNL     1      45.911 -27.753   1.623  1.00  0.00    -0.550 OA
ENDBRANCH  10  11
ENDBRANCH   9  10
ENDBRANCH   8   9
ENDBRANCH   1   8
TORSDOF 8
ENDMDL
MODEL 5
REMARK VINA RESULT:    -0.820      2.142      3.083
REMARK INTER + INTRA:          -1.352
REMARK INTER:                  -0.916
REMARK INTRA:                  -0.436
REMARK UNBOUND:                -0.148
REMARK SMILES O=C([O-])CCCCCCCC(=O)[O-]
REMARK SMILES IDX 7 1 6 2 5 3 4 4 2 5 1 6 3 7 8 8 9 9 10 10 11 11 12 12 13 13
REMARK H PARENT
REMARK Flexibility Score: inf
ROOT
ATOM      1  C   UNL     1      44.576 -24.884  -3.616  1.00  0.00     0.000 C 
ENDROOT
BRANCH   1   2
ATOM      2  C   UNL     1      45.077 -25.700  -2.415  1.00  0.00     0.000 C 
BRANCH   2   3
ATOM      3  C   UNL     1      46.124 -24.948  -1.581  1.00  0.00     0.006 C 
BRANCH   3   4
ATOM      4  C   UNL     1      45.607 -23.566  -1.168  1.00  0.00     0.053 C 
BRANCH   4   5
ATOM      5  C   UNL     1      45.884 -23.315   0.280  1.00  0.00     0.041 C 
ATOM      6  O   UNL     1      46.117 -24.277   1.058  1.00  0.00    -0.550 OA
ATOM      7  O   UNL     1      45.835 -22.020   0.782  1.00  0.00    -0.550 OA
ENDBRANCH   4   5
ENDBRANCH   3   4
ENDBRANCH   2   3
ENDBRANCH   1   2
BRANCH   1   8
ATOM      8  C   UNL     1      44.848 -25.578  -4.959  1.00  0.00     0.000 C 
BRANCH   8   9
ATOM      9  C   UNL     1      46.124 -25.031  -5.612  1.00  0.00     0.006 C 
BRANCH   9  10
ATOM     10  C   UNL     1      46.014 -23.524  -5.857  1.00  0.00     0.053 C 
BRANCH  10  11
ATOM     11  C   UNL     1      46.089 -23.224  -7.321  1.00  0.00     0.041 C 
ATOM     12  O   UNL     1      46.114 -22.032  -7.724  1.00  0.00    -0.550 OA
ATOM     13  O   UNL     1      46.080 -24.263  -8.245  1.00  0.00    -0.550 OA
ENDBRANCH  10  11
ENDBRANCH   9  10
ENDBRANCH   8   9
ENDBRANCH   1   8
TORSDOF 8
ENDMDL
