MODEL 1
REMARK VINA RESULT:    -3.631      0.000      0.000
REMARK INTER + INTRA:          -9.046
REMARK INTER:                  -6.708
REMARK INTRA:                  -2.338
REMARK UNBOUND:                -2.338
REMARK SMILES CCCCCCCCCCCCCCCCO
REMARK SMILES IDX 9 1 8 2 7 3 6 4 5 5 4 6 3 7 2 8 1 9 10 10 11 11 12 12 13 13
REMARK SMILES IDX 14 14 15 15 16 16 17 17
REMARK H PARENT 17 18
REMARK Flexibility Score: inf
ROOT
ATOM      1  C   UNL     1     135.226 134.706 129.712  1.00  0.00     0.000 C 
ENDROOT
BRANCH   1   2
ATOM      2  C   UNL     1     134.536 135.495 128.585  1.00  0.00    -0.000 C 
BRANCH   2   3
ATOM      3  C   UNL     1     134.062 136.900 129.014  1.00  0.00    -0.000 C 
BRANCH   3   4
ATOM      4  C   UNL     1     134.988 138.009 128.487  1.00  0.00    -0.000 C 
BRANCH   4   5
ATOM      5  C   UNL     1     135.109 139.191 129.462  1.00  0.00    -0.000 C 
BRANCH   5   6
ATOM      6  C   UNL     1     135.455 140.511 128.750  1.00  0.00    -0.000 C 
BRANCH   6   7
ATOM      7  C   UNL     1     136.970 140.709 128.579  1.00  0.00    -0.000 C 
BRANCH   7   8
ATOM      8  C   UNL     1     137.766 140.269 129.816  1.00  0.00    -0.003 C 
ATOM      9  C   UNL     1     139.265 140.259 129.531  1.00  0.00     0.004 C 
ENDBRANCH   7   8
ENDBRANCH   6   7
ENDBRANCH   5   6
ENDBRANCH   4   5
ENDBRANCH   3   4
ENDBRANCH   2   3
ENDBRANCH   1   2
BRANCH   1  10
ATOM     10  C   UNL     1     135.158 135.424 131.070  1.00  0.00     0.000 C 
BRANCH  10  11
ATOM     11  C   UNL     1     136.544 135.607 131.710  1.00  0.00     0.000 C 
BRANCH  11  12
ATOM     12  C   UNL     1     137.312 136.802 131.117  1.00  0.00     0.000 C 
BRANCH  12  13
ATOM     13  C   UNL     1     138.526 136.367 130.280  1.00  0.00     0.000 C 
BRANCH  13  14
ATOM     14  C   UNL     1     138.375 136.706 128.790  1.00  0.00     0.002 C 
BRANCH  14  15
ATOM     15  C   UNL     1     138.431 135.436 127.931  1.00  0.00     0.028 C 
BRANCH  15  16
ATOM     16  C   UNL     1     139.464 134.433 128.456  1.00  0.00     0.156 C 
BRANCH  16  17
ATOM     17  O   UNL     1     138.836 133.262 128.905  1.00  0.00    -0.396 OA
ATOM     18  H   UNL     1     139.424 132.869 129.602  1.00  0.00     0.210 HD
ENDBRANCH  16  17
ENDBRANCH  15  16
ENDBRANCH  14  15
ENDBRANCH  13  14
ENDBRANCH  12  13
ENDBRANCH  11  12
ENDBRANCH  10  11
ENDBRANCH   1  10
TORSDOF 15
ENDMDL
MODEL 2
REMARK VINA RESULT:    -3.602      2.414      4.112
REMARK INTER + INTRA:          -8.994
REMARK INTER:                  -6.702
REMARK INTRA:                  -2.292
REMARK UNBOUND:                -2.338
REMARK SMILES CCCCCCCCCCCCCCCCO
REMARK SMILES IDX 9 1 8 2 7 3 6 4 5 5 4 6 3 7 2 8 1 9 10 10 11 11 12 12 13 13
REMARK SMILES IDX 14 14 15 15 16 16 17 17
REMARK H PARENT 17 18
REMARK Flexibility Score: inf
ROOT
ATOM      1  C   UNL     1     137.343 135.049 128.734  1.00  0.00     0.000 C 
ENDROOT
BRANCH   1   2
ATOM      2  C   UNL     1     138.551 134.110 128.894  1.00  0.00    -0.000 C 
BRANCH   2   3
ATOM      3  C   UNL     1     139.911 134.841 128.869  1.00  0.00    -0.000 C 
BRANCH   3   4
ATOM      4  C   UNL     1     139.774 136.302 128.407  1.00  0.00    -0.000 C 
BRANCH   4   5
ATOM      5  C   UNL     1     140.362 137.300 129.418  1.00  0.00    -0.000 C 
BRANCH   5   6
ATOM      6  C   UNL     1     141.152 138.432 128.738  1.00  0.00    -0.000 C 
BRANCH   6   7
ATOM      7  C   UNL     1     140.463 139.799 128.880  1.00  0.00    -0.000 C 
BRANCH   7   8
ATOM      8  C   UNL     1     139.302 139.773 129.885  1.00  0.00    -0.003 C 
ATOM      9  C   UNL     1     138.001 140.234 129.234  1.00  0.00     0.004 C 
ENDBRANCH   7   8
ENDBRANCH   6   7
ENDBRANCH   5   6
ENDBRANCH   4   5
ENDBRANCH   3   4
ENDBRANCH   2   3
ENDBRANCH   1   2
BRANCH   1  10
ATOM     10  C   UNL     1     136.630 135.336 130.065  1.00  0.00     0.000 C 
BRANCH  10  11
ATOM     11  C   UNL     1     136.693 136.821 130.459  1.00  0.00     0.000 C 
BRANCH  11  12
ATOM     12  C   UNL     1     137.451 137.047 131.780  1.00  0.00     0.000 C 
BRANCH  12  13
ATOM     13  C   UNL     1     138.011 135.742 132.369  1.00  0.00     0.000 C 
BRANCH  13  14
ATOM     14  C   UNL     1     139.508 135.833 132.702  1.00  0.00     0.002 C 
BRANCH  14  15
ATOM     15  C   UNL     1     140.203 134.484 132.472  1.00  0.00     0.028 C 
BRANCH  15  16
ATOM     16  C   UNL     1     140.612 133.818 133.790  1.00  0.00     0.156 C 
BRANCH  16  17
ATOM     17  O   UNL     1     141.696 132.950 133.591  1.00  0.00    -0.396 OA
ATOM     18  H   UNL     1     142.514 133.444 133.860  1.00  0.00     0.210 HD
ENDBRANCH  16  17
ENDBRANCH  15  16
ENDBRANCH  14  15
ENDBRANCH  13  14
ENDBRANCH  12  13
ENDBRANCH  11  12
ENDBRANCH  10  11
ENDBRANCH   1  10
TORSDOF 15
ENDMDL
MODEL 3
REMARK VINA RESULT:    -3.571      2.750      4.932
REMARK INTER + INTRA:          -8.936
REMARK INTER:                  -6.589
REMARK INTRA:                  -2.347
REMARK UNBOUND:                -2.338
REMARK SMILES CCCCCCCCCCCCCCCCO
REMARK SMILES IDX 9 1 8 2 7 3 6 4 5 5 4 6 3 7 2 8 1 9 10 10 11 11 12 12 13 13
REMARK SMILES IDX 14 14 15 15 16 16 17 17
REMARK H PARENT 17 18
REMARK Flexibility Score: inf
ROOT
ATOM      1  C   UNL     1     137.341 134.989 129.771  1.00  0.00     0.000 C 
ENDROOT
BRANCH   1   2
ATOM      2  C   UNL     1     138.138 134.262 128.673  1.00  0.00    -0.000 C 
BRANCH   2   3
ATOM      3  C   UNL     1     139.523 134.887 128.399  1.00  0.00    -0.000 C 
BRANCH   3   4
ATOM      4  C   UNL     1     139.961 135.842 129.522  1.00  0.00    -0.000 C 
BRANCH   4   5
ATOM      5  C   UNL     1     140.267 137.258 129.009  1.00  0.00    -0.000 C 
BRANCH   5   6
ATOM      6  C   UNL     1     139.089 138.227 129.215  1.00  0.00    -0.000 C 
BRANCH   6   7
ATOM      7  C   UNL     1     139.358 139.254 130.326  1.00  0.00    -0.000 C 
BRANCH   7   8
ATOM      8  C   UNL     1     138.247 139.280 131.387  1.00  0.00    -0.003 C 
ATOM      9  C   UNL     1     138.026 137.894 131.985  1.00  0.00     0.004 C 
ENDBRANCH   7   8
ENDBRANCH   6   7
ENDBRANCH   5   6
ENDBRANCH   4   5
ENDBRANCH   3   4
ENDBRANCH   2   3
ENDBRANCH   1   2
BRANCH   1  10
ATOM     10  C   UNL     1     135.982 135.510 129.276  1.00  0.00     0.000 C 
BRANCH  10  11
ATOM     11  C   UNL     1     136.089 136.256 127.936  1.00  0.00     0.000 C 
BRANCH  11  12
ATOM     12  C   UNL     1     135.419 137.641 127.979  1.00  0.00     0.000 C 
BRANCH  12  13
ATOM     13  C   UNL     1     135.327 138.208 129.405  1.00  0.00     0.000 C 
BRANCH  13  14
ATOM     14  C   UNL     1     135.003 139.709 129.429  1.00  0.00     0.002 C 
BRANCH  14  15
ATOM     15  C   UNL     1     135.753 140.449 128.313  1.00  0.00     0.028 C 
BRANCH  15  16
ATOM     16  C   UNL     1     136.748 141.472 128.869  1.00  0.00     0.156 C 
BRANCH  16  17
ATOM     17  O   UNL     1     136.551 142.728 128.278  1.00  0.00    -0.396 OA
ATOM     18  H   UNL     1     136.237 142.564 127.350  1.00  0.00     0.210 HD
ENDBRANCH  16  17
ENDBRANCH  15  16
ENDBRANCH  14  15
ENDBRANCH  13  14
ENDBRANCH  12  13
ENDBRANCH  11  12
ENDBRANCH  10  11
ENDBRANCH   1  10
TORSDOF 15
ENDMDL
MODEL 4
REMARK VINA RESULT:    -3.541      2.328      5.668
REMARK INTER + INTRA:          -8.881
REMARK INTER:                  -6.647
REMARK INTRA:                  -2.234
REMARK UNBOUND:                -2.338
REMARK SMILES CCCCCCCCCCCCCCCCO
REMARK SMILES IDX 9 1 8 2 7 3 6 4 5 5 4 6 3 7 2 8 1 9 10 10 11 11 12 12 13 13
REMARK SMILES IDX 14 14 15 15 16 16 17 17
REMARK H PARENT 17 18
REMARK Flexibility Score: inf
ROOT
ATOM      1  C   UNL     1     139.815 139.959 129.401  1.00  0.00     0.000 C 
ENDROOT
BRANCH   1   2
ATOM      2  C   UNL     1     140.546 138.656 129.769  1.00  0.00    -0.000 C 
BRANCH   2   3
ATOM      3  C   UNL     1     140.764 137.709 128.570  1.00  0.00    -0.000 C 
BRANCH   3   4
ATOM      4  C   UNL     1     139.834 136.485 128.622  1.00  0.00    -0.000 C 
BRANCH   4   5
ATOM      5  C   UNL     1     140.242 135.477 129.707  1.00  0.00    -0.000 C 
BRANCH   5   6
ATOM      6  C   UNL     1     139.079 135.123 130.652  1.00  0.00    -0.000 C 
BRANCH   6   7
ATOM      7  C   UNL     1     137.852 136.025 130.439  1.00  0.00    -0.000 C 
BRANCH   7   8
ATOM      8  C   UNL     1     137.532 136.886 131.669  1.00  0.00    -0.003 C 
ATOM      9  C   UNL     1     138.770 137.084 132.538  1.00  0.00     0.004 C 
ENDBRANCH   7   8
ENDBRANCH   6   7
ENDBRANCH   5   6
ENDBRANCH   4   5
ENDBRANCH   3   4
ENDBRANCH   2   3
ENDBRANCH   1   2
BRANCH   1  10
ATOM     10  C   UNL     1     138.288 139.846 129.539  1.00  0.00     0.000 C 
BRANCH  10  11
ATOM     11  C   UNL     1     137.573 139.838 128.178  1.00  0.00     0.000 C 
BRANCH  11  12
ATOM     12  C   UNL     1     136.897 138.489 127.877  1.00  0.00     0.000 C 
BRANCH  12  13
ATOM     13  C   UNL     1     135.365 138.558 127.994  1.00  0.00     0.000 C 
BRANCH  13  14
ATOM     14  C   UNL     1     134.851 138.081 129.361  1.00  0.00     0.002 C 
BRANCH  14  15
ATOM     15  C   UNL     1     134.208 136.692 129.249  1.00  0.00     0.028 C 
BRANCH  15  16
ATOM     16  C   UNL     1     133.387 136.541 127.963  1.00  0.00     0.156 C 
BRANCH  16  17
ATOM     17  O   UNL     1     132.014 136.559 128.246  1.00  0.00    -0.396 OA
ATOM     18  H   UNL     1     131.710 135.614 128.260  1.00  0.00     0.210 HD
ENDBRANCH  16  17
ENDBRANCH  15  16
ENDBRANCH  14  15
ENDBRANCH  13  14
ENDBRANCH  12  13
ENDBRANCH  11  12
ENDBRANCH  10  11
ENDBRANCH   1  10
TORSDOF 15
ENDMDL
MODEL 5
REMARK VINA RESULT:    -3.539      2.276      4.751
REMARK INTER + INTRA:          -8.877
REMARK INTER:                  -7.125
REMARK INTRA:                  -1.752
REMARK UNBOUND:                -2.338
REMARK SMILES CCCCCCCCCCCCCCCCO
REMARK SMILES IDX 9 1 8 2 7 3 6 4 5 5 4 6 3 7 2 8 1 9 10 10 11 11 12 12 13 13
REMARK SMILES IDX 14 14 15 15 16 16 17 17
REMARK H PARENT 17 18
REMARK Flexibility Score: inf
ROOT
ATOM      1  C   UNL     1     139.992 136.228 129.392  1.00  0.00     0.000 C 
ENDROOT
BRANCH   1   2
ATOM      2  C   UNL     1     140.646 137.621 129.393  1.00  0.00    -0.000 C 
BRANCH   2   3
ATOM      3  C   UNL     1     140.645 138.305 128.009  1.00  0.00    -0.000 C 
BRANCH   3   4
ATOM      4  C   UNL     1     139.669 139.493 127.951  1.00  0.00    -0.000 C 
BRANCH   4   5
ATOM      5  C   UNL     1     139.274 140.003 129.345  1.00  0.00    -0.000 C 
BRANCH   5   6
ATOM      6  C   UNL     1     137.749 140.116 129.522  1.00  0.00    -0.000 C 
BRANCH   6   7
ATOM      7  C   UNL     1     137.117 138.814 130.040  1.00  0.00    -0.000 C 
BRANCH   7   8
ATOM      8  C   UNL     1     135.640 138.985 130.420  1.00  0.00    -0.003 C 
ATOM      9  C   UNL     1     134.984 140.088 129.595  1.00  0.00     0.004 C 
ENDBRANCH   7   8
ENDBRANCH   6   7
ENDBRANCH   5   6
ENDBRANCH   4   5
ENDBRANCH   3   4
ENDBRANCH   2   3
ENDBRANCH   1   2
BRANCH   1  10
ATOM     10  C   UNL     1     139.517 135.793 127.996  1.00  0.00     0.000 C 
BRANCH  10  11
ATOM     11  C   UNL     1     138.390 134.749 128.056  1.00  0.00     0.000 C 
BRANCH  11  12
ATOM     12  C   UNL     1     137.021 135.379 128.372  1.00  0.00     0.000 C 
BRANCH  12  13
ATOM     13  C   UNL     1     136.471 134.940 129.739  1.00  0.00     0.000 C 
BRANCH  13  14
ATOM     14  C   UNL     1     135.000 135.332 129.942  1.00  0.00     0.002 C 
BRANCH  14  15
ATOM     15  C   UNL     1     134.270 135.432 128.596  1.00  0.00     0.028 C 
BRANCH  15  16
ATOM     16  C   UNL     1     133.570 136.784 128.422  1.00  0.00     0.156 C 
BRANCH  16  17
ATOM     17  O   UNL     1     132.185 136.612 128.281  1.00  0.00    -0.396 OA
ATOM     18  H   UNL     1     131.768 137.501 128.425  1.00  0.00     0.210 HD
ENDBRANCH  16  17
ENDBRANCH  15  16
ENDBRANCH  14  15
ENDBRANCH  13  14
ENDBRANCH  12  13
ENDBRANCH  11  12
ENDBRANCH  10  11
ENDBRANCH   1  10
TORSDOF 15
ENDMDL
MODEL 6
REMARK VINA RESULT:    -3.516      2.854      6.147
REMARK INTER + INTRA:          -8.833
REMARK INTER:                  -6.279
REMARK INTRA:                  -2.554
REMARK UNBOUND:                -2.338
REMARK SMILES CCCCCCCCCCCCCCCCO
REMARK SMILES IDX 9 1 8 2 7 3 6 4 5 5 4 6 3 7 2 8 1 9 10 10 11 11 12 12 13 13
REMARK SMILES IDX 14 14 15 15 16 16 17 17
REMARK H PARENT 17 18
REMARK Flexibility Score: inf
ROOT
ATOM      1  C   UNL     1     138.958 140.296 129.654  1.00  0.00     0.000 C 
ENDROOT
BRANCH   1   2
ATOM      2  C   UNL     1     140.149 139.499 130.213  1.00  0.00    -0.000 C 
BRANCH   2   3
ATOM      3  C   UNL     1     139.964 137.969 130.127  1.00  0.00    -0.000 C 
BRANCH   3   4
ATOM      4  C   UNL     1     138.955 137.448 131.166  1.00  0.00    -0.000 C 
BRANCH   4   5
ATOM      5  C   UNL     1     138.063 136.326 130.612  1.00  0.00    -0.000 C 
BRANCH   5   6
ATOM      6  C   UNL     1     138.260 136.106 129.102  1.00  0.00    -0.000 C 
BRANCH   6   7
ATOM      7  C   UNL     1     136.929 136.076 128.332  1.00  0.00    -0.000 C 
BRANCH   7   8
ATOM      8  C   UNL     1     135.809 135.382 129.120  1.00  0.00    -0.003 C 
ATOM      9  C   UNL     1     134.446 135.648 128.486  1.00  0.00     0.004 C 
ENDBRANCH   7   8
ENDBRANCH   6   7
ENDBRANCH   5   6
ENDBRANCH   4   5
ENDBRANCH   3   4
ENDBRANCH   2   3
ENDBRANCH   1   2
BRANCH   1  10
ATOM     10  C   UNL     1     138.441 139.739 128.317  1.00  0.00     0.000 C 
BRANCH  10  11
ATOM     11  C   UNL     1     137.073 140.320 127.926  1.00  0.00     0.000 C 
BRANCH  11  12
ATOM     12  C   UNL     1     136.123 140.451 129.131  1.00  0.00     0.000 C 
BRANCH  12  13
ATOM     13  C   UNL     1     135.438 139.122 129.489  1.00  0.00     0.000 C 
BRANCH  13  14
ATOM     14  C   UNL     1     135.426 138.848 131.000  1.00  0.00     0.002 C 
BRANCH  14  15
ATOM     15  C   UNL     1     136.024 140.029 131.775  1.00  0.00     0.028 C 
BRANCH  15  16
ATOM     16  C   UNL     1     135.028 140.620 132.779  1.00  0.00     0.156 C 
BRANCH  16  17
ATOM     17  O   UNL     1     134.028 141.347 132.118  1.00  0.00    -0.396 OA
ATOM     18  H   UNL     1     133.711 140.782 131.364  1.00  0.00     0.210 HD
ENDBRANCH  16  17
ENDBRANCH  15  16
ENDBRANCH  14  15
ENDBRANCH  13  14
ENDBRANCH  12  13
ENDBRANCH  11  12
ENDBRANCH  10  11
ENDBRANCH   1  10
TORSDOF 15
ENDMDL
MODEL 7
REMARK VINA RESULT:    -3.508      3.118      6.098
REMARK INTER + INTRA:          -8.820
REMARK INTER:                  -6.361
REMARK INTRA:                  -2.459
REMARK UNBOUND:                -2.338
REMARK SMILES CCCCCCCCCCCCCCCCO
REMARK SMILES IDX 9 1 8 2 7 3 6 4 5 5 4 6 3 7 2 8 1 9 10 10 11 11 12 12 13 13
REMARK SMILES IDX 14 14 15 15 16 16 17 17
REMARK H PARENT 17 18
REMARK Flexibility Score: inf
ROOT
ATOM      1  C   UNL     1     139.622 140.258 129.512  1.00  0.00     0.000 C 
ENDROOT
BRANCH   1   2
ATOM      2  C   UNL     1     140.477 139.367 128.594  1.00  0.00    -0.000 C 
BRANCH   2   3
ATOM      3  C   UNL     1     140.983 138.079 129.279  1.00  0.00    -0.000 C 
BRANCH   3   4
ATOM      4  C   UNL     1     140.035 136.890 129.050  1.00  0.00    -0.000 C 
BRANCH   4   5
ATOM      5  C   UNL     1     140.327 135.711 129.991  1.00  0.00    -0.000 C 
BRANCH   5   6
ATOM      6  C   UNL     1     139.049 134.969 130.423  1.00  0.00    -0.000 C 
BRANCH   6   7
ATOM      7  C   UNL     1     137.825 135.368 129.583  1.00  0.00    -0.000 C 
BRANCH   7   8
ATOM      8  C   UNL     1     136.516 135.311 130.384  1.00  0.00    -0.003 C 
ATOM      9  C   UNL     1     135.435 136.169 129.733  1.00  0.00     0.004 C 
ENDBRANCH   7   8
ENDBRANCH   6   7
ENDBRANCH   5   6
ENDBRANCH   4   5
ENDBRANCH   3   4
ENDBRANCH   2   3
ENDBRANCH   1   2
BRANCH   1  10
ATOM     10  C   UNL     1     138.129 140.235 129.143  1.00  0.00     0.000 C 
BRANCH  10  11
ATOM     11  C   UNL     1     137.313 139.299 130.049  1.00  0.00     0.000 C 
BRANCH  11  12
ATOM     12  C   UNL     1     137.693 139.438 131.534  1.00  0.00     0.000 C 
BRANCH  12  13
ATOM     13  C   UNL     1     138.248 138.131 132.125  1.00  0.00     0.000 C 
BRANCH  13  14
ATOM     14  C   UNL     1     139.597 138.326 132.834  1.00  0.00     0.002 C 
BRANCH  14  15
ATOM     15  C   UNL     1     139.914 139.817 133.007  1.00  0.00     0.028 C 
BRANCH  15  16
ATOM     16  C   UNL     1     141.416 140.068 133.181  1.00  0.00     0.156 C 
BRANCH  16  17
ATOM     17  O   UNL     1     141.754 141.365 132.770  1.00  0.00    -0.396 OA
ATOM     18  H   UNL     1     141.085 141.979 133.173  1.00  0.00     0.210 HD
ENDBRANCH  16  17
ENDBRANCH  15  16
ENDBRANCH  14  15
ENDBRANCH  13  14
ENDBRANCH  12  13
ENDBRANCH  11  12
ENDBRANCH  10  11
ENDBRANCH   1  10
TORSDOF 15
ENDMDL
MODEL 8
REMARK VINA RESULT:    -3.473      1.807      4.925
REMARK INTER + INTRA:          -8.754
REMARK INTER:                  -6.576
REMARK INTRA:                  -2.178
REMARK UNBOUND:                -2.338
REMARK SMILES CCCCCCCCCCCCCCCCO
REMARK SMILES IDX 9 1 8 2 7 3 6 4 5 5 4 6 3 7 2 8 1 9 10 10 11 11 12 12 13 13
REMARK SMILES IDX 14 14 15 15 16 16 17 17
REMARK H PARENT 17 18
REMARK Flexibility Score: inf
ROOT
ATOM      1  C   UNL     1     136.327 139.139 130.522  1.00  0.00     0.000 C 
ENDROOT
BRANCH   1   2
ATOM      2  C   UNL     1     137.228 140.288 130.039  1.00  0.00    -0.000 C 
BRANCH   2   3
ATOM      3  C   UNL     1     138.344 139.835 129.073  1.00  0.00    -0.000 C 
BRANCH   3   4
ATOM      4  C   UNL     1     139.746 140.038 129.672  1.00  0.00    -0.000 C 
BRANCH   4   5
ATOM      5  C   UNL     1     140.274 138.782 130.382  1.00  0.00    -0.000 C 
BRANCH   5   6
ATOM      6  C   UNL     1     139.729 137.481 129.764  1.00  0.00    -0.000 C 
BRANCH   6   7
ATOM      7  C   UNL     1     139.186 136.508 130.823  1.00  0.00    -0.000 C 
BRANCH   7   8
ATOM      8  C   UNL     1     139.214 135.047 130.352  1.00  0.00    -0.003 C 
ATOM      9  C   UNL     1     139.316 134.962 128.832  1.00  0.00     0.004 C 
ENDBRANCH   7   8
ENDBRANCH   6   7
ENDBRANCH   5   6
ENDBRANCH   4   5
ENDBRANCH   3   4
ENDBRANCH   2   3
ENDBRANCH   1   2
BRANCH   1  10
ATOM     10  C   UNL     1     135.014 139.036 129.729  1.00  0.00     0.000 C 
BRANCH  10  11
ATOM     11  C   UNL     1     135.123 138.081 128.530  1.00  0.00     0.000 C 
BRANCH  11  12
ATOM     12  C   UNL     1     135.988 136.846 128.839  1.00  0.00     0.000 C 
BRANCH  12  13
ATOM     13  C   UNL     1     135.192 135.533 128.760  1.00  0.00     0.000 C 
BRANCH  13  14
ATOM     14  C   UNL     1     135.387 134.644 129.997  1.00  0.00     0.002 C 
BRANCH  14  15
ATOM     15  C   UNL     1     135.561 135.496 131.261  1.00  0.00     0.028 C 
BRANCH  15  16
ATOM     16  C   UNL     1     134.666 135.013 132.408  1.00  0.00     0.156 C 
BRANCH  16  17
ATOM     17  O   UNL     1     133.918 133.894 132.015  1.00  0.00    -0.396 OA
ATOM     18  H   UNL     1     133.170 133.805 132.663  1.00  0.00     0.210 HD
ENDBRANCH  16  17
ENDBRANCH  15  16
ENDBRANCH  14  15
ENDBRANCH  13  14
ENDBRANCH  12  13
ENDBRANCH  11  12
ENDBRANCH  10  11
ENDBRANCH   1  10
TORSDOF 15
ENDMDL
MODEL 9
REMARK VINA RESULT:    -3.152      2.167      2.588
REMARK INTER + INTRA:          -8.161
REMARK INTER:                  -5.809
REMARK INTRA:                  -2.352
REMARK UNBOUND:                -2.338
REMARK SMILES CCCCCCCCCCCCCCCCO
REMARK SMILES IDX 9 1 8 2 7 3 6 4 5 5 4 6 3 7 2 8 1 9 10 10 11 11 12 12 13 13
REMARK SMILES IDX 14 14 15 15 16 16 17 17
REMARK H PARENT 17 18
REMARK Flexibility Score: inf
ROOT
ATOM      1  C   UNL     1     135.433 136.352 130.153  1.00  0.00     0.000 C 
ENDROOT
BRANCH   1   2
ATOM      2  C   UNL     1     134.411 136.982 129.191  1.00  0.00    -0.000 C 
BRANCH   2   3
ATOM      3  C   UNL     1     135.036 137.498 127.877  1.00  0.00    -0.000 C 
BRANCH   3   4
ATOM      4  C   UNL     1     136.209 138.460 128.132  1.00  0.00    -0.000 C 
BRANCH   4   5
ATOM      5  C   UNL     1     135.751 139.916 128.316  1.00  0.00    -0.000 C 
BRANCH   5   6
ATOM      6  C   UNL     1     136.581 140.666 129.373  1.00  0.00    -0.000 C 
BRANCH   6   7
ATOM      7  C   UNL     1     137.801 139.860 129.846  1.00  0.00    -0.000 C 
BRANCH   7   8
ATOM      8  C   UNL     1     137.732 139.506 131.338  1.00  0.00    -0.003 C 
ATOM      9  C   UNL     1     139.127 139.449 131.955  1.00  0.00     0.004 C 
ENDBRANCH   7   8
ENDBRANCH   6   7
ENDBRANCH   5   6
ENDBRANCH   4   5
ENDBRANCH   3   4
ENDBRANCH   2   3
ENDBRANCH   1   2
BRANCH   1  10
ATOM     10  C   UNL     1     136.007 135.025 129.629  1.00  0.00     0.000 C 
BRANCH  10  11
ATOM     11  C   UNL     1     137.511 135.114 129.321  1.00  0.00     0.000 C 
BRANCH  11  12
ATOM     12  C   UNL     1     138.278 135.942 130.368  1.00  0.00     0.000 C 
BRANCH  12  13
ATOM     13  C   UNL     1     139.573 136.549 129.806  1.00  0.00     0.000 C 
BRANCH  13  14
ATOM     14  C   UNL     1     139.519 136.762 128.286  1.00  0.00     0.002 C 
BRANCH  14  15
ATOM     15  C   UNL     1     140.351 137.985 127.875  1.00  0.00     0.028 C 
BRANCH  15  16
ATOM     16  C   UNL     1     141.367 138.377 128.953  1.00  0.00     0.156 C 
BRANCH  16  17
ATOM     17  O   UNL     1     142.635 138.577 128.390  1.00  0.00    -0.396 OA
ATOM     18  H   UNL     1     142.495 139.021 127.513  1.00  0.00     0.210 HD
ENDBRANCH  16  17
ENDBRANCH  15  16
ENDBRANCH  14  15
ENDBRANCH  13  14
ENDBRANCH  12  13
ENDBRANCH  11  12
ENDBRANCH  10  11
ENDBRANCH   1  10
TORSDOF 15
ENDMDL
