MODEL 1
REMARK VINA RESULT:    -3.110      0.000      0.000
REMARK INTER + INTRA:          -3.437
REMARK INTER:                  -3.383
REMARK INTRA:                  -0.054
REMARK UNBOUND:                -0.054
REMARK SMILES C=C(C)[C@H]1CC[C@H](C)C[C@@H]1O
REMARK SMILES IDX 8 1 7 2 6 3 5 4 4 5 10 6 9 7 11 8 2 10 1 11 3 12
REMARK H PARENT 11 9
REMARK Flexibility Score: inf
ROOT
ATOM      1  C   UNL     1     -42.125  26.415   4.674  1.00  0.00     0.008 C 
ATOM      2  C   UNL     1     -41.517  25.353   5.596  1.00  0.00    -0.012 C 
ATOM      3  C   UNL     1     -41.761  25.718   7.073  1.00  0.00     0.004 C 
ATOM      4  C   UNL     1     -41.170  24.653   8.006  1.00  0.00     0.011 C 
ATOM      5  C   UNL     1     -41.750  23.259   7.691  1.00  0.00     0.043 C 
ATOM      6  C   UNL     1     -41.512  22.885   6.209  1.00  0.00     0.121 C 
ATOM      7  C   UNL     1     -42.102  23.963   5.280  1.00  0.00     0.035 C 
ENDROOT
BRANCH   6   8
ATOM      8  O   UNL     1     -42.122  21.649   5.937  1.00  0.00    -0.392 OA
ATOM      9  H   UNL     1     -42.622  21.389   6.755  1.00  0.00     0.210 HD
ENDBRANCH   6   8
BRANCH   5  10
ATOM     10  C   UNL     1     -41.186  22.206   8.637  1.00  0.00    -0.075 C 
ATOM     11  C   UNL     1     -39.913  22.261   9.065  1.00  0.00     0.008 C 
ATOM     12  C   UNL     1     -42.056  21.070   9.110  1.00  0.00     0.039 C 
ENDBRANCH   5  10
TORSDOF 2
ENDMDL
MODEL 2
REMARK VINA RESULT:    -0.854      1.495      2.334
REMARK INTER + INTRA:          -0.982
REMARK INTER:                  -1.336
REMARK INTRA:                   0.353
REMARK UNBOUND:                -0.054
REMARK SMILES C=C(C)[C@H]1CC[C@H](C)C[C@@H]1O
REMARK SMILES IDX 8 1 7 2 6 3 5 4 4 5 10 6 9 7 11 8 2 10 1 11 3 12
REMARK H PARENT 11 9
REMARK Flexibility Score: inf
ROOT
ATOM      1  C   UNL     1     -41.972  26.400   4.596  1.00  0.00     0.008 C 
ATOM      2  C   UNL     1     -42.102  25.262   5.612  1.00  0.00    -0.012 C 
ATOM      3  C   UNL     1     -41.964  23.896   4.913  1.00  0.00     0.004 C 
ATOM      4  C   UNL     1     -42.076  22.748   5.924  1.00  0.00     0.011 C 
ATOM      5  C   UNL     1     -41.024  22.892   7.042  1.00  0.00     0.043 C 
ATOM      6  C   UNL     1     -41.152  24.262   7.749  1.00  0.00     0.121 C 
ATOM      7  C   UNL     1     -41.046  25.408   6.725  1.00  0.00     0.035 C 
ENDROOT
BRANCH   6   8
ATOM      8  O   UNL     1     -40.131  24.390   8.704  1.00  0.00    -0.392 OA
ATOM      9  H   UNL     1     -40.151  25.331   9.022  1.00  0.00     0.210 HD
ENDBRANCH   6   8
BRANCH   5  10
ATOM     10  C   UNL     1     -41.115  21.735   8.031  1.00  0.00    -0.075 C 
ATOM     11  C   UNL     1     -42.104  20.827   7.955  1.00  0.00     0.008 C 
ATOM     12  C   UNL     1     -40.088  21.592   9.124  1.00  0.00     0.039 C 
ENDBRANCH   5  10
TORSDOF 2
ENDMDL
MODEL 3
REMARK VINA RESULT:    -0.116      2.256      3.389
REMARK INTER + INTRA:          -0.180
REMARK INTER:                  -0.175
REMARK INTRA:                  -0.005
REMARK UNBOUND:                -0.054
REMARK SMILES C=C(C)[C@H]1CC[C@H](C)C[C@@H]1O
REMARK SMILES IDX 8 1 7 2 6 3 5 4 4 5 10 6 9 7 11 8 2 10 1 11 3 12
REMARK H PARENT 11 9
REMARK Flexibility Score: inf
ROOT
ATOM      1  C   UNL     1     -36.951  25.525   7.638  1.00  0.00     0.008 C 
ATOM      2  C   UNL     1     -38.054  24.489   7.404  1.00  0.00    -0.012 C 
ATOM      3  C   UNL     1     -37.987  23.377   8.468  1.00  0.00     0.004 C 
ATOM      4  C   UNL     1     -39.098  22.342   8.253  1.00  0.00     0.011 C 
ATOM      5  C   UNL     1     -40.487  23.013   8.259  1.00  0.00     0.043 C 
ATOM      6  C   UNL     1     -40.564  24.133   7.194  1.00  0.00     0.121 C 
ATOM      7  C   UNL     1     -39.440  25.163   7.415  1.00  0.00     0.035 C 
ENDROOT
BRANCH   6   8
ATOM      8  O   UNL     1     -41.810  24.774   7.282  1.00  0.00    -0.392 OA
ATOM      9  H   UNL     1     -42.502  24.083   7.109  1.00  0.00     0.210 HD
ENDBRANCH   6   8
BRANCH   5  10
ATOM     10  C   UNL     1     -41.593  21.982   8.074  1.00  0.00    -0.075 C 
ATOM     11  C   UNL     1     -42.114  21.321   9.123  1.00  0.00     0.008 C 
ATOM     12  C   UNL     1     -42.125  21.681   6.697  1.00  0.00     0.039 C 
ENDBRANCH   5  10
TORSDOF 2
ENDMDL
