MODEL 1
REMARK VINA RESULT:    -5.391      0.000      0.000
REMARK INTER + INTRA:          -9.694
REMARK INTER:                  -8.543
REMARK INTRA:                  -1.152
REMARK UNBOUND:                -1.152
REMARK SMILES CCCCCCCCCCCC(=O)[O-]
REMARK SMILES IDX 7 1 8 2 9 3 10 4 11 5 12 6 13 7 14 8 6 9 5 10 4 11 3 12 2 13
REMARK SMILES IDX 1 14
REMARK H PARENT
REMARK Flexibility Score: inf
ROOT
ATOM      1  C   UNL     1      31.928  -1.894   8.493  1.00  0.00     0.000 C 
ENDROOT
BRANCH   1   2
ATOM      2  C   UNL     1      32.218  -0.408   8.235  1.00  0.00     0.000 C 
BRANCH   2   3
ATOM      3  C   UNL     1      30.952   0.464   8.327  1.00  0.00     0.000 C 
BRANCH   3   4
ATOM      4  C   UNL     1      29.679  -0.366   8.553  1.00  0.00     0.006 C 
BRANCH   4   5
ATOM      5  C   UNL     1      28.543   0.456   9.175  1.00  0.00     0.053 C 
BRANCH   5   6
ATOM      6  C   UNL     1      28.814   0.706  10.626  1.00  0.00     0.041 C 
ATOM      7  O   UNL     1      28.665   1.859  11.108  1.00  0.00    -0.550 OA
ATOM      8  O   UNL     1      29.183  -0.345  11.456  1.00  0.00    -0.550 OA
ENDBRANCH   5   6
ENDBRANCH   4   5
ENDBRANCH   3   4
ENDBRANCH   2   3
ENDBRANCH   1   2
BRANCH   1   9
ATOM      9  C   UNL     1      32.235  -2.776   7.271  1.00  0.00     0.000 C 
BRANCH   9  10
ATOM     10  C   UNL     1      31.230  -2.569   6.125  1.00  0.00    -0.000 C 
BRANCH  10  11
ATOM     11  C   UNL     1      29.914  -3.328   6.350  1.00  0.00    -0.000 C 
BRANCH  11  12
ATOM     12  C   UNL     1      28.755  -2.645   5.613  1.00  0.00    -0.000 C 
BRANCH  12  13
ATOM     13  C   UNL     1      27.494  -2.609   6.484  1.00  0.00    -0.003 C 
ATOM     14  C   UNL     1      26.743  -1.292   6.314  1.00  0.00     0.004 C 
ENDBRANCH  12  13
ENDBRANCH  11  12
ENDBRANCH  10  11
ENDBRANCH   9  10
ENDBRANCH   1   9
TORSDOF 10
ENDMDL
MODEL 2
REMARK VINA RESULT:    -5.322      1.772      3.707
REMARK INTER + INTRA:          -9.584
REMARK INTER:                  -8.461
REMARK INTRA:                  -1.123
REMARK UNBOUND:                -1.152
REMARK SMILES CCCCCCCCCCCC(=O)[O-]
REMARK SMILES IDX 7 1 8 2 9 3 10 4 11 5 12 6 13 7 14 8 6 9 5 10 4 11 3 12 2 13
REMARK SMILES IDX 1 14
REMARK H PARENT
REMARK Flexibility Score: inf
ROOT
ATOM      1  C   UNL     1      27.545  -1.194   7.494  1.00  0.00     0.000 C 
ENDROOT
BRANCH   1   2
ATOM      2  C   UNL     1      28.563  -0.096   7.839  1.00  0.00     0.000 C 
BRANCH   2   3
ATOM      3  C   UNL     1      28.430   0.396   9.291  1.00  0.00     0.000 C 
BRANCH   3   4
ATOM      4  C   UNL     1      29.711   0.172  10.110  1.00  0.00     0.006 C 
BRANCH   4   5
ATOM      5  C   UNL     1      30.876  -0.337   9.253  1.00  0.00     0.053 C 
BRANCH   5   6
ATOM      6  C   UNL     1      31.810  -1.166  10.079  1.00  0.00     0.041 C 
ATOM      7  O   UNL     1      32.073  -0.831  11.265  1.00  0.00    -0.550 OA
ATOM      8  O   UNL     1      32.350  -2.334   9.558  1.00  0.00    -0.550 OA
ENDBRANCH   5   6
ENDBRANCH   4   5
ENDBRANCH   3   4
ENDBRANCH   2   3
ENDBRANCH   1   2
BRANCH   1   9
ATOM      9  C   UNL     1      27.430  -1.438   5.980  1.00  0.00     0.000 C 
BRANCH   9  10
ATOM     10  C   UNL     1      28.744  -1.940   5.360  1.00  0.00    -0.000 C 
BRANCH  10  11
ATOM     11  C   UNL     1      29.167  -3.313   5.903  1.00  0.00    -0.000 C 
BRANCH  11  12
ATOM     12  C   UNL     1      30.489  -3.214   6.673  1.00  0.00    -0.000 C 
BRANCH  12  13
ATOM     13  C   UNL     1      31.368  -2.089   6.115  1.00  0.00    -0.003 C 
ATOM     14  C   UNL     1      32.793  -2.574   5.866  1.00  0.00     0.004 C 
ENDBRANCH  12  13
ENDBRANCH  11  12
ENDBRANCH  10  11
ENDBRANCH   9  10
ENDBRANCH   1   9
TORSDOF 10
ENDMDL
MODEL 3
REMARK VINA RESULT:    -5.283     13.760     15.860
REMARK INTER + INTRA:          -9.522
REMARK INTER:                  -8.439
REMARK INTRA:                  -1.084
REMARK UNBOUND:                -1.152
REMARK SMILES CCCCCCCCCCCC(=O)[O-]
REMARK SMILES IDX 7 1 8 2 9 3 10 4 11 5 12 6 13 7 14 8 6 9 5 10 4 11 3 12 2 13
REMARK SMILES IDX 1 14
REMARK H PARENT
REMARK Flexibility Score: inf
ROOT
ATOM      1  C   UNL     1      15.493   2.993  12.459  1.00  0.00     0.000 C 
ENDROOT
BRANCH   1   2
ATOM      2  C   UNL     1      15.419   2.773  13.978  1.00  0.00     0.000 C 
BRANCH   2   3
ATOM      3  C   UNL     1      14.200   1.929  14.393  1.00  0.00     0.000 C 
BRANCH   3   4
ATOM      4  C   UNL     1      13.390   2.580  15.525  1.00  0.00     0.006 C 
BRANCH   4   5
ATOM      5  C   UNL     1      13.617   1.898  16.880  1.00  0.00     0.053 C 
BRANCH   5   6
ATOM      6  C   UNL     1      14.766   2.533  17.598  1.00  0.00     0.041 C 
ATOM      7  O   UNL     1      15.043   3.746  17.402  1.00  0.00    -0.550 OA
ATOM      8  O   UNL     1      15.500   1.800  18.522  1.00  0.00    -0.550 OA
ENDBRANCH   5   6
ENDBRANCH   4   5
ENDBRANCH   3   4
ENDBRANCH   2   3
ENDBRANCH   1   2
BRANCH   1   9
ATOM      9  C   UNL     1      15.736   1.686  11.685  1.00  0.00     0.000 C 
BRANCH   9  10
ATOM     10  C   UNL     1      17.106   1.659  10.987  1.00  0.00    -0.000 C 
BRANCH  10  11
ATOM     11  C   UNL     1      18.127   0.781  11.726  1.00  0.00    -0.000 C 
BRANCH  11  12
ATOM     12  C   UNL     1      17.423  -0.220  12.650  1.00  0.00    -0.000 C 
BRANCH  12  13
ATOM     13  C   UNL     1      18.160  -0.347  13.988  1.00  0.00    -0.003 C 
ATOM     14  C   UNL     1      17.196  -0.225  15.164  1.00  0.00     0.004 C 
ENDBRANCH  12  13
ENDBRANCH  11  12
ENDBRANCH  10  11
ENDBRANCH   9  10
ENDBRANCH   1   9
TORSDOF 10
ENDMDL
MODEL 4
REMARK VINA RESULT:    -5.260     15.251     17.735
REMARK INTER + INTRA:          -9.486
REMARK INTER:                  -8.301
REMARK INTRA:                  -1.185
REMARK UNBOUND:                -1.152
REMARK SMILES CCCCCCCCCCCC(=O)[O-]
REMARK SMILES IDX 7 1 8 2 9 3 10 4 11 5 12 6 13 7 14 8 6 9 5 10 4 11 3 12 2 13
REMARK SMILES IDX 1 14
REMARK H PARENT
REMARK Flexibility Score: inf
ROOT
ATOM      1  C   UNL     1      17.014  -0.034  19.342  1.00  0.00     0.000 C 
ENDROOT
BRANCH   1   2
ATOM      2  C   UNL     1      16.711  -1.530  19.165  1.00  0.00     0.000 C 
BRANCH   2   3
ATOM      3  C   UNL     1      17.084  -2.046  17.764  1.00  0.00     0.000 C 
BRANCH   3   4
ATOM      4  C   UNL     1      16.131  -1.533  16.672  1.00  0.00     0.006 C 
BRANCH   4   5
ATOM      5  C   UNL     1      16.853  -0.708  15.600  1.00  0.00     0.053 C 
BRANCH   5   6
ATOM      6  C   UNL     1      16.198   0.628  15.441  1.00  0.00     0.041 C 
ATOM      7  O   UNL     1      16.454   1.560  16.249  1.00  0.00    -0.550 OA
ATOM      8  O   UNL     1      15.344   0.861  14.370  1.00  0.00    -0.550 OA
ENDBRANCH   5   6
ENDBRANCH   4   5
ENDBRANCH   3   4
ENDBRANCH   2   3
ENDBRANCH   1   2
BRANCH   1   9
ATOM      9  C   UNL     1      15.832   0.740  19.947  1.00  0.00     0.000 C 
BRANCH   9  10
ATOM     10  C   UNL     1      14.469   0.170  19.518  1.00  0.00    -0.000 C 
BRANCH  10  11
ATOM     11  C   UNL     1      13.791   1.017  18.431  1.00  0.00    -0.000 C 
BRANCH  11  12
ATOM     12  C   UNL     1      14.055   2.511  18.658  1.00  0.00    -0.000 C 
BRANCH  12  13
ATOM     13  C   UNL     1      13.105   3.371  17.816  1.00  0.00    -0.003 C 
ATOM     14  C   UNL     1      13.174   2.986  16.341  1.00  0.00     0.004 C 
ENDBRANCH  12  13
ENDBRANCH  11  12
ENDBRANCH  10  11
ENDBRANCH   9  10
ENDBRANCH   1   9
TORSDOF 10
ENDMDL
MODEL 5
REMARK VINA RESULT:    -5.234     14.831     17.090
REMARK INTER + INTRA:          -9.446
REMARK INTER:                  -8.872
REMARK INTRA:                  -0.574
REMARK UNBOUND:                -1.152
REMARK SMILES CCCCCCCCCCCC(=O)[O-]
REMARK SMILES IDX 7 1 8 2 9 3 10 4 11 5 12 6 13 7 14 8 6 9 5 10 4 11 3 12 2 13
REMARK SMILES IDX 1 14
REMARK H PARENT
REMARK Flexibility Score: inf
ROOT
ATOM      1  C   UNL     1      13.707   2.135  15.798  1.00  0.00     0.000 C 
ENDROOT
BRANCH   1   2
ATOM      2  C   UNL     1      13.167   3.367  16.541  1.00  0.00     0.000 C 
BRANCH   2   3
ATOM      3  C   UNL     1      13.248   3.214  18.070  1.00  0.00     0.000 C 
BRANCH   3   4
ATOM      4  C   UNL     1      13.696   1.809  18.501  1.00  0.00     0.006 C 
BRANCH   4   5
ATOM      5  C   UNL     1      14.769   1.843  19.596  1.00  0.00     0.053 C 
BRANCH   5   6
ATOM      6  C   UNL     1      15.915   0.952  19.233  1.00  0.00     0.041 C 
ATOM      7  O   UNL     1      16.697   1.275  18.299  1.00  0.00    -0.550 OA
ATOM      8  O   UNL     1      16.151  -0.210  19.957  1.00  0.00    -0.550 OA
ENDBRANCH   5   6
ENDBRANCH   4   5
ENDBRANCH   3   4
ENDBRANCH   2   3
ENDBRANCH   1   2
BRANCH   1   9
ATOM      9  C   UNL     1      15.110   2.367  15.214  1.00  0.00     0.000 C 
BRANCH   9  10
ATOM     10  C   UNL     1      15.075   2.772  13.731  1.00  0.00    -0.000 C 
BRANCH  10  11
ATOM     11  C   UNL     1      15.466   1.618  12.795  1.00  0.00    -0.000 C 
BRANCH  11  12
ATOM     12  C   UNL     1      15.848   2.145  11.406  1.00  0.00    -0.000 C 
BRANCH  12  13
ATOM     13  C   UNL     1      17.147   1.498  10.910  1.00  0.00    -0.003 C 
ATOM     14  C   UNL     1      17.735   0.565  11.964  1.00  0.00     0.004 C 
ENDBRANCH  12  13
ENDBRANCH  11  12
ENDBRANCH  10  11
ENDBRANCH   9  10
ENDBRANCH   1   9
TORSDOF 10
ENDMDL
MODEL 6
REMARK VINA RESULT:    -5.228     15.919     17.844
REMARK INTER + INTRA:          -9.436
REMARK INTER:                  -8.206
REMARK INTRA:                  -1.231
REMARK UNBOUND:                -1.152
REMARK SMILES CCCCCCCCCCCC(=O)[O-]
REMARK SMILES IDX 7 1 8 2 9 3 10 4 11 5 12 6 13 7 14 8 6 9 5 10 4 11 3 12 2 13
REMARK SMILES IDX 1 14
REMARK H PARENT
REMARK Flexibility Score: inf
ROOT
ATOM      1  C   UNL     1      16.669  -1.433  19.116  1.00  0.00     0.000 C 
ENDROOT
BRANCH   1   2
ATOM      2  C   UNL     1      16.810  -1.577  17.593  1.00  0.00     0.000 C 
BRANCH   2   3
ATOM      3  C   UNL     1      16.950  -0.219  16.883  1.00  0.00     0.000 C 
BRANCH   3   4
ATOM      4  C   UNL     1      15.856   0.012  15.828  1.00  0.00     0.006 C 
BRANCH   4   5
ATOM      5  C   UNL     1      15.766   1.477  15.383  1.00  0.00     0.053 C 
BRANCH   5   6
ATOM      6  C   UNL     1      14.666   1.652  14.383  1.00  0.00     0.041 C 
ATOM      7  O   UNL     1      14.734   1.084  13.261  1.00  0.00    -0.550 OA
ATOM      8  O   UNL     1      13.544   2.403  14.708  1.00  0.00    -0.550 OA
ENDBRANCH   5   6
ENDBRANCH   4   5
ENDBRANCH   3   4
ENDBRANCH   2   3
ENDBRANCH   1   2
BRANCH   1   9
ATOM      9  C   UNL     1      16.602   0.036  19.566  1.00  0.00     0.000 C 
BRANCH   9  10
ATOM     10  C   UNL     1      15.226   0.418  20.136  1.00  0.00    -0.000 C 
BRANCH  10  11
ATOM     11  C   UNL     1      14.756   1.802  19.664  1.00  0.00    -0.000 C 
BRANCH  11  12
ATOM     12  C   UNL     1      13.781   1.677  18.487  1.00  0.00    -0.000 C 
BRANCH  12  13
ATOM     13  C   UNL     1      13.208   3.045  18.099  1.00  0.00    -0.003 C 
ATOM     14  C   UNL     1      14.320   4.033  17.762  1.00  0.00     0.004 C 
ENDBRANCH  12  13
ENDBRANCH  11  12
ENDBRANCH  10  11
ENDBRANCH   9  10
ENDBRANCH   1   9
TORSDOF 10
ENDMDL
MODEL 7
REMARK VINA RESULT:    -5.205     13.781     16.253
REMARK INTER + INTRA:          -9.400
REMARK INTER:                  -8.520
REMARK INTRA:                  -0.880
REMARK UNBOUND:                -1.152
REMARK SMILES CCCCCCCCCCCC(=O)[O-]
REMARK SMILES IDX 7 1 8 2 9 3 10 4 11 5 12 6 13 7 14 8 6 9 5 10 4 11 3 12 2 13
REMARK SMILES IDX 1 14
REMARK H PARENT
REMARK Flexibility Score: inf
ROOT
ATOM      1  C   UNL     1      15.499   2.998  12.802  1.00  0.00     0.000 C 
ENDROOT
BRANCH   1   2
ATOM      2  C   UNL     1      15.549   1.766  11.885  1.00  0.00     0.000 C 
BRANCH   2   3
ATOM      3  C   UNL     1      16.854   1.689  11.073  1.00  0.00     0.000 C 
BRANCH   3   4
ATOM      4  C   UNL     1      17.943   0.868  11.781  1.00  0.00     0.006 C 
BRANCH   4   5
ATOM      5  C   UNL     1      17.368  -0.300  12.590  1.00  0.00     0.053 C 
BRANCH   5   6
ATOM      6  C   UNL     1      17.991  -0.352  13.949  1.00  0.00     0.041 C 
ATOM      7  O   UNL     1      19.244  -0.327  14.073  1.00  0.00    -0.550 OA
ATOM      8  O   UNL     1      17.188  -0.378  15.082  1.00  0.00    -0.550 OA
ENDBRANCH   5   6
ENDBRANCH   4   5
ENDBRANCH   3   4
ENDBRANCH   2   3
ENDBRANCH   1   2
BRANCH   1   9
ATOM      9  C   UNL     1      15.493   2.623  14.293  1.00  0.00     0.000 C 
BRANCH   9  10
ATOM     10  C   UNL     1      14.257   1.799  14.692  1.00  0.00    -0.000 C 
BRANCH  10  11
ATOM     11  C   UNL     1      13.226   2.625  15.476  1.00  0.00    -0.000 C 
BRANCH  11  12
ATOM     12  C   UNL     1      13.892   3.375  16.636  1.00  0.00    -0.000 C 
BRANCH  12  13
ATOM     13  C   UNL     1      13.255   2.991  17.977  1.00  0.00    -0.003 C 
ATOM     14  C   UNL     1      13.654   1.578  18.393  1.00  0.00     0.004 C 
ENDBRANCH  12  13
ENDBRANCH  11  12
ENDBRANCH  10  11
ENDBRANCH   9  10
ENDBRANCH   1   9
TORSDOF 10
ENDMDL
MODEL 8
REMARK VINA RESULT:    -5.180     13.574     15.817
REMARK INTER + INTRA:          -9.360
REMARK INTER:                  -8.414
REMARK INTRA:                  -0.946
REMARK UNBOUND:                -1.152
REMARK SMILES CCCCCCCCCCCC(=O)[O-]
REMARK SMILES IDX 7 1 8 2 9 3 10 4 11 5 12 6 13 7 14 8 6 9 5 10 4 11 3 12 2 13
REMARK SMILES IDX 1 14
REMARK H PARENT
REMARK Flexibility Score: inf
ROOT
ATOM      1  C   UNL     1      17.044   1.692  11.383  1.00  0.00     0.000 C 
ENDROOT
BRANCH   1   2
ATOM      2  C   UNL     1      17.393   0.218  11.645  1.00  0.00     0.000 C 
BRANCH   2   3
ATOM      3  C   UNL     1      18.066   0.006  13.013  1.00  0.00     0.000 C 
BRANCH   3   4
ATOM      4  C   UNL     1      17.067  -0.412  14.104  1.00  0.00     0.006 C 
BRANCH   4   5
ATOM      5  C   UNL     1      17.683  -0.385  15.508  1.00  0.00     0.053 C 
BRANCH   5   6
ATOM      6  C   UNL     1      16.925  -1.289  16.428  1.00  0.00     0.041 C 
ATOM      7  O   UNL     1      17.448  -2.359  16.838  1.00  0.00    -0.550 OA
ATOM      8  O   UNL     1      15.661  -0.926  16.874  1.00  0.00    -0.550 OA
ENDBRANCH   5   6
ENDBRANCH   4   5
ENDBRANCH   3   4
ENDBRANCH   2   3
ENDBRANCH   1   2
BRANCH   1   9
ATOM      9  C   UNL     1      15.591   2.029  11.759  1.00  0.00     0.000 C 
BRANCH   9  10
ATOM     10  C   UNL     1      15.488   2.808  13.081  1.00  0.00    -0.000 C 
BRANCH  10  11
ATOM     11  C   UNL     1      14.504   2.165  14.069  1.00  0.00    -0.000 C 
BRANCH  11  12
ATOM     12  C   UNL     1      14.896   2.483  15.518  1.00  0.00    -0.000 C 
BRANCH  12  13
ATOM     13  C   UNL     1      13.765   2.119  16.486  1.00  0.00    -0.003 C 
ATOM     14  C   UNL     1      13.093   3.371  17.044  1.00  0.00     0.004 C 
ENDBRANCH  12  13
ENDBRANCH  11  12
ENDBRANCH  10  11
ENDBRANCH   9  10
ENDBRANCH   1   9
TORSDOF 10
ENDMDL
MODEL 9
REMARK VINA RESULT:    -5.163     15.413     18.077
REMARK INTER + INTRA:          -9.333
REMARK INTER:                  -8.011
REMARK INTRA:                  -1.322
REMARK UNBOUND:                -1.152
REMARK SMILES CCCCCCCCCCCC(=O)[O-]
REMARK SMILES IDX 7 1 8 2 9 3 10 4 11 5 12 6 13 7 14 8 6 9 5 10 4 11 3 12 2 13
REMARK SMILES IDX 1 14
REMARK H PARENT
REMARK Flexibility Score: inf
ROOT
ATOM      1  C   UNL     1      14.220   3.793  17.419  1.00  0.00     0.000 C 
ENDROOT
BRANCH   1   2
ATOM      2  C   UNL     1      13.087   3.372  16.471  1.00  0.00     0.000 C 
BRANCH   2   3
ATOM      3  C   UNL     1      13.552   2.358  15.411  1.00  0.00     0.000 C 
BRANCH   3   4
ATOM      4  C   UNL     1      15.080   2.198  15.375  1.00  0.00     0.006 C 
BRANCH   4   5
ATOM      5  C   UNL     1      15.529   0.763  15.672  1.00  0.00     0.053 C 
BRANCH   5   6
ATOM      6  C   UNL     1      16.964   0.742  16.099  1.00  0.00     0.041 C 
ATOM      7  O   UNL     1      17.358   1.488  17.033  1.00  0.00    -0.550 OA
ATOM      8  O   UNL     1      17.856  -0.138  15.498  1.00  0.00    -0.550 OA
ENDBRANCH   5   6
ENDBRANCH   4   5
ENDBRANCH   3   4
ENDBRANCH   2   3
ENDBRANCH   1   2
BRANCH   1   9
ATOM      9  C   UNL     1      13.955   3.377  18.876  1.00  0.00     0.000 C 
BRANCH   9  10
ATOM     10  C   UNL     1      14.712   2.099  19.274  1.00  0.00    -0.000 C 
BRANCH  10  11
ATOM     11  C   UNL     1      13.922   0.821  18.956  1.00  0.00    -0.000 C 
BRANCH  11  12
ATOM     12  C   UNL     1      14.517  -0.388  19.688  1.00  0.00    -0.000 C 
BRANCH  12  13
ATOM     13  C   UNL     1      16.047  -0.298  19.745  1.00  0.00    -0.003 C 
ATOM     14  C   UNL     1      16.696  -1.514  19.090  1.00  0.00     0.004 C 
ENDBRANCH  12  13
ENDBRANCH  11  12
ENDBRANCH  10  11
ENDBRANCH   9  10
ENDBRANCH   1   9
TORSDOF 10
ENDMDL
