MODEL 1
REMARK VINA RESULT:    -4.460      0.000      0.000
REMARK INTER + INTRA:          -9.217
REMARK INTER:                  -8.110
REMARK INTRA:                  -1.107
REMARK UNBOUND:                -1.107
REMARK SMILES CCCCCCCCCCCCCCCC(=O)[O-]
REMARK SMILES IDX 9 1 10 2 11 3 12 4 13 5 14 6 15 7 16 8 17 9 18 10 8 11 7 12
REMARK SMILES IDX 6 13 5 14 4 15 3 16 2 17 1 18
REMARK H PARENT
REMARK Flexibility Score: inf
ROOT
ATOM      1  C   UNL     1      22.429   3.306  20.477  1.00  0.00     0.000 C 
ENDROOT
BRANCH   1   2
ATOM      2  C   UNL     1      22.984   4.669  20.023  1.00  0.00     0.000 C 
BRANCH   2   3
ATOM      3  C   UNL     1      23.014   4.826  18.493  1.00  0.00     0.000 C 
BRANCH   3   4
ATOM      4  C   UNL     1      23.035   6.299  18.052  1.00  0.00     0.000 C 
BRANCH   4   5
ATOM      5  C   UNL     1      22.980   6.459  16.524  1.00  0.00     0.000 C 
BRANCH   5   6
ATOM      6  C   UNL     1      24.142   7.324  16.021  1.00  0.00     0.006 C 
BRANCH   6   7
ATOM      7  C   UNL     1      25.229   6.460  15.372  1.00  0.00     0.053 C 
BRANCH   7   8
ATOM      8  C   UNL     1      25.377   6.806  13.924  1.00  0.00     0.041 C 
ATOM      9  O   UNL     1      26.472   7.243  13.485  1.00  0.00    -0.550 OA
ATOM     10  O   UNL     1      24.289   6.690  13.068  1.00  0.00    -0.550 OA
ENDBRANCH   7   8
ENDBRANCH   6   7
ENDBRANCH   5   6
ENDBRANCH   4   5
ENDBRANCH   3   4
ENDBRANCH   2   3
ENDBRANCH   1   2
BRANCH   1  11
ATOM     11  C   UNL     1      23.005   2.766  21.799  1.00  0.00     0.000 C 
BRANCH  11  12
ATOM     12  C   UNL     1      23.872   1.510  21.608  1.00  0.00    -0.000 C 
BRANCH  12  13
ATOM     13  C   UNL     1      24.114   1.169  20.126  1.00  0.00    -0.000 C 
BRANCH  13  14
ATOM     14  C   UNL     1      25.577   1.290  19.649  1.00  0.00    -0.000 C 
BRANCH  14  15
ATOM     15  C   UNL     1      25.941   2.632  18.988  1.00  0.00    -0.000 C 
BRANCH  15  16
ATOM     16  C   UNL     1      27.429   2.792  18.623  1.00  0.00    -0.000 C 
BRANCH  16  17
ATOM     17  C   UNL     1      28.025   1.565  17.899  1.00  0.00    -0.003 C 
ATOM     18  C   UNL     1      29.493   1.761  17.518  1.00  0.00     0.004 C 
ENDBRANCH  16  17
ENDBRANCH  15  16
ENDBRANCH  14  15
ENDBRANCH  13  14
ENDBRANCH  12  13
ENDBRANCH  11  12
ENDBRANCH   1  11
TORSDOF 14
ENDMDL
MODEL 2
REMARK VINA RESULT:    -4.390     11.712     14.541
REMARK INTER + INTRA:          -9.090
REMARK INTER:                  -6.459
REMARK INTRA:                  -2.630
REMARK UNBOUND:                -1.107
REMARK SMILES CCCCCCCCCCCCCCCC(=O)[O-]
REMARK SMILES IDX 9 1 10 2 11 3 12 4 13 5 14 6 15 7 16 8 17 9 18 10 8 11 7 12
REMARK SMILES IDX 6 13 5 14 4 15 3 16 2 17 1 18
REMARK H PARENT
REMARK Flexibility Score: inf
ROOT
ATOM      1  C   UNL     1      32.035  -3.709   7.690  1.00  0.00     0.000 C 
ENDROOT
BRANCH   1   2
ATOM      2  C   UNL     1      30.879  -4.145   8.609  1.00  0.00     0.000 C 
BRANCH   2   3
ATOM      3  C   UNL     1      29.759  -4.883   7.857  1.00  0.00     0.000 C 
BRANCH   3   4
ATOM      4  C   UNL     1      29.782  -4.606   6.344  1.00  0.00     0.000 C 
BRANCH   4   5
ATOM      5  C   UNL     1      28.607  -3.727   5.885  1.00  0.00     0.000 C 
BRANCH   5   6
ATOM      6  C   UNL     1      29.057  -2.729   4.813  1.00  0.00     0.006 C 
BRANCH   6   7
ATOM      7  C   UNL     1      30.461  -3.069   4.299  1.00  0.00     0.053 C 
BRANCH   7   8
ATOM      8  C   UNL     1      31.068  -1.886   3.614  1.00  0.00     0.041 C 
ATOM      9  O   UNL     1      30.481  -0.773   3.630  1.00  0.00    -0.550 OA
ATOM     10  O   UNL     1      32.262  -2.025   2.917  1.00  0.00    -0.550 OA
ENDBRANCH   7   8
ENDBRANCH   6   7
ENDBRANCH   5   6
ENDBRANCH   4   5
ENDBRANCH   3   4
ENDBRANCH   2   3
ENDBRANCH   1   2
BRANCH   1  11
ATOM     11  C   UNL     1      32.190  -2.189   7.500  1.00  0.00     0.000 C 
BRANCH  11  12
ATOM     12  C   UNL     1      31.101  -1.379   8.223  1.00  0.00    -0.000 C 
BRANCH  12  13
ATOM     13  C   UNL     1      30.344  -0.421   7.285  1.00  0.00    -0.000 C 
BRANCH  13  14
ATOM     14  C   UNL     1      28.832  -0.281   7.562  1.00  0.00    -0.000 C 
BRANCH  14  15
ATOM     15  C   UNL     1      28.367  -0.797   8.936  1.00  0.00    -0.000 C 
BRANCH  15  16
ATOM     16  C   UNL     1      27.479  -2.054   8.889  1.00  0.00    -0.000 C 
BRANCH  16  17
ATOM     17  C   UNL     1      27.470  -2.856  10.209  1.00  0.00    -0.003 C 
ATOM     18  C   UNL     1      26.371  -2.401  11.169  1.00  0.00     0.004 C 
ENDBRANCH  16  17
ENDBRANCH  15  16
ENDBRANCH  14  15
ENDBRANCH  13  14
ENDBRANCH  12  13
ENDBRANCH  11  12
ENDBRANCH   1  11
TORSDOF 14
ENDMDL
MODEL 3
REMARK VINA RESULT:    -4.362      1.515      3.194
REMARK INTER + INTRA:          -9.038
REMARK INTER:                  -7.471
REMARK INTRA:                  -1.567
REMARK UNBOUND:                -1.107
REMARK SMILES CCCCCCCCCCCCCCCC(=O)[O-]
REMARK SMILES IDX 9 1 10 2 11 3 12 4 13 5 14 6 15 7 16 8 17 9 18 10 8 11 7 12
REMARK SMILES IDX 6 13 5 14 4 15 3 16 2 17 1 18
REMARK H PARENT
REMARK Flexibility Score: inf
ROOT
ATOM      1  C   UNL     1      23.217   5.852  17.055  1.00  0.00     0.000 C 
ENDROOT
BRANCH   1   2
ATOM      2  C   UNL     1      23.633   7.049  16.180  1.00  0.00     0.000 C 
BRANCH   2   3
ATOM      3  C   UNL     1      24.895   6.772  15.345  1.00  0.00     0.000 C 
BRANCH   3   4
ATOM      4  C   UNL     1      25.656   5.523  15.820  1.00  0.00     0.000 C 
BRANCH   4   5
ATOM      5  C   UNL     1      25.784   4.455  14.723  1.00  0.00     0.000 C 
BRANCH   5   6
ATOM      6  C   UNL     1      24.762   4.692  13.605  1.00  0.00     0.006 C 
BRANCH   6   7
ATOM      7  C   UNL     1      25.452   4.790  12.241  1.00  0.00     0.053 C 
BRANCH   7   8
ATOM      8  C   UNL     1      25.582   6.220  11.821  1.00  0.00     0.041 C 
ATOM      9  O   UNL     1      26.720   6.742  11.694  1.00  0.00    -0.550 OA
ATOM     10  O   UNL     1      24.444   6.990  11.616  1.00  0.00    -0.550 OA
ENDBRANCH   7   8
ENDBRANCH   6   7
ENDBRANCH   5   6
ENDBRANCH   4   5
ENDBRANCH   3   4
ENDBRANCH   2   3
ENDBRANCH   1   2
BRANCH   1  11
ATOM     11  C   UNL     1      23.021   6.165  18.550  1.00  0.00     0.000 C 
BRANCH  11  12
ATOM     12  C   UNL     1      23.099   4.913  19.441  1.00  0.00    -0.000 C 
BRANCH  12  13
ATOM     13  C   UNL     1      23.489   3.645  18.659  1.00  0.00    -0.000 C 
BRANCH  13  14
ATOM     14  C   UNL     1      24.273   2.587  19.464  1.00  0.00    -0.000 C 
BRANCH  14  15
ATOM     15  C   UNL     1      25.703   2.311  18.964  1.00  0.00    -0.000 C 
BRANCH  15  16
ATOM     16  C   UNL     1      26.543   3.570  18.678  1.00  0.00    -0.000 C 
BRANCH  16  17
ATOM     17  C   UNL     1      27.918   3.266  18.044  1.00  0.00    -0.003 C 
ATOM     18  C   UNL     1      29.023   4.189  18.560  1.00  0.00     0.004 C 
ENDBRANCH  16  17
ENDBRANCH  15  16
ENDBRANCH  14  15
ENDBRANCH  13  14
ENDBRANCH  12  13
ENDBRANCH  11  12
ENDBRANCH   1  11
TORSDOF 14
ENDMDL
MODEL 4
REMARK VINA RESULT:    -4.361      2.019      2.630
REMARK INTER + INTRA:          -9.037
REMARK INTER:                  -7.214
REMARK INTRA:                  -1.823
REMARK UNBOUND:                -1.107
REMARK SMILES CCCCCCCCCCCCCCCC(=O)[O-]
REMARK SMILES IDX 9 1 10 2 11 3 12 4 13 5 14 6 15 7 16 8 17 9 18 10 8 11 7 12
REMARK SMILES IDX 6 13 5 14 4 15 3 16 2 17 1 18
REMARK H PARENT
REMARK Flexibility Score: inf
ROOT
ATOM      1  C   UNL     1      22.727   4.276  19.759  1.00  0.00     0.000 C 
ENDROOT
BRANCH   1   2
ATOM      2  C   UNL     1      23.320   5.616  19.287  1.00  0.00     0.000 C 
BRANCH   2   3
ATOM      3  C   UNL     1      22.874   6.004  17.867  1.00  0.00     0.000 C 
BRANCH   3   4
ATOM      4  C   UNL     1      23.243   4.939  16.821  1.00  0.00     0.000 C 
BRANCH   4   5
ATOM      5  C   UNL     1      24.364   5.402  15.877  1.00  0.00     0.000 C 
BRANCH   5   6
ATOM      6  C   UNL     1      23.944   6.655  15.101  1.00  0.00     0.006 C 
BRANCH   6   7
ATOM      7  C   UNL     1      23.325   6.283  13.749  1.00  0.00     0.053 C 
BRANCH   7   8
ATOM      8  C   UNL     1      21.912   6.766  13.669  1.00  0.00     0.041 C 
ATOM      9  O   UNL     1      21.409   7.076  12.558  1.00  0.00    -0.550 OA
ATOM     10  O   UNL     1      21.163   6.918  14.830  1.00  0.00    -0.550 OA
ENDBRANCH   7   8
ENDBRANCH   6   7
ENDBRANCH   5   6
ENDBRANCH   4   5
ENDBRANCH   3   4
ENDBRANCH   2   3
ENDBRANCH   1   2
BRANCH   1  11
ATOM     11  C   UNL     1      22.536   4.137  21.281  1.00  0.00     0.000 C 
BRANCH  11  12
ATOM     12  C   UNL     1      22.012   2.752  21.697  1.00  0.00    -0.000 C 
BRANCH  12  13
ATOM     13  C   UNL     1      22.638   1.605  20.882  1.00  0.00    -0.000 C 
BRANCH  13  14
ATOM     14  C   UNL     1      24.033   1.143  21.352  1.00  0.00    -0.000 C 
BRANCH  14  15
ATOM     15  C   UNL     1      25.125   1.150  20.267  1.00  0.00    -0.000 C 
BRANCH  15  16
ATOM     16  C   UNL     1      24.600   1.130  18.819  1.00  0.00    -0.000 C 
BRANCH  16  17
ATOM     17  C   UNL     1      25.253   2.191  17.907  1.00  0.00    -0.003 C 
ATOM     18  C   UNL     1      26.137   3.170  18.681  1.00  0.00     0.004 C 
ENDBRANCH  16  17
ENDBRANCH  15  16
ENDBRANCH  14  15
ENDBRANCH  13  14
ENDBRANCH  12  13
ENDBRANCH  11  12
ENDBRANCH   1  11
TORSDOF 14
ENDMDL
MODEL 5
REMARK VINA RESULT:    -4.349      1.736      3.503
REMARK INTER + INTRA:          -9.014
REMARK INTER:                  -7.267
REMARK INTRA:                  -1.747
REMARK UNBOUND:                -1.107
REMARK SMILES CCCCCCCCCCCCCCCC(=O)[O-]
REMARK SMILES IDX 9 1 10 2 11 3 12 4 13 5 14 6 15 7 16 8 17 9 18 10 8 11 7 12
REMARK SMILES IDX 6 13 5 14 4 15 3 16 2 17 1 18
REMARK H PARENT
REMARK Flexibility Score: inf
ROOT
ATOM      1  C   UNL     1      22.653   4.529  17.225  1.00  0.00     0.000 C 
ENDROOT
BRANCH   1   2
ATOM      2  C   UNL     1      23.825   3.926  16.429  1.00  0.00     0.000 C 
BRANCH   2   3
ATOM      3  C   UNL     1      25.101   4.782  16.496  1.00  0.00     0.000 C 
BRANCH   3   4
ATOM      4  C   UNL     1      26.307   4.097  15.831  1.00  0.00     0.000 C 
BRANCH   4   5
ATOM      5  C   UNL     1      27.650   4.670  16.310  1.00  0.00     0.000 C 
BRANCH   5   6
ATOM      6  C   UNL     1      28.200   5.688  15.304  1.00  0.00     0.006 C 
BRANCH   6   7
ATOM      7  C   UNL     1      27.581   5.481  13.918  1.00  0.00     0.053 C 
BRANCH   7   8
ATOM      8  C   UNL     1      27.125   6.787  13.348  1.00  0.00     0.041 C 
ATOM      9  O   UNL     1      27.876   7.439  12.577  1.00  0.00    -0.550 OA
ATOM     10  O   UNL     1      25.887   7.307  13.706  1.00  0.00    -0.550 OA
ENDBRANCH   7   8
ENDBRANCH   6   7
ENDBRANCH   5   6
ENDBRANCH   4   5
ENDBRANCH   3   4
ENDBRANCH   2   3
ENDBRANCH   1   2
BRANCH   1  11
ATOM     11  C   UNL     1      23.034   5.642  18.219  1.00  0.00     0.000 C 
BRANCH  11  12
ATOM     12  C   UNL     1      23.135   5.141  19.670  1.00  0.00    -0.000 C 
BRANCH  12  13
ATOM     13  C   UNL     1      22.629   3.698  19.843  1.00  0.00    -0.000 C 
BRANCH  13  14
ATOM     14  C   UNL     1      23.137   2.964  21.103  1.00  0.00    -0.000 C 
BRANCH  14  15
ATOM     15  C   UNL     1      23.816   1.608  20.842  1.00  0.00    -0.000 C 
BRANCH  15  16
ATOM     16  C   UNL     1      23.977   1.240  19.355  1.00  0.00    -0.000 C 
BRANCH  16  17
ATOM     17  C   UNL     1      25.445   1.029  18.923  1.00  0.00    -0.003 C 
ATOM     18  C   UNL     1      26.277   2.309  19.016  1.00  0.00     0.004 C 
ENDBRANCH  16  17
ENDBRANCH  15  16
ENDBRANCH  14  15
ENDBRANCH  13  14
ENDBRANCH  12  13
ENDBRANCH  11  12
ENDBRANCH   1  11
TORSDOF 14
ENDMDL
MODEL 6
REMARK VINA RESULT:    -4.278      3.163      5.786
REMARK INTER + INTRA:          -8.886
REMARK INTER:                  -7.295
REMARK INTRA:                  -1.591
REMARK UNBOUND:                -1.107
REMARK SMILES CCCCCCCCCCCCCCCC(=O)[O-]
REMARK SMILES IDX 9 1 10 2 11 3 12 4 13 5 14 6 15 7 16 8 17 9 18 10 8 11 7 12
REMARK SMILES IDX 6 13 5 14 4 15 3 16 2 17 1 18
REMARK H PARENT
REMARK Flexibility Score: inf
ROOT
ATOM      1  C   UNL     1      27.889   5.237  14.963  1.00  0.00     0.000 C 
ENDROOT
BRANCH   1   2
ATOM      2  C   UNL     1      26.507   5.404  15.621  1.00  0.00     0.000 C 
BRANCH   2   3
ATOM      3  C   UNL     1      25.775   6.678  15.166  1.00  0.00     0.000 C 
BRANCH   3   4
ATOM      4  C   UNL     1      24.246   6.513  15.169  1.00  0.00     0.000 C 
BRANCH   4   5
ATOM      5  C   UNL     1      23.582   7.169  16.389  1.00  0.00     0.000 C 
BRANCH   5   6
ATOM      6  C   UNL     1      22.665   6.177  17.113  1.00  0.00     0.006 C 
BRANCH   6   7
ATOM      7  C   UNL     1      23.225   5.816  18.493  1.00  0.00     0.053 C 
BRANCH   7   8
ATOM      8  C   UNL     1      23.527   4.353  18.570  1.00  0.00     0.041 C 
ATOM      9  O   UNL     1      23.674   3.794  19.688  1.00  0.00    -0.550 OA
ATOM     10  O   UNL     1      23.693   3.616  17.404  1.00  0.00    -0.550 OA
ENDBRANCH   7   8
ENDBRANCH   6   7
ENDBRANCH   5   6
ENDBRANCH   4   5
ENDBRANCH   3   4
ENDBRANCH   2   3
ENDBRANCH   1   2
BRANCH   1  11
ATOM     11  C   UNL     1      28.940   6.291  15.356  1.00  0.00     0.000 C 
BRANCH  11  12
ATOM     12  C   UNL     1      30.191   5.678  16.008  1.00  0.00    -0.000 C 
BRANCH  12  13
ATOM     13  C   UNL     1      30.585   6.375  17.323  1.00  0.00    -0.000 C 
BRANCH  13  14
ATOM     14  C   UNL     1      30.005   5.744  18.607  1.00  0.00    -0.000 C 
BRANCH  14  15
ATOM     15  C   UNL     1      30.444   4.294  18.880  1.00  0.00    -0.000 C 
BRANCH  15  16
ATOM     16  C   UNL     1      29.361   3.230  18.622  1.00  0.00    -0.000 C 
BRANCH  16  17
ATOM     17  C   UNL     1      27.923   3.790  18.646  1.00  0.00    -0.003 C 
ATOM     18  C   UNL     1      26.861   2.689  18.651  1.00  0.00     0.004 C 
ENDBRANCH  16  17
ENDBRANCH  15  16
ENDBRANCH  14  15
ENDBRANCH  13  14
ENDBRANCH  12  13
ENDBRANCH  11  12
ENDBRANCH   1  11
TORSDOF 14
ENDMDL
MODEL 7
REMARK VINA RESULT:    -4.273      1.292      2.057
REMARK INTER + INTRA:          -8.877
REMARK INTER:                  -6.990
REMARK INTRA:                  -1.887
REMARK UNBOUND:                -1.107
REMARK SMILES CCCCCCCCCCCCCCCC(=O)[O-]
REMARK SMILES IDX 9 1 10 2 11 3 12 4 13 5 14 6 15 7 16 8 17 9 18 10 8 11 7 12
REMARK SMILES IDX 6 13 5 14 4 15 3 16 2 17 1 18
REMARK H PARENT
REMARK Flexibility Score: inf
ROOT
ATOM      1  C   UNL     1      22.963   4.519  20.235  1.00  0.00     0.000 C 
ENDROOT
BRANCH   1   2
ATOM      2  C   UNL     1      22.891   4.815  18.726  1.00  0.00     0.000 C 
BRANCH   2   3
ATOM      3  C   UNL     1      22.619   3.560  17.879  1.00  0.00     0.000 C 
BRANCH   3   4
ATOM      4  C   UNL     1      23.853   3.106  17.082  1.00  0.00     0.000 C 
BRANCH   4   5
ATOM      5  C   UNL     1      24.986   4.145  17.103  1.00  0.00     0.000 C 
BRANCH   5   6
ATOM      6  C   UNL     1      25.290   4.652  15.689  1.00  0.00     0.006 C 
BRANCH   6   7
ATOM      7  C   UNL     1      24.995   6.151  15.568  1.00  0.00     0.053 C 
BRANCH   7   8
ATOM      8  C   UNL     1      26.094   6.842  14.824  1.00  0.00     0.041 C 
ATOM      9  O   UNL     1      25.891   7.293  13.667  1.00  0.00    -0.550 OA
ATOM     10  O   UNL     1      27.358   6.947  15.392  1.00  0.00    -0.550 OA
ENDBRANCH   7   8
ENDBRANCH   6   7
ENDBRANCH   5   6
ENDBRANCH   4   5
ENDBRANCH   3   4
ENDBRANCH   2   3
ENDBRANCH   1   2
BRANCH   1  11
ATOM     11  C   UNL     1      22.402   3.151  20.667  1.00  0.00     0.000 C 
BRANCH  11  12
ATOM     12  C   UNL     1      23.092   2.588  21.920  1.00  0.00    -0.000 C 
BRANCH  12  13
ATOM     13  C   UNL     1      23.983   1.370  21.617  1.00  0.00    -0.000 C 
BRANCH  13  14
ATOM     14  C   UNL     1      24.347   1.169  20.131  1.00  0.00    -0.000 C 
BRANCH  14  15
ATOM     15  C   UNL     1      25.851   1.231  19.810  1.00  0.00    -0.000 C 
BRANCH  15  16
ATOM     16  C   UNL     1      26.262   0.547  18.493  1.00  0.00    -0.000 C 
BRANCH  16  17
ATOM     17  C   UNL     1      27.490   1.193  17.815  1.00  0.00    -0.003 C 
ATOM     18  C   UNL     1      27.303   1.376  16.309  1.00  0.00     0.004 C 
ENDBRANCH  16  17
ENDBRANCH  15  16
ENDBRANCH  14  15
ENDBRANCH  13  14
ENDBRANCH  12  13
ENDBRANCH  11  12
ENDBRANCH   1  11
TORSDOF 14
ENDMDL
MODEL 8
REMARK VINA RESULT:    -4.260      4.753      8.414
REMARK INTER + INTRA:          -8.853
REMARK INTER:                  -7.137
REMARK INTRA:                  -1.716
REMARK UNBOUND:                -1.107
REMARK SMILES CCCCCCCCCCCCCCCC(=O)[O-]
REMARK SMILES IDX 9 1 10 2 11 3 12 4 13 5 14 6 15 7 16 8 17 9 18 10 8 11 7 12
REMARK SMILES IDX 6 13 5 14 4 15 3 16 2 17 1 18
REMARK H PARENT
REMARK Flexibility Score: inf
ROOT
ATOM      1  C   UNL     1      21.973   5.413  13.624  1.00  0.00     0.000 C 
ENDROOT
BRANCH   1   2
ATOM      2  C   UNL     1      22.281   6.756  14.312  1.00  0.00     0.000 C 
BRANCH   2   3
ATOM      3  C   UNL     1      22.509   6.617  15.826  1.00  0.00     0.000 C 
BRANCH   3   4
ATOM      4  C   UNL     1      23.911   7.078  16.257  1.00  0.00     0.000 C 
BRANCH   4   5
ATOM      5  C   UNL     1      24.908   7.113  15.088  1.00  0.00     0.000 C 
BRANCH   5   6
ATOM      6  C   UNL     1      25.896   5.944  15.176  1.00  0.00     0.006 C 
BRANCH   6   7
ATOM      7  C   UNL     1      26.641   5.754  13.850  1.00  0.00     0.053 C 
BRANCH   7   8
ATOM      8  C   UNL     1      27.725   6.775  13.707  1.00  0.00     0.041 C 
ATOM      9  O   UNL     1      28.488   7.030  14.675  1.00  0.00    -0.550 OA
ATOM     10  O   UNL     1      27.862   7.479  12.517  1.00  0.00    -0.550 OA
ENDBRANCH   7   8
ENDBRANCH   6   7
ENDBRANCH   5   6
ENDBRANCH   4   5
ENDBRANCH   3   4
ENDBRANCH   2   3
ENDBRANCH   1   2
BRANCH   1  11
ATOM     11  C   UNL     1      23.002   4.959  12.572  1.00  0.00     0.000 C 
BRANCH  11  12
ATOM     12  C   UNL     1      23.545   6.120  11.723  1.00  0.00    -0.000 C 
BRANCH  12  13
ATOM     13  C   UNL     1      22.804   6.281  10.383  1.00  0.00    -0.000 C 
BRANCH  13  14
ATOM     14  C   UNL     1      21.616   7.267  10.397  1.00  0.00    -0.000 C 
BRANCH  14  15
ATOM     15  C   UNL     1      20.239   6.635  10.129  1.00  0.00    -0.000 C 
BRANCH  15  16
ATOM     16  C   UNL     1      19.327   6.517  11.365  1.00  0.00    -0.000 C 
BRANCH  16  17
ATOM     17  C   UNL     1      17.852   6.874  11.084  1.00  0.00    -0.003 C 
ATOM     18  C   UNL     1      17.491   8.290  11.534  1.00  0.00     0.004 C 
ENDBRANCH  16  17
ENDBRANCH  15  16
ENDBRANCH  14  15
ENDBRANCH  13  14
ENDBRANCH  12  13
ENDBRANCH  11  12
ENDBRANCH   1  11
TORSDOF 14
ENDMDL
MODEL 9
REMARK VINA RESULT:    -4.244      6.403     10.639
REMARK INTER + INTRA:          -8.824
REMARK INTER:                  -7.243
REMARK INTRA:                  -1.581
REMARK UNBOUND:                -1.107
REMARK SMILES CCCCCCCCCCCCCCCC(=O)[O-]
REMARK SMILES IDX 9 1 10 2 11 3 12 4 13 5 14 6 15 7 16 8 17 9 18 10 8 11 7 12
REMARK SMILES IDX 6 13 5 14 4 15 3 16 2 17 1 18
REMARK H PARENT
REMARK Flexibility Score: inf
ROOT
ATOM      1  C   UNL     1      20.748   5.627   9.814  1.00  0.00     0.000 C 
ENDROOT
BRANCH   1   2
ATOM      2  C   UNL     1      22.229   5.518  10.221  1.00  0.00     0.000 C 
BRANCH   2   3
ATOM      3  C   UNL     1      22.916   6.888  10.360  1.00  0.00     0.000 C 
BRANCH   3   4
ATOM      4  C   UNL     1      23.357   7.184  11.803  1.00  0.00     0.000 C 
BRANCH   4   5
ATOM      5  C   UNL     1      23.059   6.020  12.763  1.00  0.00     0.000 C 
BRANCH   5   6
ATOM      6  C   UNL     1      24.330   5.578  13.497  1.00  0.00     0.006 C 
BRANCH   6   7
ATOM      7  C   UNL     1      25.318   6.741  13.636  1.00  0.00     0.053 C 
BRANCH   7   8
ATOM      8  C   UNL     1      26.683   6.326  13.185  1.00  0.00     0.041 C 
ATOM      9  O   UNL     1      26.976   5.106  13.090  1.00  0.00    -0.550 OA
ATOM     10  O   UNL     1      27.647   7.289  12.914  1.00  0.00    -0.550 OA
ENDBRANCH   7   8
ENDBRANCH   6   7
ENDBRANCH   5   6
ENDBRANCH   4   5
ENDBRANCH   3   4
ENDBRANCH   2   3
ENDBRANCH   1   2
BRANCH   1  11
ATOM     11  C   UNL     1      20.112   7.017  10.001  1.00  0.00     0.000 C 
BRANCH  11  12
ATOM     12  C   UNL     1      19.094   7.062  11.153  1.00  0.00    -0.000 C 
BRANCH  12  13
ATOM     13  C   UNL     1      18.116   8.246  11.043  1.00  0.00    -0.000 C 
BRANCH  13  14
ATOM     14  C   UNL     1      16.627   7.864  10.907  1.00  0.00    -0.000 C 
BRANCH  14  15
ATOM     15  C   UNL     1      16.171   7.501   9.483  1.00  0.00    -0.000 C 
BRANCH  15  16
ATOM     16  C   UNL     1      16.928   8.228   8.355  1.00  0.00    -0.000 C 
BRANCH  16  17
ATOM     17  C   UNL     1      17.608   7.274   7.349  1.00  0.00    -0.003 C 
ATOM     18  C   UNL     1      17.435   5.801   7.723  1.00  0.00     0.004 C 
ENDBRANCH  16  17
ENDBRANCH  15  16
ENDBRANCH  14  15
ENDBRANCH  13  14
ENDBRANCH  12  13
ENDBRANCH  11  12
ENDBRANCH   1  11
TORSDOF 14
ENDMDL
