MODEL 1
REMARK VINA RESULT:    -4.720      0.000      0.000
REMARK INTER + INTRA:         -12.066
REMARK INTER:                 -10.239
REMARK INTRA:                  -1.827
REMARK UNBOUND:                -1.827
REMARK SMILES CCCCCCCCCCCCCCCCCCCCCC(=O)[O-]
REMARK SMILES IDX 12 1 11 2 10 3 9 4 8 5 7 6 6 7 5 8 4 9 3 10 2 11 1 12 13 13
REMARK SMILES IDX 14 14 15 15 16 16 17 17 18 18 19 19 20 20 21 21 22 22 23 23
REMARK SMILES IDX 24 24
REMARK H PARENT
REMARK Flexibility Score: inf
ROOT
ATOM      1  C   UNL     1      -6.164 -40.035 -10.613  1.00  0.00     0.000 C 
ENDROOT
BRANCH   1   2
ATOM      2  C   UNL     1      -6.266 -38.820  -9.675  1.00  0.00     0.000 C 
BRANCH   2   3
ATOM      3  C   UNL     1      -7.416 -38.954  -8.663  1.00  0.00     0.000 C 
BRANCH   3   4
ATOM      4  C   UNL     1      -8.426 -37.797  -8.764  1.00  0.00    -0.000 C 
BRANCH   4   5
ATOM      5  C   UNL     1      -8.845 -37.500 -10.214  1.00  0.00    -0.000 C 
BRANCH   5   6
ATOM      6  C   UNL     1      -8.898 -36.004 -10.585  1.00  0.00    -0.000 C 
BRANCH   6   7
ATOM      7  C   UNL     1      -8.220 -35.057  -9.577  1.00  0.00    -0.000 C 
BRANCH   7   8
ATOM      8  C   UNL     1      -6.956 -34.392 -10.141  1.00  0.00    -0.000 C 
BRANCH   8   9
ATOM      9  C   UNL     1      -5.914 -34.165  -9.040  1.00  0.00    -0.000 C 
BRANCH   9  10
ATOM     10  C   UNL     1      -5.530 -35.487  -8.365  1.00  0.00    -0.000 C 
BRANCH  10  11
ATOM     11  C   UNL     1      -4.231 -36.049  -8.951  1.00  0.00    -0.003 C 
ATOM     12  C   UNL     1      -3.032 -35.695  -8.077  1.00  0.00     0.004 C 
ENDBRANCH  10  11
ENDBRANCH   9  10
ENDBRANCH   8   9
ENDBRANCH   7   8
ENDBRANCH   6   7
ENDBRANCH   5   6
ENDBRANCH   4   5
ENDBRANCH   3   4
ENDBRANCH   2   3
ENDBRANCH   1   2
BRANCH   1  13
ATOM     13  C   UNL     1      -7.363 -40.997 -10.470  1.00  0.00     0.000 C 
BRANCH  13  14
ATOM     14  C   UNL     1      -7.322 -42.191 -11.443  1.00  0.00     0.000 C 
BRANCH  14  15
ATOM     15  C   UNL     1      -7.643 -41.845 -12.910  1.00  0.00     0.000 C 
BRANCH  15  16
ATOM     16  C   UNL     1      -6.421 -41.490 -13.784  1.00  0.00     0.000 C 
BRANCH  16  17
ATOM     17  C   UNL     1      -6.711 -40.554 -14.972  1.00  0.00     0.000 C 
BRANCH  17  18
ATOM     18  C   UNL     1      -6.193 -41.107 -16.309  1.00  0.00     0.000 C 
BRANCH  18  19
ATOM     19  C   UNL     1      -6.714 -40.310 -17.517  1.00  0.00     0.000 C 
BRANCH  19  20
ATOM     20  C   UNL     1      -7.525 -39.054 -17.126  1.00  0.00     0.006 C 
BRANCH  20  21
ATOM     21  C   UNL     1      -7.625 -38.023 -18.260  1.00  0.00     0.053 C 
BRANCH  21  22
ATOM     22  C   UNL     1      -8.606 -36.939 -17.931  1.00  0.00     0.041 C 
ATOM     23  O   UNL     1      -8.573 -35.843 -18.552  1.00  0.00    -0.550 OA
ATOM     24  O   UNL     1      -9.536 -37.128 -16.916  1.00  0.00    -0.550 OA
ENDBRANCH  21  22
ENDBRANCH  20  21
ENDBRANCH  19  20
ENDBRANCH  18  19
ENDBRANCH  17  18
ENDBRANCH  16  17
ENDBRANCH  15  16
ENDBRANCH  14  15
ENDBRANCH  13  14
ENDBRANCH   1  13
TORSDOF 20
ENDMDL
MODEL 2
REMARK VINA RESULT:    -4.704      2.775      3.883
REMARK INTER + INTRA:         -12.030
REMARK INTER:                  -9.517
REMARK INTRA:                  -2.513
REMARK UNBOUND:                -1.827
REMARK SMILES CCCCCCCCCCCCCCCCCCCCCC(=O)[O-]
REMARK SMILES IDX 12 1 11 2 10 3 9 4 8 5 7 6 6 7 5 8 4 9 3 10 2 11 1 12 13 13
REMARK SMILES IDX 14 14 15 15 16 16 17 17 18 18 19 19 20 20 21 21 22 22 23 23
REMARK SMILES IDX 24 24
REMARK H PARENT
REMARK Flexibility Score: inf
ROOT
ATOM      1  C   UNL     1      -7.459 -39.316 -12.446  1.00  0.00     0.000 C 
ENDROOT
BRANCH   1   2
ATOM      2  C   UNL     1      -7.241 -40.248 -11.240  1.00  0.00     0.000 C 
BRANCH   2   3
ATOM      3  C   UNL     1      -5.983 -39.885 -10.436  1.00  0.00     0.000 C 
BRANCH   3   4
ATOM      4  C   UNL     1      -6.121 -38.539  -9.702  1.00  0.00    -0.000 C 
BRANCH   4   5
ATOM      5  C   UNL     1      -7.362 -38.485  -8.792  1.00  0.00    -0.000 C 
BRANCH   5   6
ATOM      6  C   UNL     1      -8.087 -37.124  -8.759  1.00  0.00    -0.000 C 
BRANCH   6   7
ATOM      7  C   UNL     1      -8.426 -36.531 -10.139  1.00  0.00    -0.000 C 
BRANCH   7   8
ATOM      8  C   UNL     1      -7.966 -35.073 -10.290  1.00  0.00    -0.000 C 
BRANCH   8   9
ATOM      9  C   UNL     1      -6.437 -34.981 -10.350  1.00  0.00    -0.000 C 
BRANCH   9  10
ATOM     10  C   UNL     1      -5.891 -34.154  -9.179  1.00  0.00    -0.000 C 
BRANCH  10  11
ATOM     11  C   UNL     1      -5.200 -35.051  -8.146  1.00  0.00    -0.003 C 
ATOM     12  C   UNL     1      -4.005 -35.777  -8.755  1.00  0.00     0.004 C 
ENDBRANCH  10  11
ENDBRANCH   9  10
ENDBRANCH   8   9
ENDBRANCH   7   8
ENDBRANCH   6   7
ENDBRANCH   5   6
ENDBRANCH   4   5
ENDBRANCH   3   4
ENDBRANCH   2   3
ENDBRANCH   1   2
BRANCH   1  13
ATOM     13  C   UNL     1      -8.953 -39.104 -12.769  1.00  0.00     0.000 C 
BRANCH  13  14
ATOM     14  C   UNL     1      -9.261 -39.040 -14.277  1.00  0.00     0.000 C 
BRANCH  14  15
ATOM     15  C   UNL     1      -8.023 -38.978 -15.191  1.00  0.00     0.000 C 
BRANCH  15  16
ATOM     16  C   UNL     1      -7.711 -40.278 -15.965  1.00  0.00     0.000 C 
BRANCH  16  17
ATOM     17  C   UNL     1      -6.273 -40.806 -15.813  1.00  0.00     0.000 C 
BRANCH  17  18
ATOM     18  C   UNL     1      -6.099 -41.725 -14.593  1.00  0.00     0.000 C 
BRANCH  18  19
ATOM     19  C   UNL     1      -5.127 -42.886 -14.863  1.00  0.00     0.000 C 
BRANCH  19  20
ATOM     20  C   UNL     1      -4.056 -42.559 -15.929  1.00  0.00     0.006 C 
BRANCH  20  21
ATOM     21  C   UNL     1      -4.042 -43.558 -17.096  1.00  0.00     0.053 C 
BRANCH  21  22
ATOM     22  C   UNL     1      -4.545 -42.931 -18.360  1.00  0.00     0.041 C 
ATOM     23  O   UNL     1      -3.734 -42.467 -19.206  1.00  0.00    -0.550 OA
ATOM     24  O   UNL     1      -5.912 -42.831 -18.590  1.00  0.00    -0.550 OA
ENDBRANCH  21  22
ENDBRANCH  20  21
ENDBRANCH  19  20
ENDBRANCH  18  19
ENDBRANCH  17  18
ENDBRANCH  16  17
ENDBRANCH  15  16
ENDBRANCH  14  15
ENDBRANCH  13  14
ENDBRANCH   1  13
TORSDOF 20
ENDMDL
MODEL 3
REMARK VINA RESULT:    -4.684      4.104      6.767
REMARK INTER + INTRA:         -11.988
REMARK INTER:                  -8.509
REMARK INTRA:                  -3.480
REMARK UNBOUND:                -1.827
REMARK SMILES CCCCCCCCCCCCCCCCCCCCCC(=O)[O-]
REMARK SMILES IDX 12 1 11 2 10 3 9 4 8 5 7 6 6 7 5 8 4 9 3 10 2 11 1 12 13 13
REMARK SMILES IDX 14 14 15 15 16 16 17 17 18 18 19 19 20 20 21 21 22 22 23 23
REMARK SMILES IDX 24 24
REMARK H PARENT
REMARK Flexibility Score: inf
ROOT
ATOM      1  C   UNL     1      -4.894 -36.546  -9.738  1.00  0.00     0.000 C 
ENDROOT
BRANCH   1   2
ATOM      2  C   UNL     1      -4.836 -35.491  -8.618  1.00  0.00     0.000 C 
BRANCH   2   3
ATOM      3  C   UNL     1      -6.007 -34.498  -8.685  1.00  0.00     0.000 C 
BRANCH   3   4
ATOM      4  C   UNL     1      -6.503 -34.269 -10.124  1.00  0.00    -0.000 C 
BRANCH   4   5
ATOM      5  C   UNL     1      -7.965 -34.708 -10.323  1.00  0.00    -0.000 C 
BRANCH   5   6
ATOM      6  C   UNL     1      -8.606 -35.410  -9.109  1.00  0.00    -0.000 C 
BRANCH   6   7
ATOM      7  C   UNL     1      -9.399 -36.689  -9.437  1.00  0.00    -0.000 C 
BRANCH   7   8
ATOM      8  C   UNL     1      -9.666 -36.855 -10.940  1.00  0.00    -0.000 C 
BRANCH   8   9
ATOM      9  C   UNL     1      -8.853 -38.017 -11.520  1.00  0.00    -0.000 C 
BRANCH   9  10
ATOM     10  C   UNL     1      -9.660 -38.780 -12.577  1.00  0.00    -0.000 C 
BRANCH  10  11
ATOM     11  C   UNL     1      -8.886 -40.001 -13.087  1.00  0.00    -0.003 C 
ATOM     12  C   UNL     1      -7.448 -39.635 -13.441  1.00  0.00     0.004 C 
ENDBRANCH  10  11
ENDBRANCH   9  10
ENDBRANCH   8   9
ENDBRANCH   7   8
ENDBRANCH   6   7
ENDBRANCH   5   6
ENDBRANCH   4   5
ENDBRANCH   3   4
ENDBRANCH   2   3
ENDBRANCH   1   2
BRANCH   1  13
ATOM     13  C   UNL     1      -5.751 -37.771  -9.355  1.00  0.00     0.000 C 
BRANCH  13  14
ATOM     14  C   UNL     1      -5.504 -39.006 -10.242  1.00  0.00     0.000 C 
BRANCH  14  15
ATOM     15  C   UNL     1      -6.364 -40.236  -9.897  1.00  0.00     0.000 C 
BRANCH  15  16
ATOM     16  C   UNL     1      -7.083 -40.174  -8.532  1.00  0.00     0.000 C 
BRANCH  16  17
ATOM     17  C   UNL     1      -8.620 -40.246  -8.593  1.00  0.00     0.000 C 
BRANCH  17  18
ATOM     18  C   UNL     1      -9.132 -41.182  -9.699  1.00  0.00     0.000 C 
BRANCH  18  19
ATOM     19  C   UNL     1      -9.355 -42.619  -9.198  1.00  0.00     0.000 C 
BRANCH  19  20
ATOM     20  C   UNL     1      -9.049 -43.698 -10.261  1.00  0.00     0.006 C 
BRANCH  20  21
ATOM     21  C   UNL     1      -7.648 -43.558 -10.876  1.00  0.00     0.053 C 
BRANCH  21  22
ATOM     22  C   UNL     1      -6.605 -44.206 -10.015  1.00  0.00     0.041 C 
ATOM     23  O   UNL     1      -6.172 -43.616  -8.990  1.00  0.00    -0.550 OA
ATOM     24  O   UNL     1      -6.089 -45.448 -10.365  1.00  0.00    -0.550 OA
ENDBRANCH  21  22
ENDBRANCH  20  21
ENDBRANCH  19  20
ENDBRANCH  18  19
ENDBRANCH  17  18
ENDBRANCH  16  17
ENDBRANCH  15  16
ENDBRANCH  14  15
ENDBRANCH  13  14
ENDBRANCH   1  13
TORSDOF 20
ENDMDL
MODEL 4
REMARK VINA RESULT:    -4.679      3.036      5.465
REMARK INTER + INTRA:         -11.977
REMARK INTER:                  -9.925
REMARK INTRA:                  -2.052
REMARK UNBOUND:                -1.827
REMARK SMILES CCCCCCCCCCCCCCCCCCCCCC(=O)[O-]
REMARK SMILES IDX 12 1 11 2 10 3 9 4 8 5 7 6 6 7 5 8 4 9 3 10 2 11 1 12 13 13
REMARK SMILES IDX 14 14 15 15 16 16 17 17 18 18 19 19 20 20 21 21 22 22 23 23
REMARK SMILES IDX 24 24
REMARK H PARENT
REMARK Flexibility Score: inf
ROOT
ATOM      1  C   UNL     1      -7.972 -40.974 -16.375  1.00  0.00     0.000 C 
ENDROOT
BRANCH   1   2
ATOM      2  C   UNL     1      -6.767 -40.366 -15.637  1.00  0.00     0.000 C 
BRANCH   2   3
ATOM      3  C   UNL     1      -5.999 -41.407 -14.807  1.00  0.00     0.000 C 
BRANCH   3   4
ATOM      4  C   UNL     1      -6.397 -41.384 -13.320  1.00  0.00    -0.000 C 
BRANCH   4   5
ATOM      5  C   UNL     1      -6.803 -39.980 -12.837  1.00  0.00    -0.000 C 
BRANCH   5   6
ATOM      6  C   UNL     1      -6.924 -39.828 -11.306  1.00  0.00    -0.000 C 
BRANCH   6   7
ATOM      7  C   UNL     1      -5.664 -39.291 -10.602  1.00  0.00    -0.000 C 
BRANCH   7   8
ATOM      8  C   UNL     1      -5.979 -38.201  -9.567  1.00  0.00    -0.000 C 
BRANCH   8   9
ATOM      9  C   UNL     1      -4.903 -37.109  -9.572  1.00  0.00    -0.000 C 
BRANCH   9  10
ATOM     10  C   UNL     1      -5.507 -35.741  -9.233  1.00  0.00    -0.000 C 
BRANCH  10  11
ATOM     11  C   UNL     1      -6.269 -35.163 -10.431  1.00  0.00    -0.003 C 
ATOM     12  C   UNL     1      -7.770 -35.406 -10.301  1.00  0.00     0.004 C 
ENDBRANCH  10  11
ENDBRANCH   9  10
ENDBRANCH   8   9
ENDBRANCH   7   8
ENDBRANCH   6   7
ENDBRANCH   5   6
ENDBRANCH   4   5
ENDBRANCH   3   4
ENDBRANCH   2   3
ENDBRANCH   1   2
BRANCH   1  13
ATOM     13  C   UNL     1      -9.211 -40.054 -16.346  1.00  0.00     0.000 C 
BRANCH  13  14
ATOM     14  C   UNL     1      -8.947 -38.674 -15.714  1.00  0.00     0.000 C 
BRANCH  14  15
ATOM     15  C   UNL     1      -9.102 -37.479 -16.673  1.00  0.00     0.000 C 
BRANCH  15  16
ATOM     16  C   UNL     1      -8.080 -37.427 -17.829  1.00  0.00     0.000 C 
BRANCH  16  17
ATOM     17  C   UNL     1      -8.614 -37.874 -19.203  1.00  0.00     0.000 C 
BRANCH  17  18
ATOM     18  C   UNL     1      -7.766 -38.985 -19.842  1.00  0.00     0.000 C 
BRANCH  18  19
ATOM     19  C   UNL     1      -6.369 -39.097 -19.209  1.00  0.00     0.000 C 
BRANCH  19  20
ATOM     20  C   UNL     1      -5.631 -40.406 -19.572  1.00  0.00     0.006 C 
BRANCH  20  21
ATOM     21  C   UNL     1      -4.744 -40.272 -20.820  1.00  0.00     0.053 C 
BRANCH  21  22
ATOM     22  C   UNL     1      -3.842 -41.457 -20.981  1.00  0.00     0.041 C 
ATOM     23  O   UNL     1      -3.437 -42.090 -19.970  1.00  0.00    -0.550 OA
ATOM     24  O   UNL     1      -3.423 -41.844 -22.249  1.00  0.00    -0.550 OA
ENDBRANCH  21  22
ENDBRANCH  20  21
ENDBRANCH  19  20
ENDBRANCH  18  19
ENDBRANCH  17  18
ENDBRANCH  16  17
ENDBRANCH  15  16
ENDBRANCH  14  15
ENDBRANCH  13  14
ENDBRANCH   1  13
TORSDOF 20
ENDMDL
MODEL 5
REMARK VINA RESULT:    -4.669      2.765      3.498
REMARK INTER + INTRA:         -11.955
REMARK INTER:                  -9.327
REMARK INTRA:                  -2.628
REMARK UNBOUND:                -1.827
REMARK SMILES CCCCCCCCCCCCCCCCCCCCCC(=O)[O-]
REMARK SMILES IDX 12 1 11 2 10 3 9 4 8 5 7 6 6 7 5 8 4 9 3 10 2 11 1 12 13 13
REMARK SMILES IDX 14 14 15 15 16 16 17 17 18 18 19 19 20 20 21 21 22 22 23 23
REMARK SMILES IDX 24 24
REMARK H PARENT
REMARK Flexibility Score: inf
ROOT
ATOM      1  C   UNL     1      -6.006 -40.044 -10.214  1.00  0.00     0.000 C 
ENDROOT
BRANCH   1   2
ATOM      2  C   UNL     1      -6.485 -38.602  -9.975  1.00  0.00     0.000 C 
BRANCH   2   3
ATOM      3  C   UNL     1      -7.447 -38.491  -8.782  1.00  0.00     0.000 C 
BRANCH   3   4
ATOM      4  C   UNL     1      -8.719 -37.694  -9.122  1.00  0.00    -0.000 C 
BRANCH   4   5
ATOM      5  C   UNL     1      -8.707 -37.144 -10.560  1.00  0.00    -0.000 C 
BRANCH   5   6
ATOM      6  C   UNL     1      -8.981 -35.631 -10.681  1.00  0.00    -0.000 C 
BRANCH   6   7
ATOM      7  C   UNL     1      -8.116 -34.736  -9.775  1.00  0.00    -0.000 C 
BRANCH   7   8
ATOM      8  C   UNL     1      -6.675 -34.589 -10.285  1.00  0.00    -0.000 C 
BRANCH   8   9
ATOM      9  C   UNL     1      -5.731 -34.162  -9.154  1.00  0.00    -0.000 C 
BRANCH   9  10
ATOM     10  C   UNL     1      -5.415 -35.342  -8.228  1.00  0.00    -0.000 C 
BRANCH  10  11
ATOM     11  C   UNL     1      -4.241 -36.167  -8.766  1.00  0.00    -0.003 C 
ATOM     12  C   UNL     1      -2.908 -35.639  -8.243  1.00  0.00     0.004 C 
ENDBRANCH  10  11
ENDBRANCH   9  10
ENDBRANCH   8   9
ENDBRANCH   7   8
ENDBRANCH   6   7
ENDBRANCH   5   6
ENDBRANCH   4   5
ENDBRANCH   3   4
ENDBRANCH   2   3
ENDBRANCH   1   2
BRANCH   1  13
ATOM     13  C   UNL     1      -6.874 -40.794 -11.247  1.00  0.00     0.000 C 
BRANCH  13  14
ATOM     14  C   UNL     1      -7.154 -39.985 -12.528  1.00  0.00     0.000 C 
BRANCH  14  15
ATOM     15  C   UNL     1      -8.646 -39.765 -12.844  1.00  0.00     0.000 C 
BRANCH  15  16
ATOM     16  C   UNL     1      -8.948 -39.258 -14.271  1.00  0.00     0.000 C 
BRANCH  16  17
ATOM     17  C   UNL     1      -7.726 -39.137 -15.200  1.00  0.00     0.000 C 
BRANCH  17  18
ATOM     18  C   UNL     1      -7.858 -39.984 -16.476  1.00  0.00     0.000 C 
BRANCH  18  19
ATOM     19  C   UNL     1      -6.586 -40.794 -16.779  1.00  0.00     0.000 C 
BRANCH  19  20
ATOM     20  C   UNL     1      -6.346 -41.959 -15.792  1.00  0.00     0.006 C 
BRANCH  20  21
ATOM     21  C   UNL     1      -4.908 -42.006 -15.253  1.00  0.00     0.053 C 
BRANCH  21  22
ATOM     22  C   UNL     1      -4.006 -42.782 -16.164  1.00  0.00     0.041 C 
ATOM     23  O   UNL     1      -4.491 -43.584 -17.006  1.00  0.00    -0.550 OA
ATOM     24  O   UNL     1      -2.627 -42.642 -16.060  1.00  0.00    -0.550 OA
ENDBRANCH  21  22
ENDBRANCH  20  21
ENDBRANCH  19  20
ENDBRANCH  18  19
ENDBRANCH  17  18
ENDBRANCH  16  17
ENDBRANCH  15  16
ENDBRANCH  14  15
ENDBRANCH  13  14
ENDBRANCH   1  13
TORSDOF 20
ENDMDL
MODEL 6
REMARK VINA RESULT:    -4.570      2.703      4.529
REMARK INTER + INTRA:         -11.741
REMARK INTER:                  -8.561
REMARK INTRA:                  -3.180
REMARK UNBOUND:                -1.827
REMARK SMILES CCCCCCCCCCCCCCCCCCCCCC(=O)[O-]
REMARK SMILES IDX 12 1 11 2 10 3 9 4 8 5 7 6 6 7 5 8 4 9 3 10 2 11 1 12 13 13
REMARK SMILES IDX 14 14 15 15 16 16 17 17 18 18 19 19 20 20 21 21 22 22 23 23
REMARK SMILES IDX 24 24
REMARK H PARENT
REMARK Flexibility Score: inf
ROOT
ATOM      1  C   UNL     1      -6.093 -39.714 -10.362  1.00  0.00     0.000 C 
ENDROOT
BRANCH   1   2
ATOM      2  C   UNL     1      -5.024 -38.616 -10.223  1.00  0.00     0.000 C 
BRANCH   2   3
ATOM      3  C   UNL     1      -5.514 -37.420  -9.390  1.00  0.00     0.000 C 
BRANCH   3   4
ATOM      4  C   UNL     1      -4.389 -36.417  -9.082  1.00  0.00    -0.000 C 
BRANCH   4   5
ATOM      5  C   UNL     1      -4.883 -35.199  -8.281  1.00  0.00    -0.000 C 
BRANCH   5   6
ATOM      6  C   UNL     1      -5.994 -34.376  -8.964  1.00  0.00    -0.000 C 
BRANCH   6   7
ATOM      7  C   UNL     1      -7.323 -34.304  -8.191  1.00  0.00    -0.000 C 
BRANCH   7   8
ATOM      8  C   UNL     1      -8.408 -35.217  -8.783  1.00  0.00    -0.000 C 
BRANCH   8   9
ATOM      9  C   UNL     1      -8.334 -35.239 -10.314  1.00  0.00    -0.000 C 
BRANCH   9  10
ATOM     10  C   UNL     1      -9.473 -36.077 -10.907  1.00  0.00    -0.000 C 
BRANCH  10  11
ATOM     11  C   UNL     1      -9.077 -37.554 -11.006  1.00  0.00    -0.003 C 
ATOM     12  C   UNL     1      -9.939 -38.419 -10.092  1.00  0.00     0.004 C 
ENDBRANCH  10  11
ENDBRANCH   9  10
ENDBRANCH   8   9
ENDBRANCH   7   8
ENDBRANCH   6   7
ENDBRANCH   5   6
ENDBRANCH   4   5
ENDBRANCH   3   4
ENDBRANCH   2   3
ENDBRANCH   1   2
BRANCH   1  13
ATOM     13  C   UNL     1      -6.775 -40.050  -9.018  1.00  0.00     0.000 C 
BRANCH  13  14
ATOM     14  C   UNL     1      -6.751 -41.550  -8.665  1.00  0.00     0.000 C 
BRANCH  14  15
ATOM     15  C   UNL     1      -7.516 -42.461  -9.643  1.00  0.00     0.000 C 
BRANCH  15  16
ATOM     16  C   UNL     1      -9.008 -42.112  -9.837  1.00  0.00     0.000 C 
BRANCH  16  17
ATOM     17  C   UNL     1      -9.550 -42.305 -11.265  1.00  0.00     0.000 C 
BRANCH  17  18
ATOM     18  C   UNL     1      -8.499 -42.018 -12.348  1.00  0.00     0.000 C 
BRANCH  18  19
ATOM     19  C   UNL     1      -8.626 -40.599 -12.930  1.00  0.00     0.000 C 
BRANCH  19  20
ATOM     20  C   UNL     1      -7.400 -40.163 -13.764  1.00  0.00     0.006 C 
BRANCH  20  21
ATOM     21  C   UNL     1      -6.228 -41.153 -13.676  1.00  0.00     0.053 C 
BRANCH  21  22
ATOM     22  C   UNL     1      -5.891 -41.725 -15.020  1.00  0.00     0.041 C 
ATOM     23  O   UNL     1      -6.726 -41.669 -15.961  1.00  0.00    -0.550 OA
ATOM     24  O   UNL     1      -4.665 -42.348 -15.222  1.00  0.00    -0.550 OA
ENDBRANCH  21  22
ENDBRANCH  20  21
ENDBRANCH  19  20
ENDBRANCH  18  19
ENDBRANCH  17  18
ENDBRANCH  16  17
ENDBRANCH  15  16
ENDBRANCH  14  15
ENDBRANCH  13  14
ENDBRANCH   1  13
TORSDOF 20
ENDMDL
MODEL 7
REMARK VINA RESULT:    -4.552      2.465      4.123
REMARK INTER + INTRA:         -11.700
REMARK INTER:                  -9.834
REMARK INTRA:                  -1.866
REMARK UNBOUND:                -1.827
REMARK SMILES CCCCCCCCCCCCCCCCCCCCCC(=O)[O-]
REMARK SMILES IDX 12 1 11 2 10 3 9 4 8 5 7 6 6 7 5 8 4 9 3 10 2 11 1 12 13 13
REMARK SMILES IDX 14 14 15 15 16 16 17 17 18 18 19 19 20 20 21 21 22 22 23 23
REMARK SMILES IDX 24 24
REMARK H PARENT
REMARK Flexibility Score: inf
ROOT
ATOM      1  C   UNL     1      -6.724 -40.805 -12.567  1.00  0.00     0.000 C 
ENDROOT
BRANCH   1   2
ATOM      2  C   UNL     1      -7.823 -40.667 -11.499  1.00  0.00     0.000 C 
BRANCH   2   3
ATOM      3  C   UNL     1      -7.299 -40.049 -10.193  1.00  0.00     0.000 C 
BRANCH   3   4
ATOM      4  C   UNL     1      -6.023 -39.216 -10.406  1.00  0.00    -0.000 C 
BRANCH   4   5
ATOM      5  C   UNL     1      -5.860 -38.101  -9.357  1.00  0.00    -0.000 C 
BRANCH   5   6
ATOM      6  C   UNL     1      -4.896 -36.965  -9.758  1.00  0.00    -0.000 C 
BRANCH   6   7
ATOM      7  C   UNL     1      -4.727 -35.852  -8.707  1.00  0.00    -0.000 C 
BRANCH   7   8
ATOM      8  C   UNL     1      -5.580 -34.611  -9.011  1.00  0.00    -0.000 C 
BRANCH   8   9
ATOM      9  C   UNL     1      -6.343 -34.777 -10.330  1.00  0.00    -0.000 C 
BRANCH   9  10
ATOM     10  C   UNL     1      -7.856 -34.666 -10.107  1.00  0.00    -0.000 C 
BRANCH  10  11
ATOM     11  C   UNL     1      -8.579 -35.927 -10.594  1.00  0.00    -0.003 C 
ATOM     12  C   UNL     1      -9.287 -36.637  -9.444  1.00  0.00     0.004 C 
ENDBRANCH  10  11
ENDBRANCH   9  10
ENDBRANCH   8   9
ENDBRANCH   7   8
ENDBRANCH   6   7
ENDBRANCH   5   6
ENDBRANCH   4   5
ENDBRANCH   3   4
ENDBRANCH   2   3
ENDBRANCH   1   2
BRANCH   1  13
ATOM     13  C   UNL     1      -7.129 -40.180 -13.919  1.00  0.00     0.000 C 
BRANCH  13  14
ATOM     14  C   UNL     1      -6.547 -40.913 -15.143  1.00  0.00     0.000 C 
BRANCH  14  15
ATOM     15  C   UNL     1      -6.789 -40.215 -16.494  1.00  0.00     0.000 C 
BRANCH  15  16
ATOM     16  C   UNL     1      -8.094 -39.394 -16.586  1.00  0.00     0.000 C 
BRANCH  16  17
ATOM     17  C   UNL     1      -7.929 -37.947 -17.085  1.00  0.00     0.000 C 
BRANCH  17  18
ATOM     18  C   UNL     1      -7.333 -37.865 -18.499  1.00  0.00     0.000 C 
BRANCH  18  19
ATOM     19  C   UNL     1      -8.117 -38.710 -19.518  1.00  0.00     0.000 C 
BRANCH  19  20
ATOM     20  C   UNL     1      -7.238 -39.721 -20.288  1.00  0.00     0.006 C 
BRANCH  20  21
ATOM     21  C   UNL     1      -5.743 -39.593 -19.959  1.00  0.00     0.053 C 
BRANCH  21  22
ATOM     22  C   UNL     1      -4.898 -40.346 -20.942  1.00  0.00     0.041 C 
ATOM     23  O   UNL     1      -3.758 -40.764 -20.610  1.00  0.00    -0.550 OA
ATOM     24  O   UNL     1      -5.360 -40.557 -22.236  1.00  0.00    -0.550 OA
ENDBRANCH  21  22
ENDBRANCH  20  21
ENDBRANCH  19  20
ENDBRANCH  18  19
ENDBRANCH  17  18
ENDBRANCH  16  17
ENDBRANCH  15  16
ENDBRANCH  14  15
ENDBRANCH  13  14
ENDBRANCH   1  13
TORSDOF 20
ENDMDL
MODEL 8
REMARK VINA RESULT:    -4.550      2.092      5.962
REMARK INTER + INTRA:         -11.697
REMARK INTER:                  -8.317
REMARK INTRA:                  -3.379
REMARK UNBOUND:                -1.827
REMARK SMILES CCCCCCCCCCCCCCCCCCCCCC(=O)[O-]
REMARK SMILES IDX 12 1 11 2 10 3 9 4 8 5 7 6 6 7 5 8 4 9 3 10 2 11 1 12 13 13
REMARK SMILES IDX 14 14 15 15 16 16 17 17 18 18 19 19 20 20 21 21 22 22 23 23
REMARK SMILES IDX 24 24
REMARK H PARENT
REMARK Flexibility Score: inf
ROOT
ATOM      1  C   UNL     1      -6.039 -35.014 -10.262  1.00  0.00     0.000 C 
ENDROOT
BRANCH   1   2
ATOM      2  C   UNL     1      -5.383 -35.705  -9.053  1.00  0.00     0.000 C 
BRANCH   2   3
ATOM      3  C   UNL     1      -4.924 -37.137  -9.372  1.00  0.00     0.000 C 
BRANCH   3   4
ATOM      4  C   UNL     1      -5.957 -37.914 -10.208  1.00  0.00    -0.000 C 
BRANCH   4   5
ATOM      5  C   UNL     1      -6.116 -39.374  -9.747  1.00  0.00    -0.000 C 
BRANCH   5   6
ATOM      6  C   UNL     1      -7.132 -39.591  -8.607  1.00  0.00    -0.000 C 
BRANCH   6   7
ATOM      7  C   UNL     1      -7.727 -41.009  -8.523  1.00  0.00    -0.000 C 
BRANCH   7   8
ATOM      8  C   UNL     1      -6.656 -42.108  -8.582  1.00  0.00    -0.000 C 
BRANCH   8   9
ATOM      9  C   UNL     1      -6.991 -43.148  -9.657  1.00  0.00    -0.000 C 
BRANCH   9  10
ATOM     10  C   UNL     1      -8.370 -42.877 -10.272  1.00  0.00    -0.000 C 
BRANCH  10  11
ATOM     11  C   UNL     1      -8.307 -42.916 -11.803  1.00  0.00    -0.003 C 
ATOM     12  C   UNL     1      -6.904 -42.594 -12.307  1.00  0.00     0.004 C 
ENDBRANCH  10  11
ENDBRANCH   9  10
ENDBRANCH   8   9
ENDBRANCH   7   8
ENDBRANCH   6   7
ENDBRANCH   5   6
ENDBRANCH   4   5
ENDBRANCH   3   4
ENDBRANCH   2   3
ENDBRANCH   1   2
BRANCH   1  13
ATOM     13  C   UNL     1      -7.435 -34.443  -9.932  1.00  0.00     0.000 C 
BRANCH  13  14
ATOM     14  C   UNL     1      -8.599 -35.280 -10.497  1.00  0.00     0.000 C 
BRANCH  14  15
ATOM     15  C   UNL     1      -9.306 -36.187  -9.471  1.00  0.00     0.000 C 
BRANCH  15  16
ATOM     16  C   UNL     1      -9.774 -37.554 -10.015  1.00  0.00     0.000 C 
BRANCH  16  17
ATOM     17  C   UNL     1      -9.475 -37.809 -11.503  1.00  0.00     0.000 C 
BRANCH  17  18
ATOM     18  C   UNL     1      -9.170 -39.284 -11.808  1.00  0.00     0.000 C 
BRANCH  18  19
ATOM     19  C   UNL     1      -9.144 -39.582 -13.317  1.00  0.00     0.000 C 
BRANCH  19  20
ATOM     20  C   UNL     1      -7.742 -39.434 -13.951  1.00  0.00     0.006 C 
BRANCH  20  21
ATOM     21  C   UNL     1      -7.773 -39.437 -15.487  1.00  0.00     0.053 C 
BRANCH  21  22
ATOM     22  C   UNL     1      -6.724 -40.344 -16.055  1.00  0.00     0.041 C 
ATOM     23  O   UNL     1      -6.022 -41.059 -15.292  1.00  0.00    -0.550 OA
ATOM     24  O   UNL     1      -6.502 -40.377 -17.426  1.00  0.00    -0.550 OA
ENDBRANCH  21  22
ENDBRANCH  20  21
ENDBRANCH  19  20
ENDBRANCH  18  19
ENDBRANCH  17  18
ENDBRANCH  16  17
ENDBRANCH  15  16
ENDBRANCH  14  15
ENDBRANCH  13  14
ENDBRANCH   1  13
TORSDOF 20
ENDMDL
MODEL 9
REMARK VINA RESULT:    -4.527      2.551      7.901
REMARK INTER + INTRA:         -11.648
REMARK INTER:                  -9.311
REMARK INTRA:                  -2.337
REMARK UNBOUND:                -1.827
REMARK SMILES CCCCCCCCCCCCCCCCCCCCCC(=O)[O-]
REMARK SMILES IDX 12 1 11 2 10 3 9 4 8 5 7 6 6 7 5 8 4 9 3 10 2 11 1 12 13 13
REMARK SMILES IDX 14 14 15 15 16 16 17 17 18 18 19 19 20 20 21 21 22 22 23 23
REMARK SMILES IDX 24 24
REMARK H PARENT
REMARK Flexibility Score: inf
ROOT
ATOM      1  C   UNL     1      -7.181 -39.511 -11.907  1.00  0.00     0.000 C 
ENDROOT
BRANCH   1   2
ATOM      2  C   UNL     1      -8.265 -40.531 -12.299  1.00  0.00     0.000 C 
BRANCH   2   3
ATOM      3  C   UNL     1      -8.310 -40.789 -13.813  1.00  0.00     0.000 C 
BRANCH   3   4
ATOM      4  C   UNL     1      -7.020 -40.343 -14.525  1.00  0.00    -0.000 C 
BRANCH   4   5
ATOM      5  C   UNL     1      -6.893 -40.927 -15.943  1.00  0.00    -0.000 C 
BRANCH   5   6
ATOM      6  C   UNL     1      -5.596 -41.719 -16.209  1.00  0.00    -0.000 C 
BRANCH   6   7
ATOM      7  C   UNL     1      -4.961 -42.367 -14.966  1.00  0.00    -0.000 C 
BRANCH   7   8
ATOM      8  C   UNL     1      -5.270 -43.868 -14.852  1.00  0.00    -0.000 C 
BRANCH   8   9
ATOM      9  C   UNL     1      -5.417 -44.290 -13.386  1.00  0.00    -0.000 C 
BRANCH   9  10
ATOM     10  C   UNL     1      -6.805 -43.927 -12.846  1.00  0.00    -0.000 C 
BRANCH  10  11
ATOM     11  C   UNL     1      -6.790 -43.814 -11.318  1.00  0.00    -0.003 C 
ATOM     12  C   UNL     1      -6.420 -45.144 -10.669  1.00  0.00     0.004 C 
ENDBRANCH  10  11
ENDBRANCH   9  10
ENDBRANCH   8   9
ENDBRANCH   7   8
ENDBRANCH   6   7
ENDBRANCH   5   6
ENDBRANCH   4   5
ENDBRANCH   3   4
ENDBRANCH   2   3
ENDBRANCH   1   2
BRANCH   1  13
ATOM     13  C   UNL     1      -6.305 -39.999 -10.734  1.00  0.00     0.000 C 
BRANCH  13  14
ATOM     14  C   UNL     1      -5.242 -38.978 -10.283  1.00  0.00     0.000 C 
BRANCH  14  15
ATOM     15  C   UNL     1      -5.781 -37.810  -9.436  1.00  0.00     0.000 C 
BRANCH  15  16
ATOM     16  C   UNL     1      -4.888 -36.551  -9.409  1.00  0.00     0.000 C 
BRANCH  16  17
ATOM     17  C   UNL     1      -5.471 -35.345  -8.649  1.00  0.00     0.000 C 
BRANCH  17  18
ATOM     18  C   UNL     1      -6.018 -34.256  -9.584  1.00  0.00     0.000 C 
BRANCH  18  19
ATOM     19  C   UNL     1      -7.414 -34.598 -10.135  1.00  0.00     0.000 C 
BRANCH  19  20
ATOM     20  C   UNL     1      -8.358 -35.218  -9.080  1.00  0.00     0.006 C 
BRANCH  20  21
ATOM     21  C   UNL     1      -9.710 -35.654  -9.665  1.00  0.00     0.053 C 
BRANCH  21  22
ATOM     22  C   UNL     1      -9.633 -37.027 -10.261  1.00  0.00     0.041 C 
ATOM     23  O   UNL     1      -9.347 -38.018  -9.537  1.00  0.00    -0.550 OA
ATOM     24  O   UNL     1      -9.845 -37.206 -11.622  1.00  0.00    -0.550 OA
ENDBRANCH  21  22
ENDBRANCH  20  21
ENDBRANCH  19  20
ENDBRANCH  18  19
ENDBRANCH  17  18
ENDBRANCH  16  17
ENDBRANCH  15  16
ENDBRANCH  14  15
ENDBRANCH  13  14
ENDBRANCH   1  13
TORSDOF 20
ENDMDL
