MODEL 1
REMARK VINA RESULT:    -7.287      0.000      0.000
REMARK INTER + INTRA:         -11.722
REMARK INTER:                 -11.121
REMARK INTRA:                  -0.601
REMARK UNBOUND:                -0.601
REMARK SMILES CC(=O)CCC=C(C)CCC=C(C)CCC=C(C)C
REMARK SMILES IDX 10 1 11 2 12 3 13 4 14 5 15 6 16 7 18 8 17 9 19 10 9 11 7 12
REMARK SMILES IDX 6 13 8 14 5 15 4 16 2 17 3 18 1 19
REMARK H PARENT
REMARK Flexibility Score: inf
ROOT
ATOM      1  C   UNL     1     -11.633  72.727  32.966  1.00  0.00     0.032 C 
ENDROOT
BRANCH   1   2
ATOM      2  C   UNL     1     -11.656  72.807  31.461  1.00  0.00    -0.028 C 
ATOM      3  C   UNL     1     -11.219  73.868  30.745  1.00  0.00    -0.077 C 
ATOM      4  C   UNL     1     -10.698  75.121  31.412  1.00  0.00     0.039 C 
BRANCH   3   5
ATOM      5  C   UNL     1     -11.269  73.808  29.232  1.00  0.00     0.034 C 
BRANCH   5   6
ATOM      6  C   UNL     1     -10.107  74.582  28.590  1.00  0.00     0.032 C 
BRANCH   6   7
ATOM      7  C   UNL     1     -10.322  74.793  27.110  1.00  0.00    -0.028 C 
ATOM      8  C   UNL     1      -9.974  74.405  24.691  1.00  0.00     0.039 C 
ATOM      9  C   UNL     1      -9.704  74.083  26.138  1.00  0.00    -0.080 C 
ATOM     10  C   UNL     1      -8.786  72.927  26.448  1.00  0.00     0.039 C 
ENDBRANCH   6   7
ENDBRANCH   5   6
ENDBRANCH   3   5
ENDBRANCH   1   2
BRANCH   1  11
ATOM     11  C   UNL     1     -10.468  71.851  33.446  1.00  0.00     0.034 C 
BRANCH  11  12
ATOM     12  C   UNL     1     -10.349  71.897  34.953  1.00  0.00    -0.077 C 
ATOM     13  C   UNL     1     -11.132  72.756  35.647  1.00  0.00    -0.028 C 
ATOM     14  C   UNL     1      -9.344  71.004  35.641  1.00  0.00     0.039 C 
BRANCH  13  15
ATOM     15  C   UNL     1     -11.149  72.871  37.150  1.00  0.00     0.035 C 
BRANCH  15  16
ATOM     16  C   UNL     1     -11.789  71.630  37.780  1.00  0.00     0.079 C 
BRANCH  16  17
ATOM     17  C   UNL     1     -11.830  71.755  39.279  1.00  0.00     0.130 C 
ATOM     18  O   UNL     1     -11.395  70.848  39.971  1.00  0.00    -0.300 OA
ATOM     19  C   UNL     1     -12.386  72.979  39.945  1.00  0.00     0.087 C 
ENDBRANCH  16  17
ENDBRANCH  15  16
ENDBRANCH  13  15
ENDBRANCH  11  12
ENDBRANCH   1  11
TORSDOF 9
ENDMDL
MODEL 2
REMARK VINA RESULT:    -7.248      1.971      4.615
REMARK INTER + INTRA:         -11.662
REMARK INTER:                 -10.771
REMARK INTRA:                  -0.892
REMARK UNBOUND:                -0.601
REMARK SMILES CC(=O)CCC=C(C)CCC=C(C)CCC=C(C)C
REMARK SMILES IDX 10 1 11 2 12 3 13 4 14 5 15 6 16 7 18 8 17 9 19 10 9 11 7 12
REMARK SMILES IDX 6 13 8 14 5 15 4 16 2 17 3 18 1 19
REMARK H PARENT
REMARK Flexibility Score: inf
ROOT
ATOM      1  C   UNL     1      -9.970  74.116  28.760  1.00  0.00     0.032 C 
ENDROOT
BRANCH   1   2
ATOM      2  C   UNL     1     -10.256  74.590  27.358  1.00  0.00    -0.028 C 
ATOM      3  C   UNL     1      -9.726  74.038  26.242  1.00  0.00    -0.077 C 
ATOM      4  C   UNL     1      -8.737  72.897  26.308  1.00  0.00     0.039 C 
BRANCH   3   5
ATOM      5  C   UNL     1     -10.121  74.591  24.887  1.00  0.00     0.034 C 
BRANCH   5   6
ATOM      6  C   UNL     1     -10.177  73.492  23.815  1.00  0.00     0.032 C 
BRANCH   6   7
ATOM      7  C   UNL     1      -9.598  73.959  22.500  1.00  0.00    -0.028 C 
ATOM      8  C   UNL     1      -7.893  74.165  20.719  1.00  0.00     0.039 C 
ATOM      9  C   UNL     1      -8.378  73.610  22.034  1.00  0.00    -0.080 C 
ATOM     10  C   UNL     1      -7.493  72.625  22.758  1.00  0.00     0.039 C 
ENDBRANCH   6   7
ENDBRANCH   5   6
ENDBRANCH   3   5
ENDBRANCH   1   2
BRANCH   1  11
ATOM     11  C   UNL     1     -11.255  73.628  29.441  1.00  0.00     0.034 C 
BRANCH  11  12
ATOM     12  C   UNL     1     -11.161  73.791  30.942  1.00  0.00    -0.077 C 
ATOM     13  C   UNL     1     -11.670  72.823  31.739  1.00  0.00    -0.028 C 
ATOM     14  C   UNL     1     -10.524  75.037  31.511  1.00  0.00     0.039 C 
BRANCH  13  15
ATOM     15  C   UNL     1     -11.601  72.835  33.245  1.00  0.00     0.035 C 
BRANCH  15  16
ATOM     16  C   UNL     1     -10.502  71.892  33.744  1.00  0.00     0.079 C 
BRANCH  16  17
ATOM     17  C   UNL     1     -10.306  72.043  35.229  1.00  0.00     0.130 C 
ATOM     18  O   UNL     1      -9.349  71.508  35.767  1.00  0.00    -0.300 OA
ATOM     19  C   UNL     1     -11.258  72.846  36.065  1.00  0.00     0.087 C 
ENDBRANCH  16  17
ENDBRANCH  15  16
ENDBRANCH  13  15
ENDBRANCH  11  12
ENDBRANCH   1  11
TORSDOF 9
ENDMDL
MODEL 3
REMARK VINA RESULT:    -7.067      4.101      9.938
REMARK INTER + INTRA:         -11.387
REMARK INTER:                 -10.300
REMARK INTRA:                  -1.087
REMARK UNBOUND:                -0.601
REMARK SMILES CC(=O)CCC=C(C)CCC=C(C)CCC=C(C)C
REMARK SMILES IDX 10 1 11 2 12 3 13 4 14 5 15 6 16 7 18 8 17 9 19 10 9 11 7 12
REMARK SMILES IDX 6 13 8 14 5 15 4 16 2 17 3 18 1 19
REMARK H PARENT
REMARK Flexibility Score: inf
ROOT
ATOM      1  C   UNL     1     -10.001  74.335  31.384  1.00  0.00     0.032 C 
ENDROOT
BRANCH   1   2
ATOM      2  C   UNL     1     -10.661  74.155  32.727  1.00  0.00    -0.028 C 
ATOM      3  C   UNL     1     -10.918  72.957  33.299  1.00  0.00    -0.077 C 
ATOM      4  C   UNL     1     -10.599  71.655  32.599  1.00  0.00     0.039 C 
BRANCH   3   5
ATOM      5  C   UNL     1     -11.559  72.915  34.671  1.00  0.00     0.034 C 
BRANCH   5   6
ATOM      6  C   UNL     1     -10.535  73.167  35.788  1.00  0.00     0.032 C 
BRANCH   6   7
ATOM      7  C   UNL     1     -10.705  72.198  36.934  1.00  0.00    -0.028 C 
ATOM      8  C   UNL     1     -10.318  70.120  38.222  1.00  0.00     0.039 C 
ATOM      9  C   UNL     1     -10.043  71.023  37.047  1.00  0.00    -0.080 C 
ATOM     10  C   UNL     1      -8.982  70.601  36.061  1.00  0.00     0.039 C 
ENDBRANCH   6   7
ENDBRANCH   5   6
ENDBRANCH   3   5
ENDBRANCH   1   2
BRANCH   1  11
ATOM     11  C   UNL     1     -11.046  74.631  30.300  1.00  0.00     0.034 C 
BRANCH  11  12
ATOM     12  C   UNL     1     -10.736  73.865  29.034  1.00  0.00    -0.077 C 
ATOM     13  C   UNL     1     -10.038  74.480  28.050  1.00  0.00    -0.028 C 
ATOM     14  C   UNL     1     -11.232  72.445  28.890  1.00  0.00     0.039 C 
BRANCH  13  15
ATOM     15  C   UNL     1      -9.621  73.820  26.760  1.00  0.00     0.035 C 
BRANCH  15  16
ATOM     16  C   UNL     1     -10.198  74.572  25.557  1.00  0.00     0.079 C 
BRANCH  16  17
ATOM     17  C   UNL     1      -9.786  73.911  24.269  1.00  0.00     0.130 C 
ATOM     18  O   UNL     1      -8.770  74.281  23.701  1.00  0.00    -0.300 OA
ATOM     19  C   UNL     1     -10.591  72.796  23.670  1.00  0.00     0.087 C 
ENDBRANCH  16  17
ENDBRANCH  15  16
ENDBRANCH  13  15
ENDBRANCH  11  12
ENDBRANCH   1  11
TORSDOF 9
ENDMDL
MODEL 4
REMARK VINA RESULT:    -7.049      4.435     10.511
REMARK INTER + INTRA:         -11.359
REMARK INTER:                 -10.493
REMARK INTRA:                  -0.867
REMARK UNBOUND:                -0.601
REMARK SMILES CC(=O)CCC=C(C)CCC=C(C)CCC=C(C)C
REMARK SMILES IDX 10 1 11 2 12 3 13 4 14 5 15 6 16 7 18 8 17 9 19 10 9 11 7 12
REMARK SMILES IDX 6 13 8 14 5 15 4 16 2 17 3 18 1 19
REMARK H PARENT
REMARK Flexibility Score: inf
ROOT
ATOM      1  C   UNL     1     -10.247  74.571  28.955  1.00  0.00     0.032 C 
ENDROOT
BRANCH   1   2
ATOM      2  C   UNL     1     -10.863  73.570  29.898  1.00  0.00    -0.028 C 
ATOM      3  C   UNL     1     -11.160  73.821  31.193  1.00  0.00    -0.077 C 
ATOM      4  C   UNL     1     -10.848  75.151  31.840  1.00  0.00     0.039 C 
BRANCH   3   5
ATOM      5  C   UNL     1     -11.808  72.733  32.027  1.00  0.00     0.034 C 
BRANCH   5   6
ATOM      6  C   UNL     1     -10.860  72.205  33.114  1.00  0.00     0.032 C 
BRANCH   6   7
ATOM      7  C   UNL     1     -11.228  72.726  34.483  1.00  0.00    -0.028 C 
ATOM      8  C   UNL     1     -11.177  72.841  36.954  1.00  0.00     0.039 C 
ATOM      9  C   UNL     1     -10.709  72.263  35.643  1.00  0.00    -0.080 C 
ATOM     10  C   UNL     1      -9.622  71.218  35.676  1.00  0.00     0.039 C 
ENDBRANCH   6   7
ENDBRANCH   5   6
ENDBRANCH   3   5
ENDBRANCH   1   2
BRANCH   1  11
ATOM     11  C   UNL     1      -9.123  73.926  28.135  1.00  0.00     0.034 C 
BRANCH  11  12
ATOM     12  C   UNL     1      -9.535  73.776  26.687  1.00  0.00    -0.077 C 
ATOM     13  C   UNL     1      -9.038  72.742  25.968  1.00  0.00    -0.028 C 
ATOM     14  C   UNL     1     -10.468  74.795  26.076  1.00  0.00     0.039 C 
BRANCH  13  15
ATOM     15  C   UNL     1      -9.401  72.448  24.534  1.00  0.00     0.035 C 
BRANCH  15  16
ATOM     16  C   UNL     1      -8.175  72.585  23.627  1.00  0.00     0.079 C 
BRANCH  16  17
ATOM     17  C   UNL     1      -8.316  73.778  22.719  1.00  0.00     0.130 C 
ATOM     18  O   UNL     1      -7.315  74.318  22.274  1.00  0.00    -0.300 OA
ATOM     19  C   UNL     1      -9.665  74.314  22.339  1.00  0.00     0.087 C 
ENDBRANCH  16  17
ENDBRANCH  15  16
ENDBRANCH  13  15
ENDBRANCH  11  12
ENDBRANCH   1  11
TORSDOF 9
ENDMDL
MODEL 5
REMARK VINA RESULT:    -7.002      1.755      3.293
REMARK INTER + INTRA:         -11.288
REMARK INTER:                 -10.212
REMARK INTRA:                  -1.076
REMARK UNBOUND:                -0.601
REMARK SMILES CC(=O)CCC=C(C)CCC=C(C)CCC=C(C)C
REMARK SMILES IDX 10 1 11 2 12 3 13 4 14 5 15 6 16 7 18 8 17 9 19 10 9 11 7 12
REMARK SMILES IDX 6 13 8 14 5 15 4 16 2 17 3 18 1 19
REMARK H PARENT
REMARK Flexibility Score: inf
ROOT
ATOM      1  C   UNL     1      -9.512  74.831  30.774  1.00  0.00     0.032 C 
ENDROOT
BRANCH   1   2
ATOM      2  C   UNL     1     -10.015  74.528  29.386  1.00  0.00    -0.028 C 
ATOM      3  C   UNL     1      -9.836  73.349  28.748  1.00  0.00    -0.077 C 
ATOM      4  C   UNL     1      -9.052  72.216  29.371  1.00  0.00     0.039 C 
BRANCH   3   5
ATOM      5  C   UNL     1     -10.422  73.162  27.363  1.00  0.00     0.034 C 
BRANCH   5   6
ATOM      6  C   UNL     1      -9.543  73.804  26.279  1.00  0.00     0.032 C 
BRANCH   6   7
ATOM      7  C   UNL     1      -8.765  72.769  25.501  1.00  0.00    -0.028 C 
ATOM      8  C   UNL     1      -7.789  71.703  23.493  1.00  0.00     0.039 C 
ATOM      9  C   UNL     1      -8.557  72.812  24.166  1.00  0.00    -0.080 C 
ATOM     10  C   UNL     1      -9.018  73.972  23.318  1.00  0.00     0.039 C 
ENDBRANCH   6   7
ENDBRANCH   5   6
ENDBRANCH   3   5
ENDBRANCH   1   2
BRANCH   1  11
ATOM     11  C   UNL     1     -10.671  74.859  31.778  1.00  0.00     0.034 C 
BRANCH  11  12
ATOM     12  C   UNL     1     -10.920  73.480  32.347  1.00  0.00    -0.077 C 
ATOM     13  C   UNL     1     -10.173  73.059  33.394  1.00  0.00    -0.028 C 
ATOM     14  C   UNL     1     -11.977  72.603  31.718  1.00  0.00     0.039 C 
BRANCH  13  15
ATOM     15  C   UNL     1     -10.348  71.730  34.087  1.00  0.00     0.035 C 
BRANCH  15  16
ATOM     16  C   UNL     1      -9.866  71.810  35.539  1.00  0.00     0.079 C 
BRANCH  16  17
ATOM     17  C   UNL     1     -11.027  72.016  36.474  1.00  0.00     0.130 C 
ATOM     18  O   UNL     1     -11.745  72.995  36.336  1.00  0.00    -0.300 OA
ATOM     19  C   UNL     1     -11.331  71.037  37.569  1.00  0.00     0.087 C 
ENDBRANCH  16  17
ENDBRANCH  15  16
ENDBRANCH  13  15
ENDBRANCH  11  12
ENDBRANCH   1  11
TORSDOF 9
ENDMDL
MODEL 6
REMARK VINA RESULT:    -6.971      4.857     11.184
REMARK INTER + INTRA:         -11.240
REMARK INTER:                 -10.477
REMARK INTRA:                  -0.764
REMARK UNBOUND:                -0.601
REMARK SMILES CC(=O)CCC=C(C)CCC=C(C)CCC=C(C)C
REMARK SMILES IDX 10 1 11 2 12 3 13 4 14 5 15 6 16 7 18 8 17 9 19 10 9 11 7 12
REMARK SMILES IDX 6 13 8 14 5 15 4 16 2 17 3 18 1 19
REMARK H PARENT
REMARK Flexibility Score: inf
ROOT
ATOM      1  C   UNL     1     -11.145  74.076  27.713  1.00  0.00     0.032 C 
ENDROOT
BRANCH   1   2
ATOM      2  C   UNL     1     -11.030  74.244  29.207  1.00  0.00    -0.028 C 
ATOM      3  C   UNL     1     -11.101  73.229  30.098  1.00  0.00    -0.077 C 
ATOM      4  C   UNL     1     -11.357  71.804  29.665  1.00  0.00     0.039 C 
BRANCH   3   5
ATOM      5  C   UNL     1     -10.937  73.531  31.574  1.00  0.00     0.034 C 
BRANCH   5   6
ATOM      6  C   UNL     1     -11.638  72.483  32.453  1.00  0.00     0.032 C 
BRANCH   6   7
ATOM      7  C   UNL     1     -10.661  71.754  33.345  1.00  0.00    -0.028 C 
ATOM      8  C   UNL     1      -9.494  71.203  35.456  1.00  0.00     0.039 C 
ATOM      9  C   UNL     1     -10.527  71.972  34.673  1.00  0.00    -0.080 C 
ATOM     10  C   UNL     1     -11.424  72.924  35.425  1.00  0.00     0.039 C 
ENDBRANCH   6   7
ENDBRANCH   5   6
ENDBRANCH   3   5
ENDBRANCH   1   2
BRANCH   1  11
ATOM     11  C   UNL     1      -9.948  74.717  27.000  1.00  0.00     0.034 C 
BRANCH  11  12
ATOM     12  C   UNL     1      -9.556  73.912  25.781  1.00  0.00    -0.077 C 
ATOM     13  C   UNL     1     -10.111  74.221  24.586  1.00  0.00    -0.028 C 
ATOM     14  C   UNL     1      -8.576  72.772  25.934  1.00  0.00     0.039 C 
BRANCH  13  15
ATOM     15  C   UNL     1      -9.775  73.533  23.286  1.00  0.00     0.035 C 
BRANCH  15  16
ATOM     16  C   UNL     1      -8.639  74.266  22.565  1.00  0.00     0.079 C 
BRANCH  16  17
ATOM     17  C   UNL     1      -8.860  74.253  21.076  1.00  0.00     0.130 C 
ATOM     18  O   UNL     1      -9.969  74.505  20.630  1.00  0.00    -0.300 OA
ATOM     19  C   UNL     1      -7.743  73.945  20.123  1.00  0.00     0.087 C 
ENDBRANCH  16  17
ENDBRANCH  15  16
ENDBRANCH  13  15
ENDBRANCH  11  12
ENDBRANCH   1  11
TORSDOF 9
ENDMDL
MODEL 7
REMARK VINA RESULT:    -6.940      3.487      9.169
REMARK INTER + INTRA:         -11.193
REMARK INTER:                 -10.023
REMARK INTRA:                  -1.170
REMARK UNBOUND:                -0.601
REMARK SMILES CC(=O)CCC=C(C)CCC=C(C)CCC=C(C)C
REMARK SMILES IDX 10 1 11 2 12 3 13 4 14 5 15 6 16 7 18 8 17 9 19 10 9 11 7 12
REMARK SMILES IDX 6 13 8 14 5 15 4 16 2 17 3 18 1 19
REMARK H PARENT
REMARK Flexibility Score: inf
ROOT
ATOM      1  C   UNL     1     -10.662  72.813  33.894  1.00  0.00     0.032 C 
ENDROOT
BRANCH   1   2
ATOM      2  C   UNL     1     -11.148  71.986  35.056  1.00  0.00    -0.028 C 
ATOM      3  C   UNL     1     -10.990  72.327  36.356  1.00  0.00    -0.077 C 
ATOM      4  C   UNL     1     -10.250  73.579  36.768  1.00  0.00     0.039 C 
BRANCH   3   5
ATOM      5  C   UNL     1     -11.556  71.421  37.431  1.00  0.00     0.034 C 
BRANCH   5   6
ATOM      6  C   UNL     1     -10.450  70.651  38.170  1.00  0.00     0.032 C 
BRANCH   6   7
ATOM      7  C   UNL     1     -10.086  69.370  37.458  1.00  0.00    -0.028 C 
ATOM      8  C   UNL     1      -8.732  67.884  36.015  1.00  0.00     0.039 C 
ATOM      9  C   UNL     1      -8.975  69.202  36.705  1.00  0.00    -0.080 C 
ATOM     10  C   UNL     1      -7.924  70.277  36.573  1.00  0.00     0.039 C 
ENDBRANCH   6   7
ENDBRANCH   5   6
ENDBRANCH   3   5
ENDBRANCH   1   2
BRANCH   1  11
ATOM     11  C   UNL     1     -11.668  72.767  32.736  1.00  0.00     0.034 C 
BRANCH  11  12
ATOM     12  C   UNL     1     -11.242  73.693  31.619  1.00  0.00    -0.077 C 
ATOM     13  C   UNL     1     -11.310  73.254  30.341  1.00  0.00    -0.028 C 
ATOM     14  C   UNL     1     -10.730  75.073  31.960  1.00  0.00     0.039 C 
BRANCH  13  15
ATOM     15  C   UNL     1     -10.964  74.087  29.133  1.00  0.00     0.035 C 
BRANCH  15  16
ATOM     16  C   UNL     1      -9.561  73.743  28.623  1.00  0.00     0.079 C 
BRANCH  16  17
ATOM     17  C   UNL     1      -9.486  73.895  27.128  1.00  0.00     0.130 C 
ATOM     18  O   UNL     1      -8.662  73.251  26.497  1.00  0.00    -0.300 OA
ATOM     19  C   UNL     1     -10.412  74.817  26.390  1.00  0.00     0.087 C 
ENDBRANCH  16  17
ENDBRANCH  15  16
ENDBRANCH  13  15
ENDBRANCH  11  12
ENDBRANCH   1  11
TORSDOF 9
ENDMDL
MODEL 8
REMARK VINA RESULT:    -6.877      3.092      6.636
REMARK INTER + INTRA:         -11.097
REMARK INTER:                  -9.913
REMARK INTRA:                  -1.184
REMARK UNBOUND:                -0.601
REMARK SMILES CC(=O)CCC=C(C)CCC=C(C)CCC=C(C)C
REMARK SMILES IDX 10 1 11 2 12 3 13 4 14 5 15 6 16 7 18 8 17 9 19 10 9 11 7 12
REMARK SMILES IDX 6 13 8 14 5 15 4 16 2 17 3 18 1 19
REMARK H PARENT
REMARK Flexibility Score: inf
ROOT
ATOM      1  C   UNL     1     -10.176  73.699  26.170  1.00  0.00     0.032 C 
ENDROOT
BRANCH   1   2
ATOM      2  C   UNL     1      -9.382  74.054  24.939  1.00  0.00    -0.028 C 
ATOM      3  C   UNL     1      -9.687  73.643  23.687  1.00  0.00    -0.077 C 
ATOM      4  C   UNL     1     -10.857  72.727  23.411  1.00  0.00     0.039 C 
BRANCH   3   5
ATOM      5  C   UNL     1      -8.822  74.099  22.529  1.00  0.00     0.034 C 
BRANCH   5   6
ATOM      6  C   UNL     1      -7.401  73.522  22.615  1.00  0.00     0.032 C 
BRANCH   6   7
ATOM      7  C   UNL     1      -7.403  72.013  22.552  1.00  0.00    -0.028 C 
ATOM      8  C   UNL     1      -7.003  69.709  23.362  1.00  0.00     0.039 C 
ATOM      9  C   UNL     1      -6.985  71.204  23.552  1.00  0.00    -0.080 C 
ATOM     10  C   UNL     1      -6.551  71.743  24.893  1.00  0.00     0.039 C 
ENDBRANCH   6   7
ENDBRANCH   5   6
ENDBRANCH   3   5
ENDBRANCH   1   2
BRANCH   1  11
ATOM     11  C   UNL     1      -9.558  74.339  27.419  1.00  0.00     0.034 C 
BRANCH  11  12
ATOM     12  C   UNL     1     -10.490  74.209  28.604  1.00  0.00    -0.077 C 
ATOM     13  C   UNL     1     -10.081  74.663  29.812  1.00  0.00    -0.028 C 
ATOM     14  C   UNL     1     -11.839  73.557  28.414  1.00  0.00     0.039 C 
BRANCH  13  15
ATOM     15  C   UNL     1     -10.924  74.640  31.062  1.00  0.00     0.035 C 
BRANCH  15  16
ATOM     16  C   UNL     1     -10.179  73.941  32.204  1.00  0.00     0.079 C 
BRANCH  16  17
ATOM     17  C   UNL     1     -10.994  72.800  32.750  1.00  0.00     0.130 C 
ATOM     18  O   UNL     1     -12.044  72.496  32.206  1.00  0.00    -0.300 OA
ATOM     19  C   UNL     1     -10.538  72.018  33.947  1.00  0.00     0.087 C 
ENDBRANCH  16  17
ENDBRANCH  15  16
ENDBRANCH  13  15
ENDBRANCH  11  12
ENDBRANCH   1  11
TORSDOF 9
ENDMDL
MODEL 9
REMARK VINA RESULT:    -6.700      5.356     10.050
REMARK INTER + INTRA:         -10.827
REMARK INTER:                  -9.543
REMARK INTRA:                  -1.284
REMARK UNBOUND:                -0.601
REMARK SMILES CC(=O)CCC=C(C)CCC=C(C)CCC=C(C)C
REMARK SMILES IDX 10 1 11 2 12 3 13 4 14 5 15 6 16 7 18 8 17 9 19 10 9 11 7 12
REMARK SMILES IDX 6 13 8 14 5 15 4 16 2 17 3 18 1 19
REMARK H PARENT
REMARK Flexibility Score: inf
ROOT
ATOM      1  C   UNL     1      -9.932  74.103  26.577  1.00  0.00     0.032 C 
ENDROOT
BRANCH   1   2
ATOM      2  C   UNL     1     -10.246  73.073  27.631  1.00  0.00    -0.028 C 
ATOM      3  C   UNL     1     -11.451  72.935  28.232  1.00  0.00    -0.077 C 
ATOM      4  C   UNL     1     -12.606  73.860  27.923  1.00  0.00     0.039 C 
BRANCH   3   5
ATOM      5  C   UNL     1     -11.644  71.835  29.256  1.00  0.00     0.034 C 
BRANCH   5   6
ATOM      6  C   UNL     1     -10.813  72.082  30.524  1.00  0.00     0.032 C 
BRANCH   6   7
ATOM      7  C   UNL     1     -11.259  73.328  31.253  1.00  0.00    -0.028 C 
ATOM      8  C   UNL     1     -11.027  75.596  32.217  1.00  0.00     0.039 C 
ATOM      9  C   UNL     1     -10.484  74.421  31.445  1.00  0.00    -0.080 C 
ATOM     10  C   UNL     1      -9.099  74.536  30.858  1.00  0.00     0.039 C 
ENDBRANCH   6   7
ENDBRANCH   5   6
ENDBRANCH   3   5
ENDBRANCH   1   2
BRANCH   1  11
ATOM     11  C   UNL     1     -10.362  73.610  25.190  1.00  0.00     0.034 C 
BRANCH  11  12
ATOM     12  C   UNL     1      -9.155  73.310  24.330  1.00  0.00    -0.077 C 
ATOM     13  C   UNL     1      -8.335  72.292  24.683  1.00  0.00    -0.028 C 
ATOM     14  C   UNL     1      -8.882  74.167  23.116  1.00  0.00     0.039 C 
BRANCH  13  15
ATOM     15  C   UNL     1      -7.127  71.856  23.892  1.00  0.00     0.035 C 
BRANCH  15  16
ATOM     16  C   UNL     1      -5.963  71.515  24.828  1.00  0.00     0.079 C 
BRANCH  16  17
ATOM     17  C   UNL     1      -5.696  70.033  24.823  1.00  0.00     0.130 C 
ATOM     18  O   UNL     1      -4.983  69.548  25.689  1.00  0.00    -0.300 OA
ATOM     19  C   UNL     1      -6.294  69.135  23.782  1.00  0.00     0.087 C 
ENDBRANCH  16  17
ENDBRANCH  15  16
ENDBRANCH  13  15
ENDBRANCH  11  12
ENDBRANCH   1  11
TORSDOF 9
ENDMDL
