MODEL 1
REMARK VINA RESULT:    -4.517      0.000      0.000
REMARK INTER + INTRA:          -6.179
REMARK INTER:                  -5.838
REMARK INTRA:                  -0.341
REMARK UNBOUND:                -0.341
REMARK SMILES CCO[C@H]1O[C@H](CO)[C@@H](O)[C@@H](O)[C@H]1O
REMARK SMILES IDX 4 1 13 2 11 3 9 4 6 5 5 6 3 7 2 8 1 9 14 10 12 12 7 14 8 15
REMARK SMILES IDX 10 17
REMARK H PARENT 14 11 12 13 8 16 10 18
REMARK Flexibility Score: inf
ROOT
ATOM      1  C   UNL     1      32.636  -7.929  12.883  1.00  0.00     0.281 C 
ATOM      2  C   UNL     1      31.462  -7.054  12.402  1.00  0.00     0.202 C 
ATOM      3  C   UNL     1      31.661  -6.623  10.934  1.00  0.00     0.179 C 
ATOM      4  C   UNL     1      33.063  -6.016  10.760  1.00  0.00     0.177 C 
ATOM      5  C   UNL     1      34.130  -6.979  11.332  1.00  0.00     0.178 C 
ATOM      6  O   UNL     1      33.876  -7.257  12.702  1.00  0.00    -0.341 OA
ENDROOT
BRANCH   1   7
ATOM      7  O   UNL     1      32.623  -9.185  12.222  1.00  0.00    -0.350 OA
BRANCH   7   8
ATOM      8  C   UNL     1      33.260 -10.179  13.003  1.00  0.00     0.160 C 
ATOM      9  C   UNL     1      32.822 -11.565  12.547  1.00  0.00     0.035 C 
ENDBRANCH   7   8
ENDBRANCH   1   7
BRANCH   2  10
ATOM     10  O   UNL     1      30.255  -7.756  12.556  1.00  0.00    -0.385 OA
ATOM     11  H   UNL     1      30.441  -8.512  13.172  1.00  0.00     0.211 HD
ENDBRANCH   2  10
BRANCH   3  12
ATOM     12  O   UNL     1      31.505  -7.720  10.068  1.00  0.00    -0.387 OA
ATOM     13  H   UNL     1      30.780  -8.285  10.443  1.00  0.00     0.211 HD
ENDBRANCH   3  12
BRANCH   5  14
ATOM     14  C   UNL     1      35.544  -6.387  11.208  1.00  0.00     0.191 C 
BRANCH  14  15
ATOM     15  O   UNL     1      36.173  -6.816  10.029  1.00  0.00    -0.394 OA
ATOM     16  H   UNL     1      36.301  -6.012   9.463  1.00  0.00     0.210 HD
ENDBRANCH  14  15
ENDBRANCH   5  14
BRANCH   4  17
ATOM     17  O   UNL     1      33.315  -5.775   9.399  1.00  0.00    -0.387 OA
ATOM     18  H   UNL     1      32.494  -6.033   8.905  1.00  0.00     0.211 HD
ENDBRANCH   4  17
TORSDOF 7
ENDMDL
MODEL 2
REMARK VINA RESULT:    -4.364     14.542     16.321
REMARK INTER + INTRA:          -5.981
REMARK INTER:                  -5.512
REMARK INTRA:                  -0.469
REMARK UNBOUND:                -0.341
REMARK SMILES CCO[C@H]1O[C@H](CO)[C@@H](O)[C@@H](O)[C@H]1O
REMARK SMILES IDX 4 1 13 2 11 3 9 4 6 5 5 6 3 7 2 8 1 9 14 10 12 12 7 14 8 15
REMARK SMILES IDX 10 17
REMARK H PARENT 14 11 12 13 8 16 10 18
REMARK Flexibility Score: inf
ROOT
ATOM      1  C   UNL     1      31.629  -4.581  -4.525  1.00  0.00     0.281 C 
ATOM      2  C   UNL     1      31.506  -5.351  -3.196  1.00  0.00     0.202 C 
ATOM      3  C   UNL     1      32.859  -5.399  -2.457  1.00  0.00     0.179 C 
ATOM      4  C   UNL     1      33.953  -5.892  -3.418  1.00  0.00     0.177 C 
ATOM      5  C   UNL     1      33.924  -5.063  -4.723  1.00  0.00     0.178 C 
ATOM      6  O   UNL     1      32.649  -5.141  -5.343  1.00  0.00    -0.341 OA
ENDROOT
BRANCH   1   7
ATOM      7  O   UNL     1      31.859  -3.202  -4.280  1.00  0.00    -0.350 OA
BRANCH   7   8
ATOM      8  C   UNL     1      31.226  -2.398  -5.258  1.00  0.00     0.160 C 
ATOM      9  C   UNL     1      29.853  -2.965  -5.597  1.00  0.00     0.035 C 
ENDBRANCH   7   8
ENDBRANCH   1   7
BRANCH   2  10
ATOM     10  O   UNL     1      30.519  -4.754  -2.393  1.00  0.00    -0.385 OA
ATOM     11  H   UNL     1      30.766  -4.944  -1.451  1.00  0.00     0.211 HD
ENDBRANCH   2  10
BRANCH   3  12
ATOM     12  O   UNL     1      33.198  -4.128  -1.960  1.00  0.00    -0.387 OA
ATOM     13  H   UNL     1      32.994  -3.472  -2.676  1.00  0.00     0.211 HD
ENDBRANCH   3  12
BRANCH   5  14
ATOM     14  C   UNL     1      34.984  -5.554  -5.723  1.00  0.00     0.191 C 
BRANCH  14  15
ATOM     15  O   UNL     1      35.433  -6.843  -5.398  1.00  0.00    -0.394 OA
ATOM     16  H   UNL     1      35.631  -6.841  -4.426  1.00  0.00     0.210 HD
ENDBRANCH  14  15
ENDBRANCH   5  14
BRANCH   4  17
ATOM     17  O   UNL     1      35.214  -5.781  -2.806  1.00  0.00    -0.387 OA
ATOM     18  H   UNL     1      35.655  -4.985  -3.203  1.00  0.00     0.211 HD
ENDBRANCH   4  17
TORSDOF 7
ENDMDL
MODEL 3
REMARK VINA RESULT:    -3.986     14.065     15.903
REMARK INTER + INTRA:          -5.493
REMARK INTER:                  -5.299
REMARK INTRA:                  -0.194
REMARK UNBOUND:                -0.341
REMARK SMILES CCO[C@H]1O[C@H](CO)[C@@H](O)[C@@H](O)[C@H]1O
REMARK SMILES IDX 4 1 13 2 11 3 9 4 6 5 5 6 3 7 2 8 1 9 14 10 12 12 7 14 8 15
REMARK SMILES IDX 10 17
REMARK H PARENT 14 11 12 13 8 16 10 18
REMARK Flexibility Score: inf
ROOT
ATOM      1  C   UNL     1      33.978  -5.965  -3.517  1.00  0.00     0.281 C 
ATOM      2  C   UNL     1      34.497  -5.724  -4.948  1.00  0.00     0.202 C 
ATOM      3  C   UNL     1      34.334  -4.245  -5.352  1.00  0.00     0.179 C 
ATOM      4  C   UNL     1      32.890  -3.791  -5.078  1.00  0.00     0.177 C 
ATOM      5  C   UNL     1      32.492  -4.143  -3.626  1.00  0.00     0.178 C 
ATOM      6  O   UNL     1      32.628  -5.537  -3.389  1.00  0.00    -0.341 OA
ENDROOT
BRANCH   1   7
ATOM      7  O   UNL     1      34.818  -5.326  -2.569  1.00  0.00    -0.350 OA
BRANCH   7   8
ATOM      8  C   UNL     1      34.697  -5.926  -1.293  1.00  0.00     0.160 C 
ATOM      9  C   UNL     1      34.688  -4.856  -0.208  1.00  0.00     0.035 C 
ENDBRANCH   7   8
ENDBRANCH   1   7
BRANCH   2  10
ATOM     10  O   UNL     1      35.842  -6.120  -5.035  1.00  0.00    -0.385 OA
ATOM     11  H   UNL     1      36.294  -5.775  -4.222  1.00  0.00     0.211 HD
ENDBRANCH   2  10
BRANCH   3  12
ATOM     12  O   UNL     1      35.232  -3.432  -4.637  1.00  0.00    -0.387 OA
ATOM     13  H   UNL     1      36.110  -3.497  -5.096  1.00  0.00     0.211 HD
ENDBRANCH   3  12
BRANCH   5  14
ATOM     14  C   UNL     1      31.040  -3.736  -3.328  1.00  0.00     0.191 C 
BRANCH  14  15
ATOM     15  O   UNL     1      30.480  -4.544  -2.326  1.00  0.00    -0.394 OA
ATOM     16  H   UNL     1      31.201  -5.146  -2.007  1.00  0.00     0.210 HD
ENDBRANCH  14  15
ENDBRANCH   5  14
BRANCH   4  17
ATOM     17  O   UNL     1      32.776  -2.406  -5.286  1.00  0.00    -0.387 OA
ATOM     18  H   UNL     1      32.663  -2.271  -6.262  1.00  0.00     0.211 HD
ENDBRANCH   4  17
TORSDOF 7
ENDMDL
MODEL 4
REMARK VINA RESULT:    -3.924     14.805     16.666
REMARK INTER + INTRA:          -5.412
REMARK INTER:                  -5.170
REMARK INTRA:                  -0.242
REMARK UNBOUND:                -0.341
REMARK SMILES CCO[C@H]1O[C@H](CO)[C@@H](O)[C@@H](O)[C@H]1O
REMARK SMILES IDX 4 1 13 2 11 3 9 4 6 5 5 6 3 7 2 8 1 9 14 10 12 12 7 14 8 15
REMARK SMILES IDX 10 17
REMARK H PARENT 14 11 12 13 8 16 10 18
REMARK Flexibility Score: inf
ROOT
ATOM      1  C   UNL     1      33.506  -4.394  -5.108  1.00  0.00     0.281 C 
ATOM      2  C   UNL     1      33.638  -3.406  -3.934  1.00  0.00     0.202 C 
ATOM      3  C   UNL     1      32.599  -3.712  -2.835  1.00  0.00     0.179 C 
ATOM      4  C   UNL     1      31.201  -3.822  -3.465  1.00  0.00     0.177 C 
ATOM      5  C   UNL     1      31.233  -4.805  -4.658  1.00  0.00     0.178 C 
ATOM      6  O   UNL     1      32.183  -4.390  -5.629  1.00  0.00    -0.341 OA
ENDROOT
BRANCH   1   7
ATOM      7  O   UNL     1      33.904  -5.697  -4.709  1.00  0.00    -0.350 OA
BRANCH   7   8
ATOM      8  C   UNL     1      34.669  -6.329  -5.717  1.00  0.00     0.160 C 
ATOM      9  C   UNL     1      36.147  -6.000  -5.538  1.00  0.00     0.035 C 
ENDBRANCH   7   8
ENDBRANCH   1   7
BRANCH   2  10
ATOM     10  O   UNL     1      34.943  -3.459  -3.415  1.00  0.00    -0.385 OA
ATOM     11  H   UNL     1      35.478  -2.794  -3.922  1.00  0.00     0.211 HD
ENDBRANCH   2  10
BRANCH   3  12
ATOM     12  O   UNL     1      32.918  -4.910  -2.170  1.00  0.00    -0.387 OA
ATOM     13  H   UNL     1      33.668  -4.708  -1.552  1.00  0.00     0.211 HD
ENDBRANCH   3  12
BRANCH   5  14
ATOM     14  C   UNL     1      29.857  -4.912  -5.335  1.00  0.00     0.191 C 
BRANCH  14  15
ATOM     15  O   UNL     1      29.510  -6.251  -5.573  1.00  0.00    -0.394 OA
ATOM     16  H   UNL     1      29.571  -6.723  -4.703  1.00  0.00     0.210 HD
ENDBRANCH  14  15
ENDBRANCH   5  14
BRANCH   4  17
ATOM     17  O   UNL     1      30.276  -4.264  -2.503  1.00  0.00    -0.387 OA
ATOM     18  H   UNL     1      29.390  -3.905  -2.771  1.00  0.00     0.211 HD
ENDBRANCH   4  17
TORSDOF 7
ENDMDL
MODEL 5
REMARK VINA RESULT:    -3.909      3.356      5.254
REMARK INTER + INTRA:          -5.393
REMARK INTER:                  -4.969
REMARK INTRA:                  -0.424
REMARK UNBOUND:                -0.341
REMARK SMILES CCO[C@H]1O[C@H](CO)[C@@H](O)[C@@H](O)[C@H]1O
REMARK SMILES IDX 4 1 13 2 11 3 9 4 6 5 5 6 3 7 2 8 1 9 14 10 12 12 7 14 8 15
REMARK SMILES IDX 10 17
REMARK H PARENT 14 11 12 13 8 16 10 18
REMARK Flexibility Score: inf
ROOT
ATOM      1  C   UNL     1      34.271  -4.410  10.555  1.00  0.00     0.281 C 
ATOM      2  C   UNL     1      33.155  -5.467  10.447  1.00  0.00     0.202 C 
ATOM      3  C   UNL     1      32.043  -4.999   9.486  1.00  0.00     0.179 C 
ATOM      4  C   UNL     1      31.588  -3.582   9.875  1.00  0.00     0.177 C 
ATOM      5  C   UNL     1      32.815  -2.648   9.996  1.00  0.00     0.178 C 
ATOM      6  O   UNL     1      33.740  -3.151  10.948  1.00  0.00    -0.341 OA
ENDROOT
BRANCH   1   7
ATOM      7  O   UNL     1      34.985  -4.315   9.332  1.00  0.00    -0.350 OA
BRANCH   7   8
ATOM      8  C   UNL     1      36.361  -4.076   9.562  1.00  0.00     0.160 C 
ATOM      9  C   UNL     1      37.060  -5.370   9.961  1.00  0.00     0.035 C 
ENDBRANCH   7   8
ENDBRANCH   1   7
BRANCH   2  10
ATOM     10  O   UNL     1      33.701  -6.689  10.021  1.00  0.00    -0.385 OA
ATOM     11  H   UNL     1      34.646  -6.510   9.778  1.00  0.00     0.211 HD
ENDBRANCH   2  10
BRANCH   3  12
ATOM     12  O   UNL     1      32.500  -5.005   8.156  1.00  0.00    -0.387 OA
ATOM     13  H   UNL     1      33.382  -5.460   8.155  1.00  0.00     0.211 HD
ENDBRANCH   3  12
BRANCH   5  14
ATOM     14  C   UNL     1      32.400  -1.229  10.419  1.00  0.00     0.191 C 
BRANCH  14  15
ATOM     15  O   UNL     1      31.056  -1.191  10.821  1.00  0.00    -0.394 OA
ATOM     16  H   UNL     1      30.916  -1.961  11.430  1.00  0.00     0.210 HD
ENDBRANCH  14  15
ENDBRANCH   5  14
BRANCH   4  17
ATOM     17  O   UNL     1      30.698  -3.083   8.909  1.00  0.00    -0.387 OA
ATOM     18  H   UNL     1      29.968  -2.625   9.402  1.00  0.00     0.211 HD
ENDBRANCH   4  17
TORSDOF 7
ENDMDL
MODEL 6
REMARK VINA RESULT:    -3.837      1.573      3.596
REMARK INTER + INTRA:          -5.299
REMARK INTER:                  -5.061
REMARK INTRA:                  -0.238
REMARK UNBOUND:                -0.341
REMARK SMILES CCO[C@H]1O[C@H](CO)[C@@H](O)[C@@H](O)[C@H]1O
REMARK SMILES IDX 4 1 13 2 11 3 9 4 6 5 5 6 3 7 2 8 1 9 14 10 12 12 7 14 8 15
REMARK SMILES IDX 10 17
REMARK H PARENT 14 11 12 13 8 16 10 18
REMARK Flexibility Score: inf
ROOT
ATOM      1  C   UNL     1      34.566  -6.510  12.040  1.00  0.00     0.281 C 
ATOM      2  C   UNL     1      33.753  -7.249  13.119  1.00  0.00     0.202 C 
ATOM      3  C   UNL     1      32.520  -7.942  12.503  1.00  0.00     0.179 C 
ATOM      4  C   UNL     1      31.736  -6.934  11.647  1.00  0.00     0.177 C 
ATOM      5  C   UNL     1      32.688  -6.235  10.648  1.00  0.00     0.178 C 
ATOM      6  O   UNL     1      33.749  -5.585  11.333  1.00  0.00    -0.341 OA
ENDROOT
BRANCH   1   7
ATOM      7  O   UNL     1      35.183  -7.437  11.160  1.00  0.00    -0.350 OA
BRANCH   7   8
ATOM      8  C   UNL     1      36.429  -6.951  10.697  1.00  0.00     0.160 C 
ATOM      9  C   UNL     1      37.516  -7.226  11.730  1.00  0.00     0.035 C 
ENDBRANCH   7   8
ENDBRANCH   1   7
BRANCH   2  10
ATOM     10  O   UNL     1      34.574  -8.181  13.775  1.00  0.00    -0.385 OA
ATOM     11  H   UNL     1      34.358  -8.121  14.741  1.00  0.00     0.211 HD
ENDBRANCH   2  10
BRANCH   3  12
ATOM     12  O   UNL     1      32.910  -9.038  11.713  1.00  0.00    -0.387 OA
ATOM     13  H   UNL     1      32.255  -9.108  10.970  1.00  0.00     0.211 HD
ENDBRANCH   3  12
BRANCH   5  14
ATOM     14  C   UNL     1      31.943  -5.193   9.799  1.00  0.00     0.191 C 
BRANCH  14  15
ATOM     15  O   UNL     1      32.456  -5.140   8.493  1.00  0.00    -0.394 OA
ATOM     16  H   UNL     1      32.005  -5.857   7.978  1.00  0.00     0.210 HD
ENDBRANCH  14  15
ENDBRANCH   5  14
BRANCH   4  17
ATOM     17  O   UNL     1      30.710  -7.594  10.950  1.00  0.00    -0.387 OA
ATOM     18  H   UNL     1      30.576  -7.099  10.100  1.00  0.00     0.211 HD
ENDBRANCH   4  17
TORSDOF 7
ENDMDL
MODEL 7
REMARK VINA RESULT:    -3.830     14.896     16.657
REMARK INTER + INTRA:          -5.291
REMARK INTER:                  -4.862
REMARK INTRA:                  -0.429
REMARK UNBOUND:                -0.341
REMARK SMILES CCO[C@H]1O[C@H](CO)[C@@H](O)[C@@H](O)[C@H]1O
REMARK SMILES IDX 4 1 13 2 11 3 9 4 6 5 5 6 3 7 2 8 1 9 14 10 12 12 7 14 8 15
REMARK SMILES IDX 10 17
REMARK H PARENT 14 11 12 13 8 16 10 18
REMARK Flexibility Score: inf
ROOT
ATOM      1  C   UNL     1      33.409  -4.508  -4.260  1.00  0.00     0.281 C 
ATOM      2  C   UNL     1      32.821  -4.749  -2.857  1.00  0.00     0.202 C 
ATOM      3  C   UNL     1      31.279  -4.779  -2.902  1.00  0.00     0.179 C 
ATOM      4  C   UNL     1      30.761  -3.533  -3.639  1.00  0.00     0.177 C 
ATOM      5  C   UNL     1      31.475  -3.391  -5.004  1.00  0.00     0.178 C 
ATOM      6  O   UNL     1      32.883  -3.316  -4.832  1.00  0.00    -0.341 OA
ENDROOT
BRANCH   1   7
ATOM      7  O   UNL     1      33.178  -5.631  -5.096  1.00  0.00    -0.350 OA
BRANCH   7   8
ATOM      8  C   UNL     1      34.296  -5.888  -5.926  1.00  0.00     0.160 C 
ATOM      9  C   UNL     1      35.585  -5.764  -5.123  1.00  0.00     0.035 C 
ENDBRANCH   7   8
ENDBRANCH   1   7
BRANCH   2  10
ATOM     10  O   UNL     1      33.328  -5.951  -2.333  1.00  0.00    -0.385 OA
ATOM     11  H   UNL     1      32.974  -6.030  -1.409  1.00  0.00     0.211 HD
ENDBRANCH   2  10
BRANCH   3  12
ATOM     12  O   UNL     1      30.823  -5.941  -3.550  1.00  0.00    -0.387 OA
ATOM     13  H   UNL     1      30.864  -6.678  -2.887  1.00  0.00     0.211 HD
ENDBRANCH   3  12
BRANCH   5  14
ATOM     14  C   UNL     1      31.007  -2.133  -5.754  1.00  0.00     0.191 C 
BRANCH  14  15
ATOM     15  O   UNL     1      29.657  -2.235  -6.125  1.00  0.00    -0.394 OA
ATOM     16  H   UNL     1      29.495  -3.184  -6.363  1.00  0.00     0.210 HD
ENDBRANCH  14  15
ENDBRANCH   5  14
BRANCH   4  17
ATOM     17  O   UNL     1      29.373  -3.633  -3.831  1.00  0.00    -0.387 OA
ATOM     18  H   UNL     1      29.225  -3.734  -4.807  1.00  0.00     0.211 HD
ENDBRANCH   4  17
TORSDOF 7
ENDMDL
MODEL 8
REMARK VINA RESULT:    -3.679     13.856     15.628
REMARK INTER + INTRA:          -5.096
REMARK INTER:                  -4.674
REMARK INTRA:                  -0.422
REMARK UNBOUND:                -0.341
REMARK SMILES CCO[C@H]1O[C@H](CO)[C@@H](O)[C@@H](O)[C@H]1O
REMARK SMILES IDX 4 1 13 2 11 3 9 4 6 5 5 6 3 7 2 8 1 9 14 10 12 12 7 14 8 15
REMARK SMILES IDX 10 17
REMARK H PARENT 14 11 12 13 8 16 10 18
REMARK Flexibility Score: inf
ROOT
ATOM      1  C   UNL     1      32.517  -5.126  -4.278  1.00  0.00     0.281 C 
ATOM      2  C   UNL     1      31.692  -3.873  -3.928  1.00  0.00     0.202 C 
ATOM      3  C   UNL     1      32.526  -2.879  -3.093  1.00  0.00     0.179 C 
ATOM      4  C   UNL     1      33.163  -3.614  -1.902  1.00  0.00     0.177 C 
ATOM      5  C   UNL     1      33.910  -4.874  -2.398  1.00  0.00     0.178 C 
ATOM      6  O   UNL     1      33.031  -5.739  -3.102  1.00  0.00    -0.341 OA
ENDROOT
BRANCH   1   7
ATOM      7  O   UNL     1      33.554  -4.801  -5.190  1.00  0.00    -0.350 OA
BRANCH   7   8
ATOM      8  C   UNL     1      33.881  -5.909  -6.007  1.00  0.00     0.160 C 
ATOM      9  C   UNL     1      35.290  -6.397  -5.690  1.00  0.00     0.035 C 
ENDBRANCH   7   8
ENDBRANCH   1   7
BRANCH   2  10
ATOM     10  O   UNL     1      31.230  -3.267  -5.109  1.00  0.00    -0.385 OA
ATOM     11  H   UNL     1      31.998  -2.769  -5.493  1.00  0.00     0.211 HD
ENDBRANCH   2  10
BRANCH   3  12
ATOM     12  O   UNL     1      33.530  -2.287  -3.880  1.00  0.00    -0.387 OA
ATOM     13  H   UNL     1      33.975  -1.603  -3.316  1.00  0.00     0.211 HD
ENDBRANCH   3  12
BRANCH   5  14
ATOM     14  C   UNL     1      34.531  -5.656  -1.228  1.00  0.00     0.191 C 
BRANCH  14  15
ATOM     15  O   UNL     1      33.958  -5.277  -0.003  1.00  0.00    -0.394 OA
ATOM     16  H   UNL     1      33.273  -4.589  -0.207  1.00  0.00     0.210 HD
ENDBRANCH  14  15
ENDBRANCH   5  14
BRANCH   4  17
ATOM     17  O   UNL     1      34.055  -2.759  -1.233  1.00  0.00    -0.387 OA
ATOM     18  H   UNL     1      34.931  -3.224  -1.205  1.00  0.00     0.211 HD
ENDBRANCH   4  17
TORSDOF 7
ENDMDL
