MODEL 1
REMARK VINA RESULT:    -3.523      0.000      0.000
REMARK INTER + INTRA:          -5.465
REMARK INTER:                  -4.759
REMARK INTRA:                  -0.706
REMARK UNBOUND:                -0.706
REMARK SMILES CCCCCCC=CC(=O)[O-]
REMARK SMILES IDX 5 1 6 2 7 3 8 4 9 5 10 6 11 7 4 8 3 9 2 10 1 11
REMARK H PARENT
REMARK Flexibility Score: inf
ROOT
ATOM      1  C   UNL     1       1.909   7.310   5.967  1.00  0.00     0.004 C 
ENDROOT
BRANCH   1   2
ATOM      2  C   UNL     1       0.445   7.054   6.356  1.00  0.00     0.027 C 
BRANCH   2   3
ATOM      3  C   UNL     1      -0.326   6.463   5.210  1.00  0.00    -0.025 C 
ATOM      4  C   UNL     1       0.188   6.410   3.976  1.00  0.00     0.020 C 
BRANCH   4   5
ATOM      5  C   UNL     1      -0.555   5.851   2.835  1.00  0.00     0.064 C 
ATOM      6  O   UNL     1      -0.414   4.646   2.496  1.00  0.00    -0.545 OA
ATOM      7  O   UNL     1      -1.424   6.664   2.121  1.00  0.00    -0.545 OA
ENDBRANCH   4   5
ENDBRANCH   2   3
ENDBRANCH   1   2
BRANCH   1   8
ATOM      8  C   UNL     1       2.331   8.772   6.181  1.00  0.00     0.000 C 
BRANCH   8   9
ATOM      9  C   UNL     1       1.432   9.765   5.431  1.00  0.00    -0.000 C 
BRANCH   9  10
ATOM     10  C   UNL     1       1.733   9.748   3.927  1.00  0.00    -0.003 C 
ATOM     11  C   UNL     1       0.451   9.856   3.106  1.00  0.00     0.004 C 
ENDBRANCH   9  10
ENDBRANCH   8   9
ENDBRANCH   1   8
TORSDOF 6
ENDMDL
MODEL 2
REMARK VINA RESULT:    -3.517      1.767      2.494
REMARK INTER + INTRA:          -5.457
REMARK INTER:                  -4.739
REMARK INTRA:                  -0.718
REMARK UNBOUND:                -0.706
REMARK SMILES CCCCCCC=CC(=O)[O-]
REMARK SMILES IDX 5 1 6 2 7 3 8 4 9 5 10 6 11 7 4 8 3 9 2 10 1 11
REMARK H PARENT
REMARK Flexibility Score: inf
ROOT
ATOM      1  C   UNL     1       0.159   6.528   7.087  1.00  0.00     0.004 C 
ENDROOT
BRANCH   1   2
ATOM      2  C   UNL     1       1.138   7.200   6.112  1.00  0.00     0.027 C 
BRANCH   2   3
ATOM      3  C   UNL     1       0.902   6.737   4.702  1.00  0.00    -0.025 C 
ATOM      4  C   UNL     1      -0.278   6.237   4.319  1.00  0.00     0.020 C 
BRANCH   4   5
ATOM      5  C   UNL     1      -0.527   5.763   2.948  1.00  0.00     0.064 C 
ATOM      6  O   UNL     1      -0.068   4.660   2.548  1.00  0.00    -0.545 OA
ATOM      7  O   UNL     1      -1.278   6.544   2.082  1.00  0.00    -0.545 OA
ENDBRANCH   4   5
ENDBRANCH   2   3
ENDBRANCH   1   2
BRANCH   1   8
ATOM      8  C   UNL     1      -0.653   7.546   7.905  1.00  0.00     0.000 C 
BRANCH   8   9
ATOM      9  C   UNL     1      -1.932   7.998   7.187  1.00  0.00    -0.000 C 
BRANCH   9  10
ATOM     10  C   UNL     1      -1.818   9.458   6.730  1.00  0.00    -0.003 C 
ATOM     11  C   UNL     1      -1.687   9.553   5.213  1.00  0.00     0.004 C 
ENDBRANCH   9  10
ENDBRANCH   8   9
ENDBRANCH   1   8
TORSDOF 6
ENDMDL
MODEL 3
REMARK VINA RESULT:    -3.512      2.771      4.328
REMARK INTER + INTRA:          -5.449
REMARK INTER:                  -4.733
REMARK INTRA:                  -0.717
REMARK UNBOUND:                -0.706
REMARK SMILES CCCCCCC=CC(=O)[O-]
REMARK SMILES IDX 5 1 6 2 7 3 8 4 9 5 10 6 11 7 4 8 3 9 2 10 1 11
REMARK H PARENT
REMARK Flexibility Score: inf
ROOT
ATOM      1  C   UNL     1      -0.739   7.266   5.976  1.00  0.00     0.004 C 
ENDROOT
BRANCH   1   2
ATOM      2  C   UNL     1       0.616   6.546   6.056  1.00  0.00     0.027 C 
BRANCH   2   3
ATOM      3  C   UNL     1       1.693   7.340   5.374  1.00  0.00    -0.025 C 
ATOM      4  C   UNL     1       1.550   8.647   5.132  1.00  0.00     0.020 C 
BRANCH   4   5
ATOM      5  C   UNL     1       2.585   9.441   4.451  1.00  0.00     0.064 C 
ATOM      6  O   UNL     1       2.328  10.074   3.392  1.00  0.00    -0.545 OA
ATOM      7  O   UNL     1       3.866   9.493   4.983  1.00  0.00    -0.545 OA
ENDBRANCH   4   5
ENDBRANCH   2   3
ENDBRANCH   1   2
BRANCH   1   8
ATOM      8  C   UNL     1      -1.657   6.680   4.891  1.00  0.00     0.000 C 
BRANCH   8   9
ATOM      9  C   UNL     1      -1.700   7.544   3.622  1.00  0.00    -0.000 C 
BRANCH   9  10
ATOM     10  C   UNL     1      -0.868   6.911   2.500  1.00  0.00    -0.003 C 
ATOM     11  C   UNL     1      -0.755   5.400   2.681  1.00  0.00     0.004 C 
ENDBRANCH   9  10
ENDBRANCH   8   9
ENDBRANCH   1   8
TORSDOF 6
ENDMDL
MODEL 4
REMARK VINA RESULT:    -3.472     14.674     16.050
REMARK INTER + INTRA:          -5.396
REMARK INTER:                  -5.163
REMARK INTRA:                  -0.233
REMARK UNBOUND:                -0.706
REMARK SMILES CCCCCCC=CC(=O)[O-]
REMARK SMILES IDX 5 1 6 2 7 3 8 4 9 5 10 6 11 7 4 8 3 9 2 10 1 11
REMARK H PARENT
REMARK Flexibility Score: inf
ROOT
ATOM      1  C   UNL     1       9.505   2.083  -7.859  1.00  0.00     0.004 C 
ENDROOT
BRANCH   1   2
ATOM      2  C   UNL     1      10.955   2.557  -7.677  1.00  0.00     0.027 C 
BRANCH   2   3
ATOM      3  C   UNL     1      11.007   3.891  -6.989  1.00  0.00    -0.025 C 
ATOM      4  C   UNL     1      11.450   4.014  -5.733  1.00  0.00     0.020 C 
BRANCH   4   5
ATOM      5  C   UNL     1      11.495   5.308  -5.035  1.00  0.00     0.064 C 
ATOM      6  O   UNL     1      11.482   6.393  -5.674  1.00  0.00    -0.545 OA
ATOM      7  O   UNL     1      11.555   5.334  -3.648  1.00  0.00    -0.545 OA
ENDBRANCH   4   5
ENDBRANCH   2   3
ENDBRANCH   1   2
BRANCH   1   8
ATOM      8  C   UNL     1       9.016   1.213  -6.690  1.00  0.00     0.000 C 
BRANCH   8   9
ATOM      9  C   UNL     1       8.254  -0.035  -7.159  1.00  0.00    -0.000 C 
BRANCH   9  10
ATOM     10  C   UNL     1       6.906   0.348  -7.782  1.00  0.00    -0.003 C 
ATOM     11  C   UNL     1       6.129  -0.889  -8.222  1.00  0.00     0.004 C 
ENDBRANCH   9  10
ENDBRANCH   8   9
ENDBRANCH   1   8
TORSDOF 6
ENDMDL
MODEL 5
REMARK VINA RESULT:    -3.383     12.349     13.586
REMARK INTER + INTRA:          -5.275
REMARK INTER:                  -4.657
REMARK INTRA:                  -0.618
REMARK UNBOUND:                -0.706
REMARK SMILES CCCCCCC=CC(=O)[O-]
REMARK SMILES IDX 5 1 6 2 7 3 8 4 9 5 10 6 11 7 4 8 3 9 2 10 1 11
REMARK H PARENT
REMARK Flexibility Score: inf
ROOT
ATOM      1  C   UNL     1       6.870  -1.931   2.403  1.00  0.00     0.004 C 
ENDROOT
BRANCH   1   2
ATOM      2  C   UNL     1       8.152  -2.394   1.694  1.00  0.00     0.027 C 
BRANCH   2   3
ATOM      3  C   UNL     1       7.969  -3.750   1.073  1.00  0.00    -0.025 C 
ATOM      4  C   UNL     1       6.939  -4.536   1.404  1.00  0.00     0.020 C 
BRANCH   4   5
ATOM      5  C   UNL     1       6.748  -5.874   0.821  1.00  0.00     0.064 C 
ATOM      6  O   UNL     1       5.660  -6.494   0.958  1.00  0.00    -0.545 OA
ATOM      7  O   UNL     1       7.785  -6.462   0.110  1.00  0.00    -0.545 OA
ENDBRANCH   4   5
ENDBRANCH   2   3
ENDBRANCH   1   2
BRANCH   1   8
ATOM      8  C   UNL     1       7.151  -1.277   3.765  1.00  0.00     0.000 C 
BRANCH   8   9
ATOM      9  C   UNL     1       6.582  -2.086   4.939  1.00  0.00    -0.000 C 
BRANCH   9  10
ATOM     10  C   UNL     1       7.572  -3.166   5.392  1.00  0.00    -0.003 C 
ATOM     11  C   UNL     1       7.084  -4.559   5.004  1.00  0.00     0.004 C 
ENDBRANCH   9  10
ENDBRANCH   8   9
ENDBRANCH   1   8
TORSDOF 6
ENDMDL
MODEL 6
REMARK VINA RESULT:    -3.351     14.938     15.527
REMARK INTER + INTRA:          -5.232
REMARK INTER:                  -5.079
REMARK INTRA:                  -0.153
REMARK UNBOUND:                -0.706
REMARK SMILES CCCCCCC=CC(=O)[O-]
REMARK SMILES IDX 5 1 6 2 7 3 8 4 9 5 10 6 11 7 4 8 3 9 2 10 1 11
REMARK H PARENT
REMARK Flexibility Score: inf
ROOT
ATOM      1  C   UNL     1       6.699   0.187  -7.928  1.00  0.00     0.004 C 
ENDROOT
BRANCH   1   2
ATOM      2  C   UNL     1       5.893  -1.072  -8.286  1.00  0.00     0.027 C 
BRANCH   2   3
ATOM      3  C   UNL     1       4.443  -0.742  -8.502  1.00  0.00    -0.025 C 
ATOM      4  C   UNL     1       3.470  -1.500  -7.985  1.00  0.00     0.020 C 
BRANCH   4   5
ATOM      5  C   UNL     1       2.043  -1.206  -8.197  1.00  0.00     0.064 C 
ATOM      6  O   UNL     1       1.520  -1.313  -9.338  1.00  0.00    -0.545 OA
ATOM      7  O   UNL     1       1.263  -0.803  -7.123  1.00  0.00    -0.545 OA
ENDBRANCH   4   5
ENDBRANCH   2   3
ENDBRANCH   1   2
BRANCH   1   8
ATOM      8  C   UNL     1       8.031  -0.142  -7.235  1.00  0.00     0.000 C 
BRANCH   8   9
ATOM      9  C   UNL     1       8.772   1.111  -6.749  1.00  0.00    -0.000 C 
BRANCH   9  10
ATOM     10  C   UNL     1       9.418   1.856  -7.923  1.00  0.00    -0.003 C 
ATOM     11  C   UNL     1      10.426   2.892  -7.434  1.00  0.00     0.004 C 
ENDBRANCH   9  10
ENDBRANCH   8   9
ENDBRANCH   1   8
TORSDOF 6
ENDMDL
MODEL 7
REMARK VINA RESULT:    -3.346     11.644     12.766
REMARK INTER + INTRA:          -5.225
REMARK INTER:                  -4.907
REMARK INTRA:                  -0.318
REMARK UNBOUND:                -0.706
REMARK SMILES CCCCCCC=CC(=O)[O-]
REMARK SMILES IDX 5 1 6 2 7 3 8 4 9 5 10 6 11 7 4 8 3 9 2 10 1 11
REMARK H PARENT
REMARK Flexibility Score: inf
ROOT
ATOM      1  C   UNL     1       6.830  -1.648   2.776  1.00  0.00     0.004 C 
ENDROOT
BRANCH   1   2
ATOM      2  C   UNL     1       7.876  -2.388   1.927  1.00  0.00     0.027 C 
BRANCH   2   3
ATOM      3  C   UNL     1       7.247  -3.505   1.144  1.00  0.00    -0.025 C 
ATOM      4  C   UNL     1       7.360  -4.780   1.531  1.00  0.00     0.020 C 
BRANCH   4   5
ATOM      5  C   UNL     1       6.765  -5.891   0.771  1.00  0.00     0.064 C 
ATOM      6  O   UNL     1       5.648  -6.376   1.095  1.00  0.00    -0.545 OA
ATOM      7  O   UNL     1       7.447  -6.414  -0.318  1.00  0.00    -0.545 OA
ENDBRANCH   4   5
ENDBRANCH   2   3
ENDBRANCH   1   2
BRANCH   1   8
ATOM      8  C   UNL     1       6.704  -2.225   4.195  1.00  0.00     0.000 C 
BRANCH   8   9
ATOM      9  C   UNL     1       6.898  -1.163   5.286  1.00  0.00    -0.000 C 
BRANCH   9  10
ATOM     10  C   UNL     1       6.851   0.249   4.691  1.00  0.00    -0.003 C 
ATOM     11  C   UNL     1       7.911   1.149   5.320  1.00  0.00     0.004 C 
ENDBRANCH   9  10
ENDBRANCH   8   9
ENDBRANCH   1   8
TORSDOF 6
ENDMDL
MODEL 8
REMARK VINA RESULT:    -3.328     15.022     15.569
REMARK INTER + INTRA:          -5.201
REMARK INTER:                  -4.931
REMARK INTRA:                  -0.270
REMARK UNBOUND:                -0.706
REMARK SMILES CCCCCCC=CC(=O)[O-]
REMARK SMILES IDX 5 1 6 2 7 3 8 4 9 5 10 6 11 7 4 8 3 9 2 10 1 11
REMARK H PARENT
REMARK Flexibility Score: inf
ROOT
ATOM      1  C   UNL     1       7.342  -0.893  -7.595  1.00  0.00     0.004 C 
ENDROOT
BRANCH   1   2
ATOM      2  C   UNL     1       6.034  -1.188  -8.347  1.00  0.00     0.027 C 
BRANCH   2   3
ATOM      3  C   UNL     1       5.327   0.082  -8.723  1.00  0.00    -0.025 C 
ATOM      4  C   UNL     1       3.991   0.154  -8.761  1.00  0.00     0.020 C 
BRANCH   4   5
ATOM      5  C   UNL     1       3.277   1.383  -9.141  1.00  0.00     0.064 C 
ATOM      6  O   UNL     1       3.745   2.164 -10.013  1.00  0.00    -0.545 OA
ATOM      7  O   UNL     1       2.070   1.688  -8.529  1.00  0.00    -0.545 OA
ENDBRANCH   4   5
ENDBRANCH   2   3
ENDBRANCH   1   2
BRANCH   1   8
ATOM      8  C   UNL     1       7.554   0.609  -7.345  1.00  0.00     0.000 C 
BRANCH   8   9
ATOM      9  C   UNL     1       8.975   0.934  -6.864  1.00  0.00    -0.000 C 
BRANCH   9  10
ATOM     10  C   UNL     1       9.714   1.804  -7.887  1.00  0.00    -0.003 C 
ATOM     11  C   UNL     1      10.291   3.057  -7.234  1.00  0.00     0.004 C 
ENDBRANCH   9  10
ENDBRANCH   8   9
ENDBRANCH   1   8
TORSDOF 6
ENDMDL
MODEL 9
REMARK VINA RESULT:    -3.294     15.646     16.358
REMARK INTER + INTRA:          -5.156
REMARK INTER:                  -4.837
REMARK INTRA:                  -0.318
REMARK UNBOUND:                -0.706
REMARK SMILES CCCCCCC=CC(=O)[O-]
REMARK SMILES IDX 5 1 6 2 7 3 8 4 9 5 10 6 11 7 4 8 3 9 2 10 1 11
REMARK H PARENT
REMARK Flexibility Score: inf
ROOT
ATOM      1  C   UNL     1       7.183  -0.308  -8.418  1.00  0.00     0.004 C 
ENDROOT
BRANCH   1   2
ATOM      2  C   UNL     1       5.658  -0.490  -8.461  1.00  0.00     0.027 C 
BRANCH   2   3
ATOM      3  C   UNL     1       5.275  -1.918  -8.193  1.00  0.00    -0.025 C 
ATOM      4  C   UNL     1       6.145  -2.788  -7.670  1.00  0.00     0.020 C 
BRANCH   4   5
ATOM      5  C   UNL     1       5.797  -4.195  -7.413  1.00  0.00     0.064 C 
ATOM      6  O   UNL     1       4.678  -4.661  -7.756  1.00  0.00    -0.545 OA
ATOM      7  O   UNL     1       6.716  -5.022  -6.783  1.00  0.00    -0.545 OA
ENDBRANCH   4   5
ENDBRANCH   2   3
ENDBRANCH   1   2
BRANCH   1   8
ATOM      8  C   UNL     1       7.637   0.608  -7.269  1.00  0.00     0.000 C 
BRANCH   8   9
ATOM      9  C   UNL     1       8.989   0.188  -6.675  1.00  0.00    -0.000 C 
BRANCH   9  10
ATOM     10  C   UNL     1       9.799   1.413  -6.236  1.00  0.00    -0.003 C 
ATOM     11  C   UNL     1       9.936   2.422  -7.373  1.00  0.00     0.004 C 
ENDBRANCH   9  10
ENDBRANCH   8   9
ENDBRANCH   1   8
TORSDOF 6
ENDMDL
