MODEL 1
REMARK VINA RESULT:    -2.720      0.000      0.000
REMARK INTER + INTRA:          -4.897
REMARK INTER:                  -4.151
REMARK INTRA:                  -0.746
REMARK UNBOUND:                -0.746
REMARK SMILES O=C([O-])CCCCCCCCC(=O)[O-]
REMARK SMILES IDX 7 1 6 2 5 3 4 4 2 5 1 6 3 7 8 8 9 9 10 10 11 11 12 12 13 13
REMARK SMILES IDX 14 14
REMARK H PARENT
REMARK Flexibility Score: inf
ROOT
ATOM      1  C   UNL     1      54.420 -35.534  24.093  1.00  0.00     0.000 C 
ENDROOT
BRANCH   1   2
ATOM      2  C   UNL     1      54.774 -34.847  22.765  1.00  0.00     0.000 C 
BRANCH   2   3
ATOM      3  C   UNL     1      55.677 -35.746  21.907  1.00  0.00     0.006 C 
BRANCH   3   4
ATOM      4  C   UNL     1      56.595 -36.631  22.760  1.00  0.00     0.053 C 
BRANCH   4   5
ATOM      5  C   UNL     1      58.024 -36.189  22.678  1.00  0.00     0.041 C 
ATOM      6  O   UNL     1      58.868 -36.883  22.052  1.00  0.00    -0.550 OA
ATOM      7  O   UNL     1      58.431 -35.028  23.323  1.00  0.00    -0.550 OA
ENDBRANCH   4   5
ENDBRANCH   3   4
ENDBRANCH   2   3
ENDBRANCH   1   2
BRANCH   1   8
ATOM      8  C   UNL     1      52.930 -35.408  24.451  1.00  0.00     0.000 C 
BRANCH   8   9
ATOM      9  C   UNL     1      51.993 -35.182  23.249  1.00  0.00     0.000 C 
BRANCH   9  10
ATOM     10  C   UNL     1      51.037 -33.979  23.420  1.00  0.00     0.006 C 
BRANCH  10  11
ATOM     11  C   UNL     1      51.549 -32.924  24.414  1.00  0.00     0.053 C 
BRANCH  11  12
ATOM     12  C   UNL     1      52.374 -31.872  23.735  1.00  0.00     0.041 C 
ATOM     13  O   UNL     1      53.607 -31.784  23.972  1.00  0.00    -0.550 OA
ATOM     14  O   UNL     1      51.776 -30.976  22.859  1.00  0.00    -0.550 OA
ENDBRANCH  11  12
ENDBRANCH  10  11
ENDBRANCH   9  10
ENDBRANCH   8   9
ENDBRANCH   1   8
TORSDOF 9
ENDMDL
MODEL 2
REMARK VINA RESULT:    -2.668      0.961      6.042
REMARK INTER + INTRA:          -4.817
REMARK INTER:                  -4.093
REMARK INTRA:                  -0.724
REMARK UNBOUND:                -0.746
REMARK SMILES O=C([O-])CCCCCCCCC(=O)[O-]
REMARK SMILES IDX 7 1 6 2 5 3 4 4 2 5 1 6 3 7 8 8 9 9 10 10 11 11 12 12 13 13
REMARK SMILES IDX 14 14
REMARK H PARENT
REMARK Flexibility Score: inf
ROOT
ATOM      1  C   UNL     1      54.428 -35.369  24.198  1.00  0.00     0.000 C 
ENDROOT
BRANCH   1   2
ATOM      2  C   UNL     1      52.911 -35.586  24.294  1.00  0.00     0.000 C 
BRANCH   2   3
ATOM      3  C   UNL     1      52.181 -34.868  23.150  1.00  0.00     0.006 C 
BRANCH   3   4
ATOM      4  C   UNL     1      51.222 -33.785  23.662  1.00  0.00     0.053 C 
BRANCH   4   5
ATOM      5  C   UNL     1      51.747 -32.408  23.396  1.00  0.00     0.041 C 
ATOM      6  O   UNL     1      51.069 -31.590  22.718  1.00  0.00    -0.550 OA
ATOM      7  O   UNL     1      53.000 -32.038  23.867  1.00  0.00    -0.550 OA
ENDBRANCH   4   5
ENDBRANCH   3   4
ENDBRANCH   2   3
ENDBRANCH   1   2
BRANCH   1   8
ATOM      8  C   UNL     1      54.868 -34.832  22.825  1.00  0.00     0.000 C 
BRANCH   8   9
ATOM      9  C   UNL     1      55.509 -35.880  21.895  1.00  0.00     0.000 C 
BRANCH   9  10
ATOM     10  C   UNL     1      56.568 -36.766  22.590  1.00  0.00     0.006 C 
BRANCH  10  11
ATOM     11  C   UNL     1      58.004 -36.241  22.437  1.00  0.00     0.053 C 
BRANCH  11  12
ATOM     12  C   UNL     1      58.429 -35.424  23.621  1.00  0.00     0.041 C 
ATOM     13  O   UNL     1      59.265 -34.494  23.481  1.00  0.00    -0.550 OA
ATOM     14  O   UNL     1      57.917 -35.705  24.880  1.00  0.00    -0.550 OA
ENDBRANCH  11  12
ENDBRANCH  10  11
ENDBRANCH   9  10
ENDBRANCH   8   9
ENDBRANCH   1   8
TORSDOF 9
ENDMDL
MODEL 3
REMARK VINA RESULT:    -2.640      1.824      3.040
REMARK INTER + INTRA:          -4.775
REMARK INTER:                  -4.025
REMARK INTRA:                  -0.750
REMARK UNBOUND:                -0.746
REMARK SMILES O=C([O-])CCCCCCCCC(=O)[O-]
REMARK SMILES IDX 7 1 6 2 5 3 4 4 2 5 1 6 3 7 8 8 9 9 10 10 11 11 12 12 13 13
REMARK SMILES IDX 14 14
REMARK H PARENT
REMARK Flexibility Score: inf
ROOT
ATOM      1  C   UNL     1      51.694 -35.028  23.117  1.00  0.00     0.000 C 
ENDROOT
BRANCH   1   2
ATOM      2  C   UNL     1      52.299 -35.519  24.441  1.00  0.00     0.000 C 
BRANCH   2   3
ATOM      3  C   UNL     1      53.745 -35.025  24.598  1.00  0.00     0.006 C 
BRANCH   3   4
ATOM      4  C   UNL     1      54.301 -34.429  23.298  1.00  0.00     0.053 C 
BRANCH   4   5
ATOM      5  C   UNL     1      55.287 -35.346  22.644  1.00  0.00     0.041 C 
ATOM      6  O   UNL     1      56.426 -35.520  23.152  1.00  0.00    -0.550 OA
ATOM      7  O   UNL     1      54.960 -35.984  21.454  1.00  0.00    -0.550 OA
ENDBRANCH   4   5
ENDBRANCH   3   4
ENDBRANCH   2   3
ENDBRANCH   1   2
BRANCH   1   8
ATOM      8  C   UNL     1      50.263 -34.489  23.278  1.00  0.00     0.000 C 
BRANCH   8   9
ATOM      9  C   UNL     1      50.083 -33.007  22.897  1.00  0.00     0.000 C 
BRANCH   9  10
ATOM     10  C   UNL     1      50.731 -32.023  23.897  1.00  0.00     0.006 C 
BRANCH  10  11
ATOM     11  C   UNL     1      51.855 -31.174  23.283  1.00  0.00     0.053 C 
BRANCH  11  12
ATOM     12  C   UNL     1      51.497 -29.719  23.242  1.00  0.00     0.041 C 
ATOM     13  O   UNL     1      50.385 -29.352  22.779  1.00  0.00    -0.550 OA
ATOM     14  O   UNL     1      52.401 -28.766  23.694  1.00  0.00    -0.550 OA
ENDBRANCH  11  12
ENDBRANCH  10  11
ENDBRANCH   9  10
ENDBRANCH   8   9
ENDBRANCH   1   8
TORSDOF 9
ENDMDL
MODEL 4
REMARK VINA RESULT:    -2.631      2.022      6.341
REMARK INTER + INTRA:          -4.761
REMARK INTER:                  -4.301
REMARK INTRA:                  -0.460
REMARK UNBOUND:                -0.746
REMARK SMILES O=C([O-])CCCCCCCCC(=O)[O-]
REMARK SMILES IDX 7 1 6 2 5 3 4 4 2 5 1 6 3 7 8 8 9 9 10 10 11 11 12 12 13 13
REMARK SMILES IDX 14 14
REMARK H PARENT
REMARK Flexibility Score: inf
ROOT
ATOM      1  C   UNL     1      50.877 -33.417  23.679  1.00  0.00     0.000 C 
ENDROOT
BRANCH   1   2
ATOM      2  C   UNL     1      49.896 -32.679  22.757  1.00  0.00     0.000 C 
BRANCH   2   3
ATOM      3  C   UNL     1      50.239 -31.184  22.676  1.00  0.00     0.006 C 
BRANCH   3   4
ATOM      4  C   UNL     1      51.707 -30.905  23.023  1.00  0.00     0.053 C 
BRANCH   4   5
ATOM      5  C   UNL     1      51.883 -29.556  23.647  1.00  0.00     0.041 C 
ATOM      6  O   UNL     1      52.723 -29.388  24.571  1.00  0.00    -0.550 OA
ATOM      7  O   UNL     1      51.096 -28.489  23.232  1.00  0.00    -0.550 OA
ENDBRANCH   4   5
ENDBRANCH   3   4
ENDBRANCH   2   3
ENDBRANCH   1   2
BRANCH   1   8
ATOM      8  C   UNL     1      51.104 -34.880  23.261  1.00  0.00     0.000 C 
BRANCH   8   9
ATOM      9  C   UNL     1      52.408 -35.508  23.789  1.00  0.00     0.000 C 
BRANCH   9  10
ATOM     10  C   UNL     1      53.672 -34.671  23.485  1.00  0.00     0.006 C 
BRANCH  10  11
ATOM     11  C   UNL     1      54.986 -35.430  23.729  1.00  0.00     0.053 C 
BRANCH  11  12
ATOM     12  C   UNL     1      55.575 -35.951  22.453  1.00  0.00     0.041 C 
ATOM     13  O   UNL     1      56.774 -36.333  22.418  1.00  0.00    -0.550 OA
ATOM     14  O   UNL     1      54.806 -35.993  21.297  1.00  0.00    -0.550 OA
ENDBRANCH  11  12
ENDBRANCH  10  11
ENDBRANCH   9  10
ENDBRANCH   8   9
ENDBRANCH   1   8
TORSDOF 9
ENDMDL
MODEL 5
REMARK VINA RESULT:    -2.618      1.576      2.281
REMARK INTER + INTRA:          -4.741
REMARK INTER:                  -3.872
REMARK INTRA:                  -0.868
REMARK UNBOUND:                -0.746
REMARK SMILES O=C([O-])CCCCCCCCC(=O)[O-]
REMARK SMILES IDX 7 1 6 2 5 3 4 4 2 5 1 6 3 7 8 8 9 9 10 10 11 11 12 12 13 13
REMARK SMILES IDX 14 14
REMARK H PARENT
REMARK Flexibility Score: inf
ROOT
ATOM      1  C   UNL     1      52.320 -35.578  24.402  1.00  0.00     0.000 C 
ENDROOT
BRANCH   1   2
ATOM      2  C   UNL     1      53.753 -35.116  24.708  1.00  0.00     0.000 C 
BRANCH   2   3
ATOM      3  C   UNL     1      54.297 -34.232  23.577  1.00  0.00     0.006 C 
BRANCH   3   4
ATOM      4  C   UNL     1      55.707 -34.649  23.140  1.00  0.00     0.053 C 
BRANCH   4   5
ATOM      5  C   UNL     1      55.684 -35.893  22.307  1.00  0.00     0.041 C 
ATOM      6  O   UNL     1      54.832 -36.027  21.389  1.00  0.00    -0.550 OA
ATOM      7  O   UNL     1      56.583 -36.921  22.566  1.00  0.00    -0.550 OA
ENDBRANCH   4   5
ENDBRANCH   3   4
ENDBRANCH   2   3
ENDBRANCH   1   2
BRANCH   1   8
ATOM      8  C   UNL     1      51.793 -35.039  23.062  1.00  0.00     0.000 C 
BRANCH   8   9
ATOM      9  C   UNL     1      50.296 -34.674  23.055  1.00  0.00     0.000 C 
BRANCH   9  10
ATOM     10  C   UNL     1      50.025 -33.153  22.982  1.00  0.00     0.006 C 
BRANCH  10  11
ATOM     11  C   UNL     1      50.424 -32.396  24.258  1.00  0.00     0.053 C 
BRANCH  11  12
ATOM     12  C   UNL     1      51.664 -31.579  24.058  1.00  0.00     0.041 C 
ATOM     13  O   UNL     1      51.932 -31.100  22.925  1.00  0.00    -0.550 OA
ATOM     14  O   UNL     1      52.536 -31.365  25.118  1.00  0.00    -0.550 OA
ENDBRANCH  11  12
ENDBRANCH  10  11
ENDBRANCH   9  10
ENDBRANCH   8   9
ENDBRANCH   1   8
TORSDOF 9
ENDMDL
MODEL 6
REMARK VINA RESULT:    -2.611      1.724      6.081
REMARK INTER + INTRA:          -4.732
REMARK INTER:                  -3.886
REMARK INTRA:                  -0.846
REMARK UNBOUND:                -0.746
REMARK SMILES O=C([O-])CCCCCCCCC(=O)[O-]
REMARK SMILES IDX 7 1 6 2 5 3 4 4 2 5 1 6 3 7 8 8 9 9 10 10 11 11 12 12 13 13
REMARK SMILES IDX 14 14
REMARK H PARENT
REMARK Flexibility Score: inf
ROOT
ATOM      1  C   UNL     1      54.924 -33.567  24.430  1.00  0.00     0.000 C 
ENDROOT
BRANCH   1   2
ATOM      2  C   UNL     1      54.092 -32.594  23.581  1.00  0.00     0.000 C 
BRANCH   2   3
ATOM      3  C   UNL     1      52.715 -32.352  24.217  1.00  0.00     0.006 C 
BRANCH   3   4
ATOM      4  C   UNL     1      51.566 -32.632  23.241  1.00  0.00     0.053 C 
BRANCH   4   5
ATOM      5  C   UNL     1      50.895 -33.938  23.535  1.00  0.00     0.041 C 
ATOM      6  O   UNL     1      50.956 -34.438  24.689  1.00  0.00    -0.550 OA
ATOM      7  O   UNL     1      50.229 -34.622  22.524  1.00  0.00    -0.550 OA
ENDBRANCH   4   5
ENDBRANCH   3   4
ENDBRANCH   2   3
ENDBRANCH   1   2
BRANCH   1   8
ATOM      8  C   UNL     1      54.476 -35.029  24.274  1.00  0.00     0.000 C 
BRANCH   8   9
ATOM      9  C   UNL     1      54.200 -35.471  22.824  1.00  0.00     0.000 C 
BRANCH   9  10
ATOM     10  C   UNL     1      55.475 -35.604  21.959  1.00  0.00     0.006 C 
BRANCH  10  11
ATOM     11  C   UNL     1      56.450 -36.680  22.464  1.00  0.00     0.053 C 
BRANCH  11  12
ATOM     12  C   UNL     1      57.843 -36.146  22.611  1.00  0.00     0.041 C 
ATOM     13  O   UNL     1      58.066 -35.151  23.349  1.00  0.00    -0.550 OA
ATOM     14  O   UNL     1      58.891 -36.734  21.914  1.00  0.00    -0.550 OA
ENDBRANCH  11  12
ENDBRANCH  10  11
ENDBRANCH   9  10
ENDBRANCH   8   9
ENDBRANCH   1   8
TORSDOF 9
ENDMDL
MODEL 7
REMARK VINA RESULT:    -2.601      1.573      6.868
REMARK INTER + INTRA:          -4.716
REMARK INTER:                  -4.274
REMARK INTRA:                  -0.442
REMARK UNBOUND:                -0.746
REMARK SMILES O=C([O-])CCCCCCCCC(=O)[O-]
REMARK SMILES IDX 7 1 6 2 5 3 4 4 2 5 1 6 3 7 8 8 9 9 10 10 11 11 12 12 13 13
REMARK SMILES IDX 14 14
REMARK H PARENT
REMARK Flexibility Score: inf
ROOT
ATOM      1  C   UNL     1      53.588 -32.947  23.744  1.00  0.00     0.000 C 
ENDROOT
BRANCH   1   2
ATOM      2  C   UNL     1      52.194 -33.592  23.709  1.00  0.00     0.000 C 
BRANCH   2   3
ATOM      3  C   UNL     1      51.107 -32.533  23.473  1.00  0.00     0.006 C 
BRANCH   3   4
ATOM      4  C   UNL     1      51.695 -31.180  23.051  1.00  0.00     0.053 C 
BRANCH   4   5
ATOM      5  C   UNL     1      50.872 -30.035  23.556  1.00  0.00     0.041 C 
ATOM      6  O   UNL     1      49.944 -30.237  24.383  1.00  0.00    -0.550 OA
ATOM      7  O   UNL     1      51.109 -28.749  23.089  1.00  0.00    -0.550 OA
ENDBRANCH   4   5
ENDBRANCH   3   4
ENDBRANCH   2   3
ENDBRANCH   1   2
BRANCH   1   8
ATOM      8  C   UNL     1      54.725 -33.982  23.697  1.00  0.00     0.000 C 
BRANCH   8   9
ATOM      9  C   UNL     1      54.365 -35.308  22.999  1.00  0.00     0.000 C 
BRANCH   9  10
ATOM     10  C   UNL     1      55.445 -35.807  22.012  1.00  0.00     0.006 C 
BRANCH  10  11
ATOM     11  C   UNL     1      56.474 -36.751  22.653  1.00  0.00     0.053 C 
BRANCH  11  12
ATOM     12  C   UNL     1      57.855 -36.169  22.630  1.00  0.00     0.041 C 
ATOM     13  O   UNL     1      58.134 -35.170  23.343  1.00  0.00    -0.550 OA
ATOM     14  O   UNL     1      58.828 -36.718  21.805  1.00  0.00    -0.550 OA
ENDBRANCH  11  12
ENDBRANCH  10  11
ENDBRANCH   9  10
ENDBRANCH   8   9
ENDBRANCH   1   8
TORSDOF 9
ENDMDL
MODEL 8
REMARK VINA RESULT:    -2.580      0.994      1.771
REMARK INTER + INTRA:          -4.683
REMARK INTER:                  -3.945
REMARK INTRA:                  -0.738
REMARK UNBOUND:                -0.746
REMARK SMILES O=C([O-])CCCCCCCCC(=O)[O-]
REMARK SMILES IDX 7 1 6 2 5 3 4 4 2 5 1 6 3 7 8 8 9 9 10 10 11 11 12 12 13 13
REMARK SMILES IDX 14 14
REMARK H PARENT
REMARK Flexibility Score: inf
ROOT
ATOM      1  C   UNL     1      54.852 -34.901  22.746  1.00  0.00     0.000 C 
ENDROOT
BRANCH   1   2
ATOM      2  C   UNL     1      55.533 -36.002  21.921  1.00  0.00     0.000 C 
BRANCH   2   3
ATOM      3  C   UNL     1      56.664 -36.666  22.720  1.00  0.00     0.006 C 
BRANCH   3   4
ATOM      4  C   UNL     1      58.052 -36.191  22.269  1.00  0.00     0.053 C 
BRANCH   4   5
ATOM      5  C   UNL     1      58.748 -35.413  23.342  1.00  0.00     0.041 C 
ATOM      6  O   UNL     1      58.188 -34.416  23.869  1.00  0.00    -0.550 OA
ATOM      7  O   UNL     1      60.032 -35.769  23.737  1.00  0.00    -0.550 OA
ENDBRANCH   4   5
ENDBRANCH   3   4
ENDBRANCH   2   3
ENDBRANCH   1   2
BRANCH   1   8
ATOM      8  C   UNL     1      54.445 -35.374  24.152  1.00  0.00     0.000 C 
BRANCH   8   9
ATOM      9  C   UNL     1      52.925 -35.486  24.381  1.00  0.00     0.000 C 
BRANCH   9  10
ATOM     10  C   UNL     1      52.076 -34.998  23.186  1.00  0.00     0.006 C 
BRANCH  10  11
ATOM     11  C   UNL     1      51.104 -33.863  23.546  1.00  0.00     0.053 C 
BRANCH  11  12
ATOM     12  C   UNL     1      51.823 -32.661  24.081  1.00  0.00     0.041 C 
ATOM     13  O   UNL     1      52.635 -32.032  23.354  1.00  0.00    -0.550 OA
ATOM     14  O   UNL     1      51.613 -32.251  25.391  1.00  0.00    -0.550 OA
ENDBRANCH  11  12
ENDBRANCH  10  11
ENDBRANCH   9  10
ENDBRANCH   8   9
ENDBRANCH   1   8
TORSDOF 9
ENDMDL
MODEL 9
REMARK VINA RESULT:    -2.511      1.161      6.103
REMARK INTER + INTRA:          -4.578
REMARK INTER:                  -3.892
REMARK INTRA:                  -0.686
REMARK UNBOUND:                -0.746
REMARK SMILES O=C([O-])CCCCCCCCC(=O)[O-]
REMARK SMILES IDX 7 1 6 2 5 3 4 4 2 5 1 6 3 7 8 8 9 9 10 10 11 11 12 12 13 13
REMARK SMILES IDX 14 14
REMARK H PARENT
REMARK Flexibility Score: inf
ROOT
ATOM      1  C   UNL     1      52.071 -34.904  23.140  1.00  0.00     0.000 C 
ENDROOT
BRANCH   1   2
ATOM      2  C   UNL     1      51.218 -33.993  24.035  1.00  0.00     0.000 C 
BRANCH   2   3
ATOM      3  C   UNL     1      50.793 -32.725  23.280  1.00  0.00     0.006 C 
BRANCH   3   4
ATOM      4  C   UNL     1      51.952 -31.733  23.113  1.00  0.00     0.053 C 
BRANCH   4   5
ATOM      5  C   UNL     1      52.493 -31.285  24.435  1.00  0.00     0.041 C 
ATOM      6  O   UNL     1      53.702 -31.487  24.728  1.00  0.00    -0.550 OA
ATOM      7  O   UNL     1      51.655 -30.674  25.359  1.00  0.00    -0.550 OA
ENDBRANCH   4   5
ENDBRANCH   3   4
ENDBRANCH   2   3
ENDBRANCH   1   2
BRANCH   1   8
ATOM      8  C   UNL     1      53.406 -35.302  23.792  1.00  0.00     0.000 C 
BRANCH   8   9
ATOM      9  C   UNL     1      54.645 -34.591  23.215  1.00  0.00     0.000 C 
BRANCH   9  10
ATOM     10  C   UNL     1      55.284 -35.327  22.015  1.00  0.00     0.006 C 
BRANCH  10  11
ATOM     11  C   UNL     1      55.911 -36.679  22.386  1.00  0.00     0.053 C 
BRANCH  11  12
ATOM     12  C   UNL     1      57.333 -36.530  22.838  1.00  0.00     0.041 C 
ATOM     13  O   UNL     1      58.205 -36.082  22.048  1.00  0.00    -0.550 OA
ATOM     14  O   UNL     1      57.698 -36.905  24.124  1.00  0.00    -0.550 OA
ENDBRANCH  11  12
ENDBRANCH  10  11
ENDBRANCH   9  10
ENDBRANCH   8   9
ENDBRANCH   1   8
TORSDOF 9
ENDMDL
