MODEL 1
REMARK VINA RESULT:    26.767      0.000      0.000
REMARK INTER + INTRA:          41.914
REMARK INTER:                  40.851
REMARK INTRA:                   1.064
REMARK UNBOUND:                 1.064
REMARK SMILES COc1cc(C=CC(=O)CC(=O)C=Cc2ccc(O)c(OC)c2)ccc1O
REMARK SMILES IDX 10 1 8 2 9 3 7 4 6 5 5 6 3 7 26 8 4 9 25 10 24 11 2 12 1 13
REMARK SMILES IDX 27 14 11 16 12 17 13 18 14 19 15 20 23 21 16 22 20 23 17 24
REMARK SMILES IDX 18 25 21 26 22 27 19 28
REMARK H PARENT 27 15 19 29
REMARK Flexibility Score: inf
ROOT
ATOM      1  C   UNL     1     -36.270  25.038   1.217  1.00  0.00     0.160 C 
ENDROOT
BRANCH   1   2
ATOM      2  C   UNL     1     -37.021  25.439  -0.031  1.00  0.00     0.163 C 
ATOM      3  O   UNL     1     -37.959  24.714  -0.463  1.00  0.00    -0.294 OA
BRANCH   2   4
ATOM      4  C   UNL     1     -36.689  26.666  -0.786  1.00  0.00     0.048 C 
ATOM      5  C   UNL     1     -35.436  27.011  -1.118  1.00  0.00     0.012 C 
BRANCH   5   6
ATOM      6  C   UNL     1     -35.099  28.236  -1.885  1.00  0.00    -0.022 A 
ATOM      7  C   UNL     1     -33.502  29.887  -2.736  1.00  0.00     0.161 A 
ATOM      8  C   UNL     1     -34.553  30.552  -3.392  1.00  0.00     0.157 A 
ATOM      9  C   UNL     1     -33.782  28.726  -1.988  1.00  0.00     0.058 A 
ATOM     10  C   UNL     1     -35.856  30.056  -3.305  1.00  0.00     0.051 A 
ATOM     11  C   UNL     1     -36.127  28.906  -2.564  1.00  0.00     0.012 A 
BRANCH   7  12
ATOM     12  O   UNL     1     -32.200  30.403  -2.850  1.00  0.00    -0.493 OA
ATOM     13  C   UNL     1     -31.440  30.928  -1.767  1.00  0.00     0.278 C 
ENDBRANCH   7  12
BRANCH   8  14
ATOM     14  O   UNL     1     -34.321  31.707  -4.140  1.00  0.00    -0.504 OA
ATOM     15  H   UNL     1     -33.794  31.693  -5.005  1.00  0.00     0.293 HD
ENDBRANCH   8  14
ENDBRANCH   5   6
ENDBRANCH   2   4
ENDBRANCH   1   2
BRANCH   1  16
ATOM     16  C   UNL     1     -37.152  24.362   2.228  1.00  0.00     0.163 C 
ATOM     17  O   UNL     1     -36.693  23.390   2.887  1.00  0.00    -0.294 OA
BRANCH  16  18
ATOM     18  C   UNL     1     -38.496  24.909   2.513  1.00  0.00     0.048 C 
ATOM     19  C   UNL     1     -39.122  24.860   3.699  1.00  0.00     0.012 C 
BRANCH  19  20
ATOM     20  C   UNL     1     -38.662  24.095   4.878  1.00  0.00    -0.022 A 
ATOM     21  C   UNL     1     -39.122  22.784   5.069  1.00  0.00     0.058 A 
ATOM     22  C   UNL     1     -37.700  24.622   5.755  1.00  0.00     0.012 A 
ATOM     23  C   UNL     1     -38.665  22.016   6.159  1.00  0.00     0.161 A 
ATOM     24  C   UNL     1     -37.243  23.866   6.836  1.00  0.00     0.051 A 
ATOM     25  C   UNL     1     -37.726  22.568   7.042  1.00  0.00     0.157 A 
BRANCH  23  26
ATOM     26  O   UNL     1     -39.116  20.708   6.393  1.00  0.00    -0.493 OA
ATOM     27  C   UNL     1     -38.914  19.992   7.607  1.00  0.00     0.278 C 
ENDBRANCH  23  26
BRANCH  25  28
ATOM     28  O   UNL     1     -37.272  21.814   8.123  1.00  0.00    -0.504 OA
ATOM     29  H   UNL     1     -37.129  20.814   8.050  1.00  0.00     0.293 HD
ENDBRANCH  25  28
ENDBRANCH  19  20
ENDBRANCH  16  18
ENDBRANCH   1  16
TORSDOF 10
ENDMDL
MODEL 2
REMARK VINA RESULT:    27.636      1.207      1.963
REMARK INTER + INTRA:          43.240
REMARK INTER:                  41.591
REMARK INTRA:                   1.649
REMARK UNBOUND:                 1.064
REMARK SMILES COc1cc(C=CC(=O)CC(=O)C=Cc2ccc(O)c(OC)c2)ccc1O
REMARK SMILES IDX 10 1 8 2 9 3 7 4 6 5 5 6 3 7 26 8 4 9 25 10 24 11 2 12 1 13
REMARK SMILES IDX 27 14 11 16 12 17 13 18 14 19 15 20 23 21 16 22 20 23 17 24
REMARK SMILES IDX 18 25 21 26 22 27 19 28
REMARK H PARENT 27 15 19 29
REMARK Flexibility Score: inf
ROOT
ATOM      1  C   UNL     1     -36.797  25.592   1.352  1.00  0.00     0.160 C 
ENDROOT
BRANCH   1   2
ATOM      2  C   UNL     1     -37.049  25.505  -0.135  1.00  0.00     0.163 C 
ATOM      3  O   UNL     1     -37.799  24.601  -0.596  1.00  0.00    -0.294 OA
BRANCH   2   4
ATOM      4  C   UNL     1     -36.433  26.450  -1.091  1.00  0.00     0.048 C 
ATOM      5  C   UNL     1     -35.887  27.619  -0.724  1.00  0.00     0.012 C 
BRANCH   5   6
ATOM      6  C   UNL     1     -35.258  28.564  -1.679  1.00  0.00    -0.022 A 
ATOM      7  C   UNL     1     -33.320  29.763  -2.579  1.00  0.00     0.161 A 
ATOM      8  C   UNL     1     -34.147  30.348  -3.555  1.00  0.00     0.157 A 
ATOM      9  C   UNL     1     -33.882  28.867  -1.647  1.00  0.00     0.058 A 
ATOM     10  C   UNL     1     -35.507  30.034  -3.597  1.00  0.00     0.051 A 
ATOM     11  C   UNL     1     -36.058  29.146  -2.673  1.00  0.00     0.012 A 
BRANCH   7  12
ATOM     12  O   UNL     1     -31.954  30.089  -2.568  1.00  0.00    -0.493 OA
ATOM     13  C   UNL     1     -31.378  31.136  -1.793  1.00  0.00     0.278 C 
ENDBRANCH   7  12
BRANCH   8  14
ATOM     14  O   UNL     1     -33.632  31.243  -4.494  1.00  0.00    -0.504 OA
ATOM     15  H   UNL     1     -33.552  32.235  -4.307  1.00  0.00     0.293 HD
ENDBRANCH   8  14
ENDBRANCH   5   6
ENDBRANCH   2   4
ENDBRANCH   1   2
BRANCH   1  16
ATOM     16  C   UNL     1     -37.289  24.380   2.091  1.00  0.00     0.163 C 
ATOM     17  O   UNL     1     -36.463  23.484   2.416  1.00  0.00    -0.294 OA
BRANCH  16  18
ATOM     18  C   UNL     1     -38.702  24.305   2.522  1.00  0.00     0.048 C 
ATOM     19  C   UNL     1     -39.124  23.994   3.757  1.00  0.00     0.012 C 
BRANCH  19  20
ATOM     20  C   UNL     1     -38.268  23.496   4.855  1.00  0.00    -0.022 A 
ATOM     21  C   UNL     1     -36.883  23.703   4.794  1.00  0.00     0.058 A 
ATOM     22  C   UNL     1     -38.826  22.908   6.001  1.00  0.00     0.012 A 
ATOM     23  C   UNL     1     -36.047  23.281   5.847  1.00  0.00     0.161 A 
ATOM     24  C   UNL     1     -38.004  22.486   7.048  1.00  0.00     0.051 A 
ATOM     25  C   UNL     1     -36.618  22.667   6.972  1.00  0.00     0.157 A 
BRANCH  23  26
ATOM     26  O   UNL     1     -34.655  23.453   5.813  1.00  0.00    -0.493 OA
ATOM     27  C   UNL     1     -33.950  24.456   6.537  1.00  0.00     0.278 C 
ENDBRANCH  23  26
BRANCH  25  28
ATOM     28  O   UNL     1     -35.797  22.244   8.016  1.00  0.00    -0.504 OA
ATOM     29  H   UNL     1     -36.053  21.464   8.610  1.00  0.00     0.293 HD
ENDBRANCH  25  28
ENDBRANCH  19  20
ENDBRANCH  16  18
ENDBRANCH   1  16
TORSDOF 10
ENDMDL
MODEL 3
REMARK VINA RESULT:    27.769      6.383     14.565
REMARK INTER + INTRA:          43.444
REMARK INTER:                  43.778
REMARK INTRA:                  -0.334
REMARK UNBOUND:                 1.064
REMARK SMILES COc1cc(C=CC(=O)CC(=O)C=Cc2ccc(O)c(OC)c2)ccc1O
REMARK SMILES IDX 10 1 8 2 9 3 7 4 6 5 5 6 3 7 26 8 4 9 25 10 24 11 2 12 1 13
REMARK SMILES IDX 27 14 11 16 12 17 13 18 14 19 15 20 23 21 16 22 20 23 17 24
REMARK SMILES IDX 18 25 21 26 22 27 19 28
REMARK H PARENT 27 15 19 29
REMARK Flexibility Score: inf
ROOT
ATOM      1  C   UNL     1     -28.261  32.332  -3.828  1.00  0.00     0.160 C 
ENDROOT
BRANCH   1   2
ATOM      2  C   UNL     1     -29.225  31.980  -2.719  1.00  0.00     0.163 C 
ATOM      3  O   UNL     1     -28.818  31.918  -1.526  1.00  0.00    -0.294 OA
BRANCH   2   4
ATOM      4  C   UNL     1     -30.651  31.692  -2.983  1.00  0.00     0.048 C 
ATOM      5  C   UNL     1     -31.295  30.631  -2.473  1.00  0.00     0.012 C 
BRANCH   5   6
ATOM      6  C   UNL     1     -32.729  30.345  -2.726  1.00  0.00    -0.022 A 
ATOM      7  C   UNL     1     -34.860  29.285  -2.146  1.00  0.00     0.161 A 
ATOM      8  C   UNL     1     -35.454  29.885  -3.271  1.00  0.00     0.157 A 
ATOM      9  C   UNL     1     -33.497  29.524  -1.877  1.00  0.00     0.058 A 
ATOM     10  C   UNL     1     -34.696  30.713  -4.103  1.00  0.00     0.051 A 
ATOM     11  C   UNL     1     -33.349  30.947  -3.830  1.00  0.00     0.012 A 
BRANCH   7  12
ATOM     12  O   UNL     1     -35.649  28.466  -1.322  1.00  0.00    -0.493 OA
ATOM     13  C   UNL     1     -36.061  27.143  -1.652  1.00  0.00     0.278 C 
ENDBRANCH   7  12
BRANCH   8  14
ATOM     14  O   UNL     1     -36.799  29.672  -3.576  1.00  0.00    -0.504 OA
ATOM     15  H   UNL     1     -37.540  29.874  -2.917  1.00  0.00     0.293 HD
ENDBRANCH   8  14
ENDBRANCH   5   6
ENDBRANCH   2   4
ENDBRANCH   1   2
BRANCH   1  16
ATOM     16  C   UNL     1     -27.139  31.340  -3.952  1.00  0.00     0.163 C 
ATOM     17  O   UNL     1     -25.995  31.653  -3.526  1.00  0.00    -0.294 OA
BRANCH  16  18
ATOM     18  C   UNL     1     -27.414  29.980  -4.465  1.00  0.00     0.048 C 
ATOM     19  C   UNL     1     -27.127  29.541  -5.700  1.00  0.00     0.012 C 
BRANCH  19  20
ATOM     20  C   UNL     1     -26.655  30.383  -6.820  1.00  0.00    -0.022 A 
ATOM     21  C   UNL     1     -25.306  30.327  -7.201  1.00  0.00     0.058 A 
ATOM     22  C   UNL     1     -27.550  31.161  -7.570  1.00  0.00     0.012 A 
ATOM     23  C   UNL     1     -24.837  31.083  -8.293  1.00  0.00     0.161 A 
ATOM     24  C   UNL     1     -27.092  31.913  -8.654  1.00  0.00     0.051 A 
ATOM     25  C   UNL     1     -25.740  31.879  -9.014  1.00  0.00     0.157 A 
BRANCH  23  26
ATOM     26  O   UNL     1     -23.493  31.068  -8.692  1.00  0.00    -0.493 OA
ATOM     27  C   UNL     1     -22.756  32.221  -9.088  1.00  0.00     0.278 C 
ENDBRANCH  23  26
BRANCH  25  28
ATOM     28  O   UNL     1     -25.283  32.632 -10.094  1.00  0.00    -0.504 OA
ATOM     29  H   UNL     1     -25.444  33.631 -10.152  1.00  0.00     0.293 HD
ENDBRANCH  25  28
ENDBRANCH  19  20
ENDBRANCH  16  18
ENDBRANCH   1  16
TORSDOF 10
ENDMDL
MODEL 4
REMARK VINA RESULT:    27.912      6.796     11.839
REMARK INTER + INTRA:          43.662
REMARK INTER:                  43.366
REMARK INTRA:                   0.296
REMARK UNBOUND:                 1.064
REMARK SMILES COc1cc(C=CC(=O)CC(=O)C=Cc2ccc(O)c(OC)c2)ccc1O
REMARK SMILES IDX 10 1 8 2 9 3 7 4 6 5 5 6 3 7 26 8 4 9 25 10 24 11 2 12 1 13
REMARK SMILES IDX 27 14 11 16 12 17 13 18 14 19 15 20 23 21 16 22 20 23 17 24
REMARK SMILES IDX 18 25 21 26 22 27 19 28
REMARK H PARENT 27 15 19 29
REMARK Flexibility Score: inf
ROOT
ATOM      1  C   UNL     1     -28.866  30.925  -3.043  1.00  0.00     0.160 C 
ENDROOT
BRANCH   1   2
ATOM      2  C   UNL     1     -27.442  31.299  -3.383  1.00  0.00     0.163 C 
ATOM      3  O   UNL     1     -26.578  31.385  -2.468  1.00  0.00    -0.294 OA
BRANCH   2   4
ATOM      4  C   UNL     1     -27.015  31.581  -4.770  1.00  0.00     0.048 C 
ATOM      5  C   UNL     1     -26.649  30.626  -5.638  1.00  0.00     0.012 C 
BRANCH   5   6
ATOM      6  C   UNL     1     -26.231  30.904  -7.034  1.00  0.00    -0.022 A 
ATOM      7  C   UNL     1     -24.536  31.426  -8.724  1.00  0.00     0.161 A 
ATOM      8  C   UNL     1     -25.530  31.390  -9.719  1.00  0.00     0.157 A 
ATOM      9  C   UNL     1     -24.894  31.177  -7.383  1.00  0.00     0.058 A 
ATOM     10  C   UNL     1     -26.853  31.102  -9.374  1.00  0.00     0.051 A 
ATOM     11  C   UNL     1     -27.200  30.855  -8.047  1.00  0.00     0.012 A 
BRANCH   7  12
ATOM     12  O   UNL     1     -23.212  31.707  -9.101  1.00  0.00    -0.493 OA
ATOM     13  C   UNL     1     -22.615  32.998  -9.055  1.00  0.00     0.278 C 
ENDBRANCH   7  12
BRANCH   8  14
ATOM     14  O   UNL     1     -25.220  31.634 -11.057  1.00  0.00    -0.504 OA
ATOM     15  H   UNL     1     -24.353  31.319 -11.476  1.00  0.00     0.293 HD
ENDBRANCH   8  14
ENDBRANCH   5   6
ENDBRANCH   2   4
ENDBRANCH   1   2
BRANCH   1  16
ATOM     16  C   UNL     1     -29.548  31.965  -2.199  1.00  0.00     0.163 C 
ATOM     17  O   UNL     1     -29.705  33.126  -2.666  1.00  0.00    -0.294 OA
BRANCH  16  18
ATOM     18  C   UNL     1     -30.121  31.587  -0.889  1.00  0.00     0.048 C 
ATOM     19  C   UNL     1     -31.289  30.954  -0.702  1.00  0.00     0.012 C 
BRANCH  19  20
ATOM     20  C   UNL     1     -32.294  30.685  -1.753  1.00  0.00    -0.022 A 
ATOM     21  C   UNL     1     -33.488  30.034  -1.411  1.00  0.00     0.058 A 
ATOM     22  C   UNL     1     -32.118  31.156  -3.064  1.00  0.00     0.012 A 
ATOM     23  C   UNL     1     -34.483  29.805  -2.382  1.00  0.00     0.161 A 
ATOM     24  C   UNL     1     -33.100  30.933  -4.030  1.00  0.00     0.051 A 
ATOM     25  C   UNL     1     -34.278  30.256  -3.694  1.00  0.00     0.157 A 
BRANCH  23  26
ATOM     26  O   UNL     1     -35.682  29.141  -2.082  1.00  0.00    -0.493 OA
ATOM     27  C   UNL     1     -35.775  27.762  -1.736  1.00  0.00     0.278 C 
ENDBRANCH  23  26
BRANCH  25  28
ATOM     28  O   UNL     1     -35.258  30.031  -4.660  1.00  0.00    -0.504 OA
ATOM     29  H   UNL     1     -36.236  29.938  -4.413  1.00  0.00     0.293 HD
ENDBRANCH  25  28
ENDBRANCH  19  20
ENDBRANCH  16  18
ENDBRANCH   1  16
TORSDOF 10
ENDMDL
MODEL 5
REMARK VINA RESULT:    28.747      6.265     14.427
REMARK INTER + INTRA:          44.936
REMARK INTER:                  44.882
REMARK INTRA:                   0.053
REMARK UNBOUND:                 1.064
REMARK SMILES COc1cc(C=CC(=O)CC(=O)C=Cc2ccc(O)c(OC)c2)ccc1O
REMARK SMILES IDX 10 1 8 2 9 3 7 4 6 5 5 6 3 7 26 8 4 9 25 10 24 11 2 12 1 13
REMARK SMILES IDX 27 14 11 16 12 17 13 18 14 19 15 20 23 21 16 22 20 23 17 24
REMARK SMILES IDX 18 25 21 26 22 27 19 28
REMARK H PARENT 27 15 19 29
REMARK Flexibility Score: inf
ROOT
ATOM      1  C   UNL     1     -28.903  33.254  -3.323  1.00  0.00     0.160 C 
ENDROOT
BRANCH   1   2
ATOM      2  C   UNL     1     -29.655  32.285  -2.439  1.00  0.00     0.163 C 
ATOM      3  O   UNL     1     -29.077  31.754  -1.451  1.00  0.00    -0.294 OA
BRANCH   2   4
ATOM      4  C   UNL     1     -31.064  31.922  -2.696  1.00  0.00     0.048 C 
ATOM      5  C   UNL     1     -31.569  30.704  -2.450  1.00  0.00     0.012 C 
BRANCH   5   6
ATOM      6  C   UNL     1     -32.986  30.339  -2.696  1.00  0.00    -0.022 A 
ATOM      7  C   UNL     1     -35.058  29.177  -2.097  1.00  0.00     0.161 A 
ATOM      8  C   UNL     1     -35.684  29.729  -3.229  1.00  0.00     0.157 A 
ATOM      9  C   UNL     1     -33.709  29.491  -1.834  1.00  0.00     0.058 A 
ATOM     10  C   UNL     1     -34.972  30.584  -4.074  1.00  0.00     0.051 A 
ATOM     11  C   UNL     1     -33.638  30.892  -3.808  1.00  0.00     0.012 A 
BRANCH   7  12
ATOM     12  O   UNL     1     -35.802  28.329  -1.259  1.00  0.00    -0.493 OA
ATOM     13  C   UNL     1     -36.170  26.992  -1.582  1.00  0.00     0.278 C 
ENDBRANCH   7  12
BRANCH   8  14
ATOM     14  O   UNL     1     -37.016  29.441  -3.529  1.00  0.00    -0.504 OA
ATOM     15  H   UNL     1     -37.679  29.156  -2.819  1.00  0.00     0.293 HD
ENDBRANCH   8  14
ENDBRANCH   5   6
ENDBRANCH   2   4
ENDBRANCH   1   2
BRANCH   1  16
ATOM     16  C   UNL     1     -28.037  32.557  -4.333  1.00  0.00     0.163 C 
ATOM     17  O   UNL     1     -28.044  32.960  -5.528  1.00  0.00    -0.294 OA
BRANCH  16  18
ATOM     18  C   UNL     1     -27.111  31.489  -3.896  1.00  0.00     0.048 C 
ATOM     19  C   UNL     1     -26.305  30.779  -4.701  1.00  0.00     0.012 C 
BRANCH  19  20
ATOM     20  C   UNL     1     -26.330  30.808  -6.178  1.00  0.00    -0.022 A 
ATOM     21  C   UNL     1     -25.334  31.513  -6.869  1.00  0.00     0.058 A 
ATOM     22  C   UNL     1     -27.274  30.063  -6.903  1.00  0.00     0.012 A 
ATOM     23  C   UNL     1     -25.305  31.520  -8.278  1.00  0.00     0.161 A 
ATOM     24  C   UNL     1     -27.251  30.065  -8.299  1.00  0.00     0.051 A 
ATOM     25  C   UNL     1     -26.274  30.794  -8.987  1.00  0.00     0.157 A 
BRANCH  23  26
ATOM     26  O   UNL     1     -24.337  32.229  -9.003  1.00  0.00    -0.493 OA
ATOM     27  C   UNL     1     -22.981  31.818  -9.153  1.00  0.00     0.278 C 
ENDBRANCH  23  26
BRANCH  25  28
ATOM     28  O   UNL     1     -26.253  30.799 -10.381  1.00  0.00    -0.504 OA
ATOM     29  H   UNL     1     -26.725  31.518 -10.916  1.00  0.00     0.293 HD
ENDBRANCH  25  28
ENDBRANCH  19  20
ENDBRANCH  16  18
ENDBRANCH   1  16
TORSDOF 10
ENDMDL
MODEL 6
REMARK VINA RESULT:    29.369      1.044      2.425
REMARK INTER + INTRA:          45.884
REMARK INTER:                  45.539
REMARK INTRA:                   0.345
REMARK UNBOUND:                 1.064
REMARK SMILES COc1cc(C=CC(=O)CC(=O)C=Cc2ccc(O)c(OC)c2)ccc1O
REMARK SMILES IDX 10 1 8 2 9 3 7 4 6 5 5 6 3 7 26 8 4 9 25 10 24 11 2 12 1 13
REMARK SMILES IDX 27 14 11 16 12 17 13 18 14 19 15 20 23 21 16 22 20 23 17 24
REMARK SMILES IDX 18 25 21 26 22 27 19 28
REMARK H PARENT 27 15 19 29
REMARK Flexibility Score: inf
ROOT
ATOM      1  C   UNL     1     -36.187  24.943   1.362  1.00  0.00     0.160 C 
ENDROOT
BRANCH   1   2
ATOM      2  C   UNL     1     -36.886  25.499   0.144  1.00  0.00     0.163 C 
ATOM      3  O   UNL     1     -37.969  24.986  -0.251  1.00  0.00    -0.294 OA
BRANCH   2   4
ATOM      4  C   UNL     1     -36.336  26.637  -0.624  1.00  0.00     0.048 C 
ATOM      5  C   UNL     1     -35.027  26.924  -0.681  1.00  0.00     0.012 C 
BRANCH   5   6
ATOM      6  C   UNL     1     -34.470  28.058  -1.459  1.00  0.00    -0.022 A 
ATOM      7  C   UNL     1     -34.720  30.051  -2.863  1.00  0.00     0.161 A 
ATOM      8  C   UNL     1     -33.321  30.199  -2.886  1.00  0.00     0.157 A 
ATOM      9  C   UNL     1     -35.288  28.980  -2.143  1.00  0.00     0.058 A 
ATOM     10  C   UNL     1     -32.512  29.295  -2.193  1.00  0.00     0.051 A 
ATOM     11  C   UNL     1     -33.079  28.239  -1.481  1.00  0.00     0.012 A 
BRANCH   7  12
ATOM     12  O   UNL     1     -35.509  30.981  -3.559  1.00  0.00    -0.493 OA
ATOM     13  C   UNL     1     -36.914  30.863  -3.757  1.00  0.00     0.278 C 
ENDBRANCH   7  12
BRANCH   8  14
ATOM     14  O   UNL     1     -32.718  31.242  -3.589  1.00  0.00    -0.504 OA
ATOM     15  H   UNL     1     -33.257  31.932  -4.098  1.00  0.00     0.293 HD
ENDBRANCH   8  14
ENDBRANCH   5   6
ENDBRANCH   2   4
ENDBRANCH   1   2
BRANCH   1  16
ATOM     16  C   UNL     1     -37.047  23.979   2.129  1.00  0.00     0.163 C 
ATOM     17  O   UNL     1     -36.518  22.946   2.622  1.00  0.00    -0.294 OA
BRANCH  16  18
ATOM     18  C   UNL     1     -38.466  24.305   2.388  1.00  0.00     0.048 C 
ATOM     19  C   UNL     1     -39.124  24.065   3.533  1.00  0.00     0.012 C 
BRANCH  19  20
ATOM     20  C   UNL     1     -38.607  23.272   4.668  1.00  0.00    -0.022 A 
ATOM     21  C   UNL     1     -37.654  23.840   5.526  1.00  0.00     0.058 A 
ATOM     22  C   UNL     1     -39.122  21.999   4.959  1.00  0.00     0.012 A 
ATOM     23  C   UNL     1     -37.177  23.125   6.642  1.00  0.00     0.161 A 
ATOM     24  C   UNL     1     -38.654  21.285   6.063  1.00  0.00     0.051 A 
ATOM     25  C   UNL     1     -37.681  21.842   6.902  1.00  0.00     0.157 A 
BRANCH  23  26
ATOM     26  O   UNL     1     -36.211  23.653   7.512  1.00  0.00    -0.493 OA
ATOM     27  C   UNL     1     -34.832  23.803   7.189  1.00  0.00     0.278 C 
ENDBRANCH  23  26
BRANCH  25  28
ATOM     28  O   UNL     1     -37.211  21.128   8.002  1.00  0.00    -0.504 OA
ATOM     29  H   UNL     1     -36.278  20.735   8.021  1.00  0.00     0.293 HD
ENDBRANCH  25  28
ENDBRANCH  19  20
ENDBRANCH  16  18
ENDBRANCH   1  16
TORSDOF 10
ENDMDL
