MODEL 1
REMARK VINA RESULT:    -5.455      0.000      0.000
REMARK INTER + INTRA:         -10.713
REMARK INTER:                  -9.600
REMARK INTRA:                  -1.112
REMARK UNBOUND:                -1.112
REMARK SMILES COc1cc(-c2[o+]c3cc(O)cc(O[C@H]4O[C@@H](CO)[C@@H](O)[C@@H](O)[C@@H]4O)c3cc2O[C@H]2O[C@@H](CO)[C@H](O)[C@H](O)[C@@H]2O)ccc1O
REMARK SMILES IDX 6 1 28 2 27 3 26 4 13 5 12 6 10 7 9 8 8 9 7 10 5 11 3 12
REMARK SMILES IDX 43 13 4 14 42 15 41 16 2 17 1 18 44 19 29 21 30 22 39 23
REMARK SMILES IDX 31 24 37 25 32 26 35 27 40 28 38 30 33 32 34 33 36 35 14 37
REMARK SMILES IDX 15 38 24 39 16 40 22 41 17 42 20 43 25 44 23 46 18 48 19 49
REMARK SMILES IDX 21 51 11 53
REMARK H PARENT 44 20 40 29 38 31 34 34 36 36 25 45 23 47 19 50 21 52 11 54
REMARK Flexibility Score: inf
ROOT
ATOM      1  C   UNL     1      16.045  45.572  74.586  1.00  0.00     0.402 A 
ATOM      2  C   UNL     1      16.881  44.633  75.235  1.00  0.00     0.229 A 
ATOM      3  C   UNL     1      17.966  45.133  76.000  1.00  0.00     0.079 A 
ATOM      4  C   UNL     1      18.412  46.446  75.793  1.00  0.00     0.126 A 
ATOM      5  C   UNL     1      19.558  46.944  76.397  1.00  0.00     0.143 A 
ATOM      6  C   UNL     1      20.125  48.141  75.961  1.00  0.00     0.094 A 
ATOM      7  C   UNL     1      19.479  48.927  75.013  1.00  0.00     0.128 A 
ATOM      8  C   UNL     1      18.244  48.471  74.467  1.00  0.00     0.162 A 
ATOM      9  C   UNL     1      17.716  47.220  74.843  1.00  0.00     0.368 A 
ATOM     10  O   UNL     1      16.542  46.793  74.366  1.00  0.00    -0.202 OA
ENDROOT
BRANCH   1  11
ATOM     11  C   UNL     1      14.602  45.357  74.445  1.00  0.00     0.087 A 
ATOM     12  C   UNL     1      12.344  46.263  74.651  1.00  0.00     0.161 A 
ATOM     13  C   UNL     1      12.019  45.290  75.603  1.00  0.00     0.157 A 
ATOM     14  C   UNL     1      13.677  46.351  74.149  1.00  0.00     0.068 A 
ATOM     15  C   UNL     1      12.887  44.196  75.786  1.00  0.00     0.051 A 
ATOM     16  C   UNL     1      14.132  44.212  75.143  1.00  0.00     0.022 A 
BRANCH  12  17
ATOM     17  O   UNL     1      11.291  47.002  74.041  1.00  0.00    -0.493 OA
ATOM     18  C   UNL     1      11.546  48.072  73.157  1.00  0.00     0.278 C 
ENDBRANCH  12  17
BRANCH  13  19
ATOM     19  O   UNL     1      10.824  45.369  76.288  1.00  0.00    -0.504 OA
ATOM     20  H   UNL     1      10.765  45.405  77.306  1.00  0.00     0.293 HD
ENDBRANCH  13  19
ENDBRANCH   1  11
BRANCH   2  21
ATOM     21  O   UNL     1      16.674  43.238  75.140  1.00  0.00    -0.452 OA
BRANCH  21  22
ATOM     22  C   UNL     1      17.796  42.375  74.787  1.00  0.00     0.339 C 
ATOM     23  C   UNL     1      17.377  40.924  74.388  1.00  0.00     0.214 C 
ATOM     24  O   UNL     1      18.889  42.433  75.739  1.00  0.00    -0.332 OA
ATOM     25  C   UNL     1      17.110  40.110  75.688  1.00  0.00     0.180 C 
ATOM     26  C   UNL     1      18.776  41.617  76.876  1.00  0.00     0.179 C 
ATOM     27  C   UNL     1      18.386  40.160  76.570  1.00  0.00     0.177 C 
BRANCH  23  28
ATOM     28  O   UNL     1      18.316  40.302  73.517  1.00  0.00    -0.384 OA
ATOM     29  H   UNL     1      18.721  39.555  74.068  1.00  0.00     0.211 HD
ENDBRANCH  23  28
BRANCH  25  30
ATOM     30  O   UNL     1      16.697  38.786  75.355  1.00  0.00    -0.387 OA
ATOM     31  H   UNL     1      16.270  38.358  76.147  1.00  0.00     0.211 HD
ENDBRANCH  25  30
BRANCH  26  32
ATOM     32  C   UNL     1      17.908  42.321  77.942  1.00  0.00     0.191 C 
BRANCH  32  33
ATOM     33  O   UNL     1      17.911  41.655  79.195  1.00  0.00    -0.394 OA
ATOM     34  H   UNL     1      18.847  41.410  79.412  1.00  0.00     0.210 HD
ENDBRANCH  32  33
ENDBRANCH  26  32
BRANCH  27  35
ATOM     35  O   UNL     1      19.452  39.562  75.922  1.00  0.00    -0.387 OA
ATOM     36  H   UNL     1      19.850  38.887  76.496  1.00  0.00     0.211 HD
ENDBRANCH  27  35
ENDBRANCH  21  22
ENDBRANCH   2  21
BRANCH   5  37
ATOM     37  O   UNL     1      20.125  46.250  77.502  1.00  0.00    -0.461 OA
BRANCH  37  38
ATOM     38  C   UNL     1      20.074  46.621  78.875  1.00  0.00     0.339 C 
ATOM     39  C   UNL     1      19.003  45.765  79.637  1.00  0.00     0.214 C 
ATOM     40  O   UNL     1      19.915  48.054  78.911  1.00  0.00    -0.332 OA
ATOM     41  C   UNL     1      18.707  46.348  81.052  1.00  0.00     0.180 C 
ATOM     42  C   UNL     1      18.789  48.498  79.636  1.00  0.00     0.179 C 
ATOM     43  C   UNL     1      18.764  47.883  81.060  1.00  0.00     0.177 C 
BRANCH  39  44
ATOM     44  O   UNL     1      19.477  44.462  79.717  1.00  0.00    -0.384 OA
ATOM     45  H   UNL     1      20.481  44.503  79.839  1.00  0.00     0.211 HD
ENDBRANCH  39  44
BRANCH  41  46
ATOM     46  O   UNL     1      17.505  45.821  81.581  1.00  0.00    -0.387 OA
ATOM     47  H   UNL     1      16.753  46.411  81.275  1.00  0.00     0.211 HD
ENDBRANCH  41  46
BRANCH  42  48
ATOM     48  C   UNL     1      17.517  48.449  78.753  1.00  0.00     0.191 C 
BRANCH  48  49
ATOM     49  O   UNL     1      16.677  49.543  78.992  1.00  0.00    -0.394 OA
ATOM     50  H   UNL     1      17.263  50.361  79.039  1.00  0.00     0.210 HD
ENDBRANCH  48  49
ENDBRANCH  42  48
BRANCH  43  51
ATOM     51  O   UNL     1      17.724  48.429  81.858  1.00  0.00    -0.387 OA
ATOM     52  H   UNL     1      17.273  47.666  82.331  1.00  0.00     0.211 HD
ENDBRANCH  43  51
ENDBRANCH  37  38
ENDBRANCH   5  37
BRANCH   7  53
ATOM     53  O   UNL     1      20.032  50.124  74.542  1.00  0.00    -0.507 OA
ATOM     54  H   UNL     1      20.753  50.091  73.805  1.00  0.00     0.293 HD
ENDBRANCH   7  53
TORSDOF 18
ENDMDL
MODEL 2
REMARK VINA RESULT:    -4.874      2.200      7.346
REMARK INTER + INTRA:          -9.691
REMARK INTER:                  -8.499
REMARK INTRA:                  -1.191
REMARK UNBOUND:                -1.112
REMARK SMILES COc1cc(-c2[o+]c3cc(O)cc(O[C@H]4O[C@@H](CO)[C@@H](O)[C@@H](O)[C@@H]4O)c3cc2O[C@H]2O[C@@H](CO)[C@H](O)[C@H](O)[C@@H]2O)ccc1O
REMARK SMILES IDX 6 1 28 2 27 3 26 4 13 5 12 6 10 7 9 8 8 9 7 10 5 11 3 12
REMARK SMILES IDX 43 13 4 14 42 15 41 16 2 17 1 18 44 19 29 21 30 22 39 23
REMARK SMILES IDX 31 24 37 25 32 26 35 27 40 28 38 30 33 32 34 33 36 35 14 37
REMARK SMILES IDX 15 38 24 39 16 40 22 41 17 42 20 43 25 44 23 46 18 48 19 49
REMARK SMILES IDX 21 51 11 53
REMARK H PARENT 44 20 40 29 38 31 34 34 36 36 25 45 23 47 19 50 21 52 11 54
REMARK Flexibility Score: inf
ROOT
ATOM      1  C   UNL     1      19.620  45.629  77.657  1.00  0.00     0.402 A 
ATOM      2  C   UNL     1      19.002  46.604  78.474  1.00  0.00     0.229 A 
ATOM      3  C   UNL     1      18.316  47.666  77.829  1.00  0.00     0.079 A 
ATOM      4  C   UNL     1      18.581  47.943  76.480  1.00  0.00     0.126 A 
ATOM      5  C   UNL     1      18.059  49.056  75.836  1.00  0.00     0.143 A 
ATOM      6  C   UNL     1      18.556  49.454  74.595  1.00  0.00     0.094 A 
ATOM      7  C   UNL     1      19.481  48.667  73.918  1.00  0.00     0.128 A 
ATOM      8  C   UNL     1      19.940  47.464  74.529  1.00  0.00     0.162 A 
ATOM      9  C   UNL     1      19.504  47.108  75.820  1.00  0.00     0.368 A 
ATOM     10  O   UNL     1      19.899  45.966  76.393  1.00  0.00    -0.202 OA
ENDROOT
BRANCH   1  11
ATOM     11  C   UNL     1      19.668  44.215  78.041  1.00  0.00     0.087 A 
ATOM     12  C   UNL     1      19.002  41.916  77.559  1.00  0.00     0.161 A 
ATOM     13  C   UNL     1      18.317  41.838  78.778  1.00  0.00     0.157 A 
ATOM     14  C   UNL     1      19.593  43.148  77.152  1.00  0.00     0.068 A 
ATOM     15  C   UNL     1      18.522  42.845  79.742  1.00  0.00     0.051 A 
ATOM     16  C   UNL     1      19.258  43.981  79.380  1.00  0.00     0.022 A 
BRANCH  12  17
ATOM     17  O   UNL     1      19.283  40.711  76.855  1.00  0.00    -0.493 OA
ATOM     18  C   UNL     1      18.421  40.215  75.854  1.00  0.00     0.278 C 
ENDBRANCH  12  17
BRANCH  13  19
ATOM     19  O   UNL     1      17.520  40.745  79.052  1.00  0.00    -0.504 OA
ATOM     20  H   UNL     1      17.822  39.782  78.898  1.00  0.00     0.293 HD
ENDBRANCH  13  19
ENDBRANCH   1  11
BRANCH   2  21
ATOM     21  O   UNL     1      19.052  46.556  79.886  1.00  0.00    -0.452 OA
BRANCH  21  22
ATOM     22  C   UNL     1      18.519  47.676  80.654  1.00  0.00     0.339 C 
ATOM     23  C   UNL     1      19.450  48.145  81.816  1.00  0.00     0.214 C 
ATOM     24  O   UNL     1      17.133  47.499  81.043  1.00  0.00    -0.332 OA
ATOM     25  C   UNL     1      19.265  47.179  83.023  1.00  0.00     0.180 C 
ATOM     26  C   UNL     1      16.897  46.746  82.205  1.00  0.00     0.179 C 
ATOM     27  C   UNL     1      17.761  47.159  83.409  1.00  0.00     0.177 C 
BRANCH  23  28
ATOM     28  O   UNL     1      19.255  49.514  82.156  1.00  0.00    -0.384 OA
ATOM     29  H   UNL     1      20.093  49.981  81.829  1.00  0.00     0.211 HD
ENDBRANCH  23  28
BRANCH  25  30
ATOM     30  O   UNL     1      20.125  47.565  84.092  1.00  0.00    -0.387 OA
ATOM     31  H   UNL     1      21.006  47.854  83.728  1.00  0.00     0.211 HD
ENDBRANCH  25  30
BRANCH  26  32
ATOM     32  C   UNL     1      16.916  45.240  81.866  1.00  0.00     0.191 C 
BRANCH  32  33
ATOM     33  O   UNL     1      16.292  44.436  82.854  1.00  0.00    -0.394 OA
ATOM     34  H   UNL     1      15.562  44.965  83.266  1.00  0.00     0.210 HD
ENDBRANCH  32  33
ENDBRANCH  26  32
BRANCH  27  35
ATOM     35  O   UNL     1      17.347  48.414  83.820  1.00  0.00    -0.387 OA
ATOM     36  H   UNL     1      17.407  49.039  83.080  1.00  0.00     0.211 HD
ENDBRANCH  27  35
ENDBRANCH  21  22
ENDBRANCH   2  21
BRANCH   5  37
ATOM     37  O   UNL     1      16.974  49.763  76.426  1.00  0.00    -0.461 OA
BRANCH  37  38
ATOM     38  C   UNL     1      15.698  50.026  75.853  1.00  0.00     0.339 C 
ATOM     39  C   UNL     1      14.560  49.400  76.735  1.00  0.00     0.214 C 
ATOM     40  O   UNL     1      15.768  49.604  74.476  1.00  0.00    -0.332 OA
ATOM     41  C   UNL     1      13.193  49.403  75.986  1.00  0.00     0.180 C 
ATOM     42  C   UNL     1      14.787  48.661  74.105  1.00  0.00     0.179 C 
ATOM     43  C   UNL     1      13.366  49.156  74.480  1.00  0.00     0.177 C 
BRANCH  39  44
ATOM     44  O   UNL     1      14.490  50.124  77.918  1.00  0.00    -0.384 OA
ATOM     45  H   UNL     1      15.399  50.085  78.361  1.00  0.00     0.211 HD
ENDBRANCH  39  44
BRANCH  41  46
ATOM     46  O   UNL     1      12.271  48.524  76.604  1.00  0.00    -0.387 OA
ATOM     47  H   UNL     1      12.526  48.445  77.572  1.00  0.00     0.211 HD
ENDBRANCH  41  46
BRANCH  42  48
ATOM     48  C   UNL     1      15.232  47.229  74.493  1.00  0.00     0.191 C 
BRANCH  48  49
ATOM     49  O   UNL     1      14.153  46.337  74.509  1.00  0.00    -0.394 OA
ATOM     50  H   UNL     1      13.312  46.888  74.461  1.00  0.00     0.210 HD
ENDBRANCH  48  49
ENDBRANCH  42  48
BRANCH  43  51
ATOM     51  O   UNL     1      12.353  48.294  73.983  1.00  0.00    -0.387 OA
ATOM     52  H   UNL     1      12.690  47.351  74.068  1.00  0.00     0.211 HD
ENDBRANCH  43  51
ENDBRANCH  37  38
ENDBRANCH   5  37
BRANCH   7  53
ATOM     53  O   UNL     1      20.012  49.048  72.680  1.00  0.00    -0.507 OA
ATOM     54  H   UNL     1      20.183  50.048  72.490  1.00  0.00     0.293 HD
ENDBRANCH   7  53
TORSDOF 18
ENDMDL
MODEL 3
REMARK VINA RESULT:    -4.763      2.241      6.681
REMARK INTER + INTRA:          -9.494
REMARK INTER:                  -7.545
REMARK INTRA:                  -1.950
REMARK UNBOUND:                -1.112
REMARK SMILES COc1cc(-c2[o+]c3cc(O)cc(O[C@H]4O[C@@H](CO)[C@@H](O)[C@@H](O)[C@@H]4O)c3cc2O[C@H]2O[C@@H](CO)[C@H](O)[C@H](O)[C@@H]2O)ccc1O
REMARK SMILES IDX 6 1 28 2 27 3 26 4 13 5 12 6 10 7 9 8 8 9 7 10 5 11 3 12
REMARK SMILES IDX 43 13 4 14 42 15 41 16 2 17 1 18 44 19 29 21 30 22 39 23
REMARK SMILES IDX 31 24 37 25 32 26 35 27 40 28 38 30 33 32 34 33 36 35 14 37
REMARK SMILES IDX 15 38 24 39 16 40 22 41 17 42 20 43 25 44 23 46 18 48 19 49
REMARK SMILES IDX 21 51 11 53
REMARK H PARENT 44 20 40 29 38 31 34 34 36 36 25 45 23 47 19 50 21 52 11 54
REMARK Flexibility Score: inf
ROOT
ATOM      1  C   UNL     1      18.732  44.520  76.997  1.00  0.00     0.402 A 
ATOM      2  C   UNL     1      17.965  44.916  75.878  1.00  0.00     0.229 A 
ATOM      3  C   UNL     1      17.981  46.289  75.519  1.00  0.00     0.079 A 
ATOM      4  C   UNL     1      18.406  47.244  76.454  1.00  0.00     0.126 A 
ATOM      5  C   UNL     1      18.305  48.608  76.220  1.00  0.00     0.143 A 
ATOM      6  C   UNL     1      18.471  49.520  77.261  1.00  0.00     0.094 A 
ATOM      7  C   UNL     1      18.880  49.091  78.519  1.00  0.00     0.128 A 
ATOM      8  C   UNL     1      19.091  47.698  78.736  1.00  0.00     0.162 A 
ATOM      9  C   UNL     1      18.838  46.769  77.708  1.00  0.00     0.368 A 
ATOM     10  O   UNL     1      19.064  45.463  77.886  1.00  0.00    -0.202 OA
ENDROOT
BRANCH   1  11
ATOM     11  C   UNL     1      19.420  43.226  77.046  1.00  0.00     0.087 A 
ATOM     12  C   UNL     1      19.295  40.803  76.773  1.00  0.00     0.161 A 
ATOM     13  C   UNL     1      19.636  40.615  78.117  1.00  0.00     0.157 A 
ATOM     14  C   UNL     1      19.090  42.122  76.269  1.00  0.00     0.068 A 
ATOM     15  C   UNL     1      20.125  41.709  78.859  1.00  0.00     0.051 A 
ATOM     16  C   UNL     1      20.079  42.984  78.281  1.00  0.00     0.022 A 
BRANCH  12  17
ATOM     17  O   UNL     1      19.373  39.693  75.885  1.00  0.00    -0.493 OA
ATOM     18  C   UNL     1      18.228  38.962  75.504  1.00  0.00     0.278 C 
ENDBRANCH  12  17
BRANCH  13  19
ATOM     19  O   UNL     1      19.570  39.354  78.674  1.00  0.00    -0.504 OA
ATOM     20  H   UNL     1      18.751  39.008  79.177  1.00  0.00     0.293 HD
ENDBRANCH  13  19
ENDBRANCH   1  11
BRANCH   2  21
ATOM     21  O   UNL     1      17.192  44.004  75.124  1.00  0.00    -0.452 OA
BRANCH  21  22
ATOM     22  C   UNL     1      16.073  44.504  74.333  1.00  0.00     0.339 C 
ATOM     23  C   UNL     1      14.877  45.029  75.190  1.00  0.00     0.214 C 
ATOM     24  O   UNL     1      15.682  43.611  73.259  1.00  0.00    -0.332 OA
ATOM     25  C   UNL     1      14.040  43.808  75.673  1.00  0.00     0.180 C 
ATOM     26  C   UNL     1      14.815  42.560  73.599  1.00  0.00     0.179 C 
ATOM     27  C   UNL     1      13.594  42.995  74.428  1.00  0.00     0.177 C 
BRANCH  23  28
ATOM     28  O   UNL     1      14.102  46.009  74.507  1.00  0.00    -0.384 OA
ATOM     29  H   UNL     1      13.161  45.885  74.863  1.00  0.00     0.211 HD
ENDBRANCH  23  28
BRANCH  25  30
ATOM     30  O   UNL     1      12.954  44.254  76.483  1.00  0.00    -0.387 OA
ATOM     31  H   UNL     1      12.099  43.876  76.138  1.00  0.00     0.211 HD
ENDBRANCH  25  30
BRANCH  26  32
ATOM     32  C   UNL     1      15.624  41.382  74.184  1.00  0.00     0.191 C 
BRANCH  32  33
ATOM     33  O   UNL     1      15.272  40.129  73.621  1.00  0.00    -0.394 OA
ATOM     34  H   UNL     1      14.330  40.180  73.317  1.00  0.00     0.210 HD
ENDBRANCH  32  33
ENDBRANCH  26  32
BRANCH  27  35
ATOM     35  O   UNL     1      12.776  43.758  73.614  1.00  0.00    -0.387 OA
ATOM     36  H   UNL     1      11.845  43.546  73.790  1.00  0.00     0.211 HD
ENDBRANCH  27  35
ENDBRANCH  21  22
ENDBRANCH   2  21
BRANCH   5  37
ATOM     37  O   UNL     1      18.078  49.076  74.895  1.00  0.00    -0.461 OA
BRANCH  37  38
ATOM     38  C   UNL     1      16.956  49.810  74.416  1.00  0.00     0.339 C 
ATOM     39  C   UNL     1      15.620  49.084  74.801  1.00  0.00     0.214 C 
ATOM     40  O   UNL     1      17.190  50.054  73.014  1.00  0.00    -0.332 OA
ATOM     41  C   UNL     1      14.402  49.689  74.038  1.00  0.00     0.180 C 
ATOM     42  C   UNL     1      16.166  49.591  72.163  1.00  0.00     0.179 C 
ATOM     43  C   UNL     1      14.781  50.125  72.614  1.00  0.00     0.177 C 
BRANCH  39  44
ATOM     44  O   UNL     1      15.457  49.191  76.176  1.00  0.00    -0.384 OA
ATOM     45  H   UNL     1      16.119  49.877  76.516  1.00  0.00     0.211 HD
ENDBRANCH  39  44
BRANCH  41  46
ATOM     46  O   UNL     1      13.286  48.821  74.089  1.00  0.00    -0.387 OA
ATOM     47  H   UNL     1      13.590  47.956  74.497  1.00  0.00     0.211 HD
ENDBRANCH  41  46
BRANCH  42  48
ATOM     48  C   UNL     1      16.349  48.084  71.858  1.00  0.00     0.191 C 
BRANCH  48  49
ATOM     49  O   UNL     1      17.664  47.664  72.087  1.00  0.00    -0.394 OA
ATOM     50  H   UNL     1      18.077  48.319  72.731  1.00  0.00     0.210 HD
ENDBRANCH  48  49
ENDBRANCH  42  48
BRANCH  43  51
ATOM     51  O   UNL     1      13.755  49.795  71.689  1.00  0.00    -0.387 OA
ATOM     52  H   UNL     1      14.079  50.055  70.773  1.00  0.00     0.211 HD
ENDBRANCH  43  51
ENDBRANCH  37  38
ENDBRANCH   5  37
BRANCH   7  53
ATOM     53  O   UNL     1      19.038  49.979  79.590  1.00  0.00    -0.507 OA
ATOM     54  H   UNL     1      19.003  50.995  79.412  1.00  0.00     0.293 HD
ENDBRANCH   7  53
TORSDOF 18
ENDMDL
MODEL 4
REMARK VINA RESULT:    -4.165      2.061      6.044
REMARK INTER + INTRA:          -8.443
REMARK INTER:                  -7.518
REMARK INTRA:                  -0.925
REMARK UNBOUND:                -1.112
REMARK SMILES COc1cc(-c2[o+]c3cc(O)cc(O[C@H]4O[C@@H](CO)[C@@H](O)[C@@H](O)[C@@H]4O)c3cc2O[C@H]2O[C@@H](CO)[C@H](O)[C@H](O)[C@@H]2O)ccc1O
REMARK SMILES IDX 6 1 28 2 27 3 26 4 13 5 12 6 10 7 9 8 8 9 7 10 5 11 3 12
REMARK SMILES IDX 43 13 4 14 42 15 41 16 2 17 1 18 44 19 29 21 30 22 39 23
REMARK SMILES IDX 31 24 37 25 32 26 35 27 40 28 38 30 33 32 34 33 36 35 14 37
REMARK SMILES IDX 15 38 24 39 16 40 22 41 17 42 20 43 25 44 23 46 18 48 19 49
REMARK SMILES IDX 21 51 11 53
REMARK H PARENT 44 20 40 29 38 31 34 34 36 36 25 45 23 47 19 50 21 52 11 54
REMARK Flexibility Score: inf
ROOT
ATOM      1  C   UNL     1      14.818  45.900  74.351  1.00  0.00     0.402 A 
ATOM      2  C   UNL     1      16.047  46.088  75.026  1.00  0.00     0.229 A 
ATOM      3  C   UNL     1      17.032  45.075  74.897  1.00  0.00     0.079 A 
ATOM      4  C   UNL     1      16.657  43.795  74.464  1.00  0.00     0.126 A 
ATOM      5  C   UNL     1      17.539  42.724  74.461  1.00  0.00     0.143 A 
ATOM      6  C   UNL     1      17.072  41.422  74.294  1.00  0.00     0.094 A 
ATOM      7  C   UNL     1      15.737  41.182  73.988  1.00  0.00     0.128 A 
ATOM      8  C   UNL     1      14.846  42.289  73.882  1.00  0.00     0.162 A 
ATOM      9  C   UNL     1      15.300  43.598  74.137  1.00  0.00     0.368 A 
ATOM     10  O   UNL     1      14.485  44.650  74.010  1.00  0.00    -0.202 OA
ENDROOT
BRANCH   1  11
ATOM     11  C   UNL     1      14.083  47.018  73.755  1.00  0.00     0.087 A 
ATOM     12  C   UNL     1      12.005  47.839  72.768  1.00  0.00     0.161 A 
ATOM     13  C   UNL     1      12.664  48.116  71.564  1.00  0.00     0.157 A 
ATOM     14  C   UNL     1      12.705  47.193  73.830  1.00  0.00     0.068 A 
ATOM     15  C   UNL     1      14.072  48.094  71.535  1.00  0.00     0.051 A 
ATOM     16  C   UNL     1      14.759  47.617  72.659  1.00  0.00     0.022 A 
BRANCH  12  17
ATOM     17  O   UNL     1      10.716  48.401  72.988  1.00  0.00    -0.493 OA
ATOM     18  C   UNL     1       9.664  48.237  72.062  1.00  0.00     0.278 C 
ENDBRANCH  12  17
BRANCH  13  19
ATOM     19  O   UNL     1      11.937  48.486  70.451  1.00  0.00    -0.504 OA
ATOM     20  H   UNL     1      12.334  48.516  69.510  1.00  0.00     0.293 HD
ENDBRANCH  13  19
ENDBRANCH   1  11
BRANCH   2  21
ATOM     21  O   UNL     1      16.315  47.231  75.813  1.00  0.00    -0.452 OA
BRANCH  21  22
ATOM     22  C   UNL     1      16.971  48.379  75.199  1.00  0.00     0.339 C 
ATOM     23  C   UNL     1      17.889  48.011  73.989  1.00  0.00     0.214 C 
ATOM     24  O   UNL     1      17.592  49.271  76.160  1.00  0.00    -0.332 OA
ATOM     25  C   UNL     1      19.245  47.481  74.539  1.00  0.00     0.180 C 
ATOM     26  C   UNL     1      18.879  48.923  76.599  1.00  0.00     0.179 C 
ATOM     27  C   UNL     1      19.857  48.566  75.466  1.00  0.00     0.177 C 
BRANCH  23  28
ATOM     28  O   UNL     1      18.036  49.085  73.066  1.00  0.00    -0.384 OA
ATOM     29  H   UNL     1      18.383  49.856  73.623  1.00  0.00     0.211 HD
ENDBRANCH  23  28
BRANCH  25  30
ATOM     30  O   UNL     1      20.096  47.109  73.457  1.00  0.00    -0.387 OA
ATOM     31  H   UNL     1      21.026  46.978  73.790  1.00  0.00     0.211 HD
ENDBRANCH  25  30
BRANCH  26  32
ATOM     32  C   UNL     1      18.781  47.885  77.738  1.00  0.00     0.191 C 
BRANCH  32  33
ATOM     33  O   UNL     1      19.985  47.162  77.941  1.00  0.00    -0.394 OA
ATOM     34  H   UNL     1      20.112  47.042  78.916  1.00  0.00     0.210 HD
ENDBRANCH  32  33
ENDBRANCH  26  32
BRANCH  27  35
ATOM     35  O   UNL     1      20.125  49.722  74.755  1.00  0.00    -0.387 OA
ATOM     36  H   UNL     1      20.620  50.344  75.312  1.00  0.00     0.211 HD
ENDBRANCH  27  35
ENDBRANCH  21  22
ENDBRANCH   2  21
BRANCH   5  37
ATOM     37  O   UNL     1      18.937  42.968  74.579  1.00  0.00    -0.461 OA
BRANCH  37  38
ATOM     38  C   UNL     1      19.767  42.715  75.707  1.00  0.00     0.339 C 
ATOM     39  C   UNL     1      19.462  41.298  76.308  1.00  0.00     0.214 C 
ATOM     40  O   UNL     1      19.623  43.847  76.589  1.00  0.00    -0.332 OA
ATOM     41  C   UNL     1      20.125  41.117  77.707  1.00  0.00     0.180 C 
ATOM     42  C   UNL     1      19.211  43.518  77.897  1.00  0.00     0.179 C 
ATOM     43  C   UNL     1      20.125  42.426  78.512  1.00  0.00     0.177 C 
BRANCH  39  44
ATOM     44  O   UNL     1      19.917  40.345  75.407  1.00  0.00    -0.384 OA
ATOM     45  H   UNL     1      20.884  40.554  75.195  1.00  0.00     0.211 HD
ENDBRANCH  39  44
BRANCH  41  46
ATOM     46  O   UNL     1      19.559  40.023  78.403  1.00  0.00    -0.387 OA
ATOM     47  H   UNL     1      20.119  39.857  79.219  1.00  0.00     0.211 HD
ENDBRANCH  41  46
BRANCH  42  48
ATOM     48  C   UNL     1      17.672  43.361  77.962  1.00  0.00     0.191 C 
BRANCH  48  49
ATOM     49  O   UNL     1      17.233  43.077  79.261  1.00  0.00    -0.394 OA
ATOM     50  H   UNL     1      17.852  43.558  79.894  1.00  0.00     0.210 HD
ENDBRANCH  48  49
ENDBRANCH  42  48
BRANCH  43  51
ATOM     51  O   UNL     1      19.823  42.186  79.879  1.00  0.00    -0.387 OA
ATOM     52  H   UNL     1      19.057  42.787  80.130  1.00  0.00     0.211 HD
ENDBRANCH  43  51
ENDBRANCH  37  38
ENDBRANCH   5  37
BRANCH   7  53
ATOM     53  O   UNL     1      15.234  39.885  73.833  1.00  0.00    -0.507 OA
ATOM     54  H   UNL     1      14.213  39.737  73.829  1.00  0.00     0.293 HD
ENDBRANCH   7  53
TORSDOF 18
ENDMDL
MODEL 5
REMARK VINA RESULT:    -3.310      1.981      6.982
REMARK INTER + INTRA:          -6.938
REMARK INTER:                  -6.382
REMARK INTRA:                  -0.556
REMARK UNBOUND:                -1.112
REMARK SMILES COc1cc(-c2[o+]c3cc(O)cc(O[C@H]4O[C@@H](CO)[C@@H](O)[C@@H](O)[C@@H]4O)c3cc2O[C@H]2O[C@@H](CO)[C@H](O)[C@H](O)[C@@H]2O)ccc1O
REMARK SMILES IDX 6 1 28 2 27 3 26 4 13 5 12 6 10 7 9 8 8 9 7 10 5 11 3 12
REMARK SMILES IDX 43 13 4 14 42 15 41 16 2 17 1 18 44 19 29 21 30 22 39 23
REMARK SMILES IDX 31 24 37 25 32 26 35 27 40 28 38 30 33 32 34 33 36 35 14 37
REMARK SMILES IDX 15 38 24 39 16 40 22 41 17 42 20 43 25 44 23 46 18 48 19 49
REMARK SMILES IDX 21 51 11 53
REMARK H PARENT 44 20 40 29 38 31 34 34 36 36 25 45 23 47 19 50 21 52 11 54
REMARK Flexibility Score: inf
ROOT
ATOM      1  C   UNL     1      18.034  44.142  76.137  1.00  0.00     0.402 A 
ATOM      2  C   UNL     1      17.022  44.876  75.474  1.00  0.00     0.229 A 
ATOM      3  C   UNL     1      17.160  46.287  75.418  1.00  0.00     0.079 A 
ATOM      4  C   UNL     1      18.029  46.934  76.309  1.00  0.00     0.126 A 
ATOM      5  C   UNL     1      18.095  48.317  76.407  1.00  0.00     0.143 A 
ATOM      6  C   UNL     1      18.751  48.920  77.479  1.00  0.00     0.094 A 
ATOM      7  C   UNL     1      19.469  48.154  78.391  1.00  0.00     0.128 A 
ATOM      8  C   UNL     1      19.494  46.738  78.232  1.00  0.00     0.162 A 
ATOM      9  C   UNL     1      18.759  46.122  77.200  1.00  0.00     0.368 A 
ATOM     10  O   UNL     1      18.798  44.799  77.017  1.00  0.00    -0.202 OA
ENDROOT
BRANCH   1  11
ATOM     11  C   UNL     1      18.462  42.820  75.672  1.00  0.00     0.087 A 
ATOM     12  C   UNL     1      17.966  40.439  75.462  1.00  0.00     0.161 A 
ATOM     13  C   UNL     1      19.084  40.117  76.239  1.00  0.00     0.157 A 
ATOM     14  C   UNL     1      17.603  41.805  75.266  1.00  0.00     0.068 A 
ATOM     15  C   UNL     1      20.037  41.118  76.514  1.00  0.00     0.051 A 
ATOM     16  C   UNL     1      19.742  42.440  76.157  1.00  0.00     0.022 A 
BRANCH  12  17
ATOM     17  O   UNL     1      17.340  39.409  74.703  1.00  0.00    -0.493 OA
ATOM     18  C   UNL     1      16.059  39.574  74.136  1.00  0.00     0.278 C 
ENDBRANCH  12  17
BRANCH  13  19
ATOM     19  O   UNL     1      19.283  38.816  76.655  1.00  0.00    -0.504 OA
ATOM     20  H   UNL     1      19.993  38.203  76.251  1.00  0.00     0.293 HD
ENDBRANCH  13  19
ENDBRANCH   1  11
BRANCH   2  21
ATOM     21  O   UNL     1      15.898  44.257  74.882  1.00  0.00    -0.452 OA
BRANCH  21  22
ATOM     22  C   UNL     1      15.211  44.930  73.785  1.00  0.00     0.339 C 
ATOM     23  C   UNL     1      15.378  46.483  73.793  1.00  0.00     0.214 C 
ATOM     24  O   UNL     1      13.843  44.484  73.602  1.00  0.00    -0.332 OA
ATOM     25  C   UNL     1      14.387  47.083  74.832  1.00  0.00     0.180 C 
ATOM     26  C   UNL     1      12.872  45.086  74.419  1.00  0.00     0.179 C 
ATOM     27  C   UNL     1      12.951  46.621  74.466  1.00  0.00     0.177 C 
BRANCH  23  28
ATOM     28  O   UNL     1      15.248  47.055  72.495  1.00  0.00    -0.384 OA
ATOM     29  H   UNL     1      15.912  47.820  72.485  1.00  0.00     0.211 HD
ENDBRANCH  23  28
BRANCH  25  30
ATOM     30  O   UNL     1      14.535  48.501  74.883  1.00  0.00    -0.387 OA
ATOM     31  H   UNL     1      14.157  48.848  75.737  1.00  0.00     0.211 HD
ENDBRANCH  25  30
BRANCH  26  32
ATOM     32  C   UNL     1      12.837  44.384  75.794  1.00  0.00     0.191 C 
BRANCH  32  33
ATOM     33  O   UNL     1      11.836  44.897  76.658  1.00  0.00    -0.394 OA
ATOM     34  H   UNL     1      12.252  45.581  77.242  1.00  0.00     0.210 HD
ENDBRANCH  32  33
ENDBRANCH  26  32
BRANCH  27  35
ATOM     35  O   UNL     1      12.585  47.105  73.222  1.00  0.00    -0.387 OA
ATOM     36  H   UNL     1      11.935  47.818  73.325  1.00  0.00     0.211 HD
ENDBRANCH  27  35
ENDBRANCH  21  22
ENDBRANCH   2  21
BRANCH   5  37
ATOM     37  O   UNL     1      17.532  49.120  75.376  1.00  0.00    -0.461 OA
BRANCH  37  38
ATOM     38  C   UNL     1      18.172  49.583  74.192  1.00  0.00     0.339 C 
ATOM     39  C   UNL     1      17.320  49.214  72.927  1.00  0.00     0.214 C 
ATOM     40  O   UNL     1      19.527  49.092  74.236  1.00  0.00    -0.332 OA
ATOM     41  C   UNL     1      18.129  49.430  71.612  1.00  0.00     0.180 C 
ATOM     42  C   UNL     1      19.906  48.326  73.114  1.00  0.00     0.179 C 
ATOM     43  C   UNL     1      19.616  49.087  71.794  1.00  0.00     0.177 C 
BRANCH  39  44
ATOM     44  O   UNL     1      16.170  49.993  72.945  1.00  0.00    -0.384 OA
ATOM     45  H   UNL     1      16.431  50.926  73.239  1.00  0.00     0.211 HD
ENDBRANCH  39  44
BRANCH  41  46
ATOM     46  O   UNL     1      17.521  48.762  70.523  1.00  0.00    -0.387 OA
ATOM     47  H   UNL     1      18.246  48.511  69.875  1.00  0.00     0.211 HD
ENDBRANCH  41  46
BRANCH  42  48
ATOM     48  C   UNL     1      19.444  46.857  73.274  1.00  0.00     0.191 C 
BRANCH  48  49
ATOM     49  O   UNL     1      18.799  46.387  72.124  1.00  0.00    -0.394 OA
ATOM     50  H   UNL     1      17.853  46.165  72.385  1.00  0.00     0.210 HD
ENDBRANCH  48  49
ENDBRANCH  42  48
BRANCH  43  51
ATOM     51  O   UNL     1      20.125  48.401  70.660  1.00  0.00    -0.387 OA
ATOM     52  H   UNL     1      20.425  49.094  69.997  1.00  0.00     0.211 HD
ENDBRANCH  43  51
ENDBRANCH  37  38
ENDBRANCH   5  37
BRANCH   7  53
ATOM     53  O   UNL     1      20.123  48.728  79.488  1.00  0.00    -0.507 OA
ATOM     54  H   UNL     1      21.036  48.350  79.785  1.00  0.00     0.293 HD
ENDBRANCH   7  53
TORSDOF 18
ENDMDL
MODEL 6
REMARK VINA RESULT:    -3.262     15.537     20.280
REMARK INTER + INTRA:          -6.854
REMARK INTER:                  -6.141
REMARK INTRA:                  -0.713
REMARK UNBOUND:                -1.112
REMARK SMILES COc1cc(-c2[o+]c3cc(O)cc(O[C@H]4O[C@@H](CO)[C@@H](O)[C@@H](O)[C@@H]4O)c3cc2O[C@H]2O[C@@H](CO)[C@H](O)[C@H](O)[C@@H]2O)ccc1O
REMARK SMILES IDX 6 1 28 2 27 3 26 4 13 5 12 6 10 7 9 8 8 9 7 10 5 11 3 12
REMARK SMILES IDX 43 13 4 14 42 15 41 16 2 17 1 18 44 19 29 21 30 22 39 23
REMARK SMILES IDX 31 24 37 25 32 26 35 27 40 28 38 30 33 32 34 33 36 35 14 37
REMARK SMILES IDX 15 38 24 39 16 40 22 41 17 42 20 43 25 44 23 46 18 48 19 49
REMARK SMILES IDX 21 51 11 53
REMARK H PARENT 44 20 40 29 38 31 34 34 36 36 25 45 23 47 19 50 21 52 11 54
REMARK Flexibility Score: inf
ROOT
ATOM      1  C   UNL     1       5.706  30.799  71.588  1.00  0.00     0.402 A 
ATOM      2  C   UNL     1       5.369  30.787  70.214  1.00  0.00     0.229 A 
ATOM      3  C   UNL     1       4.022  31.058  69.862  1.00  0.00     0.079 A 
ATOM      4  C   UNL     1       3.016  30.943  70.834  1.00  0.00     0.126 A 
ATOM      5  C   UNL     1       1.668  31.046  70.521  1.00  0.00     0.143 A 
ATOM      6  C   UNL     1       0.696  30.655  71.441  1.00  0.00     0.094 A 
ATOM      7  C   UNL     1       1.051  30.290  72.734  1.00  0.00     0.128 A 
ATOM      8  C   UNL     1       2.430  30.287  73.094  1.00  0.00     0.162 A 
ATOM      9  C   UNL     1       3.418  30.597  72.139  1.00  0.00     0.368 A 
ATOM     10  O   UNL     1       4.713  30.631  72.469  1.00  0.00    -0.202 OA
ENDROOT
BRANCH   1  11
ATOM     11  C   UNL     1       7.002  31.291  72.064  1.00  0.00     0.087 A 
ATOM     12  C   UNL     1       8.699  31.289  73.819  1.00  0.00     0.161 A 
ATOM     13  C   UNL     1       8.524  32.663  74.017  1.00  0.00     0.157 A 
ATOM     14  C   UNL     1       7.857  30.588  72.905  1.00  0.00     0.068 A 
ATOM     15  C   UNL     1       7.787  33.402  73.071  1.00  0.00     0.051 A 
ATOM     16  C   UNL     1       7.100  32.708  72.066  1.00  0.00     0.022 A 
BRANCH  12  17
ATOM     17  O   UNL     1       9.853  30.659  74.368  1.00  0.00    -0.493 OA
ATOM     18  C   UNL     1      11.118  31.282  74.355  1.00  0.00     0.278 C 
ENDBRANCH  12  17
BRANCH  13  19
ATOM     19  O   UNL     1       9.139  33.289  75.082  1.00  0.00    -0.504 OA
ATOM     20  H   UNL     1       9.893  33.969  74.970  1.00  0.00     0.293 HD
ENDBRANCH  13  19
ENDBRANCH   1  11
BRANCH   2  21
ATOM     21  O   UNL     1       6.317  30.514  69.202  1.00  0.00    -0.452 OA
BRANCH  21  22
ATOM     22  C   UNL     1       6.121  31.081  67.873  1.00  0.00     0.339 C 
ATOM     23  C   UNL     1       7.351  30.911  66.925  1.00  0.00     0.214 C 
ATOM     24  O   UNL     1       5.575  32.425  67.895  1.00  0.00    -0.332 OA
ATOM     25  C   UNL     1       8.405  32.001  67.277  1.00  0.00     0.180 C 
ATOM     26  C   UNL     1       6.493  33.473  68.075  1.00  0.00     0.179 C 
ATOM     27  C   UNL     1       7.728  33.393  67.162  1.00  0.00     0.177 C 
BRANCH  23  28
ATOM     28  O   UNL     1       6.986  30.905  65.549  1.00  0.00    -0.384 OA
ATOM     29  H   UNL     1       7.142  31.856  65.238  1.00  0.00     0.211 HD
ENDBRANCH  23  28
BRANCH  25  30
ATOM     30  O   UNL     1       9.554  31.854  66.446  1.00  0.00    -0.387 OA
ATOM     31  H   UNL     1      10.101  32.686  66.478  1.00  0.00     0.211 HD
ENDBRANCH  25  30
BRANCH  26  32
ATOM     32  C   UNL     1       6.795  33.651  69.579  1.00  0.00     0.191 C 
BRANCH  32  33
ATOM     33  O   UNL     1       7.111  34.988  69.931  1.00  0.00    -0.394 OA
ATOM     34  H   UNL     1       6.261  35.480  70.071  1.00  0.00     0.210 HD
ENDBRANCH  32  33
ENDBRANCH  26  32
BRANCH  27  35
ATOM     35  O   UNL     1       7.312  33.628  65.863  1.00  0.00    -0.387 OA
ATOM     36  H   UNL     1       6.651  34.339  65.852  1.00  0.00     0.211 HD
ENDBRANCH  27  35
ENDBRANCH  21  22
ENDBRANCH   2  21
BRANCH   5  37
ATOM     37  O   UNL     1       1.280  31.602  69.270  1.00  0.00    -0.461 OA
BRANCH  37  38
ATOM     38  C   UNL     1       0.816  32.924  69.017  1.00  0.00     0.339 C 
ATOM     39  C   UNL     1       1.513  33.518  67.743  1.00  0.00     0.214 C 
ATOM     40  O   UNL     1       0.968  33.658  70.250  1.00  0.00    -0.332 OA
ATOM     41  C   UNL     1       1.264  35.051  67.618  1.00  0.00     0.180 C 
ATOM     42  C   UNL     1       1.745  34.830  70.138  1.00  0.00     0.179 C 
ATOM     43  C   UNL     1       1.227  35.737  68.992  1.00  0.00     0.177 C 
BRANCH  39  44
ATOM     44  O   UNL     1       1.028  32.835  66.635  1.00  0.00    -0.384 OA
ATOM     45  H   UNL     1       1.361  31.880  66.687  1.00  0.00     0.211 HD
ENDBRANCH  39  44
BRANCH  41  46
ATOM     46  O   UNL     1       2.173  35.644  66.711  1.00  0.00    -0.387 OA
ATOM     47  H   UNL     1       2.839  34.942  66.443  1.00  0.00     0.211 HD
ENDBRANCH  41  46
BRANCH  42  48
ATOM     48  C   UNL     1       3.254  34.496  70.234  1.00  0.00     0.191 C 
BRANCH  48  49
ATOM     49  O   UNL     1       4.046  35.649  70.170  1.00  0.00    -0.394 OA
ATOM     50  H   UNL     1       4.594  35.586  69.328  1.00  0.00     0.210 HD
ENDBRANCH  48  49
ENDBRANCH  42  48
BRANCH  43  51
ATOM     51  O   UNL     1       1.898  36.988  68.957  1.00  0.00    -0.387 OA
ATOM     52  H   UNL     1       2.595  36.978  69.681  1.00  0.00     0.211 HD
ENDBRANCH  43  51
ENDBRANCH  37  38
ENDBRANCH   5  37
BRANCH   7  53
ATOM     53  O   UNL     1       0.101  29.875  73.675  1.00  0.00    -0.507 OA
ATOM     54  H   UNL     1       0.061  30.345  74.593  1.00  0.00     0.293 HD
ENDBRANCH   7  53
TORSDOF 18
ENDMDL
MODEL 7
REMARK VINA RESULT:    -3.159      3.144      9.091
REMARK INTER + INTRA:          -6.673
REMARK INTER:                  -6.209
REMARK INTRA:                  -0.464
REMARK UNBOUND:                -1.112
REMARK SMILES COc1cc(-c2[o+]c3cc(O)cc(O[C@H]4O[C@@H](CO)[C@@H](O)[C@@H](O)[C@@H]4O)c3cc2O[C@H]2O[C@@H](CO)[C@H](O)[C@H](O)[C@@H]2O)ccc1O
REMARK SMILES IDX 6 1 28 2 27 3 26 4 13 5 12 6 10 7 9 8 8 9 7 10 5 11 3 12
REMARK SMILES IDX 43 13 4 14 42 15 41 16 2 17 1 18 44 19 29 21 30 22 39 23
REMARK SMILES IDX 31 24 37 25 32 26 35 27 40 28 38 30 33 32 34 33 36 35 14 37
REMARK SMILES IDX 15 38 24 39 16 40 22 41 17 42 20 43 25 44 23 46 18 48 19 49
REMARK SMILES IDX 21 51 11 53
REMARK H PARENT 44 20 40 29 38 31 34 34 36 36 25 45 23 47 19 50 21 52 11 54
REMARK Flexibility Score: inf
ROOT
ATOM      1  C   UNL     1      15.267  48.546  75.215  1.00  0.00     0.402 A 
ATOM      2  C   UNL     1      15.150  47.832  74.000  1.00  0.00     0.229 A 
ATOM      3  C   UNL     1      13.853  47.687  73.441  1.00  0.00     0.079 A 
ATOM      4  C   UNL     1      12.725  47.890  74.249  1.00  0.00     0.126 A 
ATOM      5  C   UNL     1      11.438  47.619  73.807  1.00  0.00     0.143 A 
ATOM      6  C   UNL     1      10.376  47.563  74.709  1.00  0.00     0.094 A 
ATOM      7  C   UNL     1      10.560  47.916  76.041  1.00  0.00     0.128 A 
ATOM      8  C   UNL     1      11.860  48.301  76.478  1.00  0.00     0.162 A 
ATOM      9  C   UNL     1      12.951  48.272  75.586  1.00  0.00     0.368 A 
ATOM     10  O   UNL     1      14.170  48.663  75.972  1.00  0.00    -0.202 OA
ENDROOT
BRANCH   1  11
ATOM     11  C   UNL     1      16.421  49.402  75.502  1.00  0.00     0.087 A 
ATOM     12  C   UNL     1      18.842  49.706  75.427  1.00  0.00     0.161 A 
ATOM     13  C   UNL     1      18.893  49.804  76.822  1.00  0.00     0.157 A 
ATOM     14  C   UNL     1      17.608  49.403  74.779  1.00  0.00     0.068 A 
ATOM     15  C   UNL     1      17.692  49.965  77.540  1.00  0.00     0.051 A 
ATOM     16  C   UNL     1      16.478  49.837  76.853  1.00  0.00     0.022 A 
BRANCH  12  17
ATOM     17  O   UNL     1      19.973  50.125  74.670  1.00  0.00    -0.493 OA
ATOM     18  C   UNL     1      20.085  49.860  73.288  1.00  0.00     0.278 C 
ENDBRANCH  12  17
BRANCH  13  19
ATOM     19  O   UNL     1      20.113  49.825  77.467  1.00  0.00    -0.504 OA
ATOM     20  H   UNL     1      20.692  50.663  77.538  1.00  0.00     0.293 HD
ENDBRANCH  13  19
ENDBRANCH   1  11
BRANCH   2  21
ATOM     21  O   UNL     1      16.264  47.264  73.342  1.00  0.00    -0.452 OA
BRANCH  21  22
ATOM     22  C   UNL     1      17.301  46.611  74.133  1.00  0.00     0.339 C 
ATOM     23  C   UNL     1      18.343  45.819  73.281  1.00  0.00     0.214 C 
ATOM     24  O   UNL     1      16.779  45.870  75.266  1.00  0.00    -0.332 OA
ATOM     25  C   UNL     1      17.722  44.446  72.890  1.00  0.00     0.180 C 
ATOM     26  C   UNL     1      16.324  44.567  75.009  1.00  0.00     0.179 C 
ATOM     27  C   UNL     1      17.303  43.708  74.190  1.00  0.00     0.177 C 
BRANCH  23  28
ATOM     28  O   UNL     1      19.605  45.702  73.928  1.00  0.00    -0.384 OA
ATOM     29  H   UNL     1      19.600  44.774  74.335  1.00  0.00     0.211 HD
ENDBRANCH  23  28
BRANCH  25  30
ATOM     30  O   UNL     1      18.641  43.709  72.085  1.00  0.00    -0.387 OA
ATOM     31  H   UNL     1      18.423  43.839  71.122  1.00  0.00     0.211 HD
ENDBRANCH  25  30
BRANCH  26  32
ATOM     32  C   UNL     1      14.878  44.614  74.469  1.00  0.00     0.191 C 
BRANCH  32  33
ATOM     33  O   UNL     1      13.904  44.746  75.491  1.00  0.00    -0.394 OA
ATOM     34  H   UNL     1      13.075  45.105  75.084  1.00  0.00     0.210 HD
ENDBRANCH  32  33
ENDBRANCH  26  32
BRANCH  27  35
ATOM     35  O   UNL     1      18.408  43.449  74.982  1.00  0.00    -0.387 OA
ATOM     36  H   UNL     1      18.555  44.188  75.594  1.00  0.00     0.211 HD
ENDBRANCH  27  35
ENDBRANCH  21  22
ENDBRANCH   2  21
BRANCH   5  37
ATOM     37  O   UNL     1      11.197  47.447  72.415  1.00  0.00    -0.461 OA
BRANCH  37  38
ATOM     38  C   UNL     1      10.500  48.328  71.542  1.00  0.00     0.339 C 
ATOM     39  C   UNL     1       9.066  47.773  71.229  1.00  0.00     0.214 C 
ATOM     40  O   UNL     1      11.369  48.570  70.417  1.00  0.00    -0.332 OA
ATOM     41  C   UNL     1       8.399  48.545  70.050  1.00  0.00     0.180 C 
ATOM     42  C   UNL     1      10.801  48.259  69.164  1.00  0.00     0.179 C 
ATOM     43  C   UNL     1       9.427  48.957  68.985  1.00  0.00     0.177 C 
BRANCH  39  44
ATOM     44  O   UNL     1       8.308  47.871  72.389  1.00  0.00    -0.384 OA
ATOM     45  H   UNL     1       8.209  46.941  72.776  1.00  0.00     0.211 HD
ENDBRANCH  39  44
BRANCH  41  46
ATOM     46  O   UNL     1       7.297  47.827  69.529  1.00  0.00    -0.387 OA
ATOM     47  H   UNL     1       7.417  47.765  68.534  1.00  0.00     0.211 HD
ENDBRANCH  41  46
BRANCH  42  48
ATOM     48  C   UNL     1      10.942  46.748  68.859  1.00  0.00     0.191 C 
BRANCH  48  49
ATOM     49  O   UNL     1       9.787  46.228  68.263  1.00  0.00    -0.394 OA
ATOM     50  H   UNL     1       9.055  46.265  68.953  1.00  0.00     0.210 HD
ENDBRANCH  48  49
ENDBRANCH  42  48
BRANCH  43  51
ATOM     51  O   UNL     1       8.906  48.781  67.677  1.00  0.00    -0.387 OA
ATOM     52  H   UNL     1       8.621  47.821  67.591  1.00  0.00     0.211 HD
ENDBRANCH  43  51
ENDBRANCH  37  38
ENDBRANCH   5  37
BRANCH   7  53
ATOM     53  O   UNL     1       9.518  47.853  76.974  1.00  0.00    -0.507 OA
ATOM     54  H   UNL     1       8.922  48.682  77.122  1.00  0.00     0.293 HD
ENDBRANCH   7  53
TORSDOF 18
ENDMDL
MODEL 8
REMARK VINA RESULT:    -3.001      2.608      7.440
REMARK INTER + INTRA:          -6.394
REMARK INTER:                  -7.424
REMARK INTRA:                   1.030
REMARK UNBOUND:                -1.112
REMARK SMILES COc1cc(-c2[o+]c3cc(O)cc(O[C@H]4O[C@@H](CO)[C@@H](O)[C@@H](O)[C@@H]4O)c3cc2O[C@H]2O[C@@H](CO)[C@H](O)[C@H](O)[C@@H]2O)ccc1O
REMARK SMILES IDX 6 1 28 2 27 3 26 4 13 5 12 6 10 7 9 8 8 9 7 10 5 11 3 12
REMARK SMILES IDX 43 13 4 14 42 15 41 16 2 17 1 18 44 19 29 21 30 22 39 23
REMARK SMILES IDX 31 24 37 25 32 26 35 27 40 28 38 30 33 32 34 33 36 35 14 37
REMARK SMILES IDX 15 38 24 39 16 40 22 41 17 42 20 43 25 44 23 46 18 48 19 49
REMARK SMILES IDX 21 51 11 53
REMARK H PARENT 44 20 40 29 38 31 34 34 36 36 25 45 23 47 19 50 21 52 11 54
REMARK Flexibility Score: inf
ROOT
ATOM      1  C   UNL     1      16.737  43.966  74.801  1.00  0.00     0.402 A 
ATOM      2  C   UNL     1      17.113  45.262  74.378  1.00  0.00     0.229 A 
ATOM      3  C   UNL     1      16.173  46.311  74.549  1.00  0.00     0.079 A 
ATOM      4  C   UNL     1      14.820  46.002  74.751  1.00  0.00     0.126 A 
ATOM      5  C   UNL     1      13.833  46.976  74.775  1.00  0.00     0.143 A 
ATOM      6  C   UNL     1      12.486  46.622  74.698  1.00  0.00     0.094 A 
ATOM      7  C   UNL     1      12.102  45.287  74.737  1.00  0.00     0.128 A 
ATOM      8  C   UNL     1      13.110  44.283  74.822  1.00  0.00     0.162 A 
ATOM      9  C   UNL     1      14.474  44.637  74.811  1.00  0.00     0.368 A 
ATOM     10  O   UNL     1      15.430  43.710  74.924  1.00  0.00    -0.202 OA
ENDROOT
BRANCH   1  11
ATOM     11  C   UNL     1      17.701  43.035  75.394  1.00  0.00     0.087 A 
ATOM     12  C   UNL     1      18.167  40.785  76.221  1.00  0.00     0.161 A 
ATOM     13  C   UNL     1      18.431  41.289  77.500  1.00  0.00     0.157 A 
ATOM     14  C   UNL     1      17.702  41.659  75.193  1.00  0.00     0.068 A 
ATOM     15  C   UNL     1      18.589  42.679  77.668  1.00  0.00     0.051 A 
ATOM     16  C   UNL     1      18.294  43.523  76.588  1.00  0.00     0.022 A 
BRANCH  12  17
ATOM     17  O   UNL     1      18.574  39.456  75.912  1.00  0.00    -0.493 OA
ATOM     18  C   UNL     1      18.107  38.782  74.764  1.00  0.00     0.278 C 
ENDBRANCH  12  17
BRANCH  13  19
ATOM     19  O   UNL     1      18.615  40.422  78.557  1.00  0.00    -0.504 OA
ATOM     20  H   UNL     1      18.223  39.479  78.581  1.00  0.00     0.293 HD
ENDBRANCH  13  19
ENDBRANCH   1  11
BRANCH   2  21
ATOM     21  O   UNL     1      18.371  45.536  73.794  1.00  0.00    -0.452 OA
BRANCH  21  22
ATOM     22  C   UNL     1      19.192  46.609  74.346  1.00  0.00     0.339 C 
ATOM     23  C   UNL     1      18.381  47.678  75.146  1.00  0.00     0.214 C 
ATOM     24  O   UNL     1      20.125  47.171  73.388  1.00  0.00    -0.332 OA
ATOM     25  C   UNL     1      17.715  48.655  74.133  1.00  0.00     0.180 C 
ATOM     26  C   UNL     1      19.623  48.161  72.529  1.00  0.00     0.179 C 
ATOM     27  C   UNL     1      18.827  49.269  73.240  1.00  0.00     0.177 C 
BRANCH  23  28
ATOM     28  O   UNL     1      19.167  48.338  76.132  1.00  0.00    -0.384 OA
ATOM     29  H   UNL     1      18.641  49.173  76.363  1.00  0.00     0.211 HD
ENDBRANCH  23  28
BRANCH  25  30
ATOM     30  O   UNL     1      16.942  49.628  74.833  1.00  0.00    -0.387 OA
ATOM     31  H   UNL     1      16.739  49.299  75.751  1.00  0.00     0.211 HD
ENDBRANCH  25  30
BRANCH  26  32
ATOM     32  C   UNL     1      18.907  47.500  71.330  1.00  0.00     0.191 C 
BRANCH  32  33
ATOM     33  O   UNL     1      18.819  48.347  70.196  1.00  0.00    -0.394 OA
ATOM     34  H   UNL     1      17.864  48.565  70.047  1.00  0.00     0.210 HD
ENDBRANCH  32  33
ENDBRANCH  26  32
BRANCH  27  35
ATOM     35  O   UNL     1      19.714  50.008  74.003  1.00  0.00    -0.387 OA
ATOM     36  H   UNL     1      19.256  50.771  74.392  1.00  0.00     0.211 HD
ENDBRANCH  27  35
ENDBRANCH  21  22
ENDBRANCH   2  21
BRANCH   5  37
ATOM     37  O   UNL     1      14.200  48.342  74.931  1.00  0.00    -0.461 OA
BRANCH  37  38
ATOM     38  C   UNL     1      13.549  49.328  75.726  1.00  0.00     0.339 C 
ATOM     39  C   UNL     1      14.076  49.280  77.203  1.00  0.00     0.214 C 
ATOM     40  O   UNL     1      12.132  49.149  75.528  1.00  0.00    -0.332 OA
ATOM     41  C   UNL     1      13.178  50.124  78.157  1.00  0.00     0.180 C 
ATOM     42  C   UNL     1      11.399  48.943  76.716  1.00  0.00     0.179 C 
ATOM     43  C   UNL     1      11.696  50.056  77.755  1.00  0.00     0.177 C 
BRANCH  39  44
ATOM     44  O   UNL     1      15.386  49.740  77.205  1.00  0.00    -0.384 OA
ATOM     45  H   UNL     1      15.669  49.871  78.168  1.00  0.00     0.211 HD
ENDBRANCH  39  44
BRANCH  41  46
ATOM     46  O   UNL     1      13.415  49.790  79.511  1.00  0.00    -0.387 OA
ATOM     47  H   UNL     1      13.356  50.636  80.049  1.00  0.00     0.211 HD
ENDBRANCH  41  46
BRANCH  42  48
ATOM     48  C   UNL     1      11.456  47.456  77.142  1.00  0.00     0.191 C 
BRANCH  48  49
ATOM     49  O   UNL     1      10.217  46.823  76.984  1.00  0.00    -0.394 OA
ATOM     50  H   UNL     1       9.601  47.200  77.685  1.00  0.00     0.210 HD
ENDBRANCH  48  49
ENDBRANCH  42  48
BRANCH  43  51
ATOM     51  O   UNL     1      10.861  49.954  78.898  1.00  0.00    -0.387 OA
ATOM     52  H   UNL     1      11.127  50.687  79.533  1.00  0.00     0.211 HD
ENDBRANCH  43  51
ENDBRANCH  37  38
ENDBRANCH   5  37
BRANCH   7  53
ATOM     53  O   UNL     1      10.760  44.899  74.642  1.00  0.00    -0.507 OA
ATOM     54  H   UNL     1      10.526  43.993  74.206  1.00  0.00     0.293 HD
ENDBRANCH   7  53
TORSDOF 18
ENDMDL
