MODEL 1
REMARK VINA RESULT:    -5.395      0.000      0.000
REMARK INTER + INTRA:          -8.081
REMARK INTER:                  -8.234
REMARK INTRA:                   0.153
REMARK UNBOUND:                 0.153
REMARK SMILES CC1=CCC[C@H](C)C(=O)C[C@H](C(C)C)C(=O)C1
REMARK SMILES IDX 8 1 9 2 6 3 7 4 5 5 4 6 3 7 2 8 1 9 10 11 11 12 15 13 16 14
REMARK SMILES IDX 17 15 12 17 13 18 14 19
REMARK H PARENT
REMARK Flexibility Score: 70.00
ROOT
ATOM      1  C   UNL     1     -13.977 -14.683  30.413  1.00  0.00     0.136 C 
ATOM      2  O   UNL     1     -14.610 -14.410  31.423  1.00  0.00    -0.299 OA
ENDROOT
BRANCH   1   3
ATOM      3  C   UNL     1     -14.499 -14.251  29.058  1.00  0.00     0.053 C 
ATOM      4  C   UNL     1     -14.910 -12.777  29.117  1.00  0.00     0.016 C 
BRANCH   3   5
ATOM      5  C   UNL     1     -13.462 -14.469  27.930  1.00  0.00     0.015 C 
BRANCH   5   6
ATOM      6  C   UNL     1     -13.800 -15.638  26.992  1.00  0.00     0.028 C 
BRANCH   6   7
ATOM      7  C   UNL     1     -12.561 -16.187  26.328  1.00  0.00    -0.028 C 
ATOM      8  C   UNL     1     -11.888 -17.287  26.733  1.00  0.00    -0.070 CG0
ATOM      9  C   UNL     1     -10.663 -17.695  25.955  1.00  0.00     0.039 C 
ATOM     10  G   UNL     1     -12.307 -18.114  27.934  1.00  0.00     0.000 G0
ENDBRANCH   6   7
ENDBRANCH   5   6
ENDBRANCH   3   5
ENDBRANCH   1   3
BRANCH   1  11
ATOM     11  C   UNL     1     -12.714 -15.500  30.532  1.00  0.00     0.087 C 
BRANCH  11  12
ATOM     12  C   UNL     1     -12.922 -17.019  30.290  1.00  0.00     0.066 C 
BRANCH  12  13
ATOM     13  C   UNL     1     -11.907 -17.540  29.277  1.00  0.00     0.140 C 
ATOM     14  O   UNL     1     -10.725 -17.563  29.589  1.00  0.00    -0.299 OA
BRANCH  13  15
ATOM     15  C   UNL     1     -12.299 -18.121  27.933  1.00  0.00     0.106 CG0
ATOM     16  G   UNL     1     -11.898 -17.272  26.741  1.00  0.00     0.000 G0
ENDBRANCH  13  15
ENDBRANCH  12  13
BRANCH  12  17
ATOM     17  C   UNL     1     -12.821 -17.828  31.624  1.00  0.00    -0.006 C 
ATOM     18  C   UNL     1     -13.932 -17.449  32.621  1.00  0.00     0.008 C 
ATOM     19  C   UNL     1     -12.880 -19.345  31.371  1.00  0.00     0.008 C 
ENDBRANCH  12  17
ENDBRANCH  11  12
ENDBRANCH   1  11
TORSDOF 1
ENDMDL
MODEL 2
REMARK VINA RESULT:    -5.132      2.030      4.305
REMARK INTER + INTRA:          -7.679
REMARK INTER:                  -7.847
REMARK INTRA:                   0.168
REMARK UNBOUND:                 0.153
REMARK SMILES CC1=CCC[C@H](C)C(=O)C[C@H](C(C)C)C(=O)C1
REMARK SMILES IDX 8 1 9 2 6 3 7 4 5 5 4 6 3 7 2 8 1 9 10 11 11 12 15 13 16 14
REMARK SMILES IDX 17 15 12 17 13 18 14 19
REMARK H PARENT
REMARK Flexibility Score: 70.00
ROOT
ATOM      1  C   UNL     1     -10.673 -15.875  30.628  1.00  0.00     0.136 C 
ATOM      2  O   UNL     1      -9.993 -15.273  29.810  1.00  0.00    -0.299 OA
ENDROOT
BRANCH   1   3
ATOM      3  C   UNL     1     -10.003 -16.629  31.758  1.00  0.00     0.053 C 
ATOM      4  C   UNL     1     -10.288 -15.918  33.084  1.00  0.00     0.016 C 
BRANCH   3   5
ATOM      5  C   UNL     1     -10.461 -18.105  31.835  1.00  0.00     0.015 C 
BRANCH   5   6
ATOM      6  C   UNL     1     -10.270 -18.885  30.526  1.00  0.00     0.028 C 
BRANCH   6   7
ATOM      7  C   UNL     1     -11.573 -19.467  30.036  1.00  0.00    -0.028 C 
ATOM      8  C   UNL     1     -12.277 -19.011  28.975  1.00  0.00    -0.070 CG0
ATOM      9  C   UNL     1     -13.566 -19.709  28.626  1.00  0.00     0.039 C 
ATOM     10  G   UNL     1     -11.828 -17.828  28.137  1.00  0.00     0.000 G0
ENDBRANCH   6   7
ENDBRANCH   5   6
ENDBRANCH   3   5
ENDBRANCH   1   3
BRANCH   1  11
ATOM     11  C   UNL     1     -12.173 -15.905  30.460  1.00  0.00     0.087 C 
BRANCH  11  12
ATOM     12  C   UNL     1     -12.658 -15.444  29.060  1.00  0.00     0.066 C 
BRANCH  12  13
ATOM     13  C   UNL     1     -12.780 -16.640  28.120  1.00  0.00     0.140 C 
ATOM     14  O   UNL     1     -13.644 -16.622  27.255  1.00  0.00    -0.299 OA
BRANCH  13  15
ATOM     15  C   UNL     1     -11.819 -17.812  28.140  1.00  0.00     0.106 CG0
ATOM     16  G   UNL     1     -12.286 -18.990  28.976  1.00  0.00     0.000 G0
ENDBRANCH  13  15
ENDBRANCH  12  13
BRANCH  12  17
ATOM     17  C   UNL     1     -14.021 -14.684  29.150  1.00  0.00    -0.006 C 
ATOM     18  C   UNL     1     -14.387 -14.313  30.599  1.00  0.00     0.008 C 
ATOM     19  C   UNL     1     -14.012 -13.402  28.299  1.00  0.00     0.008 C 
ENDBRANCH  12  17
ENDBRANCH  11  12
ENDBRANCH   1  11
TORSDOF 1
ENDMDL
MODEL 3
REMARK VINA RESULT:    -5.108      2.506      4.273
REMARK INTER + INTRA:          -7.643
REMARK INTER:                  -7.924
REMARK INTRA:                   0.281
REMARK UNBOUND:                 0.153
REMARK SMILES CC1=CCC[C@H](C)C(=O)C[C@H](C(C)C)C(=O)C1
REMARK SMILES IDX 8 1 9 2 6 3 7 4 5 5 4 6 3 7 2 8 1 9 10 11 11 12 15 13 16 14
REMARK SMILES IDX 17 15 12 17 13 18 14 19
REMARK H PARENT
REMARK Flexibility Score: 70.00
ROOT
ATOM      1  C   UNL     1     -12.754 -17.090  27.400  1.00  0.00     0.136 C 
ATOM      2  O   UNL     1     -13.190 -16.080  26.865  1.00  0.00    -0.299 OA
ENDROOT
BRANCH   1   3
ATOM      3  C   UNL     1     -11.413 -17.651  26.973  1.00  0.00     0.053 C 
ATOM      4  C   UNL     1     -11.002 -17.026  25.637  1.00  0.00     0.016 C 
BRANCH   3   5
ATOM      5  C   UNL     1     -10.311 -17.414  28.034  1.00  0.00     0.015 C 
BRANCH   5   6
ATOM      6  C   UNL     1     -10.319 -15.999  28.632  1.00  0.00     0.028 C 
BRANCH   6   7
ATOM      7  C   UNL     1      -9.937 -16.017  30.092  1.00  0.00    -0.028 C 
ATOM      8  C   UNL     1     -10.812 -16.008  31.123  1.00  0.00    -0.070 CG0
ATOM      9  C   UNL     1     -10.258 -16.024  32.525  1.00  0.00     0.039 C 
ATOM     10  G   UNL     1     -12.317 -15.973  30.925  1.00  0.00     0.000 G0
ENDBRANCH   6   7
ENDBRANCH   5   6
ENDBRANCH   3   5
ENDBRANCH   1   3
BRANCH   1  11
ATOM     11  C   UNL     1     -13.594 -17.794  28.438  1.00  0.00     0.087 C 
BRANCH  11  12
ATOM     12  C   UNL     1     -12.787 -18.294  29.666  1.00  0.00     0.066 C 
BRANCH  12  13
ATOM     13  C   UNL     1     -12.970 -17.342  30.845  1.00  0.00     0.140 C 
ATOM     14  O   UNL     1     -13.607 -17.726  31.816  1.00  0.00    -0.299 OA
BRANCH  13  15
ATOM     15  C   UNL     1     -12.321 -15.975  30.916  1.00  0.00     0.106 CG0
ATOM     16  G   UNL     1     -10.820 -16.005  31.140  1.00  0.00     0.000 G0
ENDBRANCH  13  15
ENDBRANCH  12  13
BRANCH  12  17
ATOM     17  C   UNL     1     -13.204 -19.745  30.070  1.00  0.00    -0.006 C 
ATOM     18  C   UNL     1     -13.526 -20.622  28.846  1.00  0.00     0.008 C 
ATOM     19  C   UNL     1     -12.108 -20.438  30.900  1.00  0.00     0.008 C 
ENDBRANCH  12  17
ENDBRANCH  11  12
ENDBRANCH   1  11
TORSDOF 1
ENDMDL
MODEL 4
REMARK VINA RESULT:    -5.059      1.968      3.481
REMARK INTER + INTRA:          -7.569
REMARK INTER:                  -7.617
REMARK INTRA:                   0.048
REMARK UNBOUND:                 0.153
REMARK SMILES CC1=CCC[C@H](C)C(=O)C[C@H](C(C)C)C(=O)C1
REMARK SMILES IDX 8 1 9 2 6 3 7 4 5 5 4 6 3 7 2 8 1 9 10 11 11 12 15 13 16 14
REMARK SMILES IDX 17 15 12 17 13 18 14 19
REMARK H PARENT
REMARK Flexibility Score: 70.00
ROOT
ATOM      1  C   UNL     1     -13.026 -15.283  28.270  1.00  0.00     0.136 C 
ATOM      2  O   UNL     1     -13.923 -14.483  28.046  1.00  0.00    -0.299 OA
ENDROOT
BRANCH   1   3
ATOM      3  C   UNL     1     -12.742 -16.394  27.280  1.00  0.00     0.053 C 
ATOM      4  C   UNL     1     -11.231 -16.621  27.189  1.00  0.00     0.016 C 
BRANCH   3   5
ATOM      5  C   UNL     1     -13.458 -17.714  27.655  1.00  0.00     0.015 C 
BRANCH   5   6
ATOM      6  C   UNL     1     -12.501 -18.892  27.894  1.00  0.00     0.028 C 
BRANCH   6   7
ATOM      7  C   UNL     1     -12.787 -19.575  29.209  1.00  0.00    -0.028 C 
ATOM      8  C   UNL     1     -12.086 -19.385  30.350  1.00  0.00    -0.070 CG0
ATOM      9  C   UNL     1     -12.505 -20.154  31.577  1.00  0.00     0.039 C 
ATOM     10  G   UNL     1     -10.899 -18.444  30.440  1.00  0.00     0.000 G0
ENDBRANCH   6   7
ENDBRANCH   5   6
ENDBRANCH   3   5
ENDBRANCH   1   3
BRANCH   1  11
ATOM     11  C   UNL     1     -12.255 -15.184  29.564  1.00  0.00     0.087 C 
BRANCH  11  12
ATOM     12  C   UNL     1     -12.566 -16.323  30.571  1.00  0.00     0.066 C 
BRANCH  12  13
ATOM     13  C   UNL     1     -11.282 -17.051  30.962  1.00  0.00     0.140 C 
ATOM     14  O   UNL     1     -10.541 -16.534  31.786  1.00  0.00    -0.299 OA
BRANCH  13  15
ATOM     15  C   UNL     1     -10.922 -18.432  30.451  1.00  0.00     0.106 CG0
ATOM     16  G   UNL     1     -12.096 -19.388  30.352  1.00  0.00     0.000 G0
ENDBRANCH  13  15
ENDBRANCH  12  13
BRANCH  12  17
ATOM     17  C   UNL     1     -13.289 -15.778  31.844  1.00  0.00    -0.006 C 
ATOM     18  C   UNL     1     -14.370 -14.737  31.499  1.00  0.00     0.008 C 
ATOM     19  C   UNL     1     -13.938 -16.914  32.656  1.00  0.00     0.008 C 
ENDBRANCH  12  17
ENDBRANCH  11  12
ENDBRANCH   1  11
TORSDOF 1
ENDMDL
MODEL 5
REMARK VINA RESULT:    -5.019      2.214      5.271
REMARK INTER + INTRA:          -7.507
REMARK INTER:                  -7.654
REMARK INTRA:                   0.147
REMARK UNBOUND:                 0.153
REMARK SMILES CC1=CCC[C@H](C)C(=O)C[C@H](C(C)C)C(=O)C1
REMARK SMILES IDX 8 1 9 2 6 3 7 4 5 5 4 6 3 7 2 8 1 9 10 11 11 12 15 13 16 14
REMARK SMILES IDX 17 15 12 17 13 18 14 19
REMARK H PARENT
REMARK Flexibility Score: 70.00
ROOT
ATOM      1  C   UNL     1     -12.160 -18.403  28.573  1.00  0.00     0.136 C 
ATOM      2  O   UNL     1     -11.003 -18.779  28.441  1.00  0.00    -0.299 OA
ENDROOT
BRANCH   1   3
ATOM      3  C   UNL     1     -13.172 -19.302  29.252  1.00  0.00     0.053 C 
ATOM      4  C   UNL     1     -13.634 -20.382  28.269  1.00  0.00     0.016 C 
BRANCH   3   5
ATOM      5  C   UNL     1     -12.610 -19.958  30.536  1.00  0.00     0.015 C 
BRANCH   5   6
ATOM      6  C   UNL     1     -12.129 -18.948  31.590  1.00  0.00     0.028 C 
BRANCH   6   7
ATOM      7  C   UNL     1     -13.244 -18.023  32.014  1.00  0.00    -0.028 C 
ATOM      8  C   UNL     1     -13.175 -16.673  32.010  1.00  0.00    -0.070 CG0
ATOM      9  C   UNL     1     -14.383 -15.899  32.472  1.00  0.00     0.039 C 
ATOM     10  G   UNL     1     -11.937 -15.913  31.572  1.00  0.00     0.000 G0
ENDBRANCH   6   7
ENDBRANCH   5   6
ENDBRANCH   3   5
ENDBRANCH   1   3
BRANCH   1  11
ATOM     11  C   UNL     1     -12.571 -17.069  27.999  1.00  0.00     0.087 C 
BRANCH  11  12
ATOM     12  C   UNL     1     -12.926 -16.005  29.072  1.00  0.00     0.066 C 
BRANCH  12  13
ATOM     13  C   UNL     1     -11.769 -15.835  30.053  1.00  0.00     0.140 C 
ATOM     14  O   UNL     1     -10.665 -15.542  29.615  1.00  0.00    -0.299 OA
BRANCH  13  15
ATOM     15  C   UNL     1     -11.938 -15.915  31.557  1.00  0.00     0.106 CG0
ATOM     16  G   UNL     1     -13.176 -16.667  32.009  1.00  0.00     0.000 G0
ENDBRANCH  13  15
ENDBRANCH  12  13
BRANCH  12  17
ATOM     17  C   UNL     1     -13.288 -14.633  28.417  1.00  0.00    -0.006 C 
ATOM     18  C   UNL     1     -13.944 -14.802  27.034  1.00  0.00     0.008 C 
ATOM     19  C   UNL     1     -14.231 -13.810  29.314  1.00  0.00     0.008 C 
ENDBRANCH  12  17
ENDBRANCH  11  12
ENDBRANCH   1  11
TORSDOF 1
ENDMDL
MODEL 6
REMARK VINA RESULT:    -4.930      1.809      4.262
REMARK INTER + INTRA:          -7.371
REMARK INTER:                  -8.223
REMARK INTRA:                   0.852
REMARK UNBOUND:                 0.153
REMARK SMILES CC1=CCC[C@H](C)C(=O)C[C@H](C(C)C)C(=O)C1
REMARK SMILES IDX 8 1 9 2 6 3 7 4 5 5 4 6 3 7 2 8 1 9 10 11 11 12 15 13 16 14
REMARK SMILES IDX 17 15 12 17 13 18 14 19
REMARK H PARENT
REMARK Flexibility Score: 70.00
ROOT
ATOM      1  C   UNL     1     -12.273 -16.213  31.654  1.00  0.00     0.136 C 
ATOM      2  O   UNL     1     -12.656 -15.901  32.773  1.00  0.00    -0.299 OA
ENDROOT
BRANCH   1   3
ATOM      3  C   UNL     1     -10.917 -16.863  31.475  1.00  0.00     0.053 C 
ATOM      4  C   UNL     1      -9.991 -16.431  32.616  1.00  0.00     0.016 C 
BRANCH   3   5
ATOM      5  C   UNL     1     -11.006 -18.407  31.417  1.00  0.00     0.015 C 
BRANCH   5   6
ATOM      6  C   UNL     1     -12.441 -18.950  31.508  1.00  0.00     0.028 C 
BRANCH   6   7
ATOM      7  C   UNL     1     -12.712 -19.970  30.429  1.00  0.00    -0.028 C 
ATOM      8  C   UNL     1     -13.224 -19.690  29.209  1.00  0.00    -0.070 CG0
ATOM      9  C   UNL     1     -13.437 -20.834  28.250  1.00  0.00     0.039 C 
ATOM     10  G   UNL     1     -13.600 -18.285  28.776  1.00  0.00     0.000 G0
ENDBRANCH   6   7
ENDBRANCH   5   6
ENDBRANCH   3   5
ENDBRANCH   1   3
BRANCH   1  11
ATOM     11  C   UNL     1     -13.140 -15.887  30.461  1.00  0.00     0.087 C 
BRANCH  11  12
ATOM     12  C   UNL     1     -12.388 -15.942  29.105  1.00  0.00     0.066 C 
BRANCH  12  13
ATOM     13  C   UNL     1     -12.458 -17.349  28.515  1.00  0.00     0.140 C 
ATOM     14  O   UNL     1     -11.495 -17.772  27.891  1.00  0.00    -0.299 OA
BRANCH  13  15
ATOM     15  C   UNL     1     -13.624 -18.288  28.746  1.00  0.00     0.106 CG0
ATOM     16  G   UNL     1     -13.227 -19.683  29.191  1.00  0.00     0.000 G0
ENDBRANCH  13  15
ENDBRANCH  12  13
BRANCH  12  17
ATOM     17  C   UNL     1     -12.964 -14.901  28.092  1.00  0.00    -0.006 C 
ATOM     18  C   UNL     1     -13.659 -15.575  26.894  1.00  0.00     0.008 C 
ATOM     19  C   UNL     1     -13.963 -13.945  28.769  1.00  0.00     0.008 C 
ENDBRANCH  12  17
ENDBRANCH  11  12
ENDBRANCH   1  11
TORSDOF 1
ENDMDL
MODEL 7
REMARK VINA RESULT:    -4.827      1.740      2.957
REMARK INTER + INTRA:          -7.214
REMARK INTER:                  -6.840
REMARK INTRA:                  -0.374
REMARK UNBOUND:                 0.153
REMARK SMILES CC1=CCC[C@H](C)C(=O)C[C@H](C(C)C)C(=O)C1
REMARK SMILES IDX 8 1 9 2 6 3 7 4 5 5 4 6 3 7 2 8 1 9 10 11 11 12 15 13 16 14
REMARK SMILES IDX 17 15 12 17 13 18 14 19
REMARK H PARENT
REMARK Flexibility Score: 70.00
ROOT
ATOM      1  C   UNL     1     -12.492 -16.287  32.143  1.00  0.00     0.136 C 
ATOM      2  O   UNL     1     -12.036 -15.620  33.061  1.00  0.00    -0.299 OA
ENDROOT
BRANCH   1   3
ATOM      3  C   UNL     1     -13.967 -16.201  31.809  1.00  0.00     0.053 C 
ATOM      4  C   UNL     1     -14.790 -16.658  33.017  1.00  0.00     0.016 C 
BRANCH   3   5
ATOM      5  C   UNL     1     -14.392 -14.775  31.383  1.00  0.00     0.015 C 
BRANCH   5   6
ATOM      6  C   UNL     1     -13.520 -14.173  30.270  1.00  0.00     0.028 C 
BRANCH   6   7
ATOM      7  C   UNL     1     -13.930 -14.687  28.912  1.00  0.00    -0.028 C 
ATOM      8  C   UNL     1     -13.140 -15.411  28.087  1.00  0.00    -0.070 CG0
ATOM      9  C   UNL     1     -13.708 -15.842  26.758  1.00  0.00     0.039 C 
ATOM     10  G   UNL     1     -11.715 -15.795  28.438  1.00  0.00     0.000 G0
ENDBRANCH   6   7
ENDBRANCH   5   6
ENDBRANCH   3   5
ENDBRANCH   1   3
BRANCH   1  11
ATOM     11  C   UNL     1     -11.582 -17.233  31.397  1.00  0.00     0.087 C 
BRANCH  11  12
ATOM     12  C   UNL     1     -12.213 -17.829  30.111  1.00  0.00     0.066 C 
BRANCH  12  13
ATOM     13  C   UNL     1     -11.541 -17.248  28.870  1.00  0.00     0.140 C 
ATOM     14  O   UNL     1     -10.900 -17.995  28.145  1.00  0.00    -0.299 OA
BRANCH  13  15
ATOM     15  C   UNL     1     -11.706 -15.805  28.437  1.00  0.00     0.106 CG0
ATOM     16  G   UNL     1     -13.129 -15.416  28.083  1.00  0.00     0.000 G0
ENDBRANCH  13  15
ENDBRANCH  12  13
BRANCH  12  17
ATOM     17  C   UNL     1     -12.117 -19.389  30.099  1.00  0.00    -0.006 C 
ATOM     18  C   UNL     1     -12.093 -19.983  31.520  1.00  0.00     0.008 C 
ATOM     19  C   UNL     1     -13.284 -20.022  29.319  1.00  0.00     0.008 C 
ENDBRANCH  12  17
ENDBRANCH  11  12
ENDBRANCH   1  11
TORSDOF 1
ENDMDL
MODEL 8
REMARK VINA RESULT:    -4.624      1.874      2.634
REMARK INTER + INTRA:          -6.904
REMARK INTER:                  -6.698
REMARK INTRA:                  -0.206
REMARK UNBOUND:                 0.153
REMARK SMILES CC1=CCC[C@H](C)C(=O)C[C@H](C(C)C)C(=O)C1
REMARK SMILES IDX 8 1 9 2 6 3 7 4 5 5 4 6 3 7 2 8 1 9 10 11 11 12 15 13 16 14
REMARK SMILES IDX 17 15 12 17 13 18 14 19
REMARK H PARENT
REMARK Flexibility Score: 70.00
ROOT
ATOM      1  C   UNL     1     -11.895 -15.382  29.021  1.00  0.00     0.136 C 
ATOM      2  O   UNL     1     -10.964 -14.960  28.350  1.00  0.00    -0.299 OA
ENDROOT
BRANCH   1   3
ATOM      3  C   UNL     1     -13.303 -15.342  28.465  1.00  0.00     0.053 C 
ATOM      4  C   UNL     1     -13.805 -13.895  28.452  1.00  0.00     0.016 C 
BRANCH   3   5
ATOM      5  C   UNL     1     -13.393 -15.949  27.044  1.00  0.00     0.015 C 
BRANCH   5   6
ATOM      6  C   UNL     1     -12.572 -17.235  26.865  1.00  0.00     0.028 C 
BRANCH   6   7
ATOM      7  C   UNL     1     -13.328 -18.444  27.360  1.00  0.00    -0.028 C 
ATOM      8  C   UNL     1     -12.995 -19.174  28.449  1.00  0.00    -0.070 CG0
ATOM      9  C   UNL     1     -13.860 -20.358  28.800  1.00  0.00     0.039 C 
ATOM     10  G   UNL     1     -11.790 -18.858  29.316  1.00  0.00     0.000 G0
ENDBRANCH   6   7
ENDBRANCH   5   6
ENDBRANCH   3   5
ENDBRANCH   1   3
BRANCH   1  11
ATOM     11  C   UNL     1     -11.629 -15.880  30.421  1.00  0.00     0.087 C 
BRANCH  11  12
ATOM     12  C   UNL     1     -12.649 -16.939  30.916  1.00  0.00     0.066 C 
BRANCH  12  13
ATOM     13  C   UNL     1     -12.105 -18.348  30.688  1.00  0.00     0.140 C 
ATOM     14  O   UNL     1     -12.004 -19.100  31.647  1.00  0.00    -0.299 OA
BRANCH  13  15
ATOM     15  C   UNL     1     -11.773 -18.896  29.315  1.00  0.00     0.106 CG0
ATOM     16  G   UNL     1     -12.983 -19.198  28.451  1.00  0.00     0.000 G0
ENDBRANCH  13  15
ENDBRANCH  12  13
BRANCH  12  17
ATOM     17  C   UNL     1     -13.001 -16.732  32.425  1.00  0.00    -0.006 C 
ATOM     18  C   UNL     1     -11.943 -15.887  33.159  1.00  0.00     0.008 C 
ATOM     19  C   UNL     1     -14.376 -16.061  32.598  1.00  0.00     0.008 C 
ENDBRANCH  12  17
ENDBRANCH  11  12
ENDBRANCH   1  11
TORSDOF 1
ENDMDL
MODEL 9
REMARK VINA RESULT:    -4.367      1.997      4.087
REMARK INTER + INTRA:          -6.512
REMARK INTER:                  -6.579
REMARK INTRA:                   0.067
REMARK UNBOUND:                 0.153
REMARK SMILES CC1=CCC[C@H](C)C(=O)C[C@H](C(C)C)C(=O)C1
REMARK SMILES IDX 8 1 9 2 6 3 7 4 5 5 4 6 3 7 2 8 1 9 10 11 11 12 15 13 16 14
REMARK SMILES IDX 17 15 12 17 13 18 14 19
REMARK H PARENT
REMARK Flexibility Score: 70.00
ROOT
ATOM      1  C   UNL     1     -13.781 -14.752  28.331  1.00  0.00     0.136 C 
ATOM      2  O   UNL     1     -13.970 -14.429  27.167  1.00  0.00    -0.299 OA
ENDROOT
BRANCH   1   3
ATOM      3  C   UNL     1     -14.049 -13.757  29.442  1.00  0.00     0.053 C 
ATOM      4  C   UNL     1     -14.771 -12.535  28.867  1.00  0.00     0.016 C 
BRANCH   3   5
ATOM      5  C   UNL     1     -14.879 -14.372  30.595  1.00  0.00     0.015 C 
BRANCH   5   6
ATOM      6  C   UNL     1     -14.076 -14.596  31.886  1.00  0.00     0.028 C 
BRANCH   6   7
ATOM      7  C   UNL     1     -13.768 -16.059  32.095  1.00  0.00    -0.028 C 
ATOM      8  C   UNL     1     -12.609 -16.664  31.750  1.00  0.00    -0.070 CG0
ATOM      9  C   UNL     1     -12.469 -18.139  32.027  1.00  0.00     0.039 C 
ATOM     10  G   UNL     1     -11.459 -15.925  31.091  1.00  0.00     0.000 G0
ENDBRANCH   6   7
ENDBRANCH   5   6
ENDBRANCH   3   5
ENDBRANCH   1   3
BRANCH   1  11
ATOM     11  C   UNL     1     -13.224 -16.121  28.635  1.00  0.00     0.087 C 
BRANCH  11  12
ATOM     12  C   UNL     1     -11.689 -16.234  28.435  1.00  0.00     0.066 C 
BRANCH  12  13
ATOM     13  C   UNL     1     -11.000 -16.522  29.767  1.00  0.00     0.140 C 
ATOM     14  O   UNL     1      -9.990 -17.211  29.769  1.00  0.00    -0.299 OA
BRANCH  13  15
ATOM     15  C   UNL     1     -11.450 -15.917  31.082  1.00  0.00     0.106 CG0
ATOM     16  G   UNL     1     -12.594 -16.655  31.752  1.00  0.00     0.000 G0
ENDBRANCH  13  15
ENDBRANCH  12  13
BRANCH  12  17
ATOM     17  C   UNL     1     -11.330 -17.339  27.389  1.00  0.00    -0.006 C 
ATOM     18  C   UNL     1     -12.253 -18.566  27.497  1.00  0.00     0.008 C 
ATOM     19  C   UNL     1     -11.394 -16.796  25.950  1.00  0.00     0.008 C 
ENDBRANCH  12  17
ENDBRANCH  11  12
ENDBRANCH   1  11
TORSDOF 1
ENDMDL
