MODEL 1
REMARK VINA RESULT:    -6.397      0.000      0.000
REMARK INTER + INTRA:         -10.219
REMARK INTER:                  -9.014
REMARK INTRA:                  -1.205
REMARK UNBOUND:                -1.205
REMARK SMILES C=CC(=C)CCC=C(C)CCC=C(C)C
REMARK SMILES IDX 8 1 7 2 9 3 10 4 11 5 12 6 14 7 13 8 15 9 6 10 5 11 3 12
REMARK SMILES IDX 4 13 2 14 1 15
REMARK H PARENT
REMARK Flexibility Score: inf
ROOT
ATOM      1  C   UNL     1       4.284   8.171  12.180  1.00  0.00    -0.077 C 
ATOM      2  C   UNL     1       4.382   6.875  11.806  1.00  0.00    -0.028 C 
ATOM      3  C   UNL     1       4.116   8.575  13.626  1.00  0.00     0.039 C 
ENDROOT
BRANCH   1   4
ATOM      4  C   UNL     1       4.298   9.251  11.119  1.00  0.00     0.034 C 
BRANCH   4   5
ATOM      5  C   UNL     1       3.712  10.570  11.639  1.00  0.00     0.032 C 
BRANCH   5   6
ATOM      6  C   UNL     1       2.376  10.884  11.009  1.00  0.00    -0.028 C 
ATOM      7  C   UNL     1       1.064  10.127  13.004  1.00  0.00     0.039 C 
ATOM      8  C   UNL     1       1.182  10.720  11.620  1.00  0.00    -0.080 C 
ATOM      9  C   UNL     1      -0.064  11.127  10.877  1.00  0.00     0.039 C 
ENDBRANCH   5   6
ENDBRANCH   4   5
ENDBRANCH   1   4
BRANCH   2  10
ATOM     10  C   UNL     1       4.415   5.709  12.763  1.00  0.00     0.032 C 
BRANCH  10  11
ATOM     11  C   UNL     1       5.770   4.987  12.749  1.00  0.00     0.039 C 
BRANCH  11  12
ATOM     12  C   UNL     1       6.928   5.947  12.947  1.00  0.00    -0.055 C 
ATOM     13  C   UNL     1       7.770   6.156  11.928  1.00  0.00     0.012 C 
BRANCH  12  14
ATOM     14  C   UNL     1       7.144   6.702  14.210  1.00  0.00    -0.005 C 
ATOM     15  C   UNL     1       7.773   7.876  14.294  1.00  0.00     0.009 C 
ENDBRANCH  12  14
ENDBRANCH  11  12
ENDBRANCH  10  11
ENDBRANCH   2  10
TORSDOF 7
ENDMDL
MODEL 2
REMARK VINA RESULT:    -5.952      0.889      6.319
REMARK INTER + INTRA:          -9.593
REMARK INTER:                  -8.783
REMARK INTRA:                  -0.809
REMARK UNBOUND:                -1.205
REMARK SMILES C=CC(=C)CCC=C(C)CCC=C(C)C
REMARK SMILES IDX 8 1 7 2 9 3 10 4 11 5 12 6 14 7 13 8 15 9 6 10 5 11 3 12
REMARK SMILES IDX 4 13 2 14 1 15
REMARK H PARENT
REMARK Flexibility Score: inf
ROOT
ATOM      1  C   UNL     1       4.309   7.194  12.543  1.00  0.00    -0.077 C 
ATOM      2  C   UNL     1       3.953   7.970  13.593  1.00  0.00    -0.028 C 
ATOM      3  C   UNL     1       4.719   7.786  11.216  1.00  0.00     0.039 C 
ENDROOT
BRANCH   1   4
ATOM      4  C   UNL     1       4.255   5.688  12.684  1.00  0.00     0.034 C 
BRANCH   4   5
ATOM      5  C   UNL     1       5.635   5.093  12.993  1.00  0.00     0.032 C 
BRANCH   5   6
ATOM      6  C   UNL     1       6.522   6.072  13.728  1.00  0.00    -0.028 C 
ATOM      7  C   UNL     1       8.034   6.440  11.766  1.00  0.00     0.039 C 
ATOM      8  C   UNL     1       7.581   6.707  13.182  1.00  0.00    -0.080 C 
ATOM      9  C   UNL     1       8.339   7.695  14.030  1.00  0.00     0.039 C 
ENDBRANCH   5   6
ENDBRANCH   4   5
ENDBRANCH   1   4
BRANCH   2  10
ATOM     10  C   UNL     1       3.995   9.478  13.596  1.00  0.00     0.032 C 
BRANCH  10  11
ATOM     11  C   UNL     1       2.619  10.097  13.313  1.00  0.00     0.039 C 
BRANCH  11  12
ATOM     12  C   UNL     1       2.554  10.737  11.940  1.00  0.00    -0.055 C 
ATOM     13  C   UNL     1       3.688  11.184  11.386  1.00  0.00     0.012 C 
BRANCH  12  14
ATOM     14  C   UNL     1       1.293  10.851  11.160  1.00  0.00    -0.005 C 
ATOM     15  C   UNL     1       0.070  10.867  11.695  1.00  0.00     0.009 C 
ENDBRANCH  12  14
ENDBRANCH  11  12
ENDBRANCH  10  11
ENDBRANCH   2  10
TORSDOF 7
ENDMDL
MODEL 3
REMARK VINA RESULT:    -5.107      1.253      6.642
REMARK INTER + INTRA:          -8.402
REMARK INTER:                  -7.475
REMARK INTRA:                  -0.927
REMARK UNBOUND:                -1.205
REMARK SMILES C=CC(=C)CCC=C(C)CCC=C(C)C
REMARK SMILES IDX 8 1 7 2 9 3 10 4 11 5 12 6 14 7 13 8 15 9 6 10 5 11 3 12
REMARK SMILES IDX 4 13 2 14 1 15
REMARK H PARENT
REMARK Flexibility Score: inf
ROOT
ATOM      1  C   UNL     1       3.691   9.460  13.546  1.00  0.00    -0.077 C 
ATOM      2  C   UNL     1       3.717   9.878  12.260  1.00  0.00    -0.028 C 
ATOM      3  C   UNL     1       3.034  10.273  14.636  1.00  0.00     0.039 C 
ENDROOT
BRANCH   1   4
ATOM      4  C   UNL     1       4.379   8.164  13.917  1.00  0.00     0.034 C 
BRANCH   4   5
ATOM      5  C   UNL     1       4.351   7.153  12.762  1.00  0.00     0.032 C 
BRANCH   5   6
ATOM      6  C   UNL     1       5.724   6.927  12.174  1.00  0.00    -0.028 C 
ATOM      7  C   UNL     1       6.339   5.167  13.846  1.00  0.00     0.039 C 
ATOM      8  C   UNL     1       6.614   6.018  12.629  1.00  0.00    -0.080 C 
ATOM      9  C   UNL     1       7.926   5.875  11.903  1.00  0.00     0.039 C 
ENDBRANCH   5   6
ENDBRANCH   4   5
ENDBRANCH   1   4
BRANCH   2  10
ATOM     10  C   UNL     1       3.044  11.129  11.752  1.00  0.00     0.032 C 
BRANCH  10  11
ATOM     11  C   UNL     1       1.817  10.815  10.884  1.00  0.00     0.039 C 
BRANCH  11  12
ATOM     12  C   UNL     1       0.538  11.365  11.486  1.00  0.00    -0.055 C 
ATOM     13  C   UNL     1      -0.050  12.412  10.896  1.00  0.00     0.012 C 
BRANCH  12  14
ATOM     14  C   UNL     1      -0.117  10.764  12.679  1.00  0.00    -0.005 C 
ATOM     15  C   UNL     1       0.051   9.503  13.081  1.00  0.00     0.009 C 
ENDBRANCH  12  14
ENDBRANCH  11  12
ENDBRANCH  10  11
ENDBRANCH   2  10
TORSDOF 7
ENDMDL
MODEL 4
REMARK VINA RESULT:    -4.807      0.866      6.463
REMARK INTER + INTRA:          -7.979
REMARK INTER:                  -6.829
REMARK INTRA:                  -1.150
REMARK UNBOUND:                -1.205
REMARK SMILES C=CC(=C)CCC=C(C)CCC=C(C)C
REMARK SMILES IDX 8 1 7 2 9 3 10 4 11 5 12 6 14 7 13 8 15 9 6 10 5 11 3 12
REMARK SMILES IDX 4 13 2 14 1 15
REMARK H PARENT
REMARK Flexibility Score: inf
ROOT
ATOM      1  C   UNL     1       4.216   8.064  12.626  1.00  0.00    -0.077 C 
ATOM      2  C   UNL     1       4.331   9.130  11.802  1.00  0.00    -0.028 C 
ATOM      3  C   UNL     1       3.588   8.177  13.995  1.00  0.00     0.039 C 
ENDROOT
BRANCH   1   4
ATOM      4  C   UNL     1       4.771   6.725  12.187  1.00  0.00     0.034 C 
BRANCH   4   5
ATOM      5  C   UNL     1       5.733   6.137  13.228  1.00  0.00     0.032 C 
BRANCH   5   6
ATOM      6  C   UNL     1       7.139   6.664  13.061  1.00  0.00    -0.028 C 
ATOM      7  C   UNL     1       6.948   8.269  14.974  1.00  0.00     0.039 C 
ATOM      8  C   UNL     1       7.708   7.597  13.856  1.00  0.00    -0.080 C 
ATOM      9  C   UNL     1       9.140   7.984  13.592  1.00  0.00     0.039 C 
ENDBRANCH   5   6
ENDBRANCH   4   5
ENDBRANCH   1   4
BRANCH   2  10
ATOM     10  C   UNL     1       3.792  10.506  12.102  1.00  0.00     0.032 C 
BRANCH  10  11
ATOM     11  C   UNL     1       2.849  11.012  11.001  1.00  0.00     0.039 C 
BRANCH  11  12
ATOM     12  C   UNL     1       1.405  11.054  11.464  1.00  0.00    -0.055 C 
ATOM     13  C   UNL     1       0.568  11.915  10.875  1.00  0.00     0.012 C 
BRANCH  12  14
ATOM     14  C   UNL     1       0.867  10.147  12.513  1.00  0.00    -0.005 C 
ATOM     15  C   UNL     1      -0.125  10.460  13.349  1.00  0.00     0.009 C 
ENDBRANCH  12  14
ENDBRANCH  11  12
ENDBRANCH  10  11
ENDBRANCH   2  10
TORSDOF 7
ENDMDL
MODEL 5
REMARK VINA RESULT:    -4.567      0.936      2.160
REMARK INTER + INTRA:          -7.640
REMARK INTER:                  -7.773
REMARK INTRA:                   0.133
REMARK UNBOUND:                -1.205
REMARK SMILES C=CC(=C)CCC=C(C)CCC=C(C)C
REMARK SMILES IDX 8 1 7 2 9 3 10 4 11 5 12 6 14 7 13 8 15 9 6 10 5 11 3 12
REMARK SMILES IDX 4 13 2 14 1 15
REMARK H PARENT
REMARK Flexibility Score: inf
ROOT
ATOM      1  C   UNL     1       4.055   9.144  13.888  1.00  0.00    -0.077 C 
ATOM      2  C   UNL     1       5.383   8.900  13.968  1.00  0.00    -0.028 C 
ATOM      3  C   UNL     1       3.030   8.163  14.405  1.00  0.00     0.039 C 
ENDROOT
BRANCH   1   4
ATOM      4  C   UNL     1       3.576  10.416  13.220  1.00  0.00     0.034 C 
BRANCH   4   5
ATOM      5  C   UNL     1       3.596  10.299  11.690  1.00  0.00     0.032 C 
BRANCH   5   6
ATOM      6  C   UNL     1       2.382  10.937  11.057  1.00  0.00    -0.028 C 
ATOM      7  C   UNL     1       0.844  10.256  12.912  1.00  0.00     0.039 C 
ATOM      8  C   UNL     1       1.148  10.953  11.608  1.00  0.00    -0.080 C 
ATOM      9  C   UNL     1       0.047  11.676  10.876  1.00  0.00     0.039 C 
ENDBRANCH   5   6
ENDBRANCH   4   5
ENDBRANCH   1   4
BRANCH   2  10
ATOM     10  C   UNL     1       5.992   7.692  14.636  1.00  0.00     0.032 C 
BRANCH  10  11
ATOM     11  C   UNL     1       7.183   7.132  13.845  1.00  0.00     0.039 C 
BRANCH  11  12
ATOM     12  C   UNL     1       6.749   6.109  12.812  1.00  0.00    -0.055 C 
ATOM     13  C   UNL     1       7.670   5.287  12.296  1.00  0.00     0.012 C 
BRANCH  12  14
ATOM     14  C   UNL     1       5.334   5.948  12.379  1.00  0.00    -0.005 C 
ATOM     15  C   UNL     1       4.550   4.923  12.718  1.00  0.00     0.009 C 
ENDBRANCH  12  14
ENDBRANCH  11  12
ENDBRANCH  10  11
ENDBRANCH   2  10
TORSDOF 7
ENDMDL
MODEL 6
REMARK VINA RESULT:    -3.736      0.964      6.273
REMARK INTER + INTRA:          -6.470
REMARK INTER:                  -6.878
REMARK INTRA:                   0.408
REMARK UNBOUND:                -1.205
REMARK SMILES C=CC(=C)CCC=C(C)CCC=C(C)C
REMARK SMILES IDX 8 1 7 2 9 3 10 4 11 5 12 6 14 7 13 8 15 9 6 10 5 11 3 12
REMARK SMILES IDX 4 13 2 14 1 15
REMARK H PARENT
REMARK Flexibility Score: inf
ROOT
ATOM      1  C   UNL     1       4.629   7.260  12.468  1.00  0.00    -0.077 C 
ATOM      2  C   UNL     1       4.772   7.797  11.235  1.00  0.00    -0.028 C 
ATOM      3  C   UNL     1       4.171   8.083  13.649  1.00  0.00     0.039 C 
ENDROOT
BRANCH   1   4
ATOM      4  C   UNL     1       4.978   5.803  12.685  1.00  0.00     0.034 C 
BRANCH   4   5
ATOM      5  C   UNL     1       6.081   5.632  13.739  1.00  0.00     0.032 C 
BRANCH   5   6
ATOM      6  C   UNL     1       7.366   6.312  13.328  1.00  0.00    -0.028 C 
ATOM      7  C   UNL     1       7.069   8.219  14.924  1.00  0.00     0.039 C 
ATOM      8  C   UNL     1       7.838   7.455  13.872  1.00  0.00    -0.080 C 
ATOM      9  C   UNL     1       9.164   7.983  13.390  1.00  0.00     0.039 C 
ENDBRANCH   5   6
ENDBRANCH   4   5
ENDBRANCH   1   4
BRANCH   2  10
ATOM     10  C   UNL     1       4.428   9.222  10.877  1.00  0.00     0.032 C 
BRANCH  10  11
ATOM     11  C   UNL     1       3.319   9.792  11.774  1.00  0.00     0.039 C 
BRANCH  11  12
ATOM     12  C   UNL     1       2.738  11.076  11.212  1.00  0.00    -0.055 C 
ATOM     13  C   UNL     1       3.574  12.065  10.875  1.00  0.00     0.012 C 
BRANCH  12  14
ATOM     14  C   UNL     1       1.282  11.269  10.978  1.00  0.00    -0.005 C 
ATOM     15  C   UNL     1       0.317  10.735  11.728  1.00  0.00     0.009 C 
ENDBRANCH  12  14
ENDBRANCH  11  12
ENDBRANCH  10  11
ENDBRANCH   2  10
TORSDOF 7
ENDMDL
MODEL 7
REMARK VINA RESULT:    -3.712      1.043      6.093
REMARK INTER + INTRA:          -6.436
REMARK INTER:                  -5.849
REMARK INTRA:                  -0.587
REMARK UNBOUND:                -1.205
REMARK SMILES C=CC(=C)CCC=C(C)CCC=C(C)C
REMARK SMILES IDX 8 1 7 2 9 3 10 4 11 5 12 6 14 7 13 8 15 9 6 10 5 11 3 12
REMARK SMILES IDX 4 13 2 14 1 15
REMARK H PARENT
REMARK Flexibility Score: inf
ROOT
ATOM      1  C   UNL     1       4.832   8.390  13.937  1.00  0.00    -0.077 C 
ATOM      2  C   UNL     1       5.118   8.404  12.615  1.00  0.00    -0.028 C 
ATOM      3  C   UNL     1       3.414   8.491  14.448  1.00  0.00     0.039 C 
ENDROOT
BRANCH   1   4
ATOM      4  C   UNL     1       5.964   8.315  14.939  1.00  0.00     0.034 C 
BRANCH   4   5
ATOM      5  C   UNL     1       6.717   6.980  14.851  1.00  0.00     0.032 C 
BRANCH   5   6
ATOM      6  C   UNL     1       7.475   6.842  13.552  1.00  0.00    -0.028 C 
ATOM      7  C   UNL     1       6.130   4.876  12.777  1.00  0.00     0.039 C 
ATOM      8  C   UNL     1       7.203   5.924  12.599  1.00  0.00    -0.080 C 
ATOM      9  C   UNL     1       8.018   5.944  11.331  1.00  0.00     0.039 C 
ENDBRANCH   5   6
ENDBRANCH   4   5
ENDBRANCH   1   4
BRANCH   2  10
ATOM     10  C   UNL     1       4.085   8.441  11.516  1.00  0.00     0.032 C 
BRANCH  10  11
ATOM     11  C   UNL     1       3.970   9.831  10.875  1.00  0.00     0.039 C 
BRANCH  11  12
ATOM     12  C   UNL     1       3.044  10.744  11.657  1.00  0.00    -0.055 C 
ATOM     13  C   UNL     1       3.574  11.566  12.570  1.00  0.00     0.012 C 
BRANCH  12  14
ATOM     14  C   UNL     1       1.576  10.797  11.423  1.00  0.00    -0.005 C 
ATOM     15  C   UNL     1       0.652  10.543  12.351  1.00  0.00     0.009 C 
ENDBRANCH  12  14
ENDBRANCH  11  12
ENDBRANCH  10  11
ENDBRANCH   2  10
TORSDOF 7
ENDMDL
