MODEL 1
REMARK VINA RESULT:    -6.315      0.000      0.000
REMARK INTER + INTRA:         -10.105
REMARK INTER:                  -8.899
REMARK INTRA:                  -1.206
REMARK UNBOUND:                -1.206
REMARK SMILES COc1c(O[C@@H]2O[C@H](C(=O)[O-])[C@H](O)[C@H](O)[C@@H]2O)cc(O)c2c(=O)cc(-c3ccccc3)oc12
REMARK SMILES IDX 5 1 6 2 8 3 12 4 7 5 14 6 16 7 9 8 10 9 11 10 13 11 15 13
REMARK SMILES IDX 17 15 4 17 3 18 18 19 33 20 19 21 21 22 32 23 22 24 25 25
REMARK SMILES IDX 24 26 23 27 2 28 1 29 20 30 26 32 27 33 31 34 28 35 30 36
REMARK SMILES IDX 29 37
REMARK H PARENT 13 12 15 14 17 16 20 31
REMARK Flexibility Score: inf
ROOT
ATOM      1  O   UNL     1      12.635  15.506  27.646  1.00  0.00    -0.458 OA
ENDROOT
BRANCH   1   2
ATOM      2  C   UNL     1      11.378  15.675  26.986  1.00  0.00     0.339 C 
ATOM      3  C   UNL     1      10.570  15.653  24.774  1.00  0.00     0.199 C 
ATOM      4  C   UNL     1      10.993  17.098  24.407  1.00  0.00     0.180 C 
ATOM      5  O   UNL     1      11.505  15.109  25.685  1.00  0.00    -0.328 OA
ATOM      6  C   UNL     1      11.436  17.883  25.680  1.00  0.00     0.181 C 
ATOM      7  C   UNL     1      10.964  17.188  26.973  1.00  0.00     0.214 C 
BRANCH   3   8
ATOM      8  C   UNL     1      10.460  14.765  23.562  1.00  0.00     0.073 C 
ATOM      9  O   UNL     1      11.371  13.934  23.302  1.00  0.00    -0.547 OA
ATOM     10  O   UNL     1       9.318  14.794  22.768  1.00  0.00    -0.547 OA
ENDBRANCH   3   8
BRANCH   4  11
ATOM     11  O   UNL     1      12.045  17.068  23.470  1.00  0.00    -0.387 OA
ATOM     12  H   UNL     1      12.897  17.212  23.958  1.00  0.00     0.211 HD
ENDBRANCH   4  11
BRANCH   6  13
ATOM     13  O   UNL     1      12.827  18.113  25.711  1.00  0.00    -0.387 OA
ATOM     14  H   UNL     1      13.194  17.640  26.503  1.00  0.00     0.211 HD
ENDBRANCH   6  13
BRANCH   7  15
ATOM     15  O   UNL     1      11.458  17.876  28.093  1.00  0.00    -0.384 OA
ATOM     16  H   UNL     1      12.370  18.189  27.861  1.00  0.00     0.211 HD
ENDBRANCH   7  15
ENDBRANCH   1   2
BRANCH   1  17
ATOM     17  C   UNL     1      13.750  14.895  27.057  1.00  0.00     0.172 A 
ATOM     18  C   UNL     1      13.885  13.506  27.156  1.00  0.00     0.205 A 
ATOM     19  C   UNL     1      14.714  15.657  26.394  1.00  0.00     0.097 A 
ATOM     20  C   UNL     1      14.965  12.866  26.498  1.00  0.00     0.188 A 
ATOM     21  C   UNL     1      15.836  15.057  25.829  1.00  0.00     0.134 A 
ATOM     22  C   UNL     1      15.932  13.641  25.798  1.00  0.00     0.111 A 
ATOM     23  O   UNL     1      15.071  11.539  26.520  1.00  0.00    -0.452 OA
ATOM     24  C   UNL     1      16.911  12.942  25.056  1.00  0.00     0.197 A 
ATOM     25  C   UNL     1      16.014  10.856  25.875  1.00  0.00     0.138 A 
ATOM     26  C   UNL     1      16.956  11.551  25.106  1.00  0.00     0.100 A 
ATOM     27  O   UNL     1      17.717  13.540  24.296  1.00  0.00    -0.289 OA
BRANCH  18  28
ATOM     28  O   UNL     1      12.890  12.829  27.885  1.00  0.00    -0.490 OA
ATOM     29  C   UNL     1      12.969  12.431  29.247  1.00  0.00     0.278 C 
ENDBRANCH  18  28
BRANCH  21  30
ATOM     30  O   UNL     1      16.846  15.903  25.360  1.00  0.00    -0.507 OA
ATOM     31  H   UNL     1      16.664  16.654  24.704  1.00  0.00     0.293 HD
ENDBRANCH  21  30
BRANCH  25  32
ATOM     32  C   UNL     1      16.003   9.367  25.935  1.00  0.00     0.017 A 
ATOM     33  C   UNL     1      14.815   8.635  26.156  1.00  0.00     0.012 A 
ATOM     34  C   UNL     1      17.209   8.657  25.783  1.00  0.00     0.012 A 
ATOM     35  C   UNL     1      14.846   7.239  26.256  1.00  0.00     0.001 A 
ATOM     36  C   UNL     1      17.233   7.262  25.874  1.00  0.00     0.001 A 
ATOM     37  C   UNL     1      16.055   6.554  26.122  1.00  0.00     0.000 A 
ENDBRANCH  25  32
ENDBRANCH   1  17
TORSDOF 9
ENDMDL
MODEL 2
REMARK VINA RESULT:    -6.302      9.807     14.590
REMARK INTER + INTRA:         -10.088
REMARK INTER:                  -8.595
REMARK INTRA:                  -1.492
REMARK UNBOUND:                -1.206
REMARK SMILES COc1c(O[C@@H]2O[C@H](C(=O)[O-])[C@H](O)[C@H](O)[C@@H]2O)cc(O)c2c(=O)cc(-c3ccccc3)oc12
REMARK SMILES IDX 5 1 6 2 8 3 12 4 7 5 14 6 16 7 9 8 10 9 11 10 13 11 15 13
REMARK SMILES IDX 17 15 4 17 3 18 18 19 33 20 19 21 21 22 32 23 22 24 25 25
REMARK SMILES IDX 24 26 23 27 2 28 1 29 20 30 26 32 27 33 31 34 28 35 30 36
REMARK SMILES IDX 29 37
REMARK H PARENT 13 12 15 14 17 16 20 31
REMARK Flexibility Score: inf
ROOT
ATOM      1  O   UNL     1      14.459   1.242  17.977  1.00  0.00    -0.458 OA
ENDROOT
BRANCH   1   2
ATOM      2  C   UNL     1      15.453   0.310  18.410  1.00  0.00     0.339 C 
ATOM      3  C   UNL     1      16.849   0.016  20.283  1.00  0.00     0.199 C 
ATOM      4  C   UNL     1      17.941   1.033  19.863  1.00  0.00     0.180 C 
ATOM      5  O   UNL     1      15.591   0.463  19.819  1.00  0.00    -0.328 OA
ATOM      6  C   UNL     1      17.735   1.484  18.384  1.00  0.00     0.181 C 
ATOM      7  C   UNL     1      16.792   0.531  17.623  1.00  0.00     0.214 C 
BRANCH   3   8
ATOM      8  C   UNL     1      16.803  -0.188  21.775  1.00  0.00     0.073 C 
ATOM      9  O   UNL     1      17.794   0.127  22.487  1.00  0.00    -0.547 OA
ATOM     10  O   UNL     1      15.641  -0.644  22.389  1.00  0.00    -0.547 OA
ENDBRANCH   3   8
BRANCH   4  11
ATOM     11  O   UNL     1      17.908   2.154  20.717  1.00  0.00    -0.387 OA
ATOM     12  H   UNL     1      17.767   1.830  21.645  1.00  0.00     0.211 HD
ENDBRANCH   4  11
BRANCH   6  13
ATOM     13  O   UNL     1      17.287   2.817  18.287  1.00  0.00    -0.387 OA
ATOM     14  H   UNL     1      16.377   2.860  18.679  1.00  0.00     0.211 HD
ENDBRANCH   6  13
BRANCH   7  15
ATOM     15  O   UNL     1      16.564   1.020  16.326  1.00  0.00    -0.384 OA
ATOM     16  H   UNL     1      15.593   0.924  16.148  1.00  0.00     0.211 HD
ENDBRANCH   7  15
ENDBRANCH   1   2
BRANCH   1  17
ATOM     17  C   UNL     1      13.353   1.619  18.751  1.00  0.00     0.172 A 
ATOM     18  C   UNL     1      13.296   2.925  19.249  1.00  0.00     0.205 A 
ATOM     19  C   UNL     1      12.334   0.706  19.031  1.00  0.00     0.097 A 
ATOM     20  C   UNL     1      12.148   3.344  19.967  1.00  0.00     0.188 A 
ATOM     21  C   UNL     1      11.247   1.069  19.821  1.00  0.00     0.134 A 
ATOM     22  C   UNL     1      11.096   2.421  20.228  1.00  0.00     0.111 A 
ATOM     23  O   UNL     1      12.043   4.603  20.387  1.00  0.00    -0.452 OA
ATOM     24  C   UNL     1       9.924   2.927  20.833  1.00  0.00     0.197 A 
ATOM     25  C   UNL     1      10.973   5.094  21.009  1.00  0.00     0.138 A 
ATOM     26  C   UNL     1       9.870   4.259  21.233  1.00  0.00     0.100 A 
ATOM     27  O   UNL     1       8.892   2.219  20.973  1.00  0.00    -0.289 OA
BRANCH  18  28
ATOM     28  O   UNL     1      14.392   3.757  18.956  1.00  0.00    -0.490 OA
ATOM     29  C   UNL     1      14.436   4.771  17.961  1.00  0.00     0.278 C 
ENDBRANCH  18  28
BRANCH  21  30
ATOM     30  O   UNL     1      10.375   0.050  20.217  1.00  0.00    -0.507 OA
ATOM     31  H   UNL     1       9.913   0.050  21.120  1.00  0.00     0.293 HD
ENDBRANCH  21  30
BRANCH  25  32
ATOM     32  C   UNL     1      10.950   6.534  21.390  1.00  0.00     0.017 A 
ATOM     33  C   UNL     1      11.958   7.111  22.195  1.00  0.00     0.012 A 
ATOM     34  C   UNL     1       9.891   7.351  20.954  1.00  0.00     0.012 A 
ATOM     35  C   UNL     1      11.882   8.457  22.577  1.00  0.00     0.001 A 
ATOM     36  C   UNL     1       9.824   8.696  21.330  1.00  0.00     0.001 A 
ATOM     37  C   UNL     1      10.812   9.245  22.150  1.00  0.00     0.000 A 
ENDBRANCH  25  32
ENDBRANCH   1  17
TORSDOF 9
ENDMDL
MODEL 3
REMARK VINA RESULT:    -6.137      2.010      4.277
REMARK INTER + INTRA:          -9.854
REMARK INTER:                  -8.499
REMARK INTRA:                  -1.355
REMARK UNBOUND:                -1.206
REMARK SMILES COc1c(O[C@@H]2O[C@H](C(=O)[O-])[C@H](O)[C@H](O)[C@@H]2O)cc(O)c2c(=O)cc(-c3ccccc3)oc12
REMARK SMILES IDX 5 1 6 2 8 3 12 4 7 5 14 6 16 7 9 8 10 9 11 10 13 11 15 13
REMARK SMILES IDX 17 15 4 17 3 18 18 19 33 20 19 21 21 22 32 23 22 24 25 25
REMARK SMILES IDX 24 26 23 27 2 28 1 29 20 30 26 32 27 33 31 34 28 35 30 36
REMARK SMILES IDX 29 37
REMARK H PARENT 13 12 15 14 17 16 20 31
REMARK Flexibility Score: inf
ROOT
ATOM      1  O   UNL     1      13.526  15.277  24.374  1.00  0.00    -0.458 OA
ENDROOT
BRANCH   1   2
ATOM      2  C   UNL     1      14.012  16.325  25.217  1.00  0.00     0.339 C 
ATOM      3  C   UNL     1      13.752  17.002  27.457  1.00  0.00     0.199 C 
ATOM      4  C   UNL     1      12.398  17.734  27.274  1.00  0.00     0.180 C 
ATOM      5  O   UNL     1      13.816  15.907  26.565  1.00  0.00    -0.328 OA
ATOM      6  C   UNL     1      12.062  17.902  25.760  1.00  0.00     0.181 C 
ATOM      7  C   UNL     1      13.303  17.680  24.872  1.00  0.00     0.214 C 
BRANCH   3   8
ATOM      8  C   UNL     1      13.956  16.523  28.870  1.00  0.00     0.073 C 
ATOM      9  O   UNL     1      14.653  15.497  29.097  1.00  0.00    -0.547 OA
ATOM     10  O   UNL     1      13.449  17.251  29.942  1.00  0.00    -0.547 OA
ENDBRANCH   3   8
BRANCH   4  11
ATOM     11  O   UNL     1      11.372  17.016  27.919  1.00  0.00    -0.387 OA
ATOM     12  H   UNL     1      11.167  16.212  27.372  1.00  0.00     0.211 HD
ENDBRANCH   4  11
BRANCH   6  13
ATOM     13  O   UNL     1      10.997  17.072  25.353  1.00  0.00    -0.387 OA
ATOM     14  H   UNL     1      10.533  17.522  24.601  1.00  0.00     0.211 HD
ENDBRANCH   6  13
BRANCH   7  15
ATOM     15  O   UNL     1      12.939  17.752  23.518  1.00  0.00    -0.384 OA
ATOM     16  H   UNL     1      12.390  16.949  23.323  1.00  0.00     0.211 HD
ENDBRANCH   7  15
ENDBRANCH   1   2
BRANCH   1  17
ATOM     17  C   UNL     1      13.089  14.033  24.848  1.00  0.00     0.172 A 
ATOM     18  C   UNL     1      13.984  12.958  24.835  1.00  0.00     0.205 A 
ATOM     19  C   UNL     1      11.783  13.865  25.314  1.00  0.00     0.097 A 
ATOM     20  C   UNL     1      13.581  11.714  25.384  1.00  0.00     0.188 A 
ATOM     21  C   UNL     1      11.338  12.626  25.763  1.00  0.00     0.134 A 
ATOM     22  C   UNL     1      12.260  11.552  25.885  1.00  0.00     0.111 A 
ATOM     23  O   UNL     1      14.441  10.700  25.445  1.00  0.00    -0.452 OA
ATOM     24  C   UNL     1      11.956  10.335  26.536  1.00  0.00     0.197 A 
ATOM     25  C   UNL     1      14.166   9.522  26.003  1.00  0.00     0.138 A 
ATOM     26  C   UNL     1      12.907   9.319  26.582  1.00  0.00     0.100 A 
ATOM     27  O   UNL     1      10.862  10.158  27.132  1.00  0.00    -0.289 OA
BRANCH  18  28
ATOM     28  O   UNL     1      15.261  13.210  24.301  1.00  0.00    -0.490 OA
ATOM     29  C   UNL     1      16.445  13.470  25.042  1.00  0.00     0.278 C 
ENDBRANCH  18  28
BRANCH  21  30
ATOM     30  O   UNL     1       9.971  12.494  26.026  1.00  0.00    -0.507 OA
ATOM     31  H   UNL     1       9.620  12.124  26.902  1.00  0.00     0.293 HD
ENDBRANCH  21  30
BRANCH  25  32
ATOM     32  C   UNL     1      15.226   8.477  26.056  1.00  0.00     0.017 A 
ATOM     33  C   UNL     1      14.950   7.149  26.455  1.00  0.00     0.012 A 
ATOM     34  C   UNL     1      16.550   8.813  25.718  1.00  0.00     0.012 A 
ATOM     35  C   UNL     1      15.978   6.203  26.542  1.00  0.00     0.001 A 
ATOM     36  C   UNL     1      17.571   7.861  25.797  1.00  0.00     0.001 A 
ATOM     37  C   UNL     1      17.288   6.561  26.220  1.00  0.00     0.000 A 
ENDBRANCH  25  32
ENDBRANCH   1  17
TORSDOF 9
ENDMDL
MODEL 4
REMARK VINA RESULT:    -6.129      9.272     13.656
REMARK INTER + INTRA:          -9.843
REMARK INTER:                  -8.333
REMARK INTRA:                  -1.510
REMARK UNBOUND:                -1.206
REMARK SMILES COc1c(O[C@@H]2O[C@H](C(=O)[O-])[C@H](O)[C@H](O)[C@@H]2O)cc(O)c2c(=O)cc(-c3ccccc3)oc12
REMARK SMILES IDX 5 1 6 2 8 3 12 4 7 5 14 6 16 7 9 8 10 9 11 10 13 11 15 13
REMARK SMILES IDX 17 15 4 17 3 18 18 19 33 20 19 21 21 22 32 23 22 24 25 25
REMARK SMILES IDX 24 26 23 27 2 28 1 29 20 30 26 32 27 33 31 34 28 35 30 36
REMARK SMILES IDX 29 37
REMARK H PARENT 13 12 15 14 17 16 20 31
REMARK Flexibility Score: inf
ROOT
ATOM      1  O   UNL     1      14.232   3.244  17.179  1.00  0.00    -0.458 OA
ENDROOT
BRANCH   1   2
ATOM      2  C   UNL     1      14.831   1.962  16.975  1.00  0.00     0.339 C 
ATOM      3  C   UNL     1      16.096   0.425  18.233  1.00  0.00     0.199 C 
ATOM      4  C   UNL     1      17.467   1.127  18.059  1.00  0.00     0.180 C 
ATOM      5  O   UNL     1      15.072   1.399  18.262  1.00  0.00    -0.328 OA
ATOM      6  C   UNL     1      17.381   2.245  16.975  1.00  0.00     0.181 C 
ATOM      7  C   UNL     1      16.123   2.092  16.096  1.00  0.00     0.214 C 
BRANCH   3   8
ATOM      8  C   UNL     1      16.039  -0.415  19.482  1.00  0.00     0.073 C 
ATOM      9  O   UNL     1      16.052  -1.673  19.399  1.00  0.00    -0.547 OA
ATOM     10  O   UNL     1      16.057   0.185  20.737  1.00  0.00    -0.547 OA
ENDBRANCH   3   8
BRANCH   4  11
ATOM     11  O   UNL     1      17.884   1.679  19.287  1.00  0.00    -0.387 OA
ATOM     12  H   UNL     1      18.578   2.363  19.098  1.00  0.00     0.211 HD
ENDBRANCH   4  11
BRANCH   6  13
ATOM     13  O   UNL     1      17.452   3.538  17.532  1.00  0.00    -0.387 OA
ATOM     14  H   UNL     1      18.377   3.676  17.861  1.00  0.00     0.211 HD
ENDBRANCH   6  13
BRANCH   7  15
ATOM     15  O   UNL     1      16.038   3.165  15.194  1.00  0.00    -0.384 OA
ATOM     16  H   UNL     1      16.670   2.972  14.455  1.00  0.00     0.211 HD
ENDBRANCH   7  15
ENDBRANCH   1   2
BRANCH   1  17
ATOM     17  C   UNL     1      13.388   3.549  18.255  1.00  0.00     0.172 A 
ATOM     18  C   UNL     1      13.864   4.395  19.262  1.00  0.00     0.205 A 
ATOM     19  C   UNL     1      12.102   3.011  18.328  1.00  0.00     0.097 A 
ATOM     20  C   UNL     1      12.995   4.775  20.316  1.00  0.00     0.188 A 
ATOM     21  C   UNL     1      11.269   3.291  19.408  1.00  0.00     0.134 A 
ATOM     22  C   UNL     1      11.675   4.249  20.375  1.00  0.00     0.111 A 
ATOM     23  O   UNL     1      13.407   5.636  21.245  1.00  0.00    -0.452 OA
ATOM     24  C   UNL     1      10.815   4.761  21.372  1.00  0.00     0.197 A 
ATOM     25  C   UNL     1      12.636   6.095  22.229  1.00  0.00     0.138 A 
ATOM     26  C   UNL     1      11.302   5.674  22.304  1.00  0.00     0.100 A 
ATOM     27  O   UNL     1       9.593   4.460  21.412  1.00  0.00    -0.289 OA
BRANCH  18  28
ATOM     28  O   UNL     1      15.189   4.848  19.127  1.00  0.00    -0.490 OA
ATOM     29  C   UNL     1      15.601   6.087  18.564  1.00  0.00     0.278 C 
ENDBRANCH  18  28
BRANCH  21  30
ATOM     30  O   UNL     1      10.080   2.562  19.506  1.00  0.00    -0.507 OA
ATOM     31  H   UNL     1       9.473   2.405  18.709  1.00  0.00     0.293 HD
ENDBRANCH  21  30
BRANCH  25  32
ATOM     32  C   UNL     1      13.193   7.094  23.184  1.00  0.00     0.017 A 
ATOM     33  C   UNL     1      14.581   7.205  23.426  1.00  0.00     0.012 A 
ATOM     34  C   UNL     1      12.320   7.947  23.884  1.00  0.00     0.012 A 
ATOM     35  C   UNL     1      15.069   8.121  24.366  1.00  0.00     0.001 A 
ATOM     36  C   UNL     1      12.813   8.866  24.815  1.00  0.00     0.001 A 
ATOM     37  C   UNL     1      14.185   8.945  25.065  1.00  0.00     0.000 A 
ENDBRANCH  25  32
ENDBRANCH   1  17
TORSDOF 9
ENDMDL
MODEL 5
REMARK VINA RESULT:    -6.010      1.615      3.308
REMARK INTER + INTRA:          -9.676
REMARK INTER:                  -8.123
REMARK INTRA:                  -1.553
REMARK UNBOUND:                -1.206
REMARK SMILES COc1c(O[C@@H]2O[C@H](C(=O)[O-])[C@H](O)[C@H](O)[C@@H]2O)cc(O)c2c(=O)cc(-c3ccccc3)oc12
REMARK SMILES IDX 5 1 6 2 8 3 12 4 7 5 14 6 16 7 9 8 10 9 11 10 13 11 15 13
REMARK SMILES IDX 17 15 4 17 3 18 18 19 33 20 19 21 21 22 32 23 22 24 25 25
REMARK SMILES IDX 24 26 23 27 2 28 1 29 20 30 26 32 27 33 31 34 28 35 30 36
REMARK SMILES IDX 29 37
REMARK H PARENT 13 12 15 14 17 16 20 31
REMARK Flexibility Score: inf
ROOT
ATOM      1  O   UNL     1      11.684  15.448  24.486  1.00  0.00    -0.458 OA
ENDROOT
BRANCH   1   2
ATOM      2  C   UNL     1      11.040  16.403  25.334  1.00  0.00     0.339 C 
ATOM      3  C   UNL     1      10.913  16.861  27.640  1.00  0.00     0.199 C 
ATOM      4  C   UNL     1       9.846  15.790  27.983  1.00  0.00     0.180 C 
ATOM      5  O   UNL     1      11.725  16.390  26.582  1.00  0.00    -0.328 OA
ATOM      6  C   UNL     1       9.220  15.198  26.683  1.00  0.00     0.181 C 
ATOM      7  C   UNL     1       9.509  16.085  25.455  1.00  0.00     0.214 C 
BRANCH   3   8
ATOM      8  C   UNL     1      11.771  17.213  28.826  1.00  0.00     0.073 C 
ATOM      9  O   UNL     1      11.256  17.310  29.973  1.00  0.00    -0.547 OA
ATOM     10  O   UNL     1      13.148  17.351  28.686  1.00  0.00    -0.547 OA
ENDBRANCH   3   8
BRANCH   4  11
ATOM     11  O   UNL     1      10.427  14.761  28.750  1.00  0.00    -0.387 OA
ATOM     12  H   UNL     1      11.088  15.172  29.368  1.00  0.00     0.211 HD
ENDBRANCH   4  11
BRANCH   6  13
ATOM     13  O   UNL     1       9.629  13.868  26.450  1.00  0.00    -0.387 OA
ATOM     14  H   UNL     1       9.222  13.299  27.153  1.00  0.00     0.211 HD
ENDBRANCH   6  13
BRANCH   7  15
ATOM     15  O   UNL     1       9.006  15.473  24.296  1.00  0.00    -0.384 OA
ATOM     16  H   UNL     1       8.719  14.559  24.553  1.00  0.00     0.211 HD
ENDBRANCH   7  15
ENDBRANCH   1   2
BRANCH   1  17
ATOM     17  C   UNL     1      12.968  14.938  24.721  1.00  0.00     0.172 A 
ATOM     18  C   UNL     1      13.107  13.575  25.001  1.00  0.00     0.205 A 
ATOM     19  C   UNL     1      14.085  15.775  24.688  1.00  0.00     0.097 A 
ATOM     20  C   UNL     1      14.406  13.029  25.163  1.00  0.00     0.188 A 
ATOM     21  C   UNL     1      15.359  15.277  24.945  1.00  0.00     0.134 A 
ATOM     22  C   UNL     1      15.546  13.877  25.101  1.00  0.00     0.111 A 
ATOM     23  O   UNL     1      14.563  11.722  25.359  1.00  0.00    -0.452 OA
ATOM     24  C   UNL     1      16.817  13.261  25.140  1.00  0.00     0.197 A 
ATOM     25  C   UNL     1      15.747  11.120  25.455  1.00  0.00     0.138 A 
ATOM     26  C   UNL     1      16.914  11.885  25.329  1.00  0.00     0.100 A 
ATOM     27  O   UNL     1      17.876  13.914  24.950  1.00  0.00    -0.289 OA
BRANCH  18  28
ATOM     28  O   UNL     1      11.920  12.822  25.062  1.00  0.00    -0.490 OA
ATOM     29  C   UNL     1      11.373  12.029  24.017  1.00  0.00     0.278 C 
ENDBRANCH  18  28
BRANCH  21  30
ATOM     30  O   UNL     1      16.393  16.207  25.087  1.00  0.00    -0.507 OA
ATOM     31  H   UNL     1      17.029  16.432  24.330  1.00  0.00     0.293 HD
ENDBRANCH  21  30
BRANCH  25  32
ATOM     32  C   UNL     1      15.799   9.641  25.627  1.00  0.00     0.017 A 
ATOM     33  C   UNL     1      14.641   8.878  25.900  1.00  0.00     0.012 A 
ATOM     34  C   UNL     1      17.034   8.975  25.533  1.00  0.00     0.012 A 
ATOM     35  C   UNL     1      14.731   7.495  26.105  1.00  0.00     0.001 A 
ATOM     36  C   UNL     1      17.117   7.593  25.729  1.00  0.00     0.001 A 
ATOM     37  C   UNL     1      15.969   6.855  26.027  1.00  0.00     0.000 A 
ENDBRANCH  25  32
ENDBRANCH   1  17
TORSDOF 9
ENDMDL
MODEL 6
REMARK VINA RESULT:    -5.965     11.632     15.505
REMARK INTER + INTRA:          -9.612
REMARK INTER:                  -8.261
REMARK INTRA:                  -1.350
REMARK UNBOUND:                -1.206
REMARK SMILES COc1c(O[C@@H]2O[C@H](C(=O)[O-])[C@H](O)[C@H](O)[C@@H]2O)cc(O)c2c(=O)cc(-c3ccccc3)oc12
REMARK SMILES IDX 5 1 6 2 8 3 12 4 7 5 14 6 16 7 9 8 10 9 11 10 13 11 15 13
REMARK SMILES IDX 17 15 4 17 3 18 18 19 33 20 19 21 21 22 32 23 22 24 25 25
REMARK SMILES IDX 24 26 23 27 2 28 1 29 20 30 26 32 27 33 31 34 28 35 30 36
REMARK SMILES IDX 29 37
REMARK H PARENT 13 12 15 14 17 16 20 31
REMARK Flexibility Score: inf
ROOT
ATOM      1  O   UNL     1      13.921  -0.264  17.821  1.00  0.00    -0.458 OA
ENDROOT
BRANCH   1   2
ATOM      2  C   UNL     1      15.118  -0.810  18.381  1.00  0.00     0.339 C 
ATOM      3  C   UNL     1      16.517  -0.381  20.225  1.00  0.00     0.199 C 
ATOM      4  C   UNL     1      17.311   0.788  19.588  1.00  0.00     0.180 C 
ATOM      5  O   UNL     1      15.192  -0.369  19.733  1.00  0.00    -0.328 OA
ATOM      6  C   UNL     1      17.015   0.888  18.060  1.00  0.00     0.181 C 
ATOM      7  C   UNL     1      16.363  -0.401  17.520  1.00  0.00     0.214 C 
BRANCH   3   8
ATOM      8  C   UNL     1      16.505  -0.310  21.730  1.00  0.00     0.073 C 
ATOM      9  O   UNL     1      15.475  -0.650  22.371  1.00  0.00    -0.547 OA
ATOM     10  O   UNL     1      17.653   0.049  22.428  1.00  0.00    -0.547 OA
ENDBRANCH   3   8
BRANCH   4  11
ATOM     11  O   UNL     1      16.976   2.000  20.224  1.00  0.00    -0.387 OA
ATOM     12  H   UNL     1      16.126   1.863  20.721  1.00  0.00     0.211 HD
ENDBRANCH   4  11
BRANCH   6  13
ATOM     13  O   UNL     1      16.236   2.018  17.738  1.00  0.00    -0.387 OA
ATOM     14  H   UNL     1      16.105   2.026  16.755  1.00  0.00     0.211 HD
ENDBRANCH   6  13
BRANCH   7  15
ATOM     15  O   UNL     1      16.033  -0.236  16.165  1.00  0.00    -0.384 OA
ATOM     16  H   UNL     1      16.881  -0.283  15.653  1.00  0.00     0.211 HD
ENDBRANCH   7  15
ENDBRANCH   1   2
BRANCH   1  17
ATOM     17  C   UNL     1      13.047   0.578  18.520  1.00  0.00     0.172 A 
ATOM     18  C   UNL     1      12.838   1.875  18.041  1.00  0.00     0.205 A 
ATOM     19  C   UNL     1      12.406   0.138  19.680  1.00  0.00     0.097 A 
ATOM     20  C   UNL     1      11.897   2.713  18.692  1.00  0.00     0.188 A 
ATOM     21  C   UNL     1      11.556   0.980  20.392  1.00  0.00     0.134 A 
ATOM     22  C   UNL     1      11.223   2.253  19.858  1.00  0.00     0.111 A 
ATOM     23  O   UNL     1      11.631   3.924  18.209  1.00  0.00    -0.452 OA
ATOM     24  C   UNL     1      10.205   3.078  20.387  1.00  0.00     0.197 A 
ATOM     25  C   UNL     1      10.717   4.746  18.720  1.00  0.00     0.138 A 
ATOM     26  C   UNL     1       9.963   4.328  19.824  1.00  0.00     0.100 A 
ATOM     27  O   UNL     1       9.462   2.692  21.328  1.00  0.00    -0.289 OA
BRANCH  18  28
ATOM     28  O   UNL     1      13.565   2.246  16.894  1.00  0.00    -0.490 OA
ATOM     29  C   UNL     1      13.103   2.191  15.551  1.00  0.00     0.278 C 
ENDBRANCH  18  28
BRANCH  21  30
ATOM     30  O   UNL     1      11.112   0.534  21.640  1.00  0.00    -0.507 OA
ATOM     31  H   UNL     1      11.340   1.018  22.502  1.00  0.00     0.293 HD
ENDBRANCH  21  30
BRANCH  25  32
ATOM     32  C   UNL     1      10.473   6.061  18.063  1.00  0.00     0.017 A 
ATOM     33  C   UNL     1       9.502   6.223  17.048  1.00  0.00     0.012 A 
ATOM     34  C   UNL     1      11.237   7.180  18.443  1.00  0.00     0.012 A 
ATOM     35  C   UNL     1       9.331   7.461  16.416  1.00  0.00     0.001 A 
ATOM     36  C   UNL     1      11.056   8.416  17.815  1.00  0.00     0.001 A 
ATOM     37  C   UNL     1      10.113   8.553  16.795  1.00  0.00     0.000 A 
ENDBRANCH  25  32
ENDBRANCH   1  17
TORSDOF 9
ENDMDL
MODEL 7
REMARK VINA RESULT:    -5.960     10.656     14.953
REMARK INTER + INTRA:          -9.604
REMARK INTER:                  -8.484
REMARK INTRA:                  -1.120
REMARK UNBOUND:                -1.206
REMARK SMILES COc1c(O[C@@H]2O[C@H](C(=O)[O-])[C@H](O)[C@H](O)[C@@H]2O)cc(O)c2c(=O)cc(-c3ccccc3)oc12
REMARK SMILES IDX 5 1 6 2 8 3 12 4 7 5 14 6 16 7 9 8 10 9 11 10 13 11 15 13
REMARK SMILES IDX 17 15 4 17 3 18 18 19 33 20 19 21 21 22 32 23 22 24 25 25
REMARK SMILES IDX 24 26 23 27 2 28 1 29 20 30 26 32 27 33 31 34 28 35 30 36
REMARK SMILES IDX 29 37
REMARK H PARENT 13 12 15 14 17 16 20 31
REMARK Flexibility Score: inf
ROOT
ATOM      1  O   UNL     1      12.880   0.367  17.299  1.00  0.00    -0.458 OA
ENDROOT
BRANCH   1   2
ATOM      2  C   UNL     1      13.075  -0.698  18.234  1.00  0.00     0.339 C 
ATOM      3  C   UNL     1      14.472  -1.148  20.075  1.00  0.00     0.199 C 
ATOM      4  C   UNL     1      15.714  -1.593  19.262  1.00  0.00     0.180 C 
ATOM      5  O   UNL     1      13.771  -0.156  19.352  1.00  0.00    -0.328 OA
ATOM      6  C   UNL     1      15.347  -1.792  17.759  1.00  0.00     0.181 C 
ATOM      7  C   UNL     1      13.822  -1.897  17.553  1.00  0.00     0.214 C 
BRANCH   3   8
ATOM      8  C   UNL     1      14.840  -0.625  21.438  1.00  0.00     0.073 C 
ATOM      9  O   UNL     1      14.097   0.215  22.016  1.00  0.00    -0.547 OA
ATOM     10  O   UNL     1      15.953  -1.121  22.108  1.00  0.00    -0.547 OA
ENDBRANCH   3   8
BRANCH   4  11
ATOM     11  O   UNL     1      16.738  -0.633  19.384  1.00  0.00    -0.387 OA
ATOM     12  H   UNL     1      16.361   0.164  19.841  1.00  0.00     0.211 HD
ENDBRANCH   4  11
BRANCH   6  13
ATOM     13  O   UNL     1      15.898  -0.789  16.935  1.00  0.00    -0.387 OA
ATOM     14  H   UNL     1      16.176  -0.037  17.519  1.00  0.00     0.211 HD
ENDBRANCH   6  13
BRANCH   7  15
ATOM     15  O   UNL     1      13.531  -1.986  16.182  1.00  0.00    -0.384 OA
ATOM     16  H   UNL     1      13.353  -2.941  15.986  1.00  0.00     0.211 HD
ENDBRANCH   7  15
ENDBRANCH   1   2
BRANCH   1  17
ATOM     17  C   UNL     1      13.441   1.643  17.442  1.00  0.00     0.172 A 
ATOM     18  C   UNL     1      12.713   2.624  18.121  1.00  0.00     0.205 A 
ATOM     19  C   UNL     1      14.698   1.933  16.905  1.00  0.00     0.097 A 
ATOM     20  C   UNL     1      13.300   3.896  18.342  1.00  0.00     0.188 A 
ATOM     21  C   UNL     1      15.248   3.206  17.023  1.00  0.00     0.134 A 
ATOM     22  C   UNL     1      14.593   4.182  17.820  1.00  0.00     0.111 A 
ATOM     23  O   UNL     1      12.652   4.819  19.049  1.00  0.00    -0.452 OA
ATOM     24  C   UNL     1      15.179   5.416  18.180  1.00  0.00     0.197 A 
ATOM     25  C   UNL     1      13.158   6.012  19.357  1.00  0.00     0.138 A 
ATOM     26  C   UNL     1      14.455   6.332  18.938  1.00  0.00     0.100 A 
ATOM     27  O   UNL     1      16.371   5.694  17.883  1.00  0.00    -0.289 OA
BRANCH  18  28
ATOM     28  O   UNL     1      11.437   2.253  18.583  1.00  0.00    -0.490 OA
ATOM     29  C   UNL     1      11.081   1.959  19.927  1.00  0.00     0.278 C 
ENDBRANCH  18  28
BRANCH  21  30
ATOM     30  O   UNL     1      16.412   3.470  16.294  1.00  0.00    -0.507 OA
ATOM     31  H   UNL     1      16.557   3.114  15.356  1.00  0.00     0.293 HD
ENDBRANCH  21  30
BRANCH  25  32
ATOM     32  C   UNL     1      12.357   6.946  20.196  1.00  0.00     0.017 A 
ATOM     33  C   UNL     1      12.674   7.196  21.551  1.00  0.00     0.012 A 
ATOM     34  C   UNL     1      11.238   7.594  19.640  1.00  0.00     0.012 A 
ATOM     35  C   UNL     1      11.871   8.042  22.326  1.00  0.00     0.001 A 
ATOM     36  C   UNL     1      10.446   8.445  20.416  1.00  0.00     0.001 A 
ATOM     37  C   UNL     1      10.755   8.659  21.761  1.00  0.00     0.000 A 
ENDBRANCH  25  32
ENDBRANCH   1  17
TORSDOF 9
ENDMDL
MODEL 8
REMARK VINA RESULT:    -5.908      1.825      3.501
REMARK INTER + INTRA:          -9.532
REMARK INTER:                  -7.983
REMARK INTRA:                  -1.549
REMARK UNBOUND:                -1.206
REMARK SMILES COc1c(O[C@@H]2O[C@H](C(=O)[O-])[C@H](O)[C@H](O)[C@@H]2O)cc(O)c2c(=O)cc(-c3ccccc3)oc12
REMARK SMILES IDX 5 1 6 2 8 3 12 4 7 5 14 6 16 7 9 8 10 9 11 10 13 11 15 13
REMARK SMILES IDX 17 15 4 17 3 18 18 19 33 20 19 21 21 22 32 23 22 24 25 25
REMARK SMILES IDX 24 26 23 27 2 28 1 29 20 30 26 32 27 33 31 34 28 35 30 36
REMARK SMILES IDX 29 37
REMARK H PARENT 13 12 15 14 17 16 20 31
REMARK Flexibility Score: inf
ROOT
ATOM      1  O   UNL     1      12.439  15.582  27.648  1.00  0.00    -0.458 OA
ENDROOT
BRANCH   1   2
ATOM      2  C   UNL     1      11.771  16.521  26.802  1.00  0.00     0.339 C 
ATOM      3  C   UNL     1      11.136  16.662  24.539  1.00  0.00     0.199 C 
ATOM      4  C   UNL     1      12.516  17.099  23.986  1.00  0.00     0.180 C 
ATOM      5  O   UNL     1      11.326  15.810  25.650  1.00  0.00    -0.328 OA
ATOM      6  C   UNL     1      13.480  17.487  25.149  1.00  0.00     0.181 C 
ATOM      7  C   UNL     1      12.715  17.727  26.467  1.00  0.00     0.214 C 
BRANCH   3   8
ATOM      8  C   UNL     1      10.298  15.968  23.498  1.00  0.00     0.073 C 
ATOM      9  O   UNL     1       9.547  16.639  22.739  1.00  0.00    -0.547 OA
ATOM     10  O   UNL     1      10.405  14.594  23.307  1.00  0.00    -0.547 OA
ENDBRANCH   3   8
BRANCH   4  11
ATOM     11  O   UNL     1      13.080  16.057  23.221  1.00  0.00    -0.387 OA
ATOM     12  H   UNL     1      13.745  16.455  22.601  1.00  0.00     0.211 HD
ENDBRANCH   4  11
BRANCH   6  13
ATOM     13  O   UNL     1      14.509  16.541  25.331  1.00  0.00    -0.387 OA
ATOM     14  H   UNL     1      14.091  15.642  25.372  1.00  0.00     0.211 HD
ENDBRANCH   6  13
BRANCH   7  15
ATOM     15  O   UNL     1      13.624  17.986  27.505  1.00  0.00    -0.384 OA
ATOM     16  H   UNL     1      13.126  17.886  28.357  1.00  0.00     0.211 HD
ENDBRANCH   7  15
ENDBRANCH   1   2
BRANCH   1  17
ATOM     17  C   UNL     1      12.203  14.201  27.620  1.00  0.00     0.172 A 
ATOM     18  C   UNL     1      13.199  13.360  27.111  1.00  0.00     0.205 A 
ATOM     19  C   UNL     1      10.994  13.673  28.080  1.00  0.00     0.097 A 
ATOM     20  C   UNL     1      13.007  11.956  27.148  1.00  0.00     0.188 A 
ATOM     21  C   UNL     1      10.746  12.305  28.030  1.00  0.00     0.134 A 
ATOM     22  C   UNL     1      11.786  11.418  27.643  1.00  0.00     0.111 A 
ATOM     23  O   UNL     1      13.972  11.137  26.735  1.00  0.00    -0.452 OA
ATOM     24  C   UNL     1      11.702  10.014  27.776  1.00  0.00     0.197 A 
ATOM     25  C   UNL     1      13.899   9.809  26.797  1.00  0.00     0.138 A 
ATOM     26  C   UNL     1      12.755   9.213  27.342  1.00  0.00     0.100 A 
ATOM     27  O   UNL     1      10.720   9.459  28.335  1.00  0.00    -0.289 OA
BRANCH  18  28
ATOM     28  O   UNL     1      14.362  13.987  26.626  1.00  0.00    -0.490 OA
ATOM     29  C   UNL     1      15.614  14.067  27.293  1.00  0.00     0.278 C 
ENDBRANCH  18  28
BRANCH  21  30
ATOM     30  O   UNL     1       9.447  11.879  28.322  1.00  0.00    -0.507 OA
ATOM     31  H   UNL     1       8.709  12.525  28.579  1.00  0.00     0.293 HD
ENDBRANCH  21  30
BRANCH  25  32
ATOM     32  C   UNL     1      15.064   8.995  26.348  1.00  0.00     0.017 A 
ATOM     33  C   UNL     1      15.028   7.583  26.331  1.00  0.00     0.012 A 
ATOM     34  C   UNL     1      16.246   9.641  25.941  1.00  0.00     0.012 A 
ATOM     35  C   UNL     1      16.156   6.846  25.951  1.00  0.00     0.001 A 
ATOM     36  C   UNL     1      17.367   8.900  25.554  1.00  0.00     0.001 A 
ATOM     37  C   UNL     1      17.326   7.505  25.569  1.00  0.00     0.000 A 
ENDBRANCH  25  32
ENDBRANCH   1  17
TORSDOF 9
ENDMDL
MODEL 9
REMARK VINA RESULT:    -5.902     12.028     16.049
REMARK INTER + INTRA:          -9.524
REMARK INTER:                  -7.960
REMARK INTRA:                  -1.564
REMARK UNBOUND:                -1.206
REMARK SMILES COc1c(O[C@@H]2O[C@H](C(=O)[O-])[C@H](O)[C@H](O)[C@@H]2O)cc(O)c2c(=O)cc(-c3ccccc3)oc12
REMARK SMILES IDX 5 1 6 2 8 3 12 4 7 5 14 6 16 7 9 8 10 9 11 10 13 11 15 13
REMARK SMILES IDX 17 15 4 17 3 18 18 19 33 20 19 21 21 22 32 23 22 24 25 25
REMARK SMILES IDX 24 26 23 27 2 28 1 29 20 30 26 32 27 33 31 34 28 35 30 36
REMARK SMILES IDX 29 37
REMARK H PARENT 13 12 15 14 17 16 20 31
REMARK Flexibility Score: inf
ROOT
ATOM      1  O   UNL     1      16.558   1.680  16.370  1.00  0.00    -0.458 OA
ENDROOT
BRANCH   1   2
ATOM      2  C   UNL     1      16.843   0.499  17.123  1.00  0.00     0.339 C 
ATOM      3  C   UNL     1      15.937  -0.627  18.983  1.00  0.00     0.199 C 
ATOM      4  C   UNL     1      16.587   0.263  20.073  1.00  0.00     0.180 C 
ATOM      5  O   UNL     1      15.660   0.160  17.841  1.00  0.00    -0.328 OA
ATOM      6  C   UNL     1      17.670   1.196  19.450  1.00  0.00     0.181 C 
ATOM      7  C   UNL     1      18.092   0.723  18.044  1.00  0.00     0.214 C 
BRANCH   3   8
ATOM      8  C   UNL     1      14.675  -1.290  19.466  1.00  0.00     0.073 C 
ATOM      9  O   UNL     1      13.754  -1.569  18.651  1.00  0.00    -0.547 OA
ATOM     10  O   UNL     1      14.545  -1.678  20.796  1.00  0.00    -0.547 OA
ENDBRANCH   3   8
BRANCH   4  11
ATOM     11  O   UNL     1      15.600   1.034  20.717  1.00  0.00    -0.387 OA
ATOM     12  H   UNL     1      15.315   1.754  20.094  1.00  0.00     0.211 HD
ENDBRANCH   4  11
BRANCH   6  13
ATOM     13  O   UNL     1      17.264   2.546  19.424  1.00  0.00    -0.387 OA
ATOM     14  H   UNL     1      17.432   2.896  18.511  1.00  0.00     0.211 HD
ENDBRANCH   6  13
BRANCH   7  15
ATOM     15  O   UNL     1      18.999   1.637  17.485  1.00  0.00    -0.384 OA
ATOM     16  H   UNL     1      19.669   1.845  18.186  1.00  0.00     0.211 HD
ENDBRANCH   7  15
ENDBRANCH   1   2
BRANCH   1  17
ATOM     17  C   UNL     1      15.299   1.978  15.832  1.00  0.00     0.172 A 
ATOM     18  C   UNL     1      14.552   3.013  16.404  1.00  0.00     0.205 A 
ATOM     19  C   UNL     1      14.792   1.248  14.754  1.00  0.00     0.097 A 
ATOM     20  C   UNL     1      13.312   3.377  15.822  1.00  0.00     0.188 A 
ATOM     21  C   UNL     1      13.532   1.524  14.233  1.00  0.00     0.134 A 
ATOM     22  C   UNL     1      12.810   2.652  14.706  1.00  0.00     0.111 A 
ATOM     23  O   UNL     1      12.621   4.406  16.308  1.00  0.00    -0.452 OA
ATOM     24  C   UNL     1      11.635   3.140  14.089  1.00  0.00     0.197 A 
ATOM     25  C   UNL     1      11.482   4.854  15.782  1.00  0.00     0.138 A 
ATOM     26  C   UNL     1      10.969   4.232  14.636  1.00  0.00     0.100 A 
ATOM     27  O   UNL     1      11.198   2.649  13.015  1.00  0.00    -0.289 OA
BRANCH  18  28
ATOM     28  O   UNL     1      15.123   3.657  17.517  1.00  0.00    -0.490 OA
ATOM     29  C   UNL     1      15.731   4.942  17.524  1.00  0.00     0.278 C 
ENDBRANCH  18  28
BRANCH  21  30
ATOM     30  O   UNL     1      13.018   0.627  13.291  1.00  0.00    -0.507 OA
ATOM     31  H   UNL     1      12.543  -0.228  13.558  1.00  0.00     0.293 HD
ENDBRANCH  21  30
BRANCH  25  32
ATOM     32  C   UNL     1      10.822   6.046  16.384  1.00  0.00     0.017 A 
ATOM     33  C   UNL     1       9.543   6.482  15.971  1.00  0.00     0.012 A 
ATOM     34  C   UNL     1      11.489   6.777  17.384  1.00  0.00     0.012 A 
ATOM     35  C   UNL     1       8.970   7.635  16.523  1.00  0.00     0.001 A 
ATOM     36  C   UNL     1      10.909   7.922  17.938  1.00  0.00     0.001 A 
ATOM     37  C   UNL     1       9.657   8.358  17.500  1.00  0.00     0.000 A 
ENDBRANCH  25  32
ENDBRANCH   1  17
TORSDOF 9
ENDMDL
