MODEL 1
REMARK VINA RESULT:    -6.743      0.000      0.000
REMARK INTER + INTRA:          -8.887
REMARK INTER:                  -8.517
REMARK INTRA:                  -0.370
REMARK UNBOUND:                -0.370
REMARK SMILES Oc1cc(O)cc(CCc2ccccc2O)c1
REMARK SMILES IDX 9 1 10 2 12 3 13 4 11 5 14 6 15 7 16 8 8 10 7 11 6 12 17 13
REMARK SMILES IDX 4 14 2 15 3 16 5 17 1 19
REMARK H PARENT 16 9 5 18 1 20
REMARK Flexibility Score: inf
ROOT
ATOM      1  C   UNL     1       9.413   4.852  -4.598  1.00  0.00     0.044 C 
ENDROOT
BRANCH   1   2
ATOM      2  C   UNL     1       9.391   4.512  -3.114  1.00  0.00    -0.006 A 
ATOM      3  C   UNL     1       8.533   4.832  -0.848  1.00  0.00     0.001 A 
ATOM      4  C   UNL     1       9.391   3.842  -0.374  1.00  0.00     0.004 A 
ATOM      5  C   UNL     1       8.530   5.167  -2.204  1.00  0.00     0.007 A 
ATOM      6  C   UNL     1      10.247   3.182  -1.253  1.00  0.00     0.046 A 
ATOM      7  C   UNL     1      10.258   3.505  -2.616  1.00  0.00     0.118 A 
BRANCH   7   8
ATOM      8  O   UNL     1      11.141   2.808  -3.443  1.00  0.00    -0.508 OA
ATOM      9  H   UNL     1      10.842   2.234  -4.221  1.00  0.00     0.293 HD
ENDBRANCH   7   8
ENDBRANCH   1   2
BRANCH   1  10
ATOM     10  C   UNL     1      10.677   5.562  -5.106  1.00  0.00     0.040 C 
BRANCH  10  11
ATOM     11  C   UNL     1      10.386   7.010  -5.397  1.00  0.00    -0.040 A 
ATOM     12  C   UNL     1      10.729   7.566  -6.642  1.00  0.00     0.050 A 
ATOM     13  C   UNL     1       9.824   7.833  -4.408  1.00  0.00     0.050 A 
ATOM     14  C   UNL     1      10.491   8.922  -6.902  1.00  0.00     0.119 A 
ATOM     15  C   UNL     1       9.584   9.190  -4.668  1.00  0.00     0.119 A 
ATOM     16  C   UNL     1       9.916   9.729  -5.915  1.00  0.00     0.092 A 
BRANCH  14  17
ATOM     17  O   UNL     1      10.822   9.476  -8.136  1.00  0.00    -0.508 OA
ATOM     18  H   UNL     1      11.771   9.756  -8.354  1.00  0.00     0.293 HD
ENDBRANCH  14  17
BRANCH  15  19
ATOM     19  O   UNL     1       9.020  10.011  -3.694  1.00  0.00    -0.508 OA
ATOM     20  H   UNL     1       9.260   9.911  -2.714  1.00  0.00     0.293 HD
ENDBRANCH  15  19
ENDBRANCH  10  11
ENDBRANCH   1  10
TORSDOF 6
ENDMDL
MODEL 2
REMARK VINA RESULT:    -6.708      0.060      2.031
REMARK INTER + INTRA:          -8.843
REMARK INTER:                  -8.500
REMARK INTRA:                  -0.343
REMARK UNBOUND:                -0.370
REMARK SMILES Oc1cc(O)cc(CCc2ccccc2O)c1
REMARK SMILES IDX 9 1 10 2 12 3 13 4 11 5 14 6 15 7 16 8 8 10 7 11 6 12 17 13
REMARK SMILES IDX 4 14 2 15 3 16 5 17 1 19
REMARK H PARENT 16 9 5 18 1 20
REMARK Flexibility Score: inf
ROOT
ATOM      1  C   UNL     1       9.420   4.893  -4.605  1.00  0.00     0.044 C 
ENDROOT
BRANCH   1   2
ATOM      2  C   UNL     1       9.397   4.538  -3.125  1.00  0.00    -0.006 A 
ATOM      3  C   UNL     1       8.534   4.830  -0.857  1.00  0.00     0.001 A 
ATOM      4  C   UNL     1       9.396   3.839  -0.392  1.00  0.00     0.004 A 
ATOM      5  C   UNL     1       8.531   5.180  -2.209  1.00  0.00     0.007 A 
ATOM      6  C   UNL     1      10.257   3.194  -1.276  1.00  0.00     0.046 A 
ATOM      7  C   UNL     1      10.269   3.531  -2.636  1.00  0.00     0.118 A 
BRANCH   7   8
ATOM      8  O   UNL     1      11.156   2.846  -3.469  1.00  0.00    -0.508 OA
ATOM      9  H   UNL     1      12.111   2.633  -3.213  1.00  0.00     0.293 HD
ENDBRANCH   7   8
ENDBRANCH   1   2
BRANCH   1  10
ATOM     10  C   UNL     1      10.691   5.594  -5.108  1.00  0.00     0.040 C 
BRANCH  10  11
ATOM     11  C   UNL     1      10.422   7.054  -5.362  1.00  0.00    -0.040 A 
ATOM     12  C   UNL     1       9.813   7.846  -4.374  1.00  0.00     0.050 A 
ATOM     13  C   UNL     1      10.724   7.623  -6.610  1.00  0.00     0.050 A 
ATOM     14  C   UNL     1       9.530   9.196  -4.623  1.00  0.00     0.119 A 
ATOM     15  C   UNL     1      10.442   8.974  -6.859  1.00  0.00     0.119 A 
ATOM     16  C   UNL     1       9.849   9.756  -5.863  1.00  0.00     0.092 A 
BRANCH  14  17
ATOM     17  O   UNL     1       8.933   9.987  -3.644  1.00  0.00    -0.508 OA
ATOM     18  H   UNL     1       9.313  10.048  -2.707  1.00  0.00     0.293 HD
ENDBRANCH  14  17
BRANCH  15  19
ATOM     19  O   UNL     1      10.745   9.547  -8.093  1.00  0.00    -0.508 OA
ATOM     20  H   UNL     1      10.243  10.359  -8.437  1.00  0.00     0.293 HD
ENDBRANCH  15  19
ENDBRANCH  10  11
ENDBRANCH   1  10
TORSDOF 6
ENDMDL
MODEL 3
REMARK VINA RESULT:    -6.615      2.566      5.759
REMARK INTER + INTRA:          -8.725
REMARK INTER:                  -8.056
REMARK INTRA:                  -0.669
REMARK UNBOUND:                -0.370
REMARK SMILES Oc1cc(O)cc(CCc2ccccc2O)c1
REMARK SMILES IDX 9 1 10 2 12 3 13 4 11 5 14 6 15 7 16 8 8 10 7 11 6 12 17 13
REMARK SMILES IDX 4 14 2 15 3 16 5 17 1 19
REMARK H PARENT 16 9 5 18 1 20
REMARK Flexibility Score: inf
ROOT
ATOM      1  C   UNL     1       8.437   8.026  -1.003  1.00  0.00     0.044 C 
ENDROOT
BRANCH   1   2
ATOM      2  C   UNL     1       7.718   8.698  -2.165  1.00  0.00    -0.006 A 
ATOM      3  C   UNL     1       5.693   9.548  -3.237  1.00  0.00     0.001 A 
ATOM      4  C   UNL     1       6.437   9.950  -4.344  1.00  0.00     0.004 A 
ATOM      5  C   UNL     1       6.322   8.928  -2.155  1.00  0.00     0.007 A 
ATOM      6  C   UNL     1       7.813   9.734  -4.374  1.00  0.00     0.046 A 
ATOM      7  C   UNL     1       8.462   9.114  -3.299  1.00  0.00     0.118 A 
BRANCH   7   8
ATOM      8  O   UNL     1       9.843   8.927  -3.392  1.00  0.00    -0.508 OA
ATOM      9  H   UNL     1      10.315   8.665  -4.247  1.00  0.00     0.293 HD
ENDBRANCH   7   8
ENDBRANCH   1   2
BRANCH   1  10
ATOM     10  C   UNL     1       8.235   6.509  -0.876  1.00  0.00     0.040 C 
BRANCH  10  11
ATOM     11  C   UNL     1       9.185   5.773  -1.784  1.00  0.00    -0.040 A 
ATOM     12  C   UNL     1      10.566   6.020  -1.716  1.00  0.00     0.050 A 
ATOM     13  C   UNL     1       8.693   4.878  -2.747  1.00  0.00     0.050 A 
ATOM     14  C   UNL     1      11.447   5.362  -2.585  1.00  0.00     0.119 A 
ATOM     15  C   UNL     1       9.574   4.218  -3.616  1.00  0.00     0.119 A 
ATOM     16  C   UNL     1      10.948   4.461  -3.530  1.00  0.00     0.092 A 
BRANCH  14  17
ATOM     17  O   UNL     1      12.818   5.597  -2.516  1.00  0.00    -0.508 OA
ATOM     18  H   UNL     1      13.299   5.681  -1.628  1.00  0.00     0.293 HD
ENDBRANCH  14  17
BRANCH  15  19
ATOM     19  O   UNL     1       9.093   3.323  -4.570  1.00  0.00    -0.508 OA
ATOM     20  H   UNL     1       9.704   2.921  -5.273  1.00  0.00     0.293 HD
ENDBRANCH  15  19
ENDBRANCH  10  11
ENDBRANCH   1  10
TORSDOF 6
ENDMDL
MODEL 4
REMARK VINA RESULT:    -6.602      3.666      6.279
REMARK INTER + INTRA:          -8.709
REMARK INTER:                  -8.301
REMARK INTRA:                  -0.408
REMARK UNBOUND:                -0.370
REMARK SMILES Oc1cc(O)cc(CCc2ccccc2O)c1
REMARK SMILES IDX 9 1 10 2 12 3 13 4 11 5 14 6 15 7 16 8 8 10 7 11 6 12 17 13
REMARK SMILES IDX 4 14 2 15 3 16 5 17 1 19
REMARK H PARENT 16 9 5 18 1 20
REMARK Flexibility Score: inf
ROOT
ATOM      1  C   UNL     1       8.326   8.258  -1.465  1.00  0.00     0.044 C 
ENDROOT
BRANCH   1   2
ATOM      2  C   UNL     1       7.023   9.043  -1.449  1.00  0.00    -0.006 A 
ATOM      3  C   UNL     1       4.864   9.646  -2.423  1.00  0.00     0.001 A 
ATOM      4  C   UNL     1       4.623  10.523  -1.368  1.00  0.00     0.004 A 
ATOM      5  C   UNL     1       6.051   8.911  -2.467  1.00  0.00     0.007 A 
ATOM      6  C   UNL     1       5.566  10.668  -0.353  1.00  0.00     0.046 A 
ATOM      7  C   UNL     1       6.762   9.940  -0.380  1.00  0.00     0.118 A 
BRANCH   7   8
ATOM      8  O   UNL     1       7.665  10.132   0.667  1.00  0.00    -0.508 OA
ATOM      9  H   UNL     1       8.528   9.612   0.764  1.00  0.00     0.293 HD
ENDBRANCH   7   8
ENDBRANCH   1   2
BRANCH   1  10
ATOM     10  C   UNL     1       8.231   6.789  -1.024  1.00  0.00     0.040 C 
BRANCH  10  11
ATOM     11  C   UNL     1       9.175   5.935  -1.829  1.00  0.00    -0.040 A 
ATOM     12  C   UNL     1      10.562   6.146  -1.754  1.00  0.00     0.050 A 
ATOM     13  C   UNL     1       8.674   4.960  -2.707  1.00  0.00     0.050 A 
ATOM     14  C   UNL     1      11.439   5.375  -2.529  1.00  0.00     0.119 A 
ATOM     15  C   UNL     1       9.550   4.187  -3.482  1.00  0.00     0.119 A 
ATOM     16  C   UNL     1      10.930   4.396  -3.388  1.00  0.00     0.092 A 
BRANCH  14  17
ATOM     17  O   UNL     1      12.815   5.575  -2.453  1.00  0.00    -0.508 OA
ATOM     18  H   UNL     1      13.376   5.720  -3.284  1.00  0.00     0.293 HD
ENDBRANCH  14  17
BRANCH  15  19
ATOM     19  O   UNL     1       9.061   3.214  -4.350  1.00  0.00    -0.508 OA
ATOM     20  H   UNL     1       9.518   3.014  -5.233  1.00  0.00     0.293 HD
ENDBRANCH  15  19
ENDBRANCH  10  11
ENDBRANCH   1  10
TORSDOF 6
ENDMDL
MODEL 5
REMARK VINA RESULT:    -6.557      3.689      6.186
REMARK INTER + INTRA:          -8.652
REMARK INTER:                  -8.234
REMARK INTRA:                  -0.418
REMARK UNBOUND:                -0.370
REMARK SMILES Oc1cc(O)cc(CCc2ccccc2O)c1
REMARK SMILES IDX 9 1 10 2 12 3 13 4 11 5 14 6 15 7 16 8 8 10 7 11 6 12 17 13
REMARK SMILES IDX 4 14 2 15 3 16 5 17 1 19
REMARK H PARENT 16 9 5 18 1 20
REMARK Flexibility Score: inf
ROOT
ATOM      1  C   UNL     1       8.356   8.300  -1.395  1.00  0.00     0.044 C 
ENDROOT
BRANCH   1   2
ATOM      2  C   UNL     1       7.038   9.061  -1.408  1.00  0.00    -0.006 A 
ATOM      3  C   UNL     1       4.880   9.607  -2.418  1.00  0.00     0.001 A 
ATOM      4  C   UNL     1       4.609  10.496  -1.381  1.00  0.00     0.004 A 
ATOM      5  C   UNL     1       6.081   8.894  -2.436  1.00  0.00     0.007 A 
ATOM      6  C   UNL     1       5.537  10.675  -0.357  1.00  0.00     0.046 A 
ATOM      7  C   UNL     1       6.747   9.970  -0.358  1.00  0.00     0.118 A 
BRANCH   7   8
ATOM      8  O   UNL     1       7.633  10.195   0.697  1.00  0.00    -0.508 OA
ATOM      9  H   UNL     1       7.337  10.353   1.652  1.00  0.00     0.293 HD
ENDBRANCH   7   8
ENDBRANCH   1   2
BRANCH   1  10
ATOM     10  C   UNL     1       8.263   6.800  -1.077  1.00  0.00     0.040 C 
BRANCH  10  11
ATOM     11  C   UNL     1       9.182   6.013  -1.972  1.00  0.00    -0.040 A 
ATOM     12  C   UNL     1       8.661   5.052  -2.855  1.00  0.00     0.050 A 
ATOM     13  C   UNL     1      10.573   6.190  -1.891  1.00  0.00     0.050 A 
ATOM     14  C   UNL     1       9.519   4.295  -3.665  1.00  0.00     0.119 A 
ATOM     15  C   UNL     1      11.432   5.433  -2.701  1.00  0.00     0.119 A 
ATOM     16  C   UNL     1      10.901   4.490  -3.587  1.00  0.00     0.092 A 
BRANCH  14  17
ATOM     17  O   UNL     1       9.007   3.346  -4.547  1.00  0.00    -0.508 OA
ATOM     18  H   UNL     1       8.850   2.386  -4.261  1.00  0.00     0.293 HD
ENDBRANCH  14  17
BRANCH  15  19
ATOM     19  O   UNL     1      12.812   5.608  -2.631  1.00  0.00    -0.508 OA
ATOM     20  H   UNL     1      13.248   6.067  -1.838  1.00  0.00     0.293 HD
ENDBRANCH  15  19
ENDBRANCH  10  11
ENDBRANCH   1  10
TORSDOF 6
ENDMDL
MODEL 6
REMARK VINA RESULT:    -6.518      2.426      5.776
REMARK INTER + INTRA:          -8.603
REMARK INTER:                  -7.945
REMARK INTRA:                  -0.659
REMARK UNBOUND:                -0.370
REMARK SMILES Oc1cc(O)cc(CCc2ccccc2O)c1
REMARK SMILES IDX 9 1 10 2 12 3 13 4 11 5 14 6 15 7 16 8 8 10 7 11 6 12 17 13
REMARK SMILES IDX 4 14 2 15 3 16 5 17 1 19
REMARK H PARENT 16 9 5 18 1 20
REMARK Flexibility Score: inf
ROOT
ATOM      1  C   UNL     1       8.492   8.308  -1.356  1.00  0.00     0.044 C 
ENDROOT
BRANCH   1   2
ATOM      2  C   UNL     1       7.852   8.926  -2.592  1.00  0.00    -0.006 A 
ATOM      3  C   UNL     1       5.912   9.767  -3.816  1.00  0.00     0.001 A 
ATOM      4  C   UNL     1       6.721  10.074  -4.907  1.00  0.00     0.004 A 
ATOM      5  C   UNL     1       6.467   9.199  -2.667  1.00  0.00     0.007 A 
ATOM      6  C   UNL     1       8.089   9.814  -4.855  1.00  0.00     0.046 A 
ATOM      7  C   UNL     1       8.664   9.244  -3.712  1.00  0.00     0.118 A 
BRANCH   7   8
ATOM      8  O   UNL     1      10.041   9.010  -3.724  1.00  0.00    -0.508 OA
ATOM      9  H   UNL     1      10.467   8.167  -3.360  1.00  0.00     0.293 HD
ENDBRANCH   7   8
ENDBRANCH   1   2
BRANCH   1  10
ATOM     10  C   UNL     1       8.227   6.810  -1.141  1.00  0.00     0.040 C 
BRANCH  10  11
ATOM     11  C   UNL     1       9.169   5.983  -1.976  1.00  0.00    -0.040 A 
ATOM     12  C   UNL     1       8.669   4.994  -2.840  1.00  0.00     0.050 A 
ATOM     13  C   UNL     1      10.558   6.153  -1.854  1.00  0.00     0.050 A 
ATOM     14  C   UNL     1       9.547   4.201  -3.591  1.00  0.00     0.119 A 
ATOM     15  C   UNL     1      11.437   5.360  -2.606  1.00  0.00     0.119 A 
ATOM     16  C   UNL     1      10.928   4.388  -3.474  1.00  0.00     0.092 A 
BRANCH  14  17
ATOM     17  O   UNL     1       9.057   3.224  -4.454  1.00  0.00    -0.508 OA
ATOM     18  H   UNL     1       8.307   3.420  -5.106  1.00  0.00     0.293 HD
ENDBRANCH  14  17
BRANCH  15  19
ATOM     19  O   UNL     1      12.815   5.527  -2.496  1.00  0.00    -0.508 OA
ATOM     20  H   UNL     1      13.464   4.867  -2.912  1.00  0.00     0.293 HD
ENDBRANCH  15  19
ENDBRANCH  10  11
ENDBRANCH   1  10
TORSDOF 6
ENDMDL
MODEL 7
REMARK VINA RESULT:    -6.315      1.809      2.320
REMARK INTER + INTRA:          -8.346
REMARK INTER:                  -8.006
REMARK INTRA:                  -0.340
REMARK UNBOUND:                -0.370
REMARK SMILES Oc1cc(O)cc(CCc2ccccc2O)c1
REMARK SMILES IDX 9 1 10 2 12 3 13 4 11 5 14 6 15 7 16 8 8 10 7 11 6 12 17 13
REMARK SMILES IDX 4 14 2 15 3 16 5 17 1 19
REMARK H PARENT 16 9 5 18 1 20
REMARK Flexibility Score: inf
ROOT
ATOM      1  C   UNL     1       8.999   5.475  -4.140  1.00  0.00     0.044 C 
ENDROOT
BRANCH   1   2
ATOM      2  C   UNL     1       9.251   4.728  -2.838  1.00  0.00    -0.006 A 
ATOM      3  C   UNL     1       8.826   4.347  -0.462  1.00  0.00     0.001 A 
ATOM      4  C   UNL     1       9.756   3.310  -0.452  1.00  0.00     0.004 A 
ATOM      5  C   UNL     1       8.573   5.053  -1.640  1.00  0.00     0.007 A 
ATOM      6  C   UNL     1      10.435   2.972  -1.621  1.00  0.00     0.046 A 
ATOM      7  C   UNL     1      10.194   3.668  -2.813  1.00  0.00     0.118 A 
BRANCH   7   8
ATOM      8  O   UNL     1      10.908   3.281  -3.949  1.00  0.00    -0.508 OA
ATOM      9  H   UNL     1      11.402   2.401  -4.025  1.00  0.00     0.293 HD
ENDBRANCH   7   8
ENDBRANCH   1   2
BRANCH   1  10
ATOM     10  C   UNL     1       9.847   6.735  -4.367  1.00  0.00     0.040 C 
BRANCH  10  11
ATOM     11  C   UNL     1       9.107   7.960  -3.897  1.00  0.00    -0.040 A 
ATOM     12  C   UNL     1       8.564   8.861  -4.829  1.00  0.00     0.050 A 
ATOM     13  C   UNL     1       9.003   8.242  -2.526  1.00  0.00     0.050 A 
ATOM     14  C   UNL     1       7.905  10.019  -4.393  1.00  0.00     0.119 A 
ATOM     15  C   UNL     1       8.343   9.400  -2.088  1.00  0.00     0.119 A 
ATOM     16  C   UNL     1       7.794  10.282  -3.024  1.00  0.00     0.092 A 
BRANCH  14  17
ATOM     17  O   UNL     1       7.359  10.912  -5.311  1.00  0.00    -0.508 OA
ATOM     18  H   UNL     1       6.419  10.792  -5.673  1.00  0.00     0.293 HD
ENDBRANCH  14  17
BRANCH  15  19
ATOM     19  O   UNL     1       8.232   9.684  -0.729  1.00  0.00    -0.508 OA
ATOM     20  H   UNL     1       8.482   9.000  -0.023  1.00  0.00     0.293 HD
ENDBRANCH  15  19
ENDBRANCH  10  11
ENDBRANCH   1  10
TORSDOF 6
ENDMDL
MODEL 8
REMARK VINA RESULT:    -6.289      3.755      4.907
REMARK INTER + INTRA:          -8.314
REMARK INTER:                  -7.792
REMARK INTRA:                  -0.522
REMARK UNBOUND:                -0.370
REMARK SMILES Oc1cc(O)cc(CCc2ccccc2O)c1
REMARK SMILES IDX 9 1 10 2 12 3 13 4 11 5 14 6 15 7 16 8 8 10 7 11 6 12 17 13
REMARK SMILES IDX 4 14 2 15 3 16 5 17 1 19
REMARK H PARENT 16 9 5 18 1 20
REMARK Flexibility Score: inf
ROOT
ATOM      1  C   UNL     1       9.390   7.720  -2.274  1.00  0.00     0.044 C 
ENDROOT
BRANCH   1   2
ATOM      2  C   UNL     1       9.512   6.317  -1.694  1.00  0.00    -0.006 A 
ATOM      3  C   UNL     1       8.570   4.375  -0.548  1.00  0.00     0.001 A 
ATOM      4  C   UNL     1       9.794   3.717  -0.638  1.00  0.00     0.004 A 
ATOM      5  C   UNL     1       8.425   5.663  -1.070  1.00  0.00     0.007 A 
ATOM      6  C   UNL     1      10.878   4.342  -1.250  1.00  0.00     0.046 A 
ATOM      7  C   UNL     1      10.752   5.633  -1.779  1.00  0.00     0.118 A 
BRANCH   7   8
ATOM      8  O   UNL     1      11.877   6.203  -2.379  1.00  0.00    -0.508 OA
ATOM      9  H   UNL     1      12.323   7.046  -2.043  1.00  0.00     0.293 HD
ENDBRANCH   7   8
ENDBRANCH   1   2
BRANCH   1  10
ATOM     10  C   UNL     1       8.027   8.078  -2.885  1.00  0.00     0.040 C 
BRANCH  10  11
ATOM     11  C   UNL     1       7.236   8.942  -1.939  1.00  0.00    -0.040 A 
ATOM     12  C   UNL     1       5.903   9.277  -2.232  1.00  0.00     0.050 A 
ATOM     13  C   UNL     1       7.841   9.469  -0.787  1.00  0.00     0.050 A 
ATOM     14  C   UNL     1       5.177  10.110  -1.369  1.00  0.00     0.119 A 
ATOM     15  C   UNL     1       7.115  10.301   0.077  1.00  0.00     0.119 A 
ATOM     16  C   UNL     1       5.785  10.617  -0.217  1.00  0.00     0.092 A 
BRANCH  14  17
ATOM     17  O   UNL     1       3.853  10.439  -1.650  1.00  0.00    -0.508 OA
ATOM     18  H   UNL     1       3.233   9.790  -2.120  1.00  0.00     0.293 HD
ENDBRANCH  14  17
BRANCH  15  19
ATOM     19  O   UNL     1       7.707  10.823   1.225  1.00  0.00    -0.508 OA
ATOM     20  H   UNL     1       7.234  11.513   1.798  1.00  0.00     0.293 HD
ENDBRANCH  15  19
ENDBRANCH  10  11
ENDBRANCH   1  10
TORSDOF 6
ENDMDL
MODEL 9
REMARK VINA RESULT:    -6.228      2.585      3.754
REMARK INTER + INTRA:          -8.236
REMARK INTER:                  -7.825
REMARK INTRA:                  -0.411
REMARK UNBOUND:                -0.370
REMARK SMILES Oc1cc(O)cc(CCc2ccccc2O)c1
REMARK SMILES IDX 9 1 10 2 12 3 13 4 11 5 14 6 15 7 16 8 8 10 7 11 6 12 17 13
REMARK SMILES IDX 4 14 2 15 3 16 5 17 1 19
REMARK H PARENT 16 9 5 18 1 20
REMARK Flexibility Score: inf
ROOT
ATOM      1  C   UNL     1       9.994   6.565  -5.230  1.00  0.00     0.044 C 
ENDROOT
BRANCH   1   2
ATOM      2  C   UNL     1      10.484   5.448  -4.319  1.00  0.00    -0.006 A 
ATOM      3  C   UNL     1      12.184   4.429  -2.890  1.00  0.00     0.001 A 
ATOM      4  C   UNL     1      11.340   3.350  -2.639  1.00  0.00     0.004 A 
ATOM      5  C   UNL     1      11.765   5.470  -3.721  1.00  0.00     0.007 A 
ATOM      6  C   UNL     1      10.073   3.307  -3.217  1.00  0.00     0.046 A 
ATOM      7  C   UNL     1       9.635   4.342  -4.053  1.00  0.00     0.118 A 
BRANCH   7   8
ATOM      8  O   UNL     1       8.355   4.239  -4.601  1.00  0.00    -0.508 OA
ATOM      9  H   UNL     1       8.035   3.437  -5.129  1.00  0.00     0.293 HD
ENDBRANCH   7   8
ENDBRANCH   1   2
BRANCH   1  10
ATOM     10  C   UNL     1      10.083   7.987  -4.655  1.00  0.00     0.040 C 
BRANCH  10  11
ATOM     11  C   UNL     1       8.989   8.217  -3.646  1.00  0.00    -0.040 A 
ATOM     12  C   UNL     1       7.919   9.077  -3.944  1.00  0.00     0.050 A 
ATOM     13  C   UNL     1       9.060   7.620  -2.377  1.00  0.00     0.050 A 
ATOM     14  C   UNL     1       6.918   9.318  -2.993  1.00  0.00     0.119 A 
ATOM     15  C   UNL     1       8.059   7.860  -1.425  1.00  0.00     0.119 A 
ATOM     16  C   UNL     1       6.990   8.707  -1.737  1.00  0.00     0.092 A 
BRANCH  14  17
ATOM     17  O   UNL     1       5.851  10.164  -3.285  1.00  0.00    -0.508 OA
ATOM     18  H   UNL     1       5.776  10.633  -4.181  1.00  0.00     0.293 HD
ENDBRANCH  14  17
BRANCH  15  19
ATOM     19  O   UNL     1       8.118   7.267  -0.166  1.00  0.00    -0.508 OA
ATOM     20  H   UNL     1       8.184   7.823   0.679  1.00  0.00     0.293 HD
ENDBRANCH  15  19
ENDBRANCH  10  11
ENDBRANCH   1  10
TORSDOF 6
ENDMDL
