MODEL 1
REMARK VINA RESULT:    -3.126      0.000      0.000
REMARK INTER + INTRA:          -3.774
REMARK INTER:                  -3.674
REMARK INTRA:                  -0.100
REMARK UNBOUND:                -0.100
REMARK SMILES CCCCC(=O)[O-]
REMARK SMILES IDX 4 1 5 2 6 3 7 4 3 5 2 6 1 7
REMARK H PARENT
REMARK Flexibility Score: inf
ROOT
ATOM      1  C   UNL     1      36.077  24.504 221.401  1.00  0.00     0.053 C 
ENDROOT
BRANCH   1   2
ATOM      2  C   UNL     1      36.232  23.542 222.538  1.00  0.00     0.041 C 
ATOM      3  O   UNL     1      36.204  22.301 222.327  1.00  0.00    -0.550 OA
ATOM      4  O   UNL     1      36.374  24.015 223.837  1.00  0.00    -0.550 OA
ENDBRANCH   1   2
BRANCH   1   5
ATOM      5  C   UNL     1      35.233  23.912 220.265  1.00  0.00     0.006 C 
BRANCH   5   6
ATOM      6  C   UNL     1      35.906  24.076 218.894  1.00  0.00    -0.003 C 
ATOM      7  C   UNL     1      37.105  23.143 218.755  1.00  0.00     0.004 C 
ENDBRANCH   5   6
ENDBRANCH   1   5
TORSDOF 3
ENDMDL
MODEL 2
REMARK VINA RESULT:    -3.122      0.162      1.227
REMARK INTER + INTRA:          -3.769
REMARK INTER:                  -3.677
REMARK INTRA:                  -0.092
REMARK UNBOUND:                -0.100
REMARK SMILES CCCCC(=O)[O-]
REMARK SMILES IDX 4 1 5 2 6 3 7 4 3 5 2 6 1 7
REMARK H PARENT
REMARK Flexibility Score: inf
ROOT
ATOM      1  C   UNL     1      36.043  24.589 221.363  1.00  0.00     0.053 C 
ENDROOT
BRANCH   1   2
ATOM      2  C   UNL     1      36.130  23.684 222.553  1.00  0.00     0.041 C 
ATOM      3  O   UNL     1      36.118  24.165 223.717  1.00  0.00    -0.550 OA
ATOM      4  O   UNL     1      36.258  22.312 222.377  1.00  0.00    -0.550 OA
ENDBRANCH   1   2
BRANCH   1   5
ATOM      5  C   UNL     1      35.160  23.995 220.259  1.00  0.00     0.006 C 
BRANCH   5   6
ATOM      6  C   UNL     1      35.807  24.108 218.871  1.00  0.00    -0.003 C 
ATOM      7  C   UNL     1      37.050  23.230 218.771  1.00  0.00     0.004 C 
ENDBRANCH   5   6
ENDBRANCH   1   5
TORSDOF 3
ENDMDL
MODEL 3
REMARK VINA RESULT:    -2.990      2.786      3.801
REMARK INTER + INTRA:          -3.613
REMARK INTER:                  -3.569
REMARK INTRA:                  -0.044
REMARK UNBOUND:                -0.100
REMARK SMILES CCCCC(=O)[O-]
REMARK SMILES IDX 4 1 5 2 6 3 7 4 3 5 2 6 1 7
REMARK H PARENT
REMARK Flexibility Score: inf
ROOT
ATOM      1  C   UNL     1      36.308  23.712 220.538  1.00  0.00     0.053 C 
ENDROOT
BRANCH   1   2
ATOM      2  C   UNL     1      35.967  23.860 219.087  1.00  0.00     0.041 C 
ATOM      3  O   UNL     1      36.857  23.716 218.209  1.00  0.00    -0.550 OA
ATOM      4  O   UNL     1      34.672  24.189 218.706  1.00  0.00    -0.550 OA
ENDBRANCH   1   2
BRANCH   1   5
ATOM      5  C   UNL     1      35.080  23.910 221.435  1.00  0.00     0.006 C 
BRANCH   5   6
ATOM      6  C   UNL     1      35.459  24.396 222.842  1.00  0.00    -0.003 C 
ATOM      7  C   UNL     1      36.585  25.423 222.784  1.00  0.00     0.004 C 
ENDBRANCH   5   6
ENDBRANCH   1   5
TORSDOF 3
ENDMDL
MODEL 4
REMARK VINA RESULT:    -2.986      2.759      3.850
REMARK INTER + INTRA:          -3.609
REMARK INTER:                  -3.558
REMARK INTRA:                  -0.052
REMARK UNBOUND:                -0.100
REMARK SMILES CCCCC(=O)[O-]
REMARK SMILES IDX 4 1 5 2 6 3 7 4 3 5 2 6 1 7
REMARK H PARENT
REMARK Flexibility Score: inf
ROOT
ATOM      1  C   UNL     1      36.285  23.837 220.500  1.00  0.00     0.053 C 
ENDROOT
BRANCH   1   2
ATOM      2  C   UNL     1      35.837  23.900 219.072  1.00  0.00     0.041 C 
ATOM      3  O   UNL     1      34.638  24.166 218.796  1.00  0.00    -0.550 OA
ATOM      4  O   UNL     1      36.736  23.634 218.047  1.00  0.00    -0.550 OA
ENDBRANCH   1   2
BRANCH   1   5
ATOM      5  C   UNL     1      35.100  23.887 221.472  1.00  0.00     0.006 C 
BRANCH   5   6
ATOM      6  C   UNL     1      35.479  24.520 222.819  1.00  0.00    -0.003 C 
ATOM      7  C   UNL     1      36.722  25.393 222.687  1.00  0.00     0.004 C 
ENDBRANCH   5   6
ENDBRANCH   1   5
TORSDOF 3
ENDMDL
MODEL 5
REMARK VINA RESULT:    -2.789      2.076      2.835
REMARK INTER + INTRA:          -3.378
REMARK INTER:                  -3.336
REMARK INTRA:                  -0.042
REMARK UNBOUND:                -0.100
REMARK SMILES CCCCC(=O)[O-]
REMARK SMILES IDX 4 1 5 2 6 3 7 4 3 5 2 6 1 7
REMARK H PARENT
REMARK Flexibility Score: inf
ROOT
ATOM      1  C   UNL     1      36.479  23.008 222.075  1.00  0.00     0.053 C 
ENDROOT
BRANCH   1   2
ATOM      2  C   UNL     1      37.786  23.705 221.853  1.00  0.00     0.041 C 
ATOM      3  O   UNL     1      38.046  24.775 222.464  1.00  0.00    -0.550 OA
ATOM      4  O   UNL     1      38.705  23.191 220.946  1.00  0.00    -0.550 OA
ENDBRANCH   1   2
BRANCH   1   5
ATOM      5  C   UNL     1      35.290  23.963 221.914  1.00  0.00     0.006 C 
BRANCH   5   6
ATOM      6  C   UNL     1      34.661  23.878 220.515  1.00  0.00    -0.003 C 
ATOM      7  C   UNL     1      33.140  23.808 220.599  1.00  0.00     0.004 C 
ENDBRANCH   5   6
ENDBRANCH   1   5
TORSDOF 3
ENDMDL
MODEL 6
REMARK VINA RESULT:    -2.727      2.881      3.144
REMARK INTER + INTRA:          -3.305
REMARK INTER:                  -3.259
REMARK INTRA:                  -0.046
REMARK UNBOUND:                -0.100
REMARK SMILES CCCCC(=O)[O-]
REMARK SMILES IDX 4 1 5 2 6 3 7 4 3 5 2 6 1 7
REMARK H PARENT
REMARK Flexibility Score: inf
ROOT
ATOM      1  C   UNL     1      38.675  23.267 221.095  1.00  0.00     0.053 C 
ENDROOT
BRANCH   1   2
ATOM      2  C   UNL     1      39.675  23.869 222.033  1.00  0.00     0.041 C 
ATOM      3  O   UNL     1      39.358  24.855 222.750  1.00  0.00    -0.550 OA
ATOM      4  O   UNL     1      40.968  23.364 222.092  1.00  0.00    -0.550 OA
ENDBRANCH   1   2
BRANCH   1   5
ATOM      5  C   UNL     1      37.253  23.764 221.382  1.00  0.00     0.006 C 
BRANCH   5   6
ATOM      6  C   UNL     1      36.332  23.633 220.160  1.00  0.00    -0.003 C 
ATOM      7  C   UNL     1      37.125  23.259 218.912  1.00  0.00     0.004 C 
ENDBRANCH   5   6
ENDBRANCH   1   5
TORSDOF 3
ENDMDL
MODEL 7
REMARK VINA RESULT:    -2.710      2.283      3.259
REMARK INTER + INTRA:          -3.284
REMARK INTER:                  -3.198
REMARK INTRA:                  -0.086
REMARK UNBOUND:                -0.100
REMARK SMILES CCCCC(=O)[O-]
REMARK SMILES IDX 4 1 5 2 6 3 7 4 3 5 2 6 1 7
REMARK H PARENT
REMARK Flexibility Score: inf
ROOT
ATOM      1  C   UNL     1      35.977  24.612 223.155  1.00  0.00     0.053 C 
ENDROOT
BRANCH   1   2
ATOM      2  C   UNL     1      35.564  23.588 222.143  1.00  0.00     0.041 C 
ATOM      3  O   UNL     1      36.127  22.463 222.113  1.00  0.00    -0.550 OA
ATOM      4  O   UNL     1      34.578  23.888 221.210  1.00  0.00    -0.550 OA
ENDBRANCH   1   2
BRANCH   1   5
ATOM      5  C   UNL     1      36.850  25.708 222.532  1.00  0.00     0.006 C 
BRANCH   5   6
ATOM      6  C   UNL     1      38.226  25.810 223.205  1.00  0.00    -0.003 C 
ATOM      7  C   UNL     1      39.149  24.687 222.742  1.00  0.00     0.004 C 
ENDBRANCH   5   6
ENDBRANCH   1   5
TORSDOF 3
ENDMDL
MODEL 8
REMARK VINA RESULT:    -2.630      2.302      3.036
REMARK INTER + INTRA:          -3.190
REMARK INTER:                  -3.146
REMARK INTRA:                  -0.045
REMARK UNBOUND:                -0.100
REMARK SMILES CCCCC(=O)[O-]
REMARK SMILES IDX 4 1 5 2 6 3 7 4 3 5 2 6 1 7
REMARK H PARENT
REMARK Flexibility Score: inf
ROOT
ATOM      1  C   UNL     1      36.427  22.902 222.036  1.00  0.00     0.053 C 
ENDROOT
BRANCH   1   2
ATOM      2  C   UNL     1      35.291  23.878 222.065  1.00  0.00     0.041 C 
ATOM      3  O   UNL     1      34.452  23.902 221.127  1.00  0.00    -0.550 OA
ATOM      4  O   UNL     1      35.178  24.784 223.112  1.00  0.00    -0.550 OA
ENDBRANCH   1   2
BRANCH   1   5
ATOM      5  C   UNL     1      37.716  23.544 221.508  1.00  0.00     0.006 C 
BRANCH   5   6
ATOM      6  C   UNL     1      38.768  23.729 222.611  1.00  0.00    -0.003 C 
ATOM      7  C   UNL     1      40.146  24.002 222.016  1.00  0.00     0.004 C 
ENDBRANCH   5   6
ENDBRANCH   1   5
TORSDOF 3
ENDMDL
MODEL 9
REMARK VINA RESULT:    -2.603      2.514      3.314
REMARK INTER + INTRA:          -3.159
REMARK INTER:                  -3.053
REMARK INTRA:                  -0.106
REMARK UNBOUND:                -0.100
REMARK SMILES CCCCC(=O)[O-]
REMARK SMILES IDX 4 1 5 2 6 3 7 4 3 5 2 6 1 7
REMARK H PARENT
REMARK Flexibility Score: inf
ROOT
ATOM      1  C   UNL     1      38.013  24.595 222.589  1.00  0.00     0.053 C 
ENDROOT
BRANCH   1   2
ATOM      2  C   UNL     1      39.043  23.927 221.730  1.00  0.00     0.041 C 
ATOM      3  O   UNL     1      38.688  23.210 220.758  1.00  0.00    -0.550 OA
ATOM      4  O   UNL     1      40.393  24.069 222.023  1.00  0.00    -0.550 OA
ENDBRANCH   1   2
BRANCH   1   5
ATOM      5  C   UNL     1      36.878  23.635 222.968  1.00  0.00     0.006 C 
BRANCH   5   6
ATOM      6  C   UNL     1      35.496  24.195 222.601  1.00  0.00    -0.003 C 
ATOM      7  C   UNL     1      35.153  23.904 221.144  1.00  0.00     0.004 C 
ENDBRANCH   5   6
ENDBRANCH   1   5
TORSDOF 3
ENDMDL
