MODEL 1
REMARK VINA RESULT:    -7.415      0.000      0.000
REMARK INTER + INTRA:          -9.308
REMARK INTER:                  -8.932
REMARK INTRA:                  -0.376
REMARK UNBOUND:                -0.376
REMARK SMILES Oc1cc(O)c2c(c1)O[C@@H](c1ccc(O)c(O)c1)[C@H](O)C2
REMARK SMILES IDX 21 1 19 2 10 3 9 4 7 5 8 6 2 7 3 8 4 9 6 10 20 11 11 13
REMARK SMILES IDX 18 14 12 15 16 16 13 17 14 18 17 19 15 21 5 23 1 25
REMARK H PARENT 20 12 17 20 15 22 5 24 1 26
REMARK Flexibility Score: inf
ROOT
ATOM      1  C   UNL     1      16.528  25.093  42.915  1.00  0.00     0.079 C 
ATOM      2  C   UNL     1      17.187  24.158  41.883  1.00  0.00     0.164 C 
ATOM      3  C   UNL     1      17.975  24.981  40.844  1.00  0.00     0.232 C 
ATOM      4  O   UNL     1      18.936  25.801  41.510  1.00  0.00    -0.482 OA
ATOM      5  C   UNL     1      18.664  26.434  42.727  1.00  0.00     0.131 A 
ATOM      6  C   UNL     1      19.576  27.369  43.223  1.00  0.00     0.093 A 
ATOM      7  C   UNL     1      19.326  28.030  44.429  1.00  0.00     0.122 A 
ATOM      8  C   UNL     1      18.151  27.762  45.136  1.00  0.00     0.092 A 
ATOM      9  C   UNL     1      17.224  26.830  44.655  1.00  0.00     0.126 A 
ATOM     10  C   UNL     1      17.494  26.126  43.458  1.00  0.00     0.039 A 
ENDROOT
BRANCH   2  11
ATOM     11  O   UNL     1      16.222  23.342  41.267  1.00  0.00    -0.389 OA
ATOM     12  H   UNL     1      16.630  22.448  41.123  1.00  0.00     0.211 HD
ENDBRANCH   2  11
BRANCH   3  13
ATOM     13  C   UNL     1      18.674  24.082  39.852  1.00  0.00    -0.001 A 
ATOM     14  C   UNL     1      19.729  23.253  40.268  1.00  0.00     0.057 A 
ATOM     15  C   UNL     1      18.314  24.100  38.493  1.00  0.00     0.012 A 
ATOM     16  C   UNL     1      20.402  22.438  39.347  1.00  0.00     0.157 A 
ATOM     17  C   UNL     1      18.981  23.288  37.574  1.00  0.00     0.050 A 
ATOM     18  C   UNL     1      20.023  22.455  37.993  1.00  0.00     0.157 A 
BRANCH  16  19
ATOM     19  O   UNL     1      21.443  21.614  39.770  1.00  0.00    -0.504 OA
ATOM     20  H   UNL     1      22.031  21.863  40.556  1.00  0.00     0.293 HD
ENDBRANCH  16  19
BRANCH  18  21
ATOM     21  O   UNL     1      20.671  21.655  37.053  1.00  0.00    -0.504 OA
ATOM     22  H   UNL     1      20.186  21.261  36.256  1.00  0.00     0.293 HD
ENDBRANCH  18  21
ENDBRANCH   3  13
BRANCH   9  23
ATOM     23  O   UNL     1      16.049  26.638  45.383  1.00  0.00    -0.507 OA
ATOM     24  H   UNL     1      15.417  27.390  45.628  1.00  0.00     0.293 HD
ENDBRANCH   9  23
BRANCH   7  25
ATOM     25  O   UNL     1      20.232  28.961  44.930  1.00  0.00    -0.508 OA
ATOM     26  H   UNL     1      20.875  29.456  44.322  1.00  0.00     0.293 HD
ENDBRANCH   7  25
TORSDOF 6
ENDMDL
MODEL 2
REMARK VINA RESULT:    -7.401     11.731     13.153
REMARK INTER + INTRA:          -9.291
REMARK INTER:                  -9.475
REMARK INTRA:                   0.184
REMARK UNBOUND:                -0.376
REMARK SMILES Oc1cc(O)c2c(c1)O[C@@H](c1ccc(O)c(O)c1)[C@H](O)C2
REMARK SMILES IDX 21 1 19 2 10 3 9 4 7 5 8 6 2 7 3 8 4 9 6 10 20 11 11 13
REMARK SMILES IDX 18 14 12 15 16 16 13 17 14 18 17 19 15 21 5 23 1 25
REMARK H PARENT 20 12 17 20 15 22 5 24 1 26
REMARK Flexibility Score: inf
ROOT
ATOM      1  C   UNL     1      26.620  22.062  51.264  1.00  0.00     0.079 C 
ATOM      2  C   UNL     1      26.925  22.425  49.798  1.00  0.00     0.164 C 
ATOM      3  C   UNL     1      27.426  23.880  49.702  1.00  0.00     0.232 C 
ATOM      4  O   UNL     1      28.568  24.051  50.542  1.00  0.00    -0.482 OA
ATOM      5  C   UNL     1      28.673  23.440  51.795  1.00  0.00     0.131 A 
ATOM      6  C   UNL     1      29.726  23.801  52.639  1.00  0.00     0.093 A 
ATOM      7  C   UNL     1      29.851  23.220  53.904  1.00  0.00     0.122 A 
ATOM      8  C   UNL     1      28.909  22.279  54.331  1.00  0.00     0.092 A 
ATOM      9  C   UNL     1      27.846  21.905  53.500  1.00  0.00     0.126 A 
ATOM     10  C   UNL     1      27.742  22.458  52.202  1.00  0.00     0.039 A 
ENDROOT
BRANCH   2  11
ATOM     11  O   UNL     1      25.793  22.218  48.991  1.00  0.00    -0.389 OA
ATOM     12  H   UNL     1      25.054  22.772  49.358  1.00  0.00     0.211 HD
ENDBRANCH   2  11
BRANCH   3  13
ATOM     13  C   UNL     1      27.781  24.242  48.279  1.00  0.00    -0.001 A 
ATOM     14  C   UNL     1      26.807  24.180  47.269  1.00  0.00     0.057 A 
ATOM     15  C   UNL     1      29.099  24.595  47.939  1.00  0.00     0.012 A 
ATOM     16  C   UNL     1      27.138  24.487  45.941  1.00  0.00     0.157 A 
ATOM     17  C   UNL     1      29.429  24.902  46.617  1.00  0.00     0.050 A 
ATOM     18  C   UNL     1      28.455  24.851  45.615  1.00  0.00     0.157 A 
BRANCH  16  19
ATOM     19  O   UNL     1      26.163  24.429  44.946  1.00  0.00    -0.504 OA
ATOM     20  H   UNL     1      25.906  25.247  44.406  1.00  0.00     0.293 HD
ENDBRANCH  16  19
BRANCH  18  21
ATOM     21  O   UNL     1      28.814  25.163  44.305  1.00  0.00    -0.504 OA
ATOM     22  H   UNL     1      28.124  25.322  43.581  1.00  0.00     0.293 HD
ENDBRANCH  18  21
ENDBRANCH   3  13
BRANCH   9  23
ATOM     23  O   UNL     1      26.914  20.994  53.999  1.00  0.00    -0.507 OA
ATOM     24  H   UNL     1      27.074  20.428  54.823  1.00  0.00     0.293 HD
ENDBRANCH   9  23
BRANCH   7  25
ATOM     25  O   UNL     1      30.899  23.574  54.749  1.00  0.00    -0.508 OA
ATOM     26  H   UNL     1      31.547  22.882  55.108  1.00  0.00     0.293 HD
ENDBRANCH   7  25
TORSDOF 6
ENDMDL
MODEL 3
REMARK VINA RESULT:    -6.932      0.620      1.494
REMARK INTER + INTRA:          -8.727
REMARK INTER:                  -8.365
REMARK INTRA:                  -0.362
REMARK UNBOUND:                -0.376
REMARK SMILES Oc1cc(O)c2c(c1)O[C@@H](c1ccc(O)c(O)c1)[C@H](O)C2
REMARK SMILES IDX 21 1 19 2 10 3 9 4 7 5 8 6 2 7 3 8 4 9 6 10 20 11 11 13
REMARK SMILES IDX 18 14 12 15 16 16 13 17 14 18 17 19 15 21 5 23 1 25
REMARK H PARENT 20 12 17 20 15 22 5 24 1 26
REMARK Flexibility Score: inf
ROOT
ATOM      1  C   UNL     1      16.624  25.008  42.882  1.00  0.00     0.079 C 
ATOM      2  C   UNL     1      17.300  24.089  41.847  1.00  0.00     0.164 C 
ATOM      3  C   UNL     1      18.065  24.930  40.805  1.00  0.00     0.232 C 
ATOM      4  O   UNL     1      19.011  25.770  41.469  1.00  0.00    -0.482 OA
ATOM      5  C   UNL     1      18.729  26.396  42.687  1.00  0.00     0.131 A 
ATOM      6  C   UNL     1      19.623  27.350  43.180  1.00  0.00     0.093 A 
ATOM      7  C   UNL     1      19.363  28.005  44.388  1.00  0.00     0.122 A 
ATOM      8  C   UNL     1      18.197  27.711  45.099  1.00  0.00     0.092 A 
ATOM      9  C   UNL     1      17.289  26.759  44.621  1.00  0.00     0.126 A 
ATOM     10  C   UNL     1      17.569  26.062  43.422  1.00  0.00     0.039 A 
ENDROOT
BRANCH   2  11
ATOM     11  O   UNL     1      16.350  23.253  41.234  1.00  0.00    -0.389 OA
ATOM     12  H   UNL     1      16.841  22.610  40.657  1.00  0.00     0.211 HD
ENDBRANCH   2  11
BRANCH   3  13
ATOM     13  C   UNL     1      18.780  24.047  39.810  1.00  0.00    -0.001 A 
ATOM     14  C   UNL     1      18.355  24.003  38.471  1.00  0.00     0.057 A 
ATOM     15  C   UNL     1      19.842  23.222  40.218  1.00  0.00     0.012 A 
ATOM     16  C   UNL     1      18.995  23.163  37.548  1.00  0.00     0.157 A 
ATOM     17  C   UNL     1      20.482  22.387  39.300  1.00  0.00     0.050 A 
ATOM     18  C   UNL     1      20.064  22.353  37.966  1.00  0.00     0.157 A 
BRANCH  16  19
ATOM     19  O   UNL     1      18.571  23.131  36.220  1.00  0.00    -0.504 OA
ATOM     20  H   UNL     1      17.588  23.094  35.978  1.00  0.00     0.293 HD
ENDBRANCH  16  19
BRANCH  18  21
ATOM     21  O   UNL     1      20.722  21.510  37.072  1.00  0.00    -0.504 OA
ATOM     22  H   UNL     1      21.633  21.115  37.275  1.00  0.00     0.293 HD
ENDBRANCH  18  21
ENDBRANCH   3  13
BRANCH   9  23
ATOM     23  O   UNL     1      16.121  26.541  45.354  1.00  0.00    -0.507 OA
ATOM     24  H   UNL     1      15.489  27.282  45.629  1.00  0.00     0.293 HD
ENDBRANCH   9  23
BRANCH   7  25
ATOM     25  O   UNL     1      20.250  28.955  44.886  1.00  0.00    -0.508 OA
ATOM     26  H   UNL     1      20.561  28.936  45.851  1.00  0.00     0.293 HD
ENDBRANCH   7  25
TORSDOF 6
ENDMDL
MODEL 4
REMARK VINA RESULT:    -6.899     12.106     14.389
REMARK INTER + INTRA:          -8.687
REMARK INTER:                  -8.455
REMARK INTRA:                  -0.232
REMARK UNBOUND:                -0.376
REMARK SMILES Oc1cc(O)c2c(c1)O[C@@H](c1ccc(O)c(O)c1)[C@H](O)C2
REMARK SMILES IDX 21 1 19 2 10 3 9 4 7 5 8 6 2 7 3 8 4 9 6 10 20 11 11 13
REMARK SMILES IDX 18 14 12 15 16 16 13 17 14 18 17 19 15 21 5 23 1 25
REMARK H PARENT 20 12 17 20 15 22 5 24 1 26
REMARK Flexibility Score: inf
ROOT
ATOM      1  C   UNL     1      26.810  23.187  48.262  1.00  0.00     0.079 C 
ATOM      2  C   UNL     1      27.302  23.179  49.722  1.00  0.00     0.164 C 
ATOM      3  C   UNL     1      28.752  22.661  49.793  1.00  0.00     0.232 C 
ATOM      4  O   UNL     1      29.588  23.458  48.954  1.00  0.00    -0.482 OA
ATOM      5  C   UNL     1      29.161  23.938  47.712  1.00  0.00     0.131 A 
ATOM      6  C   UNL     1      30.091  24.547  46.865  1.00  0.00     0.093 A 
ATOM      7  C   UNL     1      29.699  25.024  45.611  1.00  0.00     0.122 A 
ATOM      8  C   UNL     1      28.372  24.881  45.199  1.00  0.00     0.092 A 
ATOM      9  C   UNL     1      27.426  24.273  46.032  1.00  0.00     0.126 A 
ATOM     10  C   UNL     1      27.808  23.829  47.320  1.00  0.00     0.039 A 
ENDROOT
BRANCH   2  11
ATOM     11  O   UNL     1      26.442  22.413  50.529  1.00  0.00    -0.389 OA
ATOM     12  H   UNL     1      26.733  22.527  51.472  1.00  0.00     0.211 HD
ENDBRANCH   2  11
BRANCH   3  13
ATOM     13  C   UNL     1      29.274  22.693  51.210  1.00  0.00    -0.001 A 
ATOM     14  C   UNL     1      28.950  23.764  52.060  1.00  0.00     0.057 A 
ATOM     15  C   UNL     1      30.130  21.682  51.681  1.00  0.00     0.012 A 
ATOM     16  C   UNL     1      29.455  23.816  53.367  1.00  0.00     0.157 A 
ATOM     17  C   UNL     1      30.633  21.730  52.983  1.00  0.00     0.050 A 
ATOM     18  C   UNL     1      30.299  22.792  53.830  1.00  0.00     0.157 A 
BRANCH  16  19
ATOM     19  O   UNL     1      29.122  24.879  54.205  1.00  0.00    -0.504 OA
ATOM     20  H   UNL     1      28.794  25.763  53.835  1.00  0.00     0.293 HD
ENDBRANCH  16  19
BRANCH  18  21
ATOM     21  O   UNL     1      30.815  22.813  55.124  1.00  0.00    -0.504 OA
ATOM     22  H   UNL     1      31.758  23.127  55.323  1.00  0.00     0.293 HD
ENDBRANCH  18  21
ENDBRANCH   3  13
BRANCH   9  23
ATOM     23  O   UNL     1      26.126  24.120  45.547  1.00  0.00    -0.507 OA
ATOM     24  H   UNL     1      25.302  24.400  46.063  1.00  0.00     0.293 HD
ENDBRANCH   9  23
BRANCH   7  25
ATOM     25  O   UNL     1      30.621  25.633  44.763  1.00  0.00    -0.508 OA
ATOM     26  H   UNL     1      30.446  26.546  44.359  1.00  0.00     0.293 HD
ENDBRANCH   7  25
TORSDOF 6
ENDMDL
MODEL 5
REMARK VINA RESULT:    -6.675     12.493     14.034
REMARK INTER + INTRA:          -8.417
REMARK INTER:                  -8.150
REMARK INTRA:                  -0.267
REMARK UNBOUND:                -0.376
REMARK SMILES Oc1cc(O)c2c(c1)O[C@@H](c1ccc(O)c(O)c1)[C@H](O)C2
REMARK SMILES IDX 21 1 19 2 10 3 9 4 7 5 8 6 2 7 3 8 4 9 6 10 20 11 11 13
REMARK SMILES IDX 18 14 12 15 16 16 13 17 14 18 17 19 15 21 5 23 1 25
REMARK H PARENT 20 12 17 20 15 22 5 24 1 26
REMARK Flexibility Score: inf
ROOT
ATOM      1  C   UNL     1      30.737  21.719  50.768  1.00  0.00     0.079 C 
ATOM      2  C   UNL     1      30.418  22.344  49.397  1.00  0.00     0.164 C 
ATOM      3  C   UNL     1      28.972  22.878  49.377  1.00  0.00     0.232 C 
ATOM      4  O   UNL     1      28.791  23.812  50.442  1.00  0.00    -0.482 OA
ATOM      5  C   UNL     1      29.368  23.629  51.703  1.00  0.00     0.131 A 
ATOM      6  C   UNL     1      28.995  24.478  52.748  1.00  0.00     0.093 A 
ATOM      7  C   UNL     1      29.542  24.313  54.023  1.00  0.00     0.122 A 
ATOM      8  C   UNL     1      30.459  23.285  54.256  1.00  0.00     0.092 A 
ATOM      9  C   UNL     1      30.845  22.423  53.223  1.00  0.00     0.126 A 
ATOM     10  C   UNL     1      30.327  22.615  51.920  1.00  0.00     0.039 A 
ENDROOT
BRANCH   2  11
ATOM     11  O   UNL     1      30.635  21.412  48.367  1.00  0.00    -0.389 OA
ATOM     12  H   UNL     1      29.949  21.570  47.667  1.00  0.00     0.211 HD
ENDBRANCH   2  11
BRANCH   3  13
ATOM     13  C   UNL     1      28.654  23.543  48.058  1.00  0.00    -0.001 A 
ATOM     14  C   UNL     1      27.434  23.284  47.411  1.00  0.00     0.057 A 
ATOM     15  C   UNL     1      29.592  24.386  47.438  1.00  0.00     0.012 A 
ATOM     16  C   UNL     1      27.145  23.874  46.172  1.00  0.00     0.157 A 
ATOM     17  C   UNL     1      29.305  24.977  46.205  1.00  0.00     0.050 A 
ATOM     18  C   UNL     1      28.086  24.726  45.568  1.00  0.00     0.157 A 
BRANCH  16  19
ATOM     19  O   UNL     1      25.930  23.616  45.540  1.00  0.00    -0.504 OA
ATOM     20  H   UNL     1      25.796  22.795  44.962  1.00  0.00     0.293 HD
ENDBRANCH  16  19
BRANCH  18  21
ATOM     21  O   UNL     1      27.827  25.330  44.339  1.00  0.00    -0.504 OA
ATOM     22  H   UNL     1      26.914  25.291  43.902  1.00  0.00     0.293 HD
ENDBRANCH  18  21
ENDBRANCH   3  13
BRANCH   9  23
ATOM     23  O   UNL     1      31.731  21.388  53.528  1.00  0.00    -0.507 OA
ATOM     24  H   UNL     1      32.734  21.465  53.420  1.00  0.00     0.293 HD
ENDBRANCH   9  23
BRANCH   7  25
ATOM     25  O   UNL     1      29.176  25.157  55.069  1.00  0.00    -0.508 OA
ATOM     26  H   UNL     1      28.203  25.334  55.291  1.00  0.00     0.293 HD
ENDBRANCH   7  25
TORSDOF 6
ENDMDL
MODEL 6
REMARK VINA RESULT:    -6.516      1.742      6.798
REMARK INTER + INTRA:          -8.225
REMARK INTER:                  -7.905
REMARK INTRA:                  -0.320
REMARK UNBOUND:                -0.376
REMARK SMILES Oc1cc(O)c2c(c1)O[C@@H](c1ccc(O)c(O)c1)[C@H](O)C2
REMARK SMILES IDX 21 1 19 2 10 3 9 4 7 5 8 6 2 7 3 8 4 9 6 10 20 11 11 13
REMARK SMILES IDX 18 14 12 15 16 16 13 17 14 18 17 19 15 21 5 23 1 25
REMARK H PARENT 20 12 17 20 15 22 5 24 1 26
REMARK Flexibility Score: inf
ROOT
ATOM      1  C   UNL     1      16.581  24.619  38.953  1.00  0.00     0.079 C 
ATOM      2  C   UNL     1      17.090  25.639  39.989  1.00  0.00     0.164 C 
ATOM      3  C   UNL     1      18.065  24.960  40.972  1.00  0.00     0.232 C 
ATOM      4  O   UNL     1      19.137  24.358  40.246  1.00  0.00    -0.482 OA
ATOM      5  C   UNL     1      18.941  23.712  39.021  1.00  0.00     0.131 A 
ATOM      6  C   UNL     1      19.994  22.983  38.464  1.00  0.00     0.093 A 
ATOM      7  C   UNL     1      19.826  22.314  37.248  1.00  0.00     0.122 A 
ATOM      8  C   UNL     1      18.593  22.366  36.593  1.00  0.00     0.092 A 
ATOM      9  C   UNL     1      17.525  23.090  37.136  1.00  0.00     0.126 A 
ATOM     10  C   UNL     1      17.704  23.805  38.344  1.00  0.00     0.039 A 
ENDROOT
BRANCH   2  11
ATOM     11  O   UNL     1      16.013  26.238  40.664  1.00  0.00    -0.389 OA
ATOM     12  H   UNL     1      16.091  27.221  40.546  1.00  0.00     0.211 HD
ENDBRANCH   2  11
BRANCH   3  13
ATOM     13  C   UNL     1      18.618  25.954  41.966  1.00  0.00    -0.001 A 
ATOM     14  C   UNL     1      19.689  26.791  41.608  1.00  0.00     0.057 A 
ATOM     15  C   UNL     1      18.106  26.019  43.273  1.00  0.00     0.012 A 
ATOM     16  C   UNL     1      20.226  27.695  42.535  1.00  0.00     0.157 A 
ATOM     17  C   UNL     1      18.639  26.920  44.197  1.00  0.00     0.050 A 
ATOM     18  C   UNL     1      19.697  27.760  43.835  1.00  0.00     0.157 A 
BRANCH  16  19
ATOM     19  O   UNL     1      21.284  28.526  42.170  1.00  0.00    -0.504 OA
ATOM     20  H   UNL     1      21.868  28.321  41.367  1.00  0.00     0.293 HD
ENDBRANCH  16  19
BRANCH  18  21
ATOM     21  O   UNL     1      20.208  28.650  44.779  1.00  0.00    -0.504 OA
ATOM     22  H   UNL     1      20.251  29.648  44.610  1.00  0.00     0.293 HD
ENDBRANCH  18  21
ENDBRANCH   3  13
BRANCH   9  23
ATOM     23  O   UNL     1      16.305  23.068  36.457  1.00  0.00    -0.507 OA
ATOM     24  H   UNL     1      15.475  23.542  36.788  1.00  0.00     0.293 HD
ENDBRANCH   9  23
BRANCH   7  25
ATOM     25  O   UNL     1      20.873  21.588  36.685  1.00  0.00    -0.508 OA
ATOM     26  H   UNL     1      21.455  20.977  37.246  1.00  0.00     0.293 HD
ENDBRANCH   7  25
TORSDOF 6
ENDMDL
MODEL 7
REMARK VINA RESULT:    -6.494      4.036      6.983
REMARK INTER + INTRA:          -8.198
REMARK INTER:                  -7.909
REMARK INTRA:                  -0.290
REMARK UNBOUND:                -0.376
REMARK SMILES Oc1cc(O)c2c(c1)O[C@@H](c1ccc(O)c(O)c1)[C@H](O)C2
REMARK SMILES IDX 21 1 19 2 10 3 9 4 7 5 8 6 2 7 3 8 4 9 6 10 20 11 11 13
REMARK SMILES IDX 18 14 12 15 16 16 13 17 14 18 17 19 15 21 5 23 1 25
REMARK H PARENT 20 12 17 20 15 22 5 24 1 26
REMARK Flexibility Score: inf
ROOT
ATOM      1  C   UNL     1      14.597  24.236  41.956  1.00  0.00     0.079 C 
ATOM      2  C   UNL     1      15.750  25.217  42.243  1.00  0.00     0.164 C 
ATOM      3  C   UNL     1      15.900  25.436  43.762  1.00  0.00     0.232 C 
ATOM      4  O   UNL     1      16.097  24.179  44.410  1.00  0.00    -0.482 OA
ATOM      5  C   UNL     1      15.424  23.019  44.013  1.00  0.00     0.131 A 
ATOM      6  C   UNL     1      15.520  21.874  44.809  1.00  0.00     0.093 A 
ATOM      7  C   UNL     1      14.847  20.703  44.448  1.00  0.00     0.122 A 
ATOM      8  C   UNL     1      14.066  20.682  43.290  1.00  0.00     0.092 A 
ATOM      9  C   UNL     1      13.956  21.818  42.480  1.00  0.00     0.126 A 
ATOM     10  C   UNL     1      14.671  22.992  42.818  1.00  0.00     0.039 A 
ENDROOT
BRANCH   2  11
ATOM     11  O   UNL     1      15.545  26.432  41.567  1.00  0.00    -0.389 OA
ATOM     12  H   UNL     1      15.227  26.218  40.650  1.00  0.00     0.211 HD
ENDBRANCH   2  11
BRANCH   3  13
ATOM     13  C   UNL     1      17.059  26.354  44.069  1.00  0.00    -0.001 A 
ATOM     14  C   UNL     1      16.899  27.417  44.974  1.00  0.00     0.057 A 
ATOM     15  C   UNL     1      18.294  26.189  43.418  1.00  0.00     0.012 A 
ATOM     16  C   UNL     1      17.963  28.291  45.241  1.00  0.00     0.157 A 
ATOM     17  C   UNL     1      19.355  27.058  43.684  1.00  0.00     0.050 A 
ATOM     18  C   UNL     1      19.196  28.108  44.594  1.00  0.00     0.157 A 
BRANCH  16  19
ATOM     19  O   UNL     1      17.797  29.339  46.145  1.00  0.00    -0.504 OA
ATOM     20  H   UNL     1      18.229  30.243  45.995  1.00  0.00     0.293 HD
ENDBRANCH  16  19
BRANCH  18  21
ATOM     21  O   UNL     1      20.273  28.959  44.840  1.00  0.00    -0.504 OA
ATOM     22  H   UNL     1      21.209  28.609  45.003  1.00  0.00     0.293 HD
ENDBRANCH  18  21
ENDBRANCH   3  13
BRANCH   9  23
ATOM     23  O   UNL     1      13.125  21.748  41.360  1.00  0.00    -0.507 OA
ATOM     24  H   UNL     1      12.997  20.906  40.815  1.00  0.00     0.293 HD
ENDBRANCH   9  23
BRANCH   7  25
ATOM     25  O   UNL     1      14.941  19.558  45.235  1.00  0.00    -0.508 OA
ATOM     26  H   UNL     1      14.114  19.064  45.551  1.00  0.00     0.293 HD
ENDBRANCH   7  25
TORSDOF 6
ENDMDL
MODEL 8
REMARK VINA RESULT:    -6.439      1.257      2.824
REMARK INTER + INTRA:          -8.133
REMARK INTER:                  -7.768
REMARK INTRA:                  -0.365
REMARK UNBOUND:                -0.376
REMARK SMILES Oc1cc(O)c2c(c1)O[C@@H](c1ccc(O)c(O)c1)[C@H](O)C2
REMARK SMILES IDX 21 1 19 2 10 3 9 4 7 5 8 6 2 7 3 8 4 9 6 10 20 11 11 13
REMARK SMILES IDX 18 14 12 15 16 16 13 17 14 18 17 19 15 21 5 23 1 25
REMARK H PARENT 20 12 17 20 15 22 5 24 1 26
REMARK Flexibility Score: inf
ROOT
ATOM      1  C   UNL     1      19.614  27.132  42.441  1.00  0.00     0.079 C 
ATOM      2  C   UNL     1      19.444  26.516  41.039  1.00  0.00     0.164 C 
ATOM      3  C   UNL     1      19.086  25.020  41.153  1.00  0.00     0.232 C 
ATOM      4  O   UNL     1      17.909  24.868  41.948  1.00  0.00    -0.482 OA
ATOM      5  C   UNL     1      17.664  25.654  43.079  1.00  0.00     0.131 A 
ATOM      6  C   UNL     1      16.593  25.323  43.913  1.00  0.00     0.093 A 
ATOM      7  C   UNL     1      16.330  26.079  45.060  1.00  0.00     0.122 A 
ATOM      8  C   UNL     1      17.150  27.165  45.377  1.00  0.00     0.092 A 
ATOM      9  C   UNL     1      18.229  27.511  44.554  1.00  0.00     0.126 A 
ATOM     10  C   UNL     1      18.472  26.776  43.370  1.00  0.00     0.039 A 
ENDROOT
BRANCH   2  11
ATOM     11  O   UNL     1      20.605  26.708  40.270  1.00  0.00    -0.389 OA
ATOM     12  H   UNL     1      21.036  25.822  40.146  1.00  0.00     0.211 HD
ENDBRANCH   2  11
BRANCH   3  13
ATOM     13  C   UNL     1      18.862  24.407  39.791  1.00  0.00    -0.001 A 
ATOM     14  C   UNL     1      19.756  23.444  39.294  1.00  0.00     0.057 A 
ATOM     15  C   UNL     1      17.791  24.827  38.985  1.00  0.00     0.012 A 
ATOM     16  C   UNL     1      19.571  22.892  38.018  1.00  0.00     0.157 A 
ATOM     17  C   UNL     1      17.604  24.278  37.714  1.00  0.00     0.050 A 
ATOM     18  C   UNL     1      18.488  23.311  37.226  1.00  0.00     0.157 A 
BRANCH  16  19
ATOM     19  O   UNL     1      20.459  21.932  37.535  1.00  0.00    -0.504 OA
ATOM     20  H   UNL     1      21.175  21.526  38.125  1.00  0.00     0.293 HD
ENDBRANCH  16  19
BRANCH  18  21
ATOM     21  O   UNL     1      18.277  22.780  35.954  1.00  0.00    -0.504 OA
ATOM     22  H   UNL     1      18.076  23.366  35.153  1.00  0.00     0.293 HD
ENDBRANCH  18  21
ENDBRANCH   3  13
BRANCH   9  23
ATOM     23  O   UNL     1      19.038  28.578  44.948  1.00  0.00    -0.507 OA
ATOM     24  H   UNL     1      19.581  29.133  44.300  1.00  0.00     0.293 HD
ENDBRANCH   9  23
BRANCH   7  25
ATOM     25  O   UNL     1      15.263  25.757  45.894  1.00  0.00    -0.508 OA
ATOM     26  H   UNL     1      14.850  26.443  46.515  1.00  0.00     0.293 HD
ENDBRANCH   7  25
TORSDOF 6
ENDMDL
MODEL 9
REMARK VINA RESULT:    -6.137      3.598      5.710
REMARK INTER + INTRA:          -7.769
REMARK INTER:                  -7.515
REMARK INTRA:                  -0.255
REMARK UNBOUND:                -0.376
REMARK SMILES Oc1cc(O)c2c(c1)O[C@@H](c1ccc(O)c(O)c1)[C@H](O)C2
REMARK SMILES IDX 21 1 19 2 10 3 9 4 7 5 8 6 2 7 3 8 4 9 6 10 20 11 11 13
REMARK SMILES IDX 18 14 12 15 16 16 13 17 14 18 17 19 15 21 5 23 1 25
REMARK H PARENT 20 12 17 20 15 22 5 24 1 26
REMARK Flexibility Score: inf
ROOT
ATOM      1  C   UNL     1      16.665  25.275  43.348  1.00  0.00     0.079 C 
ATOM      2  C   UNL     1      16.404  23.909  44.012  1.00  0.00     0.164 C 
ATOM      3  C   UNL     1      16.046  22.856  42.944  1.00  0.00     0.232 C 
ATOM      4  O   UNL     1      17.090  22.785  41.972  1.00  0.00    -0.482 OA
ATOM      5  C   UNL     1      17.771  23.920  41.520  1.00  0.00     0.131 A 
ATOM      6  C   UNL     1      18.643  23.800  40.435  1.00  0.00     0.093 A 
ATOM      7  C   UNL     1      19.327  24.918  39.951  1.00  0.00     0.122 A 
ATOM      8  C   UNL     1      19.129  26.165  40.549  1.00  0.00     0.092 A 
ATOM      9  C   UNL     1      18.258  26.306  41.636  1.00  0.00     0.126 A 
ATOM     10  C   UNL     1      17.598  25.169  42.158  1.00  0.00     0.039 A 
ENDROOT
BRANCH   2  11
ATOM     11  O   UNL     1      15.396  24.017  44.985  1.00  0.00    -0.389 OA
ATOM     12  H   UNL     1      15.837  24.169  45.862  1.00  0.00     0.211 HD
ENDBRANCH   2  11
BRANCH   3  13
ATOM     13  C   UNL     1      15.837  21.496  43.567  1.00  0.00    -0.001 A 
ATOM     14  C   UNL     1      16.921  20.617  43.727  1.00  0.00     0.057 A 
ATOM     15  C   UNL     1      14.551  21.074  43.947  1.00  0.00     0.012 A 
ATOM     16  C   UNL     1      16.729  19.342  44.277  1.00  0.00     0.157 A 
ATOM     17  C   UNL     1      14.358  19.805  44.497  1.00  0.00     0.050 A 
ATOM     18  C   UNL     1      15.441  18.936  44.665  1.00  0.00     0.157 A 
BRANCH  16  19
ATOM     19  O   UNL     1      17.811  18.478  44.438  1.00  0.00    -0.504 OA
ATOM     20  H   UNL     1      17.680  17.496  44.650  1.00  0.00     0.293 HD
ENDBRANCH  16  19
BRANCH  18  21
ATOM     21  O   UNL     1      15.217  17.675  45.218  1.00  0.00    -0.504 OA
ATOM     22  H   UNL     1      14.867  16.901  44.667  1.00  0.00     0.293 HD
ENDBRANCH  18  21
ENDBRANCH   3  13
BRANCH   9  23
ATOM     23  O   UNL     1      18.068  27.585  42.163  1.00  0.00    -0.507 OA
ATOM     24  H   UNL     1      17.747  27.757  43.107  1.00  0.00     0.293 HD
ENDBRANCH   9  23
BRANCH   7  25
ATOM     25  O   UNL     1      20.199  24.805  38.871  1.00  0.00    -0.508 OA
ATOM     26  H   UNL     1      19.858  24.739  37.919  1.00  0.00     0.293 HD
ENDBRANCH   7  25
TORSDOF 6
ENDMDL
