MODEL 1
REMARK VINA RESULT:    -4.063      0.000      0.000
REMARK INTER + INTRA:          -5.087
REMARK INTER:                  -4.775
REMARK INTRA:                  -0.312
REMARK UNBOUND:                -0.312
REMARK SMILES O=c1c(O)c(-c2ccc(O)c(O)c2)oc2cc(O)ccc12
REMARK SMILES IDX 5 1 3 2 2 3 1 4 21 5 15 6 14 7 16 8 17 9 19 10 20 11 6 12
REMARK SMILES IDX 7 13 8 14 9 15 13 16 11 17 10 18 12 20 4 22 18 24
REMARK H PARENT 10 19 12 21 4 23 18 25
REMARK Flexibility Score: inf
ROOT
ATOM      1  C   UNL     1     -13.073  30.906  11.988  1.00  0.00     0.180 A 
ATOM      2  C   UNL     1     -13.191  31.845  13.033  1.00  0.00     0.208 A 
ATOM      3  C   UNL     1     -13.148  31.391  14.360  1.00  0.00     0.235 A 
ATOM      4  O   UNL     1     -13.240  32.215  15.312  1.00  0.00    -0.285 OA
ATOM      5  C   UNL     1     -13.010  30.017  14.616  1.00  0.00     0.069 A 
ATOM      6  C   UNL     1     -12.923  29.138  13.515  1.00  0.00     0.142 A 
ATOM      7  O   UNL     1     -12.958  29.610  12.273  1.00  0.00    -0.452 OA
ATOM      8  C   UNL     1     -12.795  27.761  13.728  1.00  0.00     0.094 A 
ATOM      9  C   UNL     1     -12.751  27.249  15.028  1.00  0.00     0.119 A 
ATOM     10  C   UNL     1     -12.835  28.119  16.124  1.00  0.00     0.047 A 
ATOM     11  C   UNL     1     -12.965  29.497  15.922  1.00  0.00     0.020 A 
ENDROOT
BRANCH   1  12
ATOM     12  C   UNL     1     -13.091  31.308  10.563  1.00  0.00     0.025 A 
ATOM     13  C   UNL     1     -11.883  31.593   9.912  1.00  0.00     0.016 A 
ATOM     14  C   UNL     1     -11.879  31.994   8.574  1.00  0.00     0.051 A 
ATOM     15  C   UNL     1     -13.078  32.134   7.867  1.00  0.00     0.157 A 
ATOM     16  C   UNL     1     -14.298  31.470   9.863  1.00  0.00     0.062 A 
ATOM     17  C   UNL     1     -14.304  31.875   8.522  1.00  0.00     0.158 A 
BRANCH  15  18
ATOM     18  O   UNL     1     -13.004  32.530   6.531  1.00  0.00    -0.504 OA
ATOM     19  H   UNL     1     -12.166  32.471   5.970  1.00  0.00     0.293 HD
ENDBRANCH  15  18
BRANCH  17  20
ATOM     20  O   UNL     1     -15.542  32.012   7.889  1.00  0.00    -0.504 OA
ATOM     21  H   UNL     1     -15.654  32.171   6.898  1.00  0.00     0.293 HD
ENDBRANCH  17  20
ENDBRANCH   1  12
BRANCH   2  22
ATOM     22  O   UNL     1     -13.376  33.201  12.748  1.00  0.00    -0.502 OA
ATOM     23  H   UNL     1     -12.873  33.931  13.238  1.00  0.00     0.293 HD
ENDBRANCH   2  22
BRANCH   9  24
ATOM     24  O   UNL     1     -12.622  25.876  15.222  1.00  0.00    -0.508 OA
ATOM     25  H   UNL     1     -12.680  25.225  14.449  1.00  0.00     0.293 HD
ENDBRANCH   9  24
TORSDOF 5
ENDMDL
MODEL 2
REMARK VINA RESULT:    -3.802      6.832      9.260
REMARK INTER + INTRA:          -4.782
REMARK INTER:                  -5.255
REMARK INTRA:                   0.473
REMARK UNBOUND:                -0.312
REMARK SMILES O=c1c(O)c(-c2ccc(O)c(O)c2)oc2cc(O)ccc12
REMARK SMILES IDX 5 1 3 2 2 3 1 4 21 5 15 6 14 7 16 8 17 9 19 10 20 11 6 12
REMARK SMILES IDX 7 13 8 14 9 15 13 16 11 17 10 18 12 20 4 22 18 24
REMARK H PARENT 10 19 12 21 4 23 18 25
REMARK Flexibility Score: inf
ROOT
ATOM      1  C   UNL     1     -19.035  27.183  15.896  1.00  0.00     0.180 A 
ATOM      2  C   UNL     1     -19.570  28.487  15.874  1.00  0.00     0.208 A 
ATOM      3  C   UNL     1     -18.691  29.577  15.781  1.00  0.00     0.235 A 
ATOM      4  O   UNL     1     -19.147  30.754  15.749  1.00  0.00    -0.285 OA
ATOM      5  C   UNL     1     -17.307  29.347  15.734  1.00  0.00     0.069 A 
ATOM      6  C   UNL     1     -16.850  28.013  15.785  1.00  0.00     0.142 A 
ATOM      7  O   UNL     1     -17.715  27.007  15.864  1.00  0.00    -0.452 OA
ATOM      8  C   UNL     1     -15.477  27.742  15.750  1.00  0.00     0.094 A 
ATOM      9  C   UNL     1     -14.553  28.788  15.663  1.00  0.00     0.119 A 
ATOM     10  C   UNL     1     -15.004  30.114  15.609  1.00  0.00     0.047 A 
ATOM     11  C   UNL     1     -16.374  30.396  15.646  1.00  0.00     0.020 A 
ENDROOT
BRANCH   1  12
ATOM     12  C   UNL     1     -19.897  25.981  15.974  1.00  0.00     0.025 A 
ATOM     13  C   UNL     1     -19.308  24.709  15.970  1.00  0.00     0.016 A 
ATOM     14  C   UNL     1     -20.102  23.562  16.022  1.00  0.00     0.051 A 
ATOM     15  C   UNL     1     -21.497  23.661  16.064  1.00  0.00     0.157 A 
ATOM     16  C   UNL     1     -21.297  26.084  15.993  1.00  0.00     0.062 A 
ATOM     17  C   UNL     1     -22.103  24.939  16.042  1.00  0.00     0.158 A 
BRANCH  15  18
ATOM     18  O   UNL     1     -22.234  22.477  16.123  1.00  0.00    -0.504 OA
ATOM     19  H   UNL     1     -21.822  21.562  16.243  1.00  0.00     0.293 HD
ENDBRANCH  15  18
BRANCH  17  20
ATOM     20  O   UNL     1     -23.488  25.118  16.061  1.00  0.00    -0.504 OA
ATOM     21  H   UNL     1     -23.979  25.649  16.767  1.00  0.00     0.293 HD
ENDBRANCH  17  20
ENDBRANCH   1  12
BRANCH   2  22
ATOM     22  O   UNL     1     -20.949  28.688  15.972  1.00  0.00    -0.502 OA
ATOM     23  H   UNL     1     -21.616  28.128  15.456  1.00  0.00     0.293 HD
ENDBRANCH   2  22
BRANCH   9  24
ATOM     24  O   UNL     1     -13.191  28.501  15.628  1.00  0.00    -0.508 OA
ATOM     25  H   UNL     1     -12.527  29.134  15.199  1.00  0.00     0.293 HD
ENDBRANCH   9  24
TORSDOF 5
ENDMDL
MODEL 3
REMARK VINA RESULT:    -3.783      2.055      2.929
REMARK INTER + INTRA:          -4.758
REMARK INTER:                  -5.078
REMARK INTRA:                   0.319
REMARK UNBOUND:                -0.312
REMARK SMILES O=c1c(O)c(-c2ccc(O)c(O)c2)oc2cc(O)ccc12
REMARK SMILES IDX 5 1 3 2 2 3 1 4 21 5 15 6 14 7 16 8 17 9 19 10 20 11 6 12
REMARK SMILES IDX 7 13 8 14 9 15 13 16 11 17 10 18 12 20 4 22 18 24
REMARK H PARENT 10 19 12 21 4 23 18 25
REMARK Flexibility Score: inf
ROOT
ATOM      1  C   UNL     1     -13.978  30.455  11.452  1.00  0.00     0.180 A 
ATOM      2  C   UNL     1     -13.014  29.545  11.929  1.00  0.00     0.208 A 
ATOM      3  C   UNL     1     -13.204  28.955  13.188  1.00  0.00     0.235 A 
ATOM      4  O   UNL     1     -12.360  28.129  13.632  1.00  0.00    -0.285 OA
ATOM      5  C   UNL     1     -14.333  29.299  13.948  1.00  0.00     0.069 A 
ATOM      6  C   UNL     1     -15.240  30.238  13.411  1.00  0.00     0.142 A 
ATOM      7  O   UNL     1     -15.028  30.766  12.210  1.00  0.00    -0.452 OA
ATOM      8  C   UNL     1     -16.372  30.615  14.141  1.00  0.00     0.094 A 
ATOM      9  C   UNL     1     -16.612  30.064  15.404  1.00  0.00     0.119 A 
ATOM     10  C   UNL     1     -15.715  29.131  15.941  1.00  0.00     0.047 A 
ATOM     11  C   UNL     1     -14.579  28.749  15.220  1.00  0.00     0.020 A 
ENDROOT
BRANCH   1  12
ATOM     12  C   UNL     1     -13.858  31.105  10.126  1.00  0.00     0.025 A 
ATOM     13  C   UNL     1     -12.586  31.372   9.602  1.00  0.00     0.016 A 
ATOM     14  C   UNL     1     -12.450  32.002   8.363  1.00  0.00     0.051 A 
ATOM     15  C   UNL     1     -13.577  32.391   7.633  1.00  0.00     0.157 A 
ATOM     16  C   UNL     1     -14.993  31.514   9.406  1.00  0.00     0.062 A 
ATOM     17  C   UNL     1     -14.866  32.150   8.164  1.00  0.00     0.158 A 
BRANCH  15  18
ATOM     18  O   UNL     1     -13.373  33.009   6.398  1.00  0.00    -0.504 OA
ATOM     19  H   UNL     1     -12.507  33.453   6.126  1.00  0.00     0.293 HD
ENDBRANCH  15  18
BRANCH  17  20
ATOM     20  O   UNL     1     -16.037  32.527   7.503  1.00  0.00    -0.504 OA
ATOM     21  H   UNL     1     -16.195  33.446   7.114  1.00  0.00     0.293 HD
ENDBRANCH  17  20
ENDBRANCH   1  12
BRANCH   2  22
ATOM     22  O   UNL     1     -11.875  29.258  11.172  1.00  0.00    -0.502 OA
ATOM     23  H   UNL     1     -11.271  28.471  11.378  1.00  0.00     0.293 HD
ENDBRANCH   2  22
BRANCH   9  24
ATOM     24  O   UNL     1     -17.745  30.450  16.118  1.00  0.00    -0.508 OA
ATOM     25  H   UNL     1     -18.504  29.803  16.296  1.00  0.00     0.293 HD
ENDBRANCH   9  24
TORSDOF 5
ENDMDL
MODEL 4
REMARK VINA RESULT:    -3.708      5.277      7.049
REMARK INTER + INTRA:          -4.670
REMARK INTER:                  -4.347
REMARK INTRA:                  -0.324
REMARK UNBOUND:                -0.312
REMARK SMILES O=c1c(O)c(-c2ccc(O)c(O)c2)oc2cc(O)ccc12
REMARK SMILES IDX 5 1 3 2 2 3 1 4 21 5 15 6 14 7 16 8 17 9 19 10 20 11 6 12
REMARK SMILES IDX 7 13 8 14 9 15 13 16 11 17 10 18 12 20 4 22 18 24
REMARK H PARENT 10 19 12 21 4 23 18 25
REMARK Flexibility Score: inf
ROOT
ATOM      1  C   UNL     1     -16.800  29.478  15.323  1.00  0.00     0.180 A 
ATOM      2  C   UNL     1     -16.829  28.096  15.598  1.00  0.00     0.208 A 
ATOM      3  C   UNL     1     -18.063  27.482  15.859  1.00  0.00     0.235 A 
ATOM      4  O   UNL     1     -18.115  26.244  16.097  1.00  0.00    -0.285 OA
ATOM      5  C   UNL     1     -19.233  28.259  15.863  1.00  0.00     0.069 A 
ATOM      6  C   UNL     1     -19.118  29.642  15.604  1.00  0.00     0.142 A 
ATOM      7  O   UNL     1     -17.931  30.182  15.351  1.00  0.00    -0.452 OA
ATOM      8  C   UNL     1     -20.259  30.452  15.608  1.00  0.00     0.094 A 
ATOM      9  C   UNL     1     -21.517  29.898  15.867  1.00  0.00     0.119 A 
ATOM     10  C   UNL     1     -21.635  28.525  16.123  1.00  0.00     0.047 A 
ATOM     11  C   UNL     1     -20.501  27.707  16.123  1.00  0.00     0.020 A 
ENDROOT
BRANCH   1  12
ATOM     12  C   UNL     1     -15.540  30.194  15.020  1.00  0.00     0.025 A 
ATOM     13  C   UNL     1     -14.825  30.803  16.061  1.00  0.00     0.016 A 
ATOM     14  C   UNL     1     -13.645  31.500  15.794  1.00  0.00     0.051 A 
ATOM     15  C   UNL     1     -13.165  31.617  14.485  1.00  0.00     0.157 A 
ATOM     16  C   UNL     1     -15.074  30.329  13.702  1.00  0.00     0.062 A 
ATOM     17  C   UNL     1     -13.892  31.029  13.424  1.00  0.00     0.158 A 
BRANCH  15  18
ATOM     18  O   UNL     1     -11.976  32.320  14.288  1.00  0.00    -0.504 OA
ATOM     19  H   UNL     1     -11.925  33.323  14.178  1.00  0.00     0.293 HD
ENDBRANCH  15  18
BRANCH  17  20
ATOM     20  O   UNL     1     -13.488  31.121  12.090  1.00  0.00    -0.504 OA
ATOM     21  H   UNL     1     -13.880  31.773  11.425  1.00  0.00     0.293 HD
ENDBRANCH  17  20
ENDBRANCH   1  12
BRANCH   2  22
ATOM     22  O   UNL     1     -15.643  27.357  15.635  1.00  0.00    -0.502 OA
ATOM     23  H   UNL     1     -15.494  26.542  15.053  1.00  0.00     0.293 HD
ENDBRANCH   2  22
BRANCH   9  24
ATOM     24  O   UNL     1     -22.642  30.718  15.867  1.00  0.00    -0.508 OA
ATOM     25  H   UNL     1     -23.335  30.666  15.130  1.00  0.00     0.293 HD
ENDBRANCH   9  24
TORSDOF 5
ENDMDL
MODEL 5
REMARK VINA RESULT:    -3.457      5.241      6.791
REMARK INTER + INTRA:          -4.375
REMARK INTER:                  -4.490
REMARK INTRA:                   0.114
REMARK UNBOUND:                -0.312
REMARK SMILES O=c1c(O)c(-c2ccc(O)c(O)c2)oc2cc(O)ccc12
REMARK SMILES IDX 5 1 3 2 2 3 1 4 21 5 15 6 14 7 16 8 17 9 19 10 20 11 6 12
REMARK SMILES IDX 7 13 8 14 9 15 13 16 11 17 10 18 12 20 4 22 18 24
REMARK H PARENT 10 19 12 21 4 23 18 25
REMARK Flexibility Score: inf
ROOT
ATOM      1  C   UNL     1     -17.086  29.267  15.516  1.00  0.00     0.180 A 
ATOM      2  C   UNL     1     -18.197  30.118  15.690  1.00  0.00     0.208 A 
ATOM      3  C   UNL     1     -19.461  29.547  15.904  1.00  0.00     0.235 A 
ATOM      4  O   UNL     1     -20.468  30.288  16.073  1.00  0.00    -0.285 OA
ATOM      5  C   UNL     1     -19.593  28.149  15.920  1.00  0.00     0.069 A 
ATOM      6  C   UNL     1     -18.437  27.366  15.714  1.00  0.00     0.142 A 
ATOM      7  O   UNL     1     -17.256  27.946  15.523  1.00  0.00    -0.452 OA
ATOM      8  C   UNL     1     -18.528  25.970  15.712  1.00  0.00     0.094 A 
ATOM      9  C   UNL     1     -19.762  25.343  15.917  1.00  0.00     0.119 A 
ATOM     10  C   UNL     1     -20.912  26.117  16.124  1.00  0.00     0.047 A 
ATOM     11  C   UNL     1     -20.831  27.514  16.125  1.00  0.00     0.020 A 
ENDROOT
BRANCH   1  12
ATOM     12  C   UNL     1     -15.719  29.793  15.303  1.00  0.00     0.025 A 
ATOM     13  C   UNL     1     -15.263  30.865  16.083  1.00  0.00     0.016 A 
ATOM     14  C   UNL     1     -13.984  31.390  15.885  1.00  0.00     0.051 A 
ATOM     15  C   UNL     1     -13.144  30.868  14.896  1.00  0.00     0.157 A 
ATOM     16  C   UNL     1     -14.887  29.282  14.293  1.00  0.00     0.062 A 
ATOM     17  C   UNL     1     -13.603  29.804  14.085  1.00  0.00     0.158 A 
BRANCH  15  18
ATOM     18  O   UNL     1     -11.875  31.433  14.754  1.00  0.00    -0.504 OA
ATOM     19  H   UNL     1     -11.272  31.667  15.530  1.00  0.00     0.293 HD
ENDBRANCH  15  18
BRANCH  17  20
ATOM     20  O   UNL     1     -12.830  29.245  13.065  1.00  0.00    -0.504 OA
ATOM     21  H   UNL     1     -12.088  29.735  12.586  1.00  0.00     0.293 HD
ENDBRANCH  17  20
ENDBRANCH   1  12
BRANCH   2  22
ATOM     22  O   UNL     1     -18.044  31.505  15.620  1.00  0.00    -0.502 OA
ATOM     23  H   UNL     1     -18.368  32.124  16.354  1.00  0.00     0.293 HD
ENDBRANCH   2  22
BRANCH   9  24
ATOM     24  O   UNL     1     -19.835  23.952  15.914  1.00  0.00    -0.508 OA
ATOM     25  H   UNL     1     -19.016  23.379  16.078  1.00  0.00     0.293 HD
ENDBRANCH   9  24
TORSDOF 5
ENDMDL
MODEL 6
REMARK VINA RESULT:    -3.447      4.984      6.998
REMARK INTER + INTRA:          -4.364
REMARK INTER:                  -4.913
REMARK INTRA:                   0.549
REMARK UNBOUND:                -0.312
REMARK SMILES O=c1c(O)c(-c2ccc(O)c(O)c2)oc2cc(O)ccc12
REMARK SMILES IDX 5 1 3 2 2 3 1 4 21 5 15 6 14 7 16 8 17 9 19 10 20 11 6 12
REMARK SMILES IDX 7 13 8 14 9 15 13 16 11 17 10 18 12 20 4 22 18 24
REMARK H PARENT 10 19 12 21 4 23 18 25
REMARK Flexibility Score: inf
ROOT
ATOM      1  C   UNL     1     -16.807  29.309  15.755  1.00  0.00     0.180 A 
ATOM      2  C   UNL     1     -16.090  30.516  15.881  1.00  0.00     0.208 A 
ATOM      3  C   UNL     1     -14.691  30.485  15.787  1.00  0.00     0.235 A 
ATOM      4  O   UNL     1     -14.027  31.554  15.886  1.00  0.00    -0.285 OA
ATOM      5  C   UNL     1     -14.038  29.257  15.592  1.00  0.00     0.069 A 
ATOM      6  C   UNL     1     -14.826  28.089  15.501  1.00  0.00     0.142 A 
ATOM      7  O   UNL     1     -16.150  28.162  15.586  1.00  0.00    -0.452 OA
ATOM      8  C   UNL     1     -14.214  26.845  15.317  1.00  0.00     0.094 A 
ATOM      9  C   UNL     1     -12.822  26.750  15.221  1.00  0.00     0.119 A 
ATOM     10  C   UNL     1     -12.036  27.908  15.310  1.00  0.00     0.047 A 
ATOM     11  C   UNL     1     -12.638  29.156  15.496  1.00  0.00     0.020 A 
ENDROOT
BRANCH   1  12
ATOM     12  C   UNL     1     -18.286  29.261  15.824  1.00  0.00     0.025 A 
ATOM     13  C   UNL     1     -19.005  30.450  16.012  1.00  0.00     0.016 A 
ATOM     14  C   UNL     1     -20.399  30.426  16.100  1.00  0.00     0.051 A 
ATOM     15  C   UNL     1     -21.098  29.217  16.020  1.00  0.00     0.157 A 
ATOM     16  C   UNL     1     -18.983  28.043  15.767  1.00  0.00     0.062 A 
ATOM     17  C   UNL     1     -20.381  28.009  15.858  1.00  0.00     0.158 A 
BRANCH  15  18
ATOM     18  O   UNL     1     -22.491  29.263  16.108  1.00  0.00    -0.504 OA
ATOM     19  H   UNL     1     -23.092  28.463  15.968  1.00  0.00     0.293 HD
ENDBRANCH  15  18
BRANCH  17  20
ATOM     20  O   UNL     1     -21.007  26.762  15.790  1.00  0.00    -0.504 OA
ATOM     21  H   UNL     1     -21.868  26.590  15.290  1.00  0.00     0.293 HD
ENDBRANCH  17  20
ENDBRANCH   1  12
BRANCH   2  22
ATOM     22  O   UNL     1     -16.763  31.717  16.123  1.00  0.00    -0.502 OA
ATOM     23  H   UNL     1     -16.327  32.620  15.982  1.00  0.00     0.293 HD
ENDBRANCH   2  22
BRANCH   9  24
ATOM     24  O   UNL     1     -12.228  25.504  15.037  1.00  0.00    -0.508 OA
ATOM     25  H   UNL     1     -11.940  24.934  15.823  1.00  0.00     0.293 HD
ENDBRANCH   9  24
TORSDOF 5
ENDMDL
MODEL 7
REMARK VINA RESULT:    -3.173      4.617      7.480
REMARK INTER + INTRA:          -4.042
REMARK INTER:                  -4.352
REMARK INTRA:                   0.311
REMARK UNBOUND:                -0.312
REMARK SMILES O=c1c(O)c(-c2ccc(O)c(O)c2)oc2cc(O)ccc12
REMARK SMILES IDX 5 1 3 2 2 3 1 4 21 5 15 6 14 7 16 8 17 9 19 10 20 11 6 12
REMARK SMILES IDX 7 13 8 14 9 15 13 16 11 17 10 18 12 20 4 22 18 24
REMARK H PARENT 10 19 12 21 4 23 18 25
REMARK Flexibility Score: inf
ROOT
ATOM      1  C   UNL     1     -16.243  28.714  15.416  1.00  0.00     0.180 A 
ATOM      2  C   UNL     1     -15.185  27.913  14.940  1.00  0.00     0.208 A 
ATOM      3  C   UNL     1     -13.911  28.485  14.805  1.00  0.00     0.235 A 
ATOM      4  O   UNL     1     -12.945  27.785  14.391  1.00  0.00    -0.285 OA
ATOM      5  C   UNL     1     -13.724  29.839  15.124  1.00  0.00     0.069 A 
ATOM      6  C   UNL     1     -14.839  30.580  15.570  1.00  0.00     0.142 A 
ATOM      7  O   UNL     1     -16.028  29.998  15.694  1.00  0.00    -0.452 OA
ATOM      8  C   UNL     1     -14.697  31.935  15.889  1.00  0.00     0.094 A 
ATOM      9  C   UNL     1     -13.452  32.561  15.770  1.00  0.00     0.119 A 
ATOM     10  C   UNL     1     -12.342  31.828  15.328  1.00  0.00     0.047 A 
ATOM     11  C   UNL     1     -12.474  30.474  15.005  1.00  0.00     0.020 A 
ENDROOT
BRANCH   1  12
ATOM     12  C   UNL     1     -17.611  28.179  15.604  1.00  0.00     0.025 A 
ATOM     13  C   UNL     1     -17.784  26.825  15.926  1.00  0.00     0.016 A 
ATOM     14  C   UNL     1     -19.066  26.296  16.088  1.00  0.00     0.051 A 
ATOM     15  C   UNL     1     -20.198  27.100  15.915  1.00  0.00     0.157 A 
ATOM     16  C   UNL     1     -18.745  28.984  15.407  1.00  0.00     0.062 A 
ATOM     17  C   UNL     1     -20.035  28.461  15.564  1.00  0.00     0.158 A 
BRANCH  15  18
ATOM     18  O   UNL     1     -21.450  26.511  16.098  1.00  0.00    -0.504 OA
ATOM     19  H   UNL     1     -22.163  26.881  16.710  1.00  0.00     0.293 HD
ENDBRANCH  15  18
BRANCH  17  20
ATOM     20  O   UNL     1     -21.116  29.320  15.355  1.00  0.00    -0.504 OA
ATOM     21  H   UNL     1     -21.062  30.176  14.821  1.00  0.00     0.293 HD
ENDBRANCH  17  20
ENDBRANCH   1  12
BRANCH   2  22
ATOM     22  O   UNL     1     -15.411  26.581  14.584  1.00  0.00    -0.502 OA
ATOM     23  H   UNL     1     -15.938  25.945  15.169  1.00  0.00     0.293 HD
ENDBRANCH   2  22
BRANCH   9  24
ATOM     24  O   UNL     1     -13.327  33.910  16.092  1.00  0.00    -0.508 OA
ATOM     25  H   UNL     1     -13.931  34.611  15.679  1.00  0.00     0.293 HD
ENDBRANCH   9  24
TORSDOF 5
ENDMDL
