MODEL 1
REMARK VINA RESULT:    -5.697      0.000      0.000
REMARK INTER + INTRA:          -8.828
REMARK INTER:                  -7.695
REMARK INTRA:                  -1.133
REMARK UNBOUND:                -1.133
REMARK SMILES O=c1c(-c2ccc(O)cc2)coc2c([C@@H]3O[C@H](CO)[C@H](O)[C@H](O)[C@H]3O)c(O)ccc12
REMARK SMILES IDX 3 1 11 2 12 3 13 4 30 5 2 6 1 7 29 8 28 9 26 10 14 11 4 12
REMARK SMILES IDX 5 13 6 14 7 15 10 16 9 17 8 18 15 20 24 21 16 22 22 23 17 24
REMARK SMILES IDX 20 25 25 26 23 28 18 30 19 31 21 33 27 35
REMARK H PARENT 8 19 25 27 23 29 19 32 21 34 27 36
REMARK Flexibility Score: inf
ROOT
ATOM      1  C   UNL     1       2.367  38.293   6.912  1.00  0.00     0.065 A 
ATOM      2  C   UNL     1       1.544  39.211   7.578  1.00  0.00     0.208 A 
ATOM      3  O   UNL     1       0.223  39.085   7.545  1.00  0.00    -0.463 OA
ATOM      4  C   UNL     1      -0.405  38.092   6.909  1.00  0.00     0.147 A 
ATOM      5  C   UNL     1       0.351  37.114   6.219  1.00  0.00     0.066 A 
ATOM      6  C   UNL     1       1.755  37.234   6.210  1.00  0.00     0.200 A 
ATOM      7  O   UNL     1       2.465  36.382   5.602  1.00  0.00    -0.288 OA
ATOM      8  C   UNL     1      -0.306  36.047   5.592  1.00  0.00     0.020 A 
ATOM      9  C   UNL     1      -1.687  35.921   5.702  1.00  0.00     0.047 A 
ATOM     10  C   UNL     1      -2.442  36.873   6.398  1.00  0.00     0.125 A 
ATOM     11  C   UNL     1      -1.820  38.009   6.946  1.00  0.00     0.069 A 
ENDROOT
BRANCH   1  12
ATOM     12  C   UNL     1       3.837  38.429   7.001  1.00  0.00    -0.011 A 
ATOM     13  C   UNL     1       4.548  37.721   7.982  1.00  0.00     0.013 A 
ATOM     14  C   UNL     1       5.934  37.863   8.086  1.00  0.00     0.047 A 
ATOM     15  C   UNL     1       6.624  38.719   7.217  1.00  0.00     0.115 A 
ATOM     16  C   UNL     1       4.536  39.279   6.123  1.00  0.00     0.013 A 
ATOM     17  C   UNL     1       5.923  39.424   6.232  1.00  0.00     0.047 A 
BRANCH  15  18
ATOM     18  O   UNL     1       8.005  38.862   7.343  1.00  0.00    -0.508 OA
ATOM     19  H   UNL     1       8.517  39.571   6.826  1.00  0.00     0.293 HD
ENDBRANCH  15  18
ENDBRANCH   1  12
BRANCH  11  20
ATOM     20  C   UNL     1      -2.626  39.114   7.623  1.00  0.00     0.188 C 
ATOM     21  C   UNL     1      -3.602  39.840   6.653  1.00  0.00     0.179 C 
ATOM     22  O   UNL     1      -3.336  38.556   8.723  1.00  0.00    -0.362 OA
ATOM     23  C   UNL     1      -4.388  40.917   7.427  1.00  0.00     0.177 C 
ATOM     24  C   UNL     1      -3.913  39.593   9.501  1.00  0.00     0.176 C 
ATOM     25  C   UNL     1      -5.022  40.310   8.697  1.00  0.00     0.177 C 
BRANCH  21  26
ATOM     26  O   UNL     1      -2.892  40.456   5.607  1.00  0.00    -0.387 OA
ATOM     27  H   UNL     1      -1.968  40.626   5.939  1.00  0.00     0.211 HD
ENDBRANCH  21  26
BRANCH  23  28
ATOM     28  O   UNL     1      -5.392  41.471   6.617  1.00  0.00    -0.387 OA
ATOM     29  H   UNL     1      -5.056  42.354   6.297  1.00  0.00     0.211 HD
ENDBRANCH  23  28
BRANCH  24  30
ATOM     30  C   UNL     1      -4.429  39.011  10.821  1.00  0.00     0.191 C 
BRANCH  30  31
ATOM     31  O   UNL     1      -5.610  39.658  11.213  1.00  0.00    -0.394 OA
ATOM     32  H   UNL     1      -5.557  40.575  10.835  1.00  0.00     0.210 HD
ENDBRANCH  30  31
ENDBRANCH  24  30
BRANCH  25  33
ATOM     33  O   UNL     1      -6.024  39.390   8.344  1.00  0.00    -0.388 OA
ATOM     34  H   UNL     1      -6.301  39.599   7.414  1.00  0.00     0.211 HD
ENDBRANCH  25  33
ENDBRANCH  11  20
BRANCH  10  35
ATOM     35  O   UNL     1      -3.809  36.672   6.558  1.00  0.00    -0.507 OA
ATOM     36  H   UNL     1      -4.484  37.302   6.151  1.00  0.00     0.293 HD
ENDBRANCH  10  35
TORSDOF 9
ENDMDL
MODEL 2
REMARK VINA RESULT:    -5.569      3.501      8.698
REMARK INTER + INTRA:          -8.655
REMARK INTER:                  -7.430
REMARK INTRA:                  -1.225
REMARK UNBOUND:                -1.133
REMARK SMILES O=c1c(-c2ccc(O)cc2)coc2c([C@@H]3O[C@H](CO)[C@H](O)[C@H](O)[C@H]3O)c(O)ccc12
REMARK SMILES IDX 3 1 11 2 12 3 13 4 30 5 2 6 1 7 29 8 28 9 26 10 14 11 4 12
REMARK SMILES IDX 5 13 6 14 7 15 10 16 9 17 8 18 15 20 24 21 16 22 22 23 17 24
REMARK SMILES IDX 20 25 25 26 23 28 18 30 19 31 21 33 27 35
REMARK H PARENT 8 19 25 27 23 29 19 32 21 34 27 36
REMARK Flexibility Score: inf
ROOT
ATOM      1  C   UNL     1      -4.226  43.906   8.305  1.00  0.00     0.065 A 
ATOM      2  C   UNL     1      -3.367  43.411   7.315  1.00  0.00     0.208 A 
ATOM      3  O   UNL     1      -2.970  42.144   7.335  1.00  0.00    -0.463 OA
ATOM      4  C   UNL     1      -3.363  41.265   8.262  1.00  0.00     0.147 A 
ATOM      5  C   UNL     1      -4.239  41.679   9.293  1.00  0.00     0.066 A 
ATOM      6  C   UNL     1      -4.658  43.025   9.319  1.00  0.00     0.200 A 
ATOM      7  O   UNL     1      -5.439  43.435  10.225  1.00  0.00    -0.288 OA
ATOM      8  C   UNL     1      -4.687  40.747  10.237  1.00  0.00     0.020 A 
ATOM      9  C   UNL     1      -4.319  39.410  10.121  1.00  0.00     0.047 A 
ATOM     10  C   UNL     1      -3.467  38.986   9.094  1.00  0.00     0.125 A 
ATOM     11  C   UNL     1      -2.918  39.921   8.197  1.00  0.00     0.069 A 
ENDROOT
BRANCH   1  12
ATOM     12  C   UNL     1      -4.690  45.310   8.236  1.00  0.00    -0.011 A 
ATOM     13  C   UNL     1      -5.749  45.655   7.384  1.00  0.00     0.013 A 
ATOM     14  C   UNL     1      -6.177  46.984   7.297  1.00  0.00     0.047 A 
ATOM     15  C   UNL     1      -5.546  47.980   8.054  1.00  0.00     0.115 A 
ATOM     16  C   UNL     1      -4.067  46.312   9.003  1.00  0.00     0.013 A 
ATOM     17  C   UNL     1      -4.492  47.642   8.911  1.00  0.00     0.047 A 
BRANCH  15  18
ATOM     18  O   UNL     1      -5.974  49.302   7.945  1.00  0.00    -0.508 OA
ATOM     19  H   UNL     1      -5.827  49.973   8.694  1.00  0.00     0.293 HD
ENDBRANCH  15  18
ENDBRANCH   1  12
BRANCH  11  20
ATOM     20  C   UNL     1      -1.910  39.507   7.129  1.00  0.00     0.188 C 
ATOM     21  C   UNL     1      -0.502  39.185   7.711  1.00  0.00     0.179 C 
ATOM     22  O   UNL     1      -2.426  38.388   6.419  1.00  0.00    -0.362 OA
ATOM     23  C   UNL     1       0.439  38.754   6.568  1.00  0.00     0.177 C 
ATOM     24  C   UNL     1      -1.618  38.122   5.283  1.00  0.00     0.176 C 
ATOM     25  C   UNL     1      -0.217  37.640   5.724  1.00  0.00     0.177 C 
BRANCH  21  26
ATOM     26  O   UNL     1       0.040  40.315   8.348  1.00  0.00    -0.387 OA
ATOM     27  H   UNL     1      -0.663  40.675   8.956  1.00  0.00     0.211 HD
ENDBRANCH  21  26
BRANCH  23  28
ATOM     28  O   UNL     1       1.663  38.297   7.084  1.00  0.00    -0.387 OA
ATOM     29  H   UNL     1       1.452  37.721   7.870  1.00  0.00     0.211 HD
ENDBRANCH  23  28
BRANCH  24  30
ATOM     30  C   UNL     1      -2.328  37.110   4.378  1.00  0.00     0.191 C 
BRANCH  30  31
ATOM     31  O   UNL     1      -2.921  36.097   5.147  1.00  0.00    -0.394 OA
ATOM     32  H   UNL     1      -3.613  36.544   5.700  1.00  0.00     0.210 HD
ENDBRANCH  30  31
ENDBRANCH  24  30
BRANCH  25  33
ATOM     33  O   UNL     1      -0.337  36.464   6.486  1.00  0.00    -0.388 OA
ATOM     34  H   UNL     1       0.573  36.223   6.800  1.00  0.00     0.211 HD
ENDBRANCH  25  33
ENDBRANCH  11  20
BRANCH  10  35
ATOM     35  O   UNL     1      -3.185  37.631   8.959  1.00  0.00    -0.507 OA
ATOM     36  H   UNL     1      -3.410  36.972   9.691  1.00  0.00     0.293 HD
ENDBRANCH  10  35
TORSDOF 9
ENDMDL
MODEL 3
REMARK VINA RESULT:    -5.412      3.681      6.283
REMARK INTER + INTRA:          -8.444
REMARK INTER:                  -7.379
REMARK INTRA:                  -1.064
REMARK UNBOUND:                -1.133
REMARK SMILES O=c1c(-c2ccc(O)cc2)coc2c([C@@H]3O[C@H](CO)[C@H](O)[C@H](O)[C@H]3O)c(O)ccc12
REMARK SMILES IDX 3 1 11 2 12 3 13 4 30 5 2 6 1 7 29 8 28 9 26 10 14 11 4 12
REMARK SMILES IDX 5 13 6 14 7 15 10 16 9 17 8 18 15 20 24 21 16 22 22 23 17 24
REMARK SMILES IDX 20 25 25 26 23 28 18 30 19 31 21 33 27 35
REMARK H PARENT 8 19 25 27 23 29 19 32 21 34 27 36
REMARK Flexibility Score: inf
ROOT
ATOM      1  C   UNL     1      -1.593  40.066   7.040  1.00  0.00     0.065 A 
ATOM      2  C   UNL     1      -1.507  41.348   6.481  1.00  0.00     0.208 A 
ATOM      3  O   UNL     1      -2.317  42.319   6.886  1.00  0.00    -0.463 OA
ATOM      4  C   UNL     1      -3.235  42.159   7.842  1.00  0.00     0.147 A 
ATOM      5  C   UNL     1      -3.382  40.898   8.469  1.00  0.00     0.066 A 
ATOM      6  C   UNL     1      -2.558  39.837   8.043  1.00  0.00     0.200 A 
ATOM      7  O   UNL     1      -2.661  38.695   8.576  1.00  0.00    -0.288 OA
ATOM      8  C   UNL     1      -4.313  40.744   9.504  1.00  0.00     0.020 A 
ATOM      9  C   UNL     1      -5.042  41.842   9.951  1.00  0.00     0.047 A 
ATOM     10  C   UNL     1      -4.891  43.098   9.351  1.00  0.00     0.125 A 
ATOM     11  C   UNL     1      -4.041  43.255   8.240  1.00  0.00     0.069 A 
ENDROOT
BRANCH   1  12
ATOM     12  C   UNL     1      -0.650  39.012   6.604  1.00  0.00    -0.011 A 
ATOM     13  C   UNL     1       0.635  38.948   7.164  1.00  0.00     0.013 A 
ATOM     14  C   UNL     1       1.538  37.969   6.740  1.00  0.00     0.047 A 
ATOM     15  C   UNL     1       1.170  37.050   5.748  1.00  0.00     0.115 A 
ATOM     16  C   UNL     1      -1.019  38.081   5.616  1.00  0.00     0.013 A 
ATOM     17  C   UNL     1      -0.112  37.105   5.188  1.00  0.00     0.047 A 
BRANCH  15  18
ATOM     18  O   UNL     1       2.087  36.089   5.324  1.00  0.00    -0.508 OA
ATOM     19  H   UNL     1       2.675  36.236   4.509  1.00  0.00     0.293 HD
ENDBRANCH  15  18
ENDBRANCH   1  12
BRANCH  11  20
ATOM     20  C   UNL     1      -3.930  44.585   7.502  1.00  0.00     0.188 C 
ATOM     21  C   UNL     1      -5.141  44.867   6.564  1.00  0.00     0.179 C 
ATOM     22  O   UNL     1      -3.783  45.630   8.456  1.00  0.00    -0.362 OA
ATOM     23  C   UNL     1      -4.954  46.238   5.883  1.00  0.00     0.177 C 
ATOM     24  C   UNL     1      -3.455  46.843   7.798  1.00  0.00     0.176 C 
ATOM     25  C   UNL     1      -4.646  47.323   6.936  1.00  0.00     0.177 C 
BRANCH  21  26
ATOM     26  O   UNL     1      -5.241  43.874   5.574  1.00  0.00    -0.387 OA
ATOM     27  H   UNL     1      -6.170  43.514   5.612  1.00  0.00     0.211 HD
ENDBRANCH  21  26
BRANCH  23  28
ATOM     28  O   UNL     1      -6.108  46.590   5.164  1.00  0.00    -0.387 OA
ATOM     29  H   UNL     1      -6.074  47.577   5.022  1.00  0.00     0.211 HD
ENDBRANCH  23  28
BRANCH  24  30
ATOM     30  C   UNL     1      -3.025  47.886   8.835  1.00  0.00     0.191 C 
BRANCH  30  31
ATOM     31  O   UNL     1      -2.979  47.313  10.114  1.00  0.00    -0.394 OA
ATOM     32  H   UNL     1      -3.922  47.239  10.415  1.00  0.00     0.210 HD
ENDBRANCH  30  31
ENDBRANCH  24  30
BRANCH  25  33
ATOM     33  O   UNL     1      -5.770  47.535   7.754  1.00  0.00    -0.388 OA
ATOM     34  H   UNL     1      -5.534  47.220   8.666  1.00  0.00     0.211 HD
ENDBRANCH  25  33
ENDBRANCH  11  20
BRANCH  10  35
ATOM     35  O   UNL     1      -5.574  44.189   9.876  1.00  0.00    -0.507 OA
ATOM     36  H   UNL     1      -5.425  45.123   9.522  1.00  0.00     0.293 HD
ENDBRANCH  10  35
TORSDOF 9
ENDMDL
MODEL 4
REMARK VINA RESULT:    -5.367      5.241      8.434
REMARK INTER + INTRA:          -8.383
REMARK INTER:                  -7.537
REMARK INTRA:                  -0.846
REMARK UNBOUND:                -1.133
REMARK SMILES O=c1c(-c2ccc(O)cc2)coc2c([C@@H]3O[C@H](CO)[C@H](O)[C@H](O)[C@H]3O)c(O)ccc12
REMARK SMILES IDX 3 1 11 2 12 3 13 4 30 5 2 6 1 7 29 8 28 9 26 10 14 11 4 12
REMARK SMILES IDX 5 13 6 14 7 15 10 16 9 17 8 18 15 20 24 21 16 22 22 23 17 24
REMARK SMILES IDX 20 25 25 26 23 28 18 30 19 31 21 33 27 35
REMARK H PARENT 8 19 25 27 23 29 19 32 21 34 27 36
REMARK Flexibility Score: inf
ROOT
ATOM      1  C   UNL     1      -4.582  44.116   8.848  1.00  0.00     0.065 A 
ATOM      2  C   UNL     1      -5.200  43.533   9.962  1.00  0.00     0.208 A 
ATOM      3  O   UNL     1      -5.098  42.229  10.188  1.00  0.00    -0.463 OA
ATOM      4  C   UNL     1      -4.403  41.399   9.405  1.00  0.00     0.147 A 
ATOM      5  C   UNL     1      -3.738  41.907   8.263  1.00  0.00     0.066 A 
ATOM      6  C   UNL     1      -3.849  43.282   7.977  1.00  0.00     0.200 A 
ATOM      7  O   UNL     1      -3.272  43.773   6.965  1.00  0.00    -0.288 OA
ATOM      8  C   UNL     1      -2.971  41.045   7.469  1.00  0.00     0.020 A 
ATOM      9  C   UNL     1      -2.817  39.712   7.838  1.00  0.00     0.047 A 
ATOM     10  C   UNL     1      -3.455  39.204   8.977  1.00  0.00     0.125 A 
ATOM     11  C   UNL     1      -4.316  40.023   9.732  1.00  0.00     0.069 A 
ENDROOT
BRANCH   1  12
ATOM     12  C   UNL     1      -4.673  45.578   8.642  1.00  0.00    -0.011 A 
ATOM     13  C   UNL     1      -3.816  46.439   9.344  1.00  0.00     0.013 A 
ATOM     14  C   UNL     1      -3.913  47.822   9.171  1.00  0.00     0.047 A 
ATOM     15  C   UNL     1      -4.871  48.361   8.301  1.00  0.00     0.115 A 
ATOM     16  C   UNL     1      -5.627  46.123   7.760  1.00  0.00     0.013 A 
ATOM     17  C   UNL     1      -5.726  47.508   7.593  1.00  0.00     0.047 A 
BRANCH  15  18
ATOM     18  O   UNL     1      -4.965  49.743   8.151  1.00  0.00    -0.508 OA
ATOM     19  H   UNL     1      -5.190  50.351   8.933  1.00  0.00     0.293 HD
ENDBRANCH  15  18
ENDBRANCH   1  12
BRANCH  11  20
ATOM     20  C   UNL     1      -5.104  39.474  10.917  1.00  0.00     0.188 C 
ATOM     21  C   UNL     1      -6.533  38.992  10.531  1.00  0.00     0.179 C 
ATOM     22  O   UNL     1      -4.362  38.416  11.511  1.00  0.00    -0.362 OA
ATOM     23  C   UNL     1      -7.241  38.433  11.782  1.00  0.00     0.177 C 
ATOM     24  C   UNL     1      -4.960  38.038  12.741  1.00  0.00     0.176 C 
ATOM     25  C   UNL     1      -6.343  37.395  12.488  1.00  0.00     0.177 C 
BRANCH  21  26
ATOM     26  O   UNL     1      -7.291  40.057  10.014  1.00  0.00    -0.387 OA
ATOM     27  H   UNL     1      -6.802  40.898  10.230  1.00  0.00     0.211 HD
ENDBRANCH  21  26
BRANCH  23  28
ATOM     28  O   UNL     1      -8.464  37.839  11.430  1.00  0.00    -0.387 OA
ATOM     29  H   UNL     1      -8.484  37.777  10.435  1.00  0.00     0.211 HD
ENDBRANCH  23  28
BRANCH  24  30
ATOM     30  C   UNL     1      -4.012  37.105  13.503  1.00  0.00     0.191 C 
BRANCH  30  31
ATOM     31  O   UNL     1      -3.248  37.833  14.428  1.00  0.00    -0.394 OA
ATOM     32  H   UNL     1      -2.858  37.162  15.047  1.00  0.00     0.210 HD
ENDBRANCH  30  31
ENDBRANCH  24  30
BRANCH  25  33
ATOM     33  O   UNL     1      -6.197  36.254  11.680  1.00  0.00    -0.388 OA
ATOM     34  H   UNL     1      -5.224  36.108  11.550  1.00  0.00     0.211 HD
ENDBRANCH  25  33
ENDBRANCH  11  20
BRANCH  10  35
ATOM     35  O   UNL     1      -3.214  37.890   9.363  1.00  0.00    -0.507 OA
ATOM     36  H   UNL     1      -3.790  37.131   9.032  1.00  0.00     0.293 HD
ENDBRANCH  10  35
TORSDOF 9
ENDMDL
MODEL 5
REMARK VINA RESULT:    -5.282      6.459      9.810
REMARK INTER + INTRA:          -8.267
REMARK INTER:                  -7.094
REMARK INTRA:                  -1.173
REMARK UNBOUND:                -1.133
REMARK SMILES O=c1c(-c2ccc(O)cc2)coc2c([C@@H]3O[C@H](CO)[C@H](O)[C@H](O)[C@H]3O)c(O)ccc12
REMARK SMILES IDX 3 1 11 2 12 3 13 4 30 5 2 6 1 7 29 8 28 9 26 10 14 11 4 12
REMARK SMILES IDX 5 13 6 14 7 15 10 16 9 17 8 18 15 20 24 21 16 22 22 23 17 24
REMARK SMILES IDX 20 25 25 26 23 28 18 30 19 31 21 33 27 35
REMARK H PARENT 8 19 25 27 23 29 19 32 21 34 27 36
REMARK Flexibility Score: inf
ROOT
ATOM      1  C   UNL     1      -4.820  41.941   9.338  1.00  0.00     0.065 A 
ATOM      2  C   UNL     1      -5.288  43.120   9.933  1.00  0.00     0.208 A 
ATOM      3  O   UNL     1      -4.984  44.305   9.418  1.00  0.00    -0.463 OA
ATOM      4  C   UNL     1      -4.246  44.460   8.315  1.00  0.00     0.147 A 
ATOM      5  C   UNL     1      -3.742  43.321   7.644  1.00  0.00     0.066 A 
ATOM      6  C   UNL     1      -4.022  42.047   8.179  1.00  0.00     0.200 A 
ATOM      7  O   UNL     1      -3.587  41.006   7.610  1.00  0.00    -0.288 OA
ATOM      8  C   UNL     1      -3.009  43.483   6.461  1.00  0.00     0.020 A 
ATOM      9  C   UNL     1      -2.832  44.753   5.922  1.00  0.00     0.047 A 
ATOM     10  C   UNL     1      -3.343  45.886   6.568  1.00  0.00     0.125 A 
ATOM     11  C   UNL     1      -3.991  45.761   7.811  1.00  0.00     0.069 A 
ENDROOT
BRANCH   1  12
ATOM     12  C   UNL     1      -5.209  40.631   9.904  1.00  0.00    -0.011 A 
ATOM     13  C   UNL     1      -6.504  40.133   9.690  1.00  0.00     0.013 A 
ATOM     14  C   UNL     1      -6.885  38.906  10.241  1.00  0.00     0.047 A 
ATOM     15  C   UNL     1      -5.981  38.168  11.017  1.00  0.00     0.115 A 
ATOM     16  C   UNL     1      -4.301  39.881  10.674  1.00  0.00     0.013 A 
ATOM     17  C   UNL     1      -4.686  38.656  11.230  1.00  0.00     0.047 A 
BRANCH  15  18
ATOM     18  O   UNL     1      -6.380  36.954  11.573  1.00  0.00    -0.508 OA
ATOM     19  H   UNL     1      -6.639  36.162  10.993  1.00  0.00     0.293 HD
ENDBRANCH  15  18
ENDBRANCH   1  12
BRANCH  11  20
ATOM     20  C   UNL     1      -4.470  46.983   8.589  1.00  0.00     0.188 C 
ATOM     21  C   UNL     1      -3.326  47.702   9.362  1.00  0.00     0.179 C 
ATOM     22  O   UNL     1      -5.107  47.880   7.687  1.00  0.00    -0.362 OA
ATOM     23  C   UNL     1      -3.897  48.934  10.093  1.00  0.00     0.177 C 
ATOM     24  C   UNL     1      -5.755  48.914   8.411  1.00  0.00     0.176 C 
ATOM     25  C   UNL     1      -4.710  49.809   9.116  1.00  0.00     0.177 C 
BRANCH  21  26
ATOM     26  O   UNL     1      -2.747  46.837  10.306  1.00  0.00    -0.387 OA
ATOM     27  H   UNL     1      -1.897  46.498   9.912  1.00  0.00     0.211 HD
ENDBRANCH  21  26
BRANCH  23  28
ATOM     28  O   UNL     1      -2.861  49.694  10.659  1.00  0.00    -0.387 OA
ATOM     29  H   UNL     1      -2.265  49.059  11.146  1.00  0.00     0.211 HD
ENDBRANCH  23  28
BRANCH  24  30
ATOM     30  C   UNL     1      -6.663  49.706   7.465  1.00  0.00     0.191 C 
BRANCH  30  31
ATOM     31  O   UNL     1      -6.078  49.806   6.195  1.00  0.00    -0.394 OA
ATOM     32  H   UNL     1      -6.088  50.772   5.965  1.00  0.00     0.210 HD
ENDBRANCH  30  31
ENDBRANCH  24  30
BRANCH  25  33
ATOM     33  O   UNL     1      -3.856  50.386   8.160  1.00  0.00    -0.388 OA
ATOM     34  H   UNL     1      -4.370  50.463   7.315  1.00  0.00     0.211 HD
ENDBRANCH  25  33
ENDBRANCH  11  20
BRANCH  10  35
ATOM     35  O   UNL     1      -3.220  47.130   5.959  1.00  0.00    -0.507 OA
ATOM     36  H   UNL     1      -2.419  47.359   5.390  1.00  0.00     0.293 HD
ENDBRANCH  10  35
TORSDOF 9
ENDMDL
MODEL 6
REMARK VINA RESULT:    -5.189      3.222      8.372
REMARK INTER + INTRA:          -8.142
REMARK INTER:                  -7.365
REMARK INTRA:                  -0.776
REMARK UNBOUND:                -1.133
REMARK SMILES O=c1c(-c2ccc(O)cc2)coc2c([C@@H]3O[C@H](CO)[C@H](O)[C@H](O)[C@H]3O)c(O)ccc12
REMARK SMILES IDX 3 1 11 2 12 3 13 4 30 5 2 6 1 7 29 8 28 9 26 10 14 11 4 12
REMARK SMILES IDX 5 13 6 14 7 15 10 16 9 17 8 18 15 20 24 21 16 22 22 23 17 24
REMARK SMILES IDX 20 25 25 26 23 28 18 30 19 31 21 33 27 35
REMARK H PARENT 8 19 25 27 23 29 19 32 21 34 27 36
REMARK Flexibility Score: inf
ROOT
ATOM      1  C   UNL     1      -4.257  43.303   8.557  1.00  0.00     0.065 A 
ATOM      2  C   UNL     1      -3.385  42.711   7.634  1.00  0.00     0.208 A 
ATOM      3  O   UNL     1      -3.079  41.422   7.722  1.00  0.00    -0.463 OA
ATOM      4  C   UNL     1      -3.577  40.610   8.658  1.00  0.00     0.147 A 
ATOM      5  C   UNL     1      -4.475  41.124   9.625  1.00  0.00     0.066 A 
ATOM      6  C   UNL     1      -4.800  42.495   9.578  1.00  0.00     0.200 A 
ATOM      7  O   UNL     1      -5.596  42.992  10.425  1.00  0.00    -0.288 OA
ATOM      8  C   UNL     1      -5.034  40.263  10.577  1.00  0.00     0.020 A 
ATOM      9  C   UNL     1      -4.753  38.901  10.532  1.00  0.00     0.047 A 
ATOM     10  C   UNL     1      -3.881  38.379   9.568  1.00  0.00     0.125 A 
ATOM     11  C   UNL     1      -3.224  39.237   8.667  1.00  0.00     0.069 A 
ENDROOT
BRANCH   1  12
ATOM     12  C   UNL     1      -4.618  44.730   8.411  1.00  0.00    -0.011 A 
ATOM     13  C   UNL     1      -5.647  45.106   7.534  1.00  0.00     0.013 A 
ATOM     14  C   UNL     1      -5.978  46.454   7.375  1.00  0.00     0.047 A 
ATOM     15  C   UNL     1      -5.280  47.442   8.083  1.00  0.00     0.115 A 
ATOM     16  C   UNL     1      -3.927  45.725   9.129  1.00  0.00     0.013 A 
ATOM     17  C   UNL     1      -4.256  47.075   8.963  1.00  0.00     0.047 A 
BRANCH  15  18
ATOM     18  O   UNL     1      -5.611  48.784   7.902  1.00  0.00    -0.508 OA
ATOM     19  H   UNL     1      -6.557  49.124   8.048  1.00  0.00     0.293 HD
ENDBRANCH  15  18
ENDBRANCH   1  12
BRANCH  11  20
ATOM     20  C   UNL     1      -2.194  38.714   7.672  1.00  0.00     0.188 C 
ATOM     21  C   UNL     1      -2.775  38.507   6.242  1.00  0.00     0.179 C 
ATOM     22  O   UNL     1      -1.090  39.611   7.638  1.00  0.00    -0.362 OA
ATOM     23  C   UNL     1      -1.660  38.003   5.303  1.00  0.00     0.177 C 
ATOM     24  C   UNL     1      -0.025  39.040   6.895  1.00  0.00     0.176 C 
ATOM     25  C   UNL     1      -0.420  38.915   5.405  1.00  0.00     0.177 C 
BRANCH  21  26
ATOM     26  O   UNL     1      -3.816  37.563   6.264  1.00  0.00    -0.387 OA
ATOM     27  H   UNL     1      -4.542  37.940   6.833  1.00  0.00     0.211 HD
ENDBRANCH  21  26
BRANCH  23  28
ATOM     28  O   UNL     1      -2.115  37.968   3.975  1.00  0.00    -0.387 OA
ATOM     29  H   UNL     1      -1.365  38.290   3.401  1.00  0.00     0.211 HD
ENDBRANCH  23  28
BRANCH  24  30
ATOM     30  C   UNL     1       1.243  39.875   7.097  1.00  0.00     0.191 C 
BRANCH  30  31
ATOM     31  O   UNL     1       0.916  41.229   7.261  1.00  0.00    -0.394 OA
ATOM     32  H   UNL     1       1.422  41.719   6.561  1.00  0.00     0.210 HD
ENDBRANCH  30  31
ENDBRANCH  24  30
BRANCH  25  33
ATOM     33  O   UNL     1      -0.712  40.187   4.882  1.00  0.00    -0.388 OA
ATOM     34  H   UNL     1      -1.180  40.697   5.593  1.00  0.00     0.211 HD
ENDBRANCH  25  33
ENDBRANCH  11  20
BRANCH  10  35
ATOM     35  O   UNL     1      -3.688  37.003   9.499  1.00  0.00    -0.507 OA
ATOM     36  H   UNL     1      -4.043  36.386  10.215  1.00  0.00     0.293 HD
ENDBRANCH  10  35
TORSDOF 9
ENDMDL
MODEL 7
REMARK VINA RESULT:    -5.182      7.320     11.267
REMARK INTER + INTRA:          -8.132
REMARK INTER:                  -7.334
REMARK INTRA:                  -0.798
REMARK UNBOUND:                -1.133
REMARK SMILES O=c1c(-c2ccc(O)cc2)coc2c([C@@H]3O[C@H](CO)[C@H](O)[C@H](O)[C@H]3O)c(O)ccc12
REMARK SMILES IDX 3 1 11 2 12 3 13 4 30 5 2 6 1 7 29 8 28 9 26 10 14 11 4 12
REMARK SMILES IDX 5 13 6 14 7 15 10 16 9 17 8 18 15 20 24 21 16 22 22 23 17 24
REMARK SMILES IDX 20 25 25 26 23 28 18 30 19 31 21 33 27 35
REMARK H PARENT 8 19 25 27 23 29 19 32 21 34 27 36
REMARK Flexibility Score: inf
ROOT
ATOM      1  C   UNL     1      -4.912  44.811   8.370  1.00  0.00     0.065 A 
ATOM      2  C   UNL     1      -4.191  45.864   8.949  1.00  0.00     0.208 A 
ATOM      3  O   UNL     1      -4.458  47.124   8.627  1.00  0.00    -0.463 OA
ATOM      4  C   UNL     1      -5.417  47.476   7.767  1.00  0.00     0.147 A 
ATOM      5  C   UNL     1      -6.200  46.476   7.143  1.00  0.00     0.066 A 
ATOM      6  C   UNL     1      -5.926  45.126   7.441  1.00  0.00     0.200 A 
ATOM      7  O   UNL     1      -6.601  44.203   6.903  1.00  0.00    -0.288 OA
ATOM      8  C   UNL     1      -7.236  46.848   6.277  1.00  0.00     0.020 A 
ATOM      9  C   UNL     1      -7.529  48.194   6.082  1.00  0.00     0.047 A 
ATOM     10  C   UNL     1      -6.772  49.192   6.708  1.00  0.00     0.125 A 
ATOM     11  C   UNL     1      -5.660  48.847   7.499  1.00  0.00     0.069 A 
ENDROOT
BRANCH   1  12
ATOM     12  C   UNL     1      -4.627  43.418   8.779  1.00  0.00    -0.011 A 
ATOM     13  C   UNL     1      -5.283  42.866   9.890  1.00  0.00     0.013 A 
ATOM     14  C   UNL     1      -5.001  41.558  10.294  1.00  0.00     0.047 A 
ATOM     15  C   UNL     1      -4.057  40.791   9.599  1.00  0.00     0.115 A 
ATOM     16  C   UNL     1      -3.688  42.640   8.076  1.00  0.00     0.013 A 
ATOM     17  C   UNL     1      -3.403  41.333   8.486  1.00  0.00     0.047 A 
BRANCH  15  18
ATOM     18  O   UNL     1      -3.776  39.493  10.023  1.00  0.00    -0.508 OA
ATOM     19  H   UNL     1      -2.825  39.187  10.206  1.00  0.00     0.293 HD
ENDBRANCH  15  18
ENDBRANCH   1  12
BRANCH  11  20
ATOM     20  C   UNL     1      -4.755  49.911   8.113  1.00  0.00     0.188 C 
ATOM     21  C   UNL     1      -5.135  50.263   9.581  1.00  0.00     0.179 C 
ATOM     22  O   UNL     1      -3.406  49.467   8.038  1.00  0.00    -0.362 OA
ATOM     23  C   UNL     1      -4.156  51.323  10.125  1.00  0.00     0.177 C 
ATOM     24  C   UNL     1      -2.529  50.523   8.395  1.00  0.00     0.176 C 
ATOM     25  C   UNL     1      -2.698  50.876   9.890  1.00  0.00     0.177 C 
BRANCH  21  26
ATOM     26  O   UNL     1      -6.444  50.773   9.644  1.00  0.00    -0.387 OA
ATOM     27  H   UNL     1      -6.973  50.313   8.936  1.00  0.00     0.211 HD
ENDBRANCH  21  26
BRANCH  23  28
ATOM     28  O   UNL     1      -4.372  51.534  11.496  1.00  0.00    -0.387 OA
ATOM     29  H   UNL     1      -4.368  52.520  11.645  1.00  0.00     0.211 HD
ENDBRANCH  23  28
BRANCH  24  30
ATOM     30  C   UNL     1      -1.090  50.130   8.044  1.00  0.00     0.191 C 
BRANCH  30  31
ATOM     31  O   UNL     1      -0.818  48.826   8.479  1.00  0.00    -0.394 OA
ATOM     32  H   UNL     1      -1.540  48.256   8.103  1.00  0.00     0.210 HD
ENDBRANCH  30  31
ENDBRANCH  24  30
BRANCH  25  33
ATOM     33  O   UNL     1      -2.404  49.751  10.681  1.00  0.00    -0.388 OA
ATOM     34  H   UNL     1      -1.416  49.684  10.743  1.00  0.00     0.211 HD
ENDBRANCH  25  33
ENDBRANCH  11  20
BRANCH  10  35
ATOM     35  O   UNL     1      -7.143  50.523   6.556  1.00  0.00    -0.507 OA
ATOM     36  H   UNL     1      -8.025  50.778   6.138  1.00  0.00     0.293 HD
ENDBRANCH  10  35
TORSDOF 9
ENDMDL
MODEL 8
REMARK VINA RESULT:    -5.122      1.169      2.411
REMARK INTER + INTRA:          -8.051
REMARK INTER:                  -7.370
REMARK INTRA:                  -0.681
REMARK UNBOUND:                -1.133
REMARK SMILES O=c1c(-c2ccc(O)cc2)coc2c([C@@H]3O[C@H](CO)[C@H](O)[C@H](O)[C@H]3O)c(O)ccc12
REMARK SMILES IDX 3 1 11 2 12 3 13 4 30 5 2 6 1 7 29 8 28 9 26 10 14 11 4 12
REMARK SMILES IDX 5 13 6 14 7 15 10 16 9 17 8 18 15 20 24 21 16 22 22 23 17 24
REMARK SMILES IDX 20 25 25 26 23 28 18 30 19 31 21 33 27 35
REMARK H PARENT 8 19 25 27 23 29 19 32 21 34 27 36
REMARK Flexibility Score: inf
ROOT
ATOM      1  C   UNL     1       1.799  38.127   6.574  1.00  0.00     0.065 A 
ATOM      2  C   UNL     1       0.862  39.067   7.021  1.00  0.00     0.208 A 
ATOM      3  O   UNL     1      -0.434  38.780   7.028  1.00  0.00    -0.463 OA
ATOM      4  C   UNL     1      -0.929  37.602   6.639  1.00  0.00     0.147 A 
ATOM      5  C   UNL     1      -0.050  36.590   6.183  1.00  0.00     0.066 A 
ATOM      6  C   UNL     1       1.330  36.871   6.135  1.00  0.00     0.200 A 
ATOM      7  O   UNL     1       2.147  35.994   5.732  1.00  0.00    -0.288 OA
ATOM      8  C   UNL     1      -0.565  35.339   5.820  1.00  0.00     0.020 A 
ATOM      9  C   UNL     1      -1.924  35.078   5.966  1.00  0.00     0.047 A 
ATOM     10  C   UNL     1      -2.799  36.066   6.434  1.00  0.00     0.125 A 
ATOM     11  C   UNL     1      -2.324  37.363   6.705  1.00  0.00     0.069 A 
ENDROOT
BRANCH   1  12
ATOM     12  C   UNL     1       3.242  38.453   6.618  1.00  0.00    -0.011 A 
ATOM     13  C   UNL     1       4.048  37.924   7.637  1.00  0.00     0.013 A 
ATOM     14  C   UNL     1       5.407  38.247   7.698  1.00  0.00     0.047 A 
ATOM     15  C   UNL     1       5.972  39.107   6.746  1.00  0.00     0.115 A 
ATOM     16  C   UNL     1       3.816  39.308   5.658  1.00  0.00     0.013 A 
ATOM     17  C   UNL     1       5.175  39.634   5.724  1.00  0.00     0.047 A 
BRANCH  15  18
ATOM     18  O   UNL     1       7.325  39.432   6.829  1.00  0.00    -0.508 OA
ATOM     19  H   UNL     1       7.766  40.053   6.157  1.00  0.00     0.293 HD
ENDBRANCH  15  18
ENDBRANCH   1  12
BRANCH  11  20
ATOM     20  C   UNL     1      -3.267  38.488   7.120  1.00  0.00     0.188 C 
ATOM     21  C   UNL     1      -3.101  38.907   8.610  1.00  0.00     0.179 C 
ATOM     22  O   UNL     1      -3.059  39.602   6.261  1.00  0.00    -0.362 OA
ATOM     23  C   UNL     1      -4.072  40.061   8.930  1.00  0.00     0.177 C 
ATOM     24  C   UNL     1      -4.069  40.575   6.477  1.00  0.00     0.176 C 
ATOM     25  C   UNL     1      -3.925  41.190   7.888  1.00  0.00     0.177 C 
BRANCH  21  26
ATOM     26  O   UNL     1      -3.380  37.824   9.462  1.00  0.00    -0.387 OA
ATOM     27  H   UNL     1      -4.276  37.991   9.866  1.00  0.00     0.211 HD
ENDBRANCH  21  26
BRANCH  23  28
ATOM     28  O   UNL     1      -3.825  40.569  10.216  1.00  0.00    -0.387 OA
ATOM     29  H   UNL     1      -3.763  41.560  10.132  1.00  0.00     0.211 HD
ENDBRANCH  23  28
BRANCH  24  30
ATOM     30  C   UNL     1      -4.006  41.630   5.368  1.00  0.00     0.191 C 
BRANCH  30  31
ATOM     31  O   UNL     1      -4.351  42.892   5.873  1.00  0.00    -0.394 OA
ATOM     32  H   UNL     1      -5.026  42.727   6.582  1.00  0.00     0.210 HD
ENDBRANCH  30  31
ENDBRANCH  24  30
BRANCH  25  33
ATOM     33  O   UNL     1      -2.665  41.802   8.014  1.00  0.00    -0.388 OA
ATOM     34  H   UNL     1      -2.008  41.086   8.216  1.00  0.00     0.211 HD
ENDBRANCH  25  33
ENDBRANCH  11  20
BRANCH  10  35
ATOM     35  O   UNL     1      -4.135  35.745   6.647  1.00  0.00    -0.507 OA
ATOM     36  H   UNL     1      -4.874  36.218   6.148  1.00  0.00     0.293 HD
ENDBRANCH  10  35
TORSDOF 9
ENDMDL
MODEL 9
REMARK VINA RESULT:    -5.080      1.842      2.512
REMARK INTER + INTRA:          -7.995
REMARK INTER:                  -7.008
REMARK INTRA:                  -0.986
REMARK UNBOUND:                -1.133
REMARK SMILES O=c1c(-c2ccc(O)cc2)coc2c([C@@H]3O[C@H](CO)[C@H](O)[C@H](O)[C@H]3O)c(O)ccc12
REMARK SMILES IDX 3 1 11 2 12 3 13 4 30 5 2 6 1 7 29 8 28 9 26 10 14 11 4 12
REMARK SMILES IDX 5 13 6 14 7 15 10 16 9 17 8 18 15 20 24 21 16 22 22 23 17 24
REMARK SMILES IDX 20 25 25 26 23 28 18 30 19 31 21 33 27 35
REMARK H PARENT 8 19 25 27 23 29 19 32 21 34 27 36
REMARK Flexibility Score: inf
ROOT
ATOM      1  C   UNL     1       1.038  39.498   6.964  1.00  0.00     0.065 A 
ATOM      2  C   UNL     1       0.466  40.003   8.139  1.00  0.00     0.208 A 
ATOM      3  O   UNL     1      -0.852  40.119   8.254  1.00  0.00    -0.463 OA
ATOM      4  C   UNL     1      -1.709  39.756   7.296  1.00  0.00     0.147 A 
ATOM      5  C   UNL     1      -1.216  39.225   6.080  1.00  0.00     0.066 A 
ATOM      6  C   UNL     1       0.180  39.115   5.912  1.00  0.00     0.200 A 
ATOM      7  O   UNL     1       0.659  38.648   4.840  1.00  0.00    -0.288 OA
ATOM      8  C   UNL     1      -2.116  38.801   5.095  1.00  0.00     0.020 A 
ATOM      9  C   UNL     1      -3.485  38.847   5.339  1.00  0.00     0.047 A 
ATOM     10  C   UNL     1      -3.983  39.352   6.546  1.00  0.00     0.125 A 
ATOM     11  C   UNL     1      -3.104  39.883   7.509  1.00  0.00     0.069 A 
ENDROOT
BRANCH   1  12
ATOM     12  C   UNL     1       2.506  39.337   6.876  1.00  0.00    -0.011 A 
ATOM     13  C   UNL     1       3.288  40.348   6.297  1.00  0.00     0.013 A 
ATOM     14  C   UNL     1       4.673  40.191   6.190  1.00  0.00     0.047 A 
ATOM     15  C   UNL     1       5.290  39.021   6.653  1.00  0.00     0.115 A 
ATOM     16  C   UNL     1       3.131  38.168   7.349  1.00  0.00     0.013 A 
ATOM     17  C   UNL     1       4.517  38.010   7.236  1.00  0.00     0.047 A 
BRANCH  15  18
ATOM     18  O   UNL     1       6.670  38.872   6.525  1.00  0.00    -0.508 OA
ATOM     19  H   UNL     1       7.077  38.173   5.911  1.00  0.00     0.293 HD
ENDBRANCH  15  18
ENDBRANCH   1  12
BRANCH  11  20
ATOM     20  C   UNL     1      -3.620  40.532   8.789  1.00  0.00     0.188 C 
ATOM     21  C   UNL     1      -4.347  41.886   8.539  1.00  0.00     0.179 C 
ATOM     22  O   UNL     1      -4.483  39.616   9.453  1.00  0.00    -0.362 OA
ATOM     23  C   UNL     1      -4.853  42.452   9.881  1.00  0.00     0.177 C 
ATOM     24  C   UNL     1      -4.799  40.102  10.748  1.00  0.00     0.176 C 
ATOM     25  C   UNL     1      -5.660  41.381  10.644  1.00  0.00     0.177 C 
BRANCH  21  26
ATOM     26  O   UNL     1      -3.471  42.815   7.951  1.00  0.00    -0.387 OA
ATOM     27  H   UNL     1      -3.488  42.654   6.968  1.00  0.00     0.211 HD
ENDBRANCH  21  26
BRANCH  23  28
ATOM     28  O   UNL     1      -5.655  43.584   9.665  1.00  0.00    -0.387 OA
ATOM     29  H   UNL     1      -6.279  43.363   8.919  1.00  0.00     0.211 HD
ENDBRANCH  23  28
BRANCH  24  30
ATOM     30  C   UNL     1      -5.488  38.995  11.553  1.00  0.00     0.191 C 
BRANCH  30  31
ATOM     31  O   UNL     1      -4.624  38.495  12.538  1.00  0.00    -0.394 OA
ATOM     32  H   UNL     1      -3.707  38.745  12.249  1.00  0.00     0.210 HD
ENDBRANCH  30  31
ENDBRANCH  24  30
BRANCH  25  33
ATOM     33  O   UNL     1      -6.854  41.096   9.959  1.00  0.00    -0.388 OA
ATOM     34  H   UNL     1      -6.729  40.226   9.499  1.00  0.00     0.211 HD
ENDBRANCH  25  33
ENDBRANCH  11  20
BRANCH  10  35
ATOM     35  O   UNL     1      -5.351  39.307   6.790  1.00  0.00    -0.507 OA
ATOM     36  H   UNL     1      -6.018  39.645   6.111  1.00  0.00     0.293 HD
ENDBRANCH  10  35
TORSDOF 9
ENDMDL
