MODEL 1
REMARK VINA RESULT:    -4.805      0.000      0.000
REMARK INTER + INTRA:          -6.205
REMARK INTER:                  -5.647
REMARK INTRA:                  -0.558
REMARK UNBOUND:                -0.558
REMARK SMILES C=C[C@@]1(C)CC[C@@H](C(=C)C)C[C@@H]1C(=C)C
REMARK SMILES IDX 7 1 6 2 5 3 3 4 12 5 11 6 4 7 8 8 10 9 9 10 13 11 14 12
REMARK SMILES IDX 15 13 2 14 1 15
REMARK H PARENT
REMARK Flexibility Score: inf
ROOT
ATOM      1  C   UNL     1     139.715 135.679 135.985  1.00  0.00     0.015 C 
ATOM      2  C   UNL     1     140.233 134.559 135.060  1.00  0.00     0.009 C 
ATOM      3  C   UNL     1     139.741 133.169 135.490  1.00  0.00     0.012 C 
ATOM      4  C   UNL     1     138.194 133.079 135.656  1.00  0.00    -0.008 C 
ATOM      5  C   UNL     1     137.634 134.242 136.562  1.00  0.00     0.024 C 
ATOM      6  C   UNL     1     138.185 135.628 136.157  1.00  0.00     0.017 C 
ATOM      7  C   UNL     1     137.860 131.692 136.254  1.00  0.00     0.016 C 
ENDROOT
BRANCH   1   8
ATOM      8  C   UNL     1     140.151 137.049 135.484  1.00  0.00    -0.077 C 
ATOM      9  C   UNL     1     139.839 137.478 134.071  1.00  0.00     0.039 C 
ATOM     10  C   UNL     1     140.863 137.881 136.261  1.00  0.00     0.008 C 
ENDBRANCH   1   8
BRANCH   5  11
ATOM     11  C   UNL     1     137.664 134.005 138.082  1.00  0.00    -0.077 C 
ATOM     12  C   UNL     1     136.512 133.769 138.738  1.00  0.00     0.008 C 
ATOM     13  C   UNL     1     138.936 134.026 138.902  1.00  0.00     0.039 C 
ENDBRANCH   5  11
BRANCH   4  14
ATOM     14  C   UNL     1     137.554 133.167 134.267  1.00  0.00    -0.028 C 
ATOM     15  C   UNL     1     136.496 132.417 133.923  1.00  0.00     0.004 C 
ENDBRANCH   4  14
TORSDOF 3
ENDMDL
MODEL 2
REMARK VINA RESULT:    -4.797      5.305      7.394
REMARK INTER + INTRA:          -6.196
REMARK INTER:                  -5.631
REMARK INTRA:                  -0.565
REMARK UNBOUND:                -0.558
REMARK SMILES C=C[C@@]1(C)CC[C@@H](C(=C)C)C[C@@H]1C(=C)C
REMARK SMILES IDX 7 1 6 2 5 3 3 4 12 5 11 6 4 7 8 8 10 9 9 10 13 11 14 12
REMARK SMILES IDX 15 13 2 14 1 15
REMARK H PARENT
REMARK Flexibility Score: inf
ROOT
ATOM      1  C   UNL     1     132.929 136.995 136.022  1.00  0.00     0.015 C 
ATOM      2  C   UNL     1     132.410 138.123 135.109  1.00  0.00     0.009 C 
ATOM      3  C   UNL     1     132.904 139.509 135.550  1.00  0.00     0.012 C 
ATOM      4  C   UNL     1     134.451 139.595 135.713  1.00  0.00    -0.008 C 
ATOM      5  C   UNL     1     135.013 138.424 136.607  1.00  0.00     0.024 C 
ATOM      6  C   UNL     1     134.459 137.042 136.190  1.00  0.00     0.017 C 
ATOM      7  C   UNL     1     134.788 140.976 136.324  1.00  0.00     0.016 C 
ENDROOT
BRANCH   1   8
ATOM      8  C   UNL     1     132.490 135.630 135.509  1.00  0.00    -0.077 C 
ATOM      9  C   UNL     1     132.785 135.219 134.087  1.00  0.00     0.039 C 
ATOM     10  C   UNL     1     131.791 134.785 136.285  1.00  0.00     0.008 C 
ENDBRANCH   1   8
BRANCH   5  11
ATOM     11  C   UNL     1     134.987 138.647 138.130  1.00  0.00    -0.077 C 
ATOM     12  C   UNL     1     136.145 138.833 138.790  1.00  0.00     0.008 C 
ATOM     13  C   UNL     1     133.713 138.666 138.945  1.00  0.00     0.039 C 
ENDBRANCH   5  11
BRANCH   4  14
ATOM     14  C   UNL     1     135.088 139.521 134.322  1.00  0.00    -0.028 C 
ATOM     15  C   UNL     1     136.144 140.274 133.982  1.00  0.00     0.004 C 
ENDBRANCH   4  14
TORSDOF 3
ENDMDL
MODEL 3
REMARK VINA RESULT:    -4.787      3.397      5.242
REMARK INTER + INTRA:          -6.184
REMARK INTER:                  -5.607
REMARK INTRA:                  -0.577
REMARK UNBOUND:                -0.558
REMARK SMILES C=C[C@@]1(C)CC[C@@H](C(=C)C)C[C@@H]1C(=C)C
REMARK SMILES IDX 7 1 6 2 5 3 3 4 12 5 11 6 4 7 8 8 10 9 9 10 13 11 14 12
REMARK SMILES IDX 15 13 2 14 1 15
REMARK H PARENT
REMARK Flexibility Score: inf
ROOT
ATOM      1  C   UNL     1     136.899 139.697 136.052  1.00  0.00     0.015 C 
ATOM      2  C   UNL     1     138.019 140.262 135.156  1.00  0.00     0.009 C 
ATOM      3  C   UNL     1     139.415 139.793 135.595  1.00  0.00     0.012 C 
ATOM      4  C   UNL     1     139.538 138.246 135.727  1.00  0.00    -0.008 C 
ATOM      5  C   UNL     1     138.377 137.637 136.602  1.00  0.00     0.024 C 
ATOM      6  C   UNL     1     136.984 138.165 136.188  1.00  0.00     0.017 C 
ATOM      7  C   UNL     1     140.924 137.929 136.338  1.00  0.00     0.016 C 
ENDROOT
BRANCH   1   8
ATOM      8  C   UNL     1     135.527 140.112 135.540  1.00  0.00    -0.077 C 
ATOM      9  C   UNL     1     135.116 139.802 134.121  1.00  0.00     0.039 C 
ATOM     10  C   UNL     1     134.675 140.805 136.314  1.00  0.00     0.008 C 
ENDBRANCH   1   8
BRANCH   5  11
ATOM     11  C   UNL     1     138.590 137.637 138.126  1.00  0.00    -0.077 C 
ATOM     12  C   UNL     1     138.780 136.468 138.767  1.00  0.00     0.008 C 
ATOM     13  C   UNL     1     138.597 138.896 138.964  1.00  0.00     0.039 C 
ENDBRANCH   5  11
BRANCH   4  14
ATOM     14  C   UNL     1     139.486 137.636 134.322  1.00  0.00    -0.028 C 
ATOM     15  C   UNL     1     140.181 136.535 133.999  1.00  0.00     0.004 C 
ENDBRANCH   4  14
TORSDOF 3
ENDMDL
MODEL 4
REMARK VINA RESULT:    -4.770      3.419      5.254
REMARK INTER + INTRA:          -6.165
REMARK INTER:                  -5.592
REMARK INTRA:                  -0.573
REMARK UNBOUND:                -0.558
REMARK SMILES C=C[C@@]1(C)CC[C@@H](C(=C)C)C[C@@H]1C(=C)C
REMARK SMILES IDX 7 1 6 2 5 3 3 4 12 5 11 6 4 7 8 8 10 9 9 10 13 11 14 12
REMARK SMILES IDX 15 13 2 14 1 15
REMARK H PARENT
REMARK Flexibility Score: inf
ROOT
ATOM      1  C   UNL     1     135.625 132.938 135.961  1.00  0.00     0.015 C 
ATOM      2  C   UNL     1     134.504 132.446 135.024  1.00  0.00     0.009 C 
ATOM      3  C   UNL     1     133.120 132.962 135.443  1.00  0.00     0.012 C 
ATOM      4  C   UNL     1     133.059 134.509 135.616  1.00  0.00    -0.008 C 
ATOM      5  C   UNL     1     134.223 135.043 136.535  1.00  0.00     0.024 C 
ATOM      6  C   UNL     1     135.602 134.468 136.139  1.00  0.00     0.017 C 
ATOM      7  C   UNL     1     131.673 134.867 136.204  1.00  0.00     0.016 C 
ENDROOT
BRANCH   1   8
ATOM      8  C   UNL     1     136.991 132.478 135.469  1.00  0.00    -0.077 C 
ATOM      9  C   UNL     1     137.385 132.669 134.025  1.00  0.00     0.039 C 
ATOM     10  C   UNL     1     137.851 131.849 136.288  1.00  0.00     0.008 C 
ENDBRANCH   1   8
BRANCH   5  11
ATOM     11  C   UNL     1     133.973 135.010 138.053  1.00  0.00    -0.077 C 
ATOM     12  C   UNL     1     133.727 136.161 138.707  1.00  0.00     0.008 C 
ATOM     13  C   UNL     1     133.991 133.738 138.871  1.00  0.00     0.039 C 
ENDBRANCH   5  11
BRANCH   4  14
ATOM     14  C   UNL     1     133.170 135.154 134.232  1.00  0.00    -0.028 C 
ATOM     15  C   UNL     1     132.663 136.368 133.969  1.00  0.00     0.004 C 
ENDBRANCH   4  14
TORSDOF 3
ENDMDL
MODEL 5
REMARK VINA RESULT:    -4.390      3.383      5.890
REMARK INTER + INTRA:          -5.718
REMARK INTER:                  -5.280
REMARK INTRA:                  -0.438
REMARK UNBOUND:                -0.558
REMARK SMILES C=C[C@@]1(C)CC[C@@H](C(=C)C)C[C@@H]1C(=C)C
REMARK SMILES IDX 7 1 6 2 5 3 3 4 12 5 11 6 4 7 8 8 10 9 9 10 13 11 14 12
REMARK SMILES IDX 15 13 2 14 1 15
REMARK H PARENT
REMARK Flexibility Score: inf
ROOT
ATOM      1  C   UNL     1     135.775 133.473 136.369  1.00  0.00     0.015 C 
ATOM      2  C   UNL     1     136.399 133.830 137.733  1.00  0.00     0.009 C 
ATOM      3  C   UNL     1     135.523 134.797 138.544  1.00  0.00     0.012 C 
ATOM      4  C   UNL     1     134.053 134.310 138.717  1.00  0.00    -0.008 C 
ATOM      5  C   UNL     1     133.407 133.895 137.341  1.00  0.00     0.024 C 
ATOM      6  C   UNL     1     134.325 132.971 136.508  1.00  0.00     0.017 C 
ATOM      7  C   UNL     1     133.251 135.448 139.392  1.00  0.00     0.016 C 
ENDROOT
BRANCH   1   8
ATOM      8  C   UNL     1     136.625 132.451 135.628  1.00  0.00    -0.077 C 
ATOM      9  C   UNL     1     137.829 131.833 136.297  1.00  0.00     0.039 C 
ATOM     10  C   UNL     1     136.360 132.114 134.356  1.00  0.00     0.008 C 
ENDBRANCH   1   8
BRANCH   5  11
ATOM     11  C   UNL     1     132.779 135.026 136.507  1.00  0.00    -0.077 C 
ATOM     12  C   UNL     1     131.525 134.882 136.037  1.00  0.00     0.008 C 
ATOM     13  C   UNL     1     133.501 136.312 136.173  1.00  0.00     0.039 C 
ENDBRANCH   5  11
BRANCH   4  14
ATOM     14  C   UNL     1     134.053 133.102 139.660  1.00  0.00    -0.028 C 
ATOM     15  C   UNL     1     133.608 133.186 140.923  1.00  0.00     0.004 C 
ENDBRANCH   4  14
TORSDOF 3
ENDMDL
MODEL 6
REMARK VINA RESULT:    -4.338      4.267      5.941
REMARK INTER + INTRA:          -5.657
REMARK INTER:                  -5.039
REMARK INTRA:                  -0.618
REMARK UNBOUND:                -0.558
REMARK SMILES C=C[C@@]1(C)CC[C@@H](C(=C)C)C[C@@H]1C(=C)C
REMARK SMILES IDX 7 1 6 2 5 3 3 4 12 5 11 6 4 7 8 8 10 9 9 10 13 11 14 12
REMARK SMILES IDX 15 13 2 14 1 15
REMARK H PARENT
REMARK Flexibility Score: inf
ROOT
ATOM      1  C   UNL     1     137.583 139.042 137.099  1.00  0.00     0.015 C 
ATOM      2  C   UNL     1     137.533 138.859 138.629  1.00  0.00     0.009 C 
ATOM      3  C   UNL     1     136.121 139.060 139.198  1.00  0.00     0.012 C 
ATOM      4  C   UNL     1     135.037 138.185 138.498  1.00  0.00    -0.008 C 
ATOM      5  C   UNL     1     135.098 138.320 136.929  1.00  0.00     0.024 C 
ATOM      6  C   UNL     1     136.534 138.176 136.376  1.00  0.00     0.017 C 
ATOM      7  C   UNL     1     133.655 138.613 139.044  1.00  0.00     0.016 C 
ENDROOT
BRANCH   1   8
ATOM      8  C   UNL     1     138.977 138.755 136.558  1.00  0.00    -0.077 C 
ATOM      9  C   UNL     1     139.822 137.665 137.171  1.00  0.00     0.039 C 
ATOM     10  C   UNL     1     139.506 139.491 135.567  1.00  0.00     0.008 C 
ENDBRANCH   1   8
BRANCH   5  11
ATOM     11  C   UNL     1     134.332 139.503 136.310  1.00  0.00    -0.077 C 
ATOM     12  C   UNL     1     133.195 139.270 135.628  1.00  0.00     0.008 C 
ATOM     13  C   UNL     1     134.791 140.940 136.421  1.00  0.00     0.039 C 
ENDBRANCH   5  11
BRANCH   4  14
ATOM     14  C   UNL     1     135.272 136.723 138.890  1.00  0.00    -0.028 C 
ATOM     15  C   UNL     1     134.432 135.744 138.522  1.00  0.00     0.004 C 
ENDBRANCH   4  14
TORSDOF 3
ENDMDL
MODEL 7
REMARK VINA RESULT:    -4.311      2.233      5.392
REMARK INTER + INTRA:          -5.625
REMARK INTER:                  -5.023
REMARK INTRA:                  -0.601
REMARK UNBOUND:                -0.558
REMARK SMILES C=C[C@@]1(C)CC[C@@H](C(=C)C)C[C@@H]1C(=C)C
REMARK SMILES IDX 7 1 6 2 5 3 3 4 12 5 11 6 4 7 8 8 10 9 9 10 13 11 14 12
REMARK SMILES IDX 15 13 2 14 1 15
REMARK H PARENT
REMARK Flexibility Score: inf
ROOT
ATOM      1  C   UNL     1     135.083 133.618 137.252  1.00  0.00     0.015 C 
ATOM      2  C   UNL     1     135.126 133.743 138.788  1.00  0.00     0.009 C 
ATOM      3  C   UNL     1     136.534 133.516 139.357  1.00  0.00     0.012 C 
ATOM      4  C   UNL     1     137.624 134.414 138.697  1.00  0.00    -0.008 C 
ATOM      5  C   UNL     1     137.572 134.340 137.123  1.00  0.00     0.024 C 
ATOM      6  C   UNL     1     136.139 134.508 136.569  1.00  0.00     0.017 C 
ATOM      7  C   UNL     1     139.002 133.962 139.234  1.00  0.00     0.016 C 
ENDROOT
BRANCH   1   8
ATOM      8  C   UNL     1     133.693 133.930 136.715  1.00  0.00    -0.077 C 
ATOM      9  C   UNL     1     132.882 135.056 137.308  1.00  0.00     0.039 C 
ATOM     10  C   UNL     1     133.138 133.186 135.745  1.00  0.00     0.008 C 
ENDBRANCH   1   8
BRANCH   5  11
ATOM     11  C   UNL     1     138.338 133.179 136.464  1.00  0.00    -0.077 C 
ATOM     12  C   UNL     1     139.517 133.424 135.862  1.00  0.00     0.008 C 
ATOM     13  C   UNL     1     137.834 131.753 136.448  1.00  0.00     0.039 C 
ENDBRANCH   5  11
BRANCH   4  14
ATOM     14  C   UNL     1     137.391 135.862 139.143  1.00  0.00    -0.028 C 
ATOM     15  C   UNL     1     138.181 136.866 138.738  1.00  0.00     0.004 C 
ENDBRANCH   4  14
TORSDOF 3
ENDMDL
MODEL 8
REMARK VINA RESULT:    -4.269      1.566      5.015
REMARK INTER + INTRA:          -5.576
REMARK INTER:                  -4.966
REMARK INTRA:                  -0.609
REMARK UNBOUND:                -0.558
REMARK SMILES C=C[C@@]1(C)CC[C@@H](C(=C)C)C[C@@H]1C(=C)C
REMARK SMILES IDX 7 1 6 2 5 3 3 4 12 5 11 6 4 7 8 8 10 9 9 10 13 11 14 12
REMARK SMILES IDX 15 13 2 14 1 15
REMARK H PARENT
REMARK Flexibility Score: inf
ROOT
ATOM      1  C   UNL     1     138.578 134.147 135.551  1.00  0.00     0.015 C 
ATOM      2  C   UNL     1     140.059 134.180 135.125  1.00  0.00     0.009 C 
ATOM      3  C   UNL     1     140.346 135.271 134.082  1.00  0.00     0.012 C 
ATOM      4  C   UNL     1     139.862 136.688 134.516  1.00  0.00    -0.008 C 
ATOM      5  C   UNL     1     138.362 136.673 135.000  1.00  0.00     0.024 C 
ATOM      6  C   UNL     1     138.074 135.532 136.002  1.00  0.00     0.017 C 
ATOM      7  C   UNL     1     140.053 137.643 133.314  1.00  0.00     0.016 C 
ENDROOT
BRANCH   1   8
ATOM      8  C   UNL     1     138.345 133.113 136.644  1.00  0.00    -0.077 C 
ATOM      9  C   UNL     1     138.606 133.459 138.089  1.00  0.00     0.039 C 
ATOM     10  C   UNL     1     137.956 131.862 136.348  1.00  0.00     0.008 C 
ENDBRANCH   1   8
BRANCH   5  11
ATOM     11  C   UNL     1     137.285 136.800 133.908  1.00  0.00    -0.077 C 
ATOM     12  C   UNL     1     136.528 137.912 133.852  1.00  0.00     0.008 C 
ATOM     13  C   UNL     1     137.018 135.727 132.876  1.00  0.00     0.039 C 
ENDBRANCH   5  11
BRANCH   4  14
ATOM     14  C   UNL     1     140.758 137.175 135.659  1.00  0.00    -0.028 C 
ATOM     15  C   UNL     1     140.425 138.223 136.426  1.00  0.00     0.004 C 
ENDBRANCH   4  14
TORSDOF 3
ENDMDL
MODEL 9
REMARK VINA RESULT:    -3.205      4.056      6.045
REMARK INTER + INTRA:          -4.325
REMARK INTER:                  -3.713
REMARK INTRA:                  -0.612
REMARK UNBOUND:                -0.558
REMARK SMILES C=C[C@@]1(C)CC[C@@H](C(=C)C)C[C@@H]1C(=C)C
REMARK SMILES IDX 7 1 6 2 5 3 3 4 12 5 11 6 4 7 8 8 10 9 9 10 13 11 14 12
REMARK SMILES IDX 15 13 2 14 1 15
REMARK H PARENT
REMARK Flexibility Score: inf
ROOT
ATOM      1  C   UNL     1     138.454 138.647 135.569  1.00  0.00     0.015 C 
ATOM      2  C   UNL     1     138.370 140.144 135.212  1.00  0.00     0.009 C 
ATOM      3  C   UNL     1     137.255 140.444 134.199  1.00  0.00     0.012 C 
ATOM      4  C   UNL     1     135.860 139.897 134.629  1.00  0.00    -0.008 C 
ATOM      5  C   UNL     1     135.928 138.377 135.043  1.00  0.00     0.024 C 
ATOM      6  C   UNL     1     137.093 138.079 136.014  1.00  0.00     0.017 C 
ATOM      7  C   UNL     1     134.881 140.112 133.450  1.00  0.00     0.016 C 
ENDROOT
BRANCH   1   8
ATOM      8  C   UNL     1     139.512 138.397 136.635  1.00  0.00    -0.077 C 
ATOM      9  C   UNL     1     140.875 137.878 136.249  1.00  0.00     0.039 C 
ATOM     10  C   UNL     1     139.245 138.580 137.939  1.00  0.00     0.008 C 
ENDBRANCH   1   8
BRANCH   5  11
ATOM     11  C   UNL     1     135.819 137.348 133.904  1.00  0.00    -0.077 C 
ATOM     12  C   UNL     1     134.710 136.592 133.801  1.00  0.00     0.008 C 
ATOM     13  C   UNL     1     136.906 137.127 132.875  1.00  0.00     0.039 C 
ENDBRANCH   5  11
BRANCH   4  14
ATOM     14  C   UNL     1     135.363 140.723 135.819  1.00  0.00    -0.028 C 
ATOM     15  C   UNL     1     134.321 140.335 136.569  1.00  0.00     0.004 C 
ENDBRANCH   4  14
TORSDOF 3
ENDMDL
