MODEL 1
REMARK VINA RESULT:    -2.522      0.000      0.000
REMARK INTER + INTRA:          -2.359
REMARK INTER:                  -3.406
REMARK INTRA:                   1.047
REMARK UNBOUND:                 1.047
REMARK SMILES O=c1c(-c2ccc(O)cc2)coc2c([C@@H]3O[C@@H](CO)[C@@H](O)[C@H](O)[C@H]3O)c(O)ccc12
REMARK SMILES IDX 3 1 11 2 12 3 13 4 30 5 2 6 1 7 29 8 28 9 26 10 14 11 4 12
REMARK SMILES IDX 5 13 6 14 7 15 10 16 9 17 8 18 15 20 24 21 16 22 22 23 17 24
REMARK SMILES IDX 20 25 25 26 23 28 18 30 19 31 21 33 27 35
REMARK H PARENT 8 19 25 27 23 29 19 32 21 34 27 36
REMARK Flexibility Score: inf
ROOT
ATOM      1  C   UNL     1      18.113  32.342  40.325  1.00  0.00     0.065 A 
ATOM      2  C   UNL     1      18.803  32.368  41.543  1.00  0.00     0.208 A 
ATOM      3  O   UNL     1      20.127  32.430  41.576  1.00  0.00    -0.463 OA
ATOM      4  C   UNL     1      20.888  32.467  40.485  1.00  0.00     0.147 A 
ATOM      5  C   UNL     1      20.273  32.389  39.212  1.00  0.00     0.066 A 
ATOM      6  C   UNL     1      18.868  32.357  39.139  1.00  0.00     0.200 A 
ATOM      7  O   UNL     1      18.288  32.354  38.017  1.00  0.00    -0.288 OA
ATOM      8  C   UNL     1      21.068  32.318  38.061  1.00  0.00     0.020 A 
ATOM      9  C   UNL     1      22.448  32.208  38.178  1.00  0.00     0.047 A 
ATOM     10  C   UNL     1      23.063  32.240  39.432  1.00  0.00     0.125 A 
ATOM     11  C   UNL     1      22.305  32.562  40.593  1.00  0.00     0.069 A 
ENDROOT
BRANCH   1  12
ATOM     12  C   UNL     1      16.628  32.297  40.316  1.00  0.00    -0.011 A 
ATOM     13  C   UNL     1      15.938  31.917  39.152  1.00  0.00     0.013 A 
ATOM     14  C   UNL     1      14.541  31.875  39.137  1.00  0.00     0.047 A 
ATOM     15  C   UNL     1      13.814  32.217  40.282  1.00  0.00     0.115 A 
ATOM     16  C   UNL     1      15.890  32.650  41.461  1.00  0.00     0.013 A 
ATOM     17  C   UNL     1      14.493  32.606  41.443  1.00  0.00     0.047 A 
BRANCH  15  18
ATOM     18  O   UNL     1      12.423  32.166  40.253  1.00  0.00    -0.508 OA
ATOM     19  H   UNL     1      11.874  32.166  41.105  1.00  0.00     0.293 HD
ENDBRANCH  15  18
ENDBRANCH   1  12
BRANCH  11  20
ATOM     20  C   UNL     1      23.012  32.865  41.934  1.00  0.00     0.188 C 
ATOM     21  C   UNL     1      24.576  32.941  41.868  1.00  0.00     0.179 C 
ATOM     22  O   UNL     1      22.470  33.977  42.646  1.00  0.00    -0.362 OA
ATOM     23  C   UNL     1      25.087  34.321  41.416  1.00  0.00     0.177 C 
ATOM     24  C   UNL     1      22.855  35.238  42.106  1.00  0.00     0.176 C 
ATOM     25  C   UNL     1      24.383  35.446  42.184  1.00  0.00     0.177 C 
BRANCH  21  26
ATOM     26  O   UNL     1      25.095  32.626  43.137  1.00  0.00    -0.387 OA
ATOM     27  H   UNL     1      25.352  31.666  43.120  1.00  0.00     0.211 HD
ENDBRANCH  21  26
BRANCH  23  28
ATOM     28  O   UNL     1      24.859  34.463  40.035  1.00  0.00    -0.387 OA
ATOM     29  H   UNL     1      25.536  33.905  39.571  1.00  0.00     0.211 HD
ENDBRANCH  23  28
BRANCH  24  30
ATOM     30  C   UNL     1      22.097  36.346  42.855  1.00  0.00     0.191 C 
BRANCH  30  31
ATOM     31  O   UNL     1      21.709  35.906  44.132  1.00  0.00    -0.394 OA
ATOM     32  H   UNL     1      21.188  35.073  44.005  1.00  0.00     0.210 HD
ENDBRANCH  30  31
ENDBRANCH  24  30
BRANCH  25  33
ATOM     33  O   UNL     1      24.859  35.534  43.507  1.00  0.00    -0.388 OA
ATOM     34  H   UNL     1      25.798  35.848  43.488  1.00  0.00     0.211 HD
ENDBRANCH  25  33
ENDBRANCH  11  20
BRANCH  10  35
ATOM     35  O   UNL     1      24.412  31.882  39.488  1.00  0.00    -0.507 OA
ATOM     36  H   UNL     1      25.124  32.487  39.879  1.00  0.00     0.293 HD
ENDBRANCH  10  35
TORSDOF 9
ENDMDL
MODEL 2
REMARK VINA RESULT:    -2.469      1.576      2.122
REMARK INTER + INTRA:          -2.289
REMARK INTER:                  -3.114
REMARK INTRA:                   0.825
REMARK UNBOUND:                 1.047
REMARK SMILES O=c1c(-c2ccc(O)cc2)coc2c([C@@H]3O[C@@H](CO)[C@@H](O)[C@H](O)[C@H]3O)c(O)ccc12
REMARK SMILES IDX 3 1 11 2 12 3 13 4 30 5 2 6 1 7 29 8 28 9 26 10 14 11 4 12
REMARK SMILES IDX 5 13 6 14 7 15 10 16 9 17 8 18 15 20 24 21 16 22 22 23 17 24
REMARK SMILES IDX 20 25 25 26 23 28 18 30 19 31 21 33 27 35
REMARK H PARENT 8 19 25 27 23 29 19 32 21 34 27 36
REMARK Flexibility Score: inf
ROOT
ATOM      1  C   UNL     1      18.846  32.208  38.294  1.00  0.00     0.065 A 
ATOM      2  C   UNL     1      19.125  31.941  39.640  1.00  0.00     0.208 A 
ATOM      3  O   UNL     1      20.368  31.982  40.100  1.00  0.00    -0.463 OA
ATOM      4  C   UNL     1      21.424  32.265  39.340  1.00  0.00     0.147 A 
ATOM      5  C   UNL     1      21.235  32.492  37.956  1.00  0.00     0.066 A 
ATOM      6  C   UNL     1      19.926  32.492  37.440  1.00  0.00     0.200 A 
ATOM      7  O   UNL     1      19.721  32.757  36.222  1.00  0.00    -0.288 OA
ATOM      8  C   UNL     1      22.349  32.684  37.127  1.00  0.00     0.020 A 
ATOM      9  C   UNL     1      23.631  32.536  37.643  1.00  0.00     0.047 A 
ATOM     10  C   UNL     1      23.826  32.268  39.000  1.00  0.00     0.125 A 
ATOM     11  C   UNL     1      22.730  32.317  39.906  1.00  0.00     0.069 A 
ENDROOT
BRANCH   1  12
ATOM     12  C   UNL     1      17.441  32.180  37.810  1.00  0.00    -0.011 A 
ATOM     13  C   UNL     1      16.390  31.907  38.702  1.00  0.00     0.013 A 
ATOM     14  C   UNL     1      15.067  31.876  38.251  1.00  0.00     0.047 A 
ATOM     15  C   UNL     1      14.777  32.113  36.904  1.00  0.00     0.115 A 
ATOM     16  C   UNL     1      17.143  32.407  36.453  1.00  0.00     0.013 A 
ATOM     17  C   UNL     1      15.819  32.377  36.006  1.00  0.00     0.047 A 
BRANCH  15  18
ATOM     18  O   UNL     1      13.454  32.085  36.471  1.00  0.00    -0.508 OA
ATOM     19  H   UNL     1      13.204  31.750  35.547  1.00  0.00     0.293 HD
ENDBRANCH  15  18
ENDBRANCH   1  12
BRANCH  11  20
ATOM     20  C   UNL     1      22.969  32.292  41.433  1.00  0.00     0.188 C 
ATOM     21  C   UNL     1      24.456  32.493  41.884  1.00  0.00     0.179 C 
ATOM     22  O   UNL     1      22.085  33.128  42.181  1.00  0.00    -0.362 OA
ATOM     23  C   UNL     1      24.862  33.976  41.959  1.00  0.00     0.177 C 
ATOM     24  C   UNL     1      22.415  34.512  42.106  1.00  0.00     0.176 C 
ATOM     25  C   UNL     1      23.808  34.797  42.709  1.00  0.00     0.177 C 
BRANCH  21  26
ATOM     26  O   UNL     1      24.632  31.880  43.138  1.00  0.00    -0.387 OA
ATOM     27  H   UNL     1      25.499  31.395  43.111  1.00  0.00     0.211 HD
ENDBRANCH  21  26
BRANCH  23  28
ATOM     28  O   UNL     1      25.020  34.472  40.652  1.00  0.00    -0.387 OA
ATOM     29  H   UNL     1      25.502  33.776  40.133  1.00  0.00     0.211 HD
ENDBRANCH  23  28
BRANCH  24  30
ATOM     30  C   UNL     1      21.317  35.317  42.819  1.00  0.00     0.191 C 
BRANCH  30  31
ATOM     31  O   UNL     1      21.879  36.332  43.610  1.00  0.00    -0.394 OA
ATOM     32  H   UNL     1      21.126  36.825  44.027  1.00  0.00     0.210 HD
ENDBRANCH  30  31
ENDBRANCH  24  30
BRANCH  25  33
ATOM     33  O   UNL     1      23.866  34.554  44.096  1.00  0.00    -0.388 OA
ATOM     34  H   UNL     1      24.669  34.008  44.290  1.00  0.00     0.211 HD
ENDBRANCH  25  33
ENDBRANCH  11  20
BRANCH  10  35
ATOM     35  O   UNL     1      25.113  31.894  39.394  1.00  0.00    -0.507 OA
ATOM     36  H   UNL     1      25.869  32.559  39.504  1.00  0.00     0.293 HD
ENDBRANCH  10  35
TORSDOF 9
ENDMDL
MODEL 3
REMARK VINA RESULT:    -1.793      1.177      1.546
REMARK INTER + INTRA:          -1.375
REMARK INTER:                  -2.341
REMARK INTRA:                   0.966
REMARK UNBOUND:                 1.047
REMARK SMILES O=c1c(-c2ccc(O)cc2)coc2c([C@@H]3O[C@@H](CO)[C@@H](O)[C@H](O)[C@H]3O)c(O)ccc12
REMARK SMILES IDX 3 1 11 2 12 3 13 4 30 5 2 6 1 7 29 8 28 9 26 10 14 11 4 12
REMARK SMILES IDX 5 13 6 14 7 15 10 16 9 17 8 18 15 20 24 21 16 22 22 23 17 24
REMARK SMILES IDX 20 25 25 26 23 28 18 30 19 31 21 33 27 35
REMARK H PARENT 8 19 25 27 23 29 19 32 21 34 27 36
REMARK Flexibility Score: inf
ROOT
ATOM      1  C   UNL     1      18.606  32.757  40.496  1.00  0.00     0.065 A 
ATOM      2  C   UNL     1      19.131  33.045  41.762  1.00  0.00     0.208 A 
ATOM      3  O   UNL     1      20.427  33.271  41.927  1.00  0.00    -0.463 OA
ATOM      4  C   UNL     1      21.312  33.237  40.934  1.00  0.00     0.147 A 
ATOM      5  C   UNL     1      20.872  32.898  39.631  1.00  0.00     0.066 A 
ATOM      6  C   UNL     1      19.498  32.687  39.413  1.00  0.00     0.200 A 
ATOM      7  O   UNL     1      19.068  32.449  38.249  1.00  0.00    -0.288 OA
ATOM      8  C   UNL     1      21.809  32.754  38.600  1.00  0.00     0.020 A 
ATOM      9  C   UNL     1      23.168  32.829  38.881  1.00  0.00     0.047 A 
ATOM     10  C   UNL     1      23.613  33.120  40.173  1.00  0.00     0.125 A 
ATOM     11  C   UNL     1      22.687  33.516  41.178  1.00  0.00     0.069 A 
ENDROOT
BRANCH   1  12
ATOM     12  C   UNL     1      17.146  32.532  40.334  1.00  0.00    -0.011 A 
ATOM     13  C   UNL     1      16.274  32.729  41.420  1.00  0.00     0.013 A 
ATOM     14  C   UNL     1      14.901  32.517  41.274  1.00  0.00     0.047 A 
ATOM     15  C   UNL     1      14.380  32.099  40.045  1.00  0.00     0.115 A 
ATOM     16  C   UNL     1      16.616  32.102  39.104  1.00  0.00     0.013 A 
ATOM     17  C   UNL     1      15.241  31.891  38.961  1.00  0.00     0.047 A 
BRANCH  15  18
ATOM     18  O   UNL     1      13.008  31.897  39.913  1.00  0.00    -0.508 OA
ATOM     19  H   UNL     1      12.337  32.585  40.233  1.00  0.00     0.293 HD
ENDBRANCH  15  18
ENDBRANCH   1  12
BRANCH  11  20
ATOM     20  C   UNL     1      23.184  34.097  42.521  1.00  0.00     0.188 C 
ATOM     21  C   UNL     1      24.725  34.374  42.605  1.00  0.00     0.179 C 
ATOM     22  O   UNL     1      22.432  35.215  42.994  1.00  0.00    -0.362 OA
ATOM     23  C   UNL     1      25.119  35.734  42.000  1.00  0.00     0.177 C 
ATOM     24  C   UNL     1      22.728  36.428  42.308  1.00  0.00     0.176 C 
ATOM     25  C   UNL     1      24.200  36.849  42.508  1.00  0.00     0.177 C 
BRANCH  21  26
ATOM     26  O   UNL     1      25.120  34.313  43.954  1.00  0.00    -0.387 OA
ATOM     27  H   UNL     1      24.292  34.294  44.503  1.00  0.00     0.211 HD
ENDBRANCH  21  26
BRANCH  23  28
ATOM     28  O   UNL     1      25.045  35.648  40.597  1.00  0.00    -0.387 OA
ATOM     29  H   UNL     1      24.160  36.009  40.331  1.00  0.00     0.211 HD
ENDBRANCH  23  28
BRANCH  24  30
ATOM     30  C   UNL     1      21.759  37.517  42.795  1.00  0.00     0.191 C 
BRANCH  30  31
ATOM     31  O   UNL     1      22.278  38.796  42.538  1.00  0.00    -0.394 OA
ATOM     32  H   UNL     1      23.244  38.767  42.760  1.00  0.00     0.210 HD
ENDBRANCH  30  31
ENDBRANCH  24  30
BRANCH  25  33
ATOM     33  O   UNL     1      24.498  37.186  43.844  1.00  0.00    -0.388 OA
ATOM     34  H   UNL     1      23.657  37.188  44.367  1.00  0.00     0.211 HD
ENDBRANCH  25  33
ENDBRANCH  11  20
BRANCH  10  35
ATOM     35  O   UNL     1      24.974  32.939  40.431  1.00  0.00    -0.507 OA
ATOM     36  H   UNL     1      25.323  32.235  41.070  1.00  0.00     0.293 HD
ENDBRANCH  10  35
TORSDOF 9
ENDMDL
MODEL 4
REMARK VINA RESULT:    -1.693      1.016      1.438
REMARK INTER + INTRA:          -1.239
REMARK INTER:                  -3.515
REMARK INTRA:                   2.276
REMARK UNBOUND:                 1.047
REMARK SMILES O=c1c(-c2ccc(O)cc2)coc2c([C@@H]3O[C@@H](CO)[C@@H](O)[C@H](O)[C@H]3O)c(O)ccc12
REMARK SMILES IDX 3 1 11 2 12 3 13 4 30 5 2 6 1 7 29 8 28 9 26 10 14 11 4 12
REMARK SMILES IDX 5 13 6 14 7 15 10 16 9 17 8 18 15 20 24 21 16 22 22 23 17 24
REMARK SMILES IDX 20 25 25 26 23 28 18 30 19 31 21 33 27 35
REMARK H PARENT 8 19 25 27 23 29 19 32 21 34 27 36
REMARK Flexibility Score: inf
ROOT
ATOM      1  C   UNL     1      17.083  32.244  40.261  1.00  0.00     0.065 A 
ATOM      2  C   UNL     1      17.868  32.095  41.411  1.00  0.00     0.208 A 
ATOM      3  O   UNL     1      19.191  32.160  41.346  1.00  0.00    -0.463 OA
ATOM      4  C   UNL     1      19.863  32.361  40.215  1.00  0.00     0.147 A 
ATOM      5  C   UNL     1      19.147  32.466  38.998  1.00  0.00     0.066 A 
ATOM      6  C   UNL     1      17.741  32.438  39.034  1.00  0.00     0.200 A 
ATOM      7  O   UNL     1      17.073  32.596  37.973  1.00  0.00    -0.288 OA
ATOM      8  C   UNL     1      19.847  32.569  37.789  1.00  0.00     0.020 A 
ATOM      9  C   UNL     1      21.232  32.451  37.778  1.00  0.00     0.047 A 
ATOM     10  C   UNL     1      21.944  32.303  38.970  1.00  0.00     0.125 A 
ATOM     11  C   UNL     1      21.284  32.447  40.222  1.00  0.00     0.069 A 
ENDROOT
BRANCH   1  12
ATOM     12  C   UNL     1      15.602  32.192  40.365  1.00  0.00    -0.011 A 
ATOM     13  C   UNL     1      14.971  32.385  41.606  1.00  0.00     0.013 A 
ATOM     14  C   UNL     1      13.578  32.334  41.710  1.00  0.00     0.047 A 
ATOM     15  C   UNL     1      12.797  32.084  40.577  1.00  0.00     0.115 A 
ATOM     16  C   UNL     1      14.809  31.929  39.231  1.00  0.00     0.013 A 
ATOM     17  C   UNL     1      13.416  31.880  39.338  1.00  0.00     0.047 A 
BRANCH  15  18
ATOM     18  O   UNL     1      11.410  32.041  40.695  1.00  0.00    -0.508 OA
ATOM     19  H   UNL     1      10.824  32.796  40.357  1.00  0.00     0.293 HD
ENDBRANCH  15  18
ENDBRANCH   1  12
BRANCH  11  20
ATOM     20  C   UNL     1      22.097  32.555  41.533  1.00  0.00     0.188 C 
ATOM     21  C   UNL     1      23.643  32.340  41.385  1.00  0.00     0.179 C 
ATOM     22  O   UNL     1      21.809  33.717  42.310  1.00  0.00    -0.362 OA
ATOM     23  C   UNL     1      24.384  33.618  40.952  1.00  0.00     0.177 C 
ATOM     24  C   UNL     1      22.401  34.906  41.792  1.00  0.00     0.176 C 
ATOM     25  C   UNL     1      23.942  34.820  41.794  1.00  0.00     0.177 C 
BRANCH  21  26
ATOM     26  O   UNL     1      24.152  31.878  42.612  1.00  0.00    -0.387 OA
ATOM     27  H   UNL     1      23.405  31.896  43.267  1.00  0.00     0.211 HD
ENDBRANCH  21  26
BRANCH  23  28
ATOM     28  O   UNL     1      24.122  33.859  39.591  1.00  0.00    -0.387 OA
ATOM     29  H   UNL     1      24.865  34.421  39.248  1.00  0.00     0.211 HD
ENDBRANCH  23  28
BRANCH  24  30
ATOM     30  C   UNL     1      21.901  36.102  42.618  1.00  0.00     0.191 C 
BRANCH  30  31
ATOM     31  O   UNL     1      22.782  37.190  42.501  1.00  0.00    -0.394 OA
ATOM     32  H   UNL     1      22.519  37.689  41.686  1.00  0.00     0.210 HD
ENDBRANCH  30  31
ENDBRANCH  24  30
BRANCH  25  33
ATOM     33  O   UNL     1      24.488  34.761  43.092  1.00  0.00    -0.388 OA
ATOM     34  H   UNL     1      24.662  35.683  43.407  1.00  0.00     0.211 HD
ENDBRANCH  25  33
ENDBRANCH  11  20
BRANCH  10  35
ATOM     35  O   UNL     1      23.291  31.949  38.865  1.00  0.00    -0.507 OA
ATOM     36  H   UNL     1      23.977  32.179  39.574  1.00  0.00     0.293 HD
ENDBRANCH  10  35
TORSDOF 9
ENDMDL
