MODEL 1
REMARK VINA RESULT:    -4.234      0.000      0.000
REMARK INTER + INTRA:          -4.358
REMARK INTER:                  -4.358
REMARK INTRA:                   0.000
REMARK UNBOUND:                 0.000
REMARK SMILES Oc1ccc2[nH]ccc2c1
REMARK SMILES IDX 3 1 4 2 5 3 9 4 8 5 7 6 6 7 10 8 2 9 1 11
REMARK H PARENT 6 10 1 12
REMARK Flexibility Score: inf
ROOT
ATOM      1  C   UNL     1      29.108  28.970  27.217  1.00  0.00     0.048 A 
ATOM      2  C   UNL     1      29.103  30.289  26.726  1.00  0.00     0.030 A 
ATOM      3  C   UNL     1      29.109  30.468  25.343  1.00  0.00     0.046 A 
ATOM      4  C   UNL     1      29.120  29.406  24.480  1.00  0.00     0.003 A 
ATOM      5  C   UNL     1      29.123  29.916  23.200  1.00  0.00     0.028 A 
ATOM      6  C   UNL     1      29.114  31.298  23.360  1.00  0.00     0.083 A 
ATOM      7  N   UNL     1      29.106  31.631  24.671  1.00  0.00    -0.361 N 
ATOM      8  C   UNL     1      29.125  28.089  24.932  1.00  0.00     0.056 A 
ATOM      9  C   UNL     1      29.120  27.871  26.327  1.00  0.00     0.116 A 
ATOM     10  H   UNL     1      29.098  32.594  25.073  1.00  0.00     0.166 HD
ENDROOT
BRANCH   9  11
ATOM     11  O   UNL     1      29.125  26.576  26.839  1.00  0.00    -0.508 OA
ATOM     12  H   UNL     1      29.185  25.767  26.230  1.00  0.00     0.293 HD
ENDBRANCH   9  11
TORSDOF 1
ENDMDL
MODEL 2
REMARK VINA RESULT:    -4.018      2.644      4.094
REMARK INTER + INTRA:          -4.136
REMARK INTER:                  -4.136
REMARK INTRA:                   0.000
REMARK UNBOUND:                 0.000
REMARK SMILES Oc1ccc2[nH]ccc2c1
REMARK SMILES IDX 3 1 4 2 5 3 9 4 8 5 7 6 6 7 10 8 2 9 1 11
REMARK H PARENT 6 10 1 12
REMARK Flexibility Score: inf
ROOT
ATOM      1  C   UNL     1      29.034  30.055  23.116  1.00  0.00     0.048 A 
ATOM      2  C   UNL     1      29.010  28.915  23.942  1.00  0.00     0.030 A 
ATOM      3  C   UNL     1      29.043  29.111  25.322  1.00  0.00     0.046 A 
ATOM      4  C   UNL     1      29.095  30.365  25.869  1.00  0.00     0.003 A 
ATOM      5  C   UNL     1      29.116  30.215  27.239  1.00  0.00     0.028 A 
ATOM      6  C   UNL     1      29.073  28.841  27.455  1.00  0.00     0.083 A 
ATOM      7  N   UNL     1      29.030  28.171  26.281  1.00  0.00    -0.361 N 
ATOM      8  C   UNL     1      29.119  31.513  25.081  1.00  0.00     0.056 A 
ATOM      9  C   UNL     1      29.088  31.351  23.680  1.00  0.00     0.116 A 
ATOM     10  H   UNL     1      28.992  27.136  26.150  1.00  0.00     0.166 HD
ENDROOT
BRANCH   9  11
ATOM     11  O   UNL     1      29.109  32.462  22.840  1.00  0.00    -0.508 OA
ATOM     12  H   UNL     1      28.482  33.245  22.984  1.00  0.00     0.293 HD
ENDBRANCH   9  11
TORSDOF 1
ENDMDL
MODEL 3
REMARK VINA RESULT:    -3.888      2.552      3.603
REMARK INTER + INTRA:          -4.001
REMARK INTER:                  -4.001
REMARK INTRA:                   0.000
REMARK UNBOUND:                 0.000
REMARK SMILES Oc1ccc2[nH]ccc2c1
REMARK SMILES IDX 3 1 4 2 5 3 9 4 8 5 7 6 6 7 10 8 2 9 1 11
REMARK H PARENT 6 10 1 12
REMARK Flexibility Score: inf
ROOT
ATOM      1  C   UNL     1      29.125  31.518  24.834  1.00  0.00     0.048 A 
ATOM      2  C   UNL     1      29.125  30.783  26.033  1.00  0.00     0.030 A 
ATOM      3  C   UNL     1      29.096  29.392  25.944  1.00  0.00     0.046 A 
ATOM      4  C   UNL     1      29.068  28.749  24.735  1.00  0.00     0.003 A 
ATOM      5  C   UNL     1      29.044  27.395  24.990  1.00  0.00     0.028 A 
ATOM      6  C   UNL     1      29.059  27.286  26.377  1.00  0.00     0.083 A 
ATOM      7  N   UNL     1      29.089  28.508  26.955  1.00  0.00    -0.361 N 
ATOM      8  C   UNL     1      29.068  29.447  23.530  1.00  0.00     0.056 A 
ATOM      9  C   UNL     1      29.096  30.857  23.584  1.00  0.00     0.116 A 
ATOM     10  H   UNL     1      29.106  28.718  27.978  1.00  0.00     0.166 HD
ENDROOT
BRANCH   9  11
ATOM     11  O   UNL     1      29.097  31.608  22.411  1.00  0.00    -0.508 OA
ATOM     12  H   UNL     1      28.331  31.556  21.750  1.00  0.00     0.293 HD
ENDBRANCH   9  11
TORSDOF 1
ENDMDL
MODEL 4
REMARK VINA RESULT:    -3.790      3.165      4.471
REMARK INTER + INTRA:          -3.900
REMARK INTER:                  -3.900
REMARK INTRA:                   0.000
REMARK UNBOUND:                 0.000
REMARK SMILES Oc1ccc2[nH]ccc2c1
REMARK SMILES IDX 3 1 4 2 5 3 9 4 8 5 7 6 6 7 10 8 2 9 1 11
REMARK H PARENT 6 10 1 12
REMARK Flexibility Score: inf
ROOT
ATOM      1  C   UNL     1      29.089  33.701  23.574  1.00  0.00     0.048 A 
ATOM      2  C   UNL     1      29.083  33.145  24.867  1.00  0.00     0.030 A 
ATOM      3  C   UNL     1      29.096  31.756  24.977  1.00  0.00     0.046 A 
ATOM      4  C   UNL     1      29.115  30.946  23.873  1.00  0.00     0.003 A 
ATOM      5  C   UNL     1      29.125  29.642  24.319  1.00  0.00     0.028 A 
ATOM      6  C   UNL     1      29.111  29.733  25.707  1.00  0.00     0.083 A 
ATOM      7  N   UNL     1      29.092  31.026  26.105  1.00  0.00    -0.361 N 
ATOM      8  C   UNL     1      29.123  31.464  22.580  1.00  0.00     0.056 A 
ATOM      9  C   UNL     1      29.109  32.867  22.432  1.00  0.00     0.116 A 
ATOM     10  H   UNL     1      29.079  31.380  27.087  1.00  0.00     0.166 HD
ENDROOT
BRANCH   9  11
ATOM     11  O   UNL     1      29.115  33.443  21.164  1.00  0.00    -0.508 OA
ATOM     12  H   UNL     1      28.623  34.309  20.974  1.00  0.00     0.293 HD
ENDBRANCH   9  11
TORSDOF 1
ENDMDL
MODEL 5
REMARK VINA RESULT:    -3.491      6.515      7.688
REMARK INTER + INTRA:          -3.593
REMARK INTER:                  -3.593
REMARK INTRA:                   0.000
REMARK UNBOUND:                 0.000
REMARK SMILES Oc1ccc2[nH]ccc2c1
REMARK SMILES IDX 3 1 4 2 5 3 9 4 8 5 7 6 6 7 10 8 2 9 1 11
REMARK H PARENT 6 10 1 12
REMARK Flexibility Score: inf
ROOT
ATOM      1  C   UNL     1      27.231  23.548  24.296  1.00  0.00     0.048 A 
ATOM      2  C   UNL     1      25.866  23.255  24.123  1.00  0.00     0.030 A 
ATOM      3  C   UNL     1      25.074  23.147  25.265  1.00  0.00     0.046 A 
ATOM      4  C   UNL     1      25.594  23.318  26.520  1.00  0.00     0.003 A 
ATOM      5  C   UNL     1      24.563  23.148  27.419  1.00  0.00     0.028 A 
ATOM      6  C   UNL     1      23.443  22.876  26.640  1.00  0.00     0.083 A 
ATOM      7  N   UNL     1      23.760  22.875  25.325  1.00  0.00    -0.361 N 
ATOM      8  C   UNL     1      26.940  23.610  26.726  1.00  0.00     0.056 A 
ATOM      9  C   UNL     1      27.771  23.725  25.592  1.00  0.00     0.116 A 
ATOM     10  H   UNL     1      23.113  22.700  24.524  1.00  0.00     0.166 HD
ENDROOT
BRANCH   9  11
ATOM     11  O   UNL     1      29.125  24.015  25.735  1.00  0.00    -0.508 OA
ATOM     12  H   UNL     1      29.816  23.280  25.831  1.00  0.00     0.293 HD
ENDBRANCH   9  11
TORSDOF 1
ENDMDL
MODEL 6
REMARK VINA RESULT:    -3.431      6.773      7.433
REMARK INTER + INTRA:          -3.532
REMARK INTER:                  -3.532
REMARK INTRA:                   0.000
REMARK UNBOUND:                 0.000
REMARK SMILES Oc1ccc2[nH]ccc2c1
REMARK SMILES IDX 3 1 4 2 5 3 9 4 8 5 7 6 6 7 10 8 2 9 1 11
REMARK H PARENT 6 10 1 12
REMARK Flexibility Score: inf
ROOT
ATOM      1  C   UNL     1      25.007  23.074  27.992  1.00  0.00     0.048 A 
ATOM      2  C   UNL     1      26.388  23.214  27.757  1.00  0.00     0.030 A 
ATOM      3  C   UNL     1      26.817  23.292  26.433  1.00  0.00     0.046 A 
ATOM      4  C   UNL     1      25.936  23.235  25.387  1.00  0.00     0.003 A 
ATOM      5  C   UNL     1      26.671  23.338  24.225  1.00  0.00     0.028 A 
ATOM      6  C   UNL     1      27.993  23.455  24.641  1.00  0.00     0.083 A 
ATOM      7  N   UNL     1      28.078  23.425  25.990  1.00  0.00    -0.361 N 
ATOM      8  C   UNL     1      24.565  23.097  25.584  1.00  0.00     0.056 A 
ATOM      9  C   UNL     1      24.096  23.015  26.913  1.00  0.00     0.116 A 
ATOM     10  H   UNL     1      28.946  23.493  26.566  1.00  0.00     0.166 HD
ENDROOT
BRANCH   9  11
ATOM     11  O   UNL     1      22.734  22.877  27.173  1.00  0.00    -0.508 OA
ATOM     12  H   UNL     1      22.050  23.492  26.749  1.00  0.00     0.293 HD
ENDBRANCH   9  11
TORSDOF 1
ENDMDL
