MODEL 1
REMARK VINA RESULT:    -3.010      0.000      0.000
REMARK INTER + INTRA:          -3.423
REMARK INTER:                  -3.362
REMARK INTRA:                  -0.061
REMARK UNBOUND:                -0.061
REMARK SMILES CCCC(=O)[O-]
REMARK SMILES IDX 3 1 4 2 5 3 6 4 2 5 1 6
REMARK H PARENT
REMARK Flexibility Score: inf
ROOT
ATOM      1  C   UNL     1      15.641  12.439  -0.002  1.00  0.00     0.052 C 
ENDROOT
BRANCH   1   2
ATOM      2  C   UNL     1      16.216  12.167  -1.358  1.00  0.00     0.041 C 
ATOM      3  O   UNL     1      15.590  11.445  -2.179  1.00  0.00    -0.550 OA
ATOM      4  O   UNL     1      17.426  12.738  -1.728  1.00  0.00    -0.550 OA
ENDBRANCH   1   2
BRANCH   1   5
ATOM      5  C   UNL     1      15.712  11.203   0.904  1.00  0.00     0.003 C 
ATOM      6  C   UNL     1      17.138  10.904   1.367  1.00  0.00     0.004 C 
ENDBRANCH   1   5
TORSDOF 2
ENDMDL
MODEL 2
REMARK VINA RESULT:    -2.960      2.103      3.125
REMARK INTER + INTRA:          -3.367
REMARK INTER:                  -3.324
REMARK INTRA:                  -0.043
REMARK UNBOUND:                -0.061
REMARK SMILES CCCC(=O)[O-]
REMARK SMILES IDX 3 1 4 2 5 3 6 4 2 5 1 6
REMARK H PARENT
REMARK Flexibility Score: inf
ROOT
ATOM      1  C   UNL     1      15.995  11.200   1.032  1.00  0.00     0.052 C 
ENDROOT
BRANCH   1   2
ATOM      2  C   UNL     1      17.492  11.201   1.079  1.00  0.00     0.041 C 
ATOM      3  O   UNL     1      18.129  12.282   0.966  1.00  0.00    -0.550 OA
ATOM      4  O   UNL     1      18.183  10.014   1.283  1.00  0.00    -0.550 OA
ENDBRANCH   1   2
BRANCH   1   5
ATOM      5  C   UNL     1      15.457  12.232   0.034  1.00  0.00     0.003 C 
ATOM      6  C   UNL     1      15.322  11.660  -1.377  1.00  0.00     0.004 C 
ENDBRANCH   1   5
TORSDOF 2
ENDMDL
MODEL 3
REMARK VINA RESULT:    -2.643      2.288      3.130
REMARK INTER + INTRA:          -3.013
REMARK INTER:                  -2.983
REMARK INTRA:                  -0.030
REMARK UNBOUND:                -0.061
REMARK SMILES CCCC(=O)[O-]
REMARK SMILES IDX 3 1 4 2 5 3 6 4 2 5 1 6
REMARK H PARENT
REMARK Flexibility Score: inf
ROOT
ATOM      1  C   UNL     1      17.042  12.102  -0.342  1.00  0.00     0.052 C 
ENDROOT
BRANCH   1   2
ATOM      2  C   UNL     1      16.538  11.371   0.864  1.00  0.00     0.041 C 
ATOM      3  O   UNL     1      15.304  11.336   1.114  1.00  0.00    -0.550 OA
ATOM      4  O   UNL     1      17.427  10.700   1.693  1.00  0.00    -0.550 OA
ENDBRANCH   1   2
BRANCH   1   5
ATOM      5  C   UNL     1      15.926  12.348  -1.365  1.00  0.00     0.003 C 
ATOM      6  C   UNL     1      16.138  11.559  -2.657  1.00  0.00     0.004 C 
ENDBRANCH   1   5
TORSDOF 2
ENDMDL
MODEL 4
REMARK VINA RESULT:    -2.517     11.290     11.863
REMARK INTER + INTRA:          -2.873
REMARK INTER:                  -2.867
REMARK INTRA:                  -0.006
REMARK UNBOUND:                -0.061
REMARK SMILES CCCC(=O)[O-]
REMARK SMILES IDX 3 1 4 2 5 3 6 4 2 5 1 6
REMARK H PARENT
REMARK Flexibility Score: inf
ROOT
ATOM      1  C   UNL     1       5.788   6.847   2.019  1.00  0.00     0.052 C 
ENDROOT
BRANCH   1   2
ATOM      2  C   UNL     1       6.077   7.093   3.469  1.00  0.00     0.041 C 
ATOM      3  O   UNL     1       5.875   8.231   3.971  1.00  0.00    -0.550 OA
ATOM      4  O   UNL     1       6.537   6.058   4.272  1.00  0.00    -0.550 OA
ENDBRANCH   1   2
BRANCH   1   5
ATOM      5  C   UNL     1       6.562   7.814   1.114  1.00  0.00     0.003 C 
ATOM      6  C   UNL     1       6.795   7.239  -0.283  1.00  0.00     0.004 C 
ENDBRANCH   1   5
TORSDOF 2
ENDMDL
MODEL 5
REMARK VINA RESULT:    -2.484     17.729     18.158
REMARK INTER + INTRA:          -2.835
REMARK INTER:                  -2.795
REMARK INTRA:                  -0.041
REMARK UNBOUND:                -0.061
REMARK SMILES CCCC(=O)[O-]
REMARK SMILES IDX 3 1 4 2 5 3 6 4 2 5 1 6
REMARK H PARENT
REMARK Flexibility Score: inf
ROOT
ATOM      1  C   UNL     1      12.932  -6.349   3.933  1.00  0.00     0.052 C 
ENDROOT
BRANCH   1   2
ATOM      2  C   UNL     1      13.967  -5.884   2.955  1.00  0.00     0.041 C 
ATOM      3  O   UNL     1      13.799  -6.066   1.720  1.00  0.00    -0.550 OA
ATOM      4  O   UNL     1      15.100  -5.220   3.404  1.00  0.00    -0.550 OA
ENDBRANCH   1   2
BRANCH   1   5
ATOM      5  C   UNL     1      11.897  -5.256   4.227  1.00  0.00     0.003 C 
ATOM      6  C   UNL     1      12.233  -4.463   5.489  1.00  0.00     0.004 C 
ENDBRANCH   1   5
TORSDOF 2
ENDMDL
MODEL 6
REMARK VINA RESULT:    -2.478     10.450     11.314
REMARK INTER + INTRA:          -2.829
REMARK INTER:                  -2.791
REMARK INTRA:                  -0.038
REMARK UNBOUND:                -0.061
REMARK SMILES CCCC(=O)[O-]
REMARK SMILES IDX 3 1 4 2 5 3 6 4 2 5 1 6
REMARK H PARENT
REMARK Flexibility Score: inf
ROOT
ATOM      1  C   UNL     1       5.874   6.856   2.027  1.00  0.00     0.052 C 
ENDROOT
BRANCH   1   2
ATOM      2  C   UNL     1       6.632   7.717   1.063  1.00  0.00     0.041 C 
ATOM      3  O   UNL     1       7.405   8.616   1.489  1.00  0.00    -0.550 OA
ATOM      4  O   UNL     1       6.511   7.503  -0.303  1.00  0.00    -0.550 OA
ENDBRANCH   1   2
BRANCH   1   5
ATOM      5  C   UNL     1       5.966   7.392   3.461  1.00  0.00     0.003 C 
ATOM      6  C   UNL     1       4.750   8.237   3.844  1.00  0.00     0.004 C 
ENDBRANCH   1   5
TORSDOF 2
ENDMDL
MODEL 7
REMARK VINA RESULT:    -2.469     17.668     18.368
REMARK INTER + INTRA:          -2.819
REMARK INTER:                  -2.762
REMARK INTRA:                  -0.057
REMARK UNBOUND:                -0.061
REMARK SMILES CCCC(=O)[O-]
REMARK SMILES IDX 3 1 4 2 5 3 6 4 2 5 1 6
REMARK H PARENT
REMARK Flexibility Score: inf
ROOT
ATOM      1  C   UNL     1      12.407  -6.732   1.141  1.00  0.00     0.052 C 
ENDROOT
BRANCH   1   2
ATOM      2  C   UNL     1      13.005  -6.027   2.320  1.00  0.00     0.041 C 
ATOM      3  O   UNL     1      12.262  -5.562   3.225  1.00  0.00    -0.550 OA
ATOM      4  O   UNL     1      14.384  -5.915   2.437  1.00  0.00    -0.550 OA
ENDBRANCH   1   2
BRANCH   1   5
ATOM      5  C   UNL     1      12.907  -6.146  -0.185  1.00  0.00     0.003 C 
ATOM      6  C   UNL     1      12.197  -4.842  -0.547  1.00  0.00     0.004 C 
ENDBRANCH   1   5
TORSDOF 2
ENDMDL
MODEL 8
REMARK VINA RESULT:    -2.459      9.598     10.336
REMARK INTER + INTRA:          -2.808
REMARK INTER:                  -2.776
REMARK INTRA:                  -0.032
REMARK UNBOUND:                -0.061
REMARK SMILES CCCC(=O)[O-]
REMARK SMILES IDX 3 1 4 2 5 3 6 4 2 5 1 6
REMARK H PARENT
REMARK Flexibility Score: inf
ROOT
ATOM      1  C   UNL     1       6.448   8.124  -0.186  1.00  0.00     0.052 C 
ENDROOT
BRANCH   1   2
ATOM      2  C   UNL     1       7.316   8.492   0.979  1.00  0.00     0.041 C 
ATOM      3  O   UNL     1       6.822   8.580   2.134  1.00  0.00    -0.550 OA
ATOM      4  O   UNL     1       8.675   8.706   0.793  1.00  0.00    -0.550 OA
ENDBRANCH   1   2
BRANCH   1   5
ATOM      5  C   UNL     1       6.530   6.625  -0.503  1.00  0.00     0.003 C 
ATOM      6  C   UNL     1       7.212   6.352  -1.844  1.00  0.00     0.004 C 
ENDBRANCH   1   5
TORSDOF 2
ENDMDL
MODEL 9
REMARK VINA RESULT:    -2.447     17.663     18.258
REMARK INTER + INTRA:          -2.794
REMARK INTER:                  -2.786
REMARK INTRA:                  -0.008
REMARK UNBOUND:                -0.061
REMARK SMILES CCCC(=O)[O-]
REMARK SMILES IDX 3 1 4 2 5 3 6 4 2 5 1 6
REMARK H PARENT
REMARK Flexibility Score: inf
ROOT
ATOM      1  C   UNL     1      12.756  -6.102   1.533  1.00  0.00     0.052 C 
ENDROOT
BRANCH   1   2
ATOM      2  C   UNL     1      12.685  -6.092   0.037  1.00  0.00     0.041 C 
ATOM      3  O   UNL     1      12.990  -7.123  -0.619  1.00  0.00    -0.550 OA
ATOM      4  O   UNL     1      12.250  -4.956  -0.632  1.00  0.00    -0.550 OA
ENDBRANCH   1   2
BRANCH   1   5
ATOM      5  C   UNL     1      14.122  -6.588   2.034  1.00  0.00     0.003 C 
ATOM      6  C   UNL     1      14.730  -5.643   3.069  1.00  0.00     0.004 C 
ENDBRANCH   1   5
TORSDOF 2
ENDMDL
