MODEL 1
REMARK VINA RESULT:    -3.751      0.000      0.000
REMARK INTER + INTRA:          -5.347
REMARK INTER:                  -5.066
REMARK INTRA:                  -0.281
REMARK UNBOUND:                -0.281
REMARK SMILES CCCCCCCC(=O)[O-]
REMARK SMILES IDX 5 1 6 2 7 3 8 4 9 5 10 6 4 7 3 8 2 9 1 10
REMARK H PARENT
REMARK Flexibility Score: inf
ROOT
ATOM      1  C   UNL     1     -43.059  27.980  -0.064  1.00  0.00     0.000 C 
ENDROOT
BRANCH   1   2
ATOM      2  C   UNL     1     -42.571  27.504   1.312  1.00  0.00     0.006 C 
BRANCH   2   3
ATOM      3  C   UNL     1     -43.374  28.165   2.436  1.00  0.00     0.053 C 
BRANCH   3   4
ATOM      4  C   UNL     1     -44.521  27.295   2.843  1.00  0.00     0.041 C 
ATOM      5  O   UNL     1     -44.313  26.230   3.482  1.00  0.00    -0.550 OA
ATOM      6  O   UNL     1     -45.817  27.634   2.473  1.00  0.00    -0.550 OA
ENDBRANCH   3   4
ENDBRANCH   2   3
ENDBRANCH   1   2
BRANCH   1   7
ATOM      7  C   UNL     1     -44.100  27.034  -0.683  1.00  0.00     0.000 C 
BRANCH   7   8
ATOM      8  C   UNL     1     -45.288  27.783  -1.305  1.00  0.00    -0.000 C 
BRANCH   8   9
ATOM      9  C   UNL     1     -46.147  26.839  -2.155  1.00  0.00    -0.003 C 
ATOM     10  C   UNL     1     -45.668  25.395  -2.031  1.00  0.00     0.004 C 
ENDBRANCH   8   9
ENDBRANCH   7   8
ENDBRANCH   1   7
TORSDOF 6
ENDMDL
MODEL 2
REMARK VINA RESULT:    -3.694      0.395      1.086
REMARK INTER + INTRA:          -5.270
REMARK INTER:                  -4.940
REMARK INTRA:                  -0.330
REMARK UNBOUND:                -0.281
REMARK SMILES CCCCCCCC(=O)[O-]
REMARK SMILES IDX 5 1 6 2 7 3 8 4 9 5 10 6 4 7 3 8 2 9 1 10
REMARK H PARENT
REMARK Flexibility Score: inf
ROOT
ATOM      1  C   UNL     1     -43.198  27.942  -0.108  1.00  0.00     0.000 C 
ENDROOT
BRANCH   1   2
ATOM      2  C   UNL     1     -42.668  27.526   1.273  1.00  0.00     0.006 C 
BRANCH   2   3
ATOM      3  C   UNL     1     -43.465  28.205   2.391  1.00  0.00     0.053 C 
BRANCH   3   4
ATOM      4  C   UNL     1     -44.534  27.291   2.902  1.00  0.00     0.041 C 
ATOM      5  O   UNL     1     -45.739  27.658   2.892  1.00  0.00    -0.550 OA
ATOM      6  O   UNL     1     -44.195  26.055   3.437  1.00  0.00    -0.550 OA
ENDBRANCH   3   4
ENDBRANCH   2   3
ENDBRANCH   1   2
BRANCH   1   7
ATOM      7  C   UNL     1     -44.184  26.919  -0.696  1.00  0.00     0.000 C 
BRANCH   7   8
ATOM      8  C   UNL     1     -45.634  27.425  -0.698  1.00  0.00    -0.000 C 
BRANCH   8   9
ATOM      9  C   UNL     1     -46.527  26.525  -1.559  1.00  0.00    -0.003 C 
ATOM     10  C   UNL     1     -45.799  25.245  -1.960  1.00  0.00     0.004 C 
ENDBRANCH   8   9
ENDBRANCH   7   8
ENDBRANCH   1   7
TORSDOF 6
ENDMDL
MODEL 3
REMARK VINA RESULT:    -3.527      2.155      3.260
REMARK INTER + INTRA:          -5.045
REMARK INTER:                  -4.860
REMARK INTRA:                  -0.185
REMARK UNBOUND:                -0.281
REMARK SMILES CCCCCCCC(=O)[O-]
REMARK SMILES IDX 5 1 6 2 7 3 8 4 9 5 10 6 4 7 3 8 2 9 1 10
REMARK H PARENT
REMARK Flexibility Score: inf
ROOT
ATOM      1  C   UNL     1     -45.336  25.879  -2.051  1.00  0.00     0.000 C 
ENDROOT
BRANCH   1   2
ATOM      2  C   UNL     1     -45.342  26.983  -0.982  1.00  0.00     0.006 C 
BRANCH   2   3
ATOM      3  C   UNL     1     -43.915  27.326  -0.543  1.00  0.00     0.053 C 
BRANCH   3   4
ATOM      4  C   UNL     1     -43.791  27.248   0.946  1.00  0.00     0.041 C 
ATOM      5  O   UNL     1     -42.655  27.255   1.489  1.00  0.00    -0.550 OA
ATOM      6  O   UNL     1     -44.929  27.119   1.732  1.00  0.00    -0.550 OA
ENDBRANCH   3   4
ENDBRANCH   2   3
ENDBRANCH   1   2
BRANCH   1   7
ATOM      7  C   UNL     1     -46.506  26.005  -3.039  1.00  0.00     0.000 C 
BRANCH   7   8
ATOM      8  C   UNL     1     -46.380  27.232  -3.954  1.00  0.00    -0.000 C 
BRANCH   8   9
ATOM      9  C   UNL     1     -46.210  26.808  -5.418  1.00  0.00    -0.003 C 
ATOM     10  C   UNL     1     -45.698  27.965  -6.272  1.00  0.00     0.004 C 
ENDBRANCH   8   9
ENDBRANCH   7   8
ENDBRANCH   1   7
TORSDOF 6
ENDMDL
MODEL 4
REMARK VINA RESULT:    -3.403      2.463      3.600
REMARK INTER + INTRA:          -4.877
REMARK INTER:                  -4.613
REMARK INTRA:                  -0.264
REMARK UNBOUND:                -0.281
REMARK SMILES CCCCCCCC(=O)[O-]
REMARK SMILES IDX 5 1 6 2 7 3 8 4 9 5 10 6 4 7 3 8 2 9 1 10
REMARK H PARENT
REMARK Flexibility Score: inf
ROOT
ATOM      1  C   UNL     1     -44.194  28.435   3.103  1.00  0.00     0.000 C 
ENDROOT
BRANCH   1   2
ATOM      2  C   UNL     1     -42.995  28.867   3.961  1.00  0.00     0.006 C 
BRANCH   2   3
ATOM      3  C   UNL     1     -43.430  29.152   5.402  1.00  0.00     0.053 C 
BRANCH   3   4
ATOM      4  C   UNL     1     -42.998  28.043   6.309  1.00  0.00     0.041 C 
ATOM      5  O   UNL     1     -42.020  28.203   7.085  1.00  0.00    -0.550 OA
ATOM      6  O   UNL     1     -43.646  26.815   6.262  1.00  0.00    -0.550 OA
ENDBRANCH   3   4
ENDBRANCH   2   3
ENDBRANCH   1   2
BRANCH   1   7
ATOM      7  C   UNL     1     -43.821  27.371   2.058  1.00  0.00     0.000 C 
BRANCH   7   8
ATOM      8  C   UNL     1     -42.611  27.777   1.204  1.00  0.00    -0.000 C 
BRANCH   8   9
ATOM      9  C   UNL     1     -42.968  27.777  -0.287  1.00  0.00    -0.003 C 
ATOM     10  C   UNL     1     -44.269  27.022  -0.544  1.00  0.00     0.004 C 
ENDBRANCH   8   9
ENDBRANCH   7   8
ENDBRANCH   1   7
TORSDOF 6
ENDMDL
MODEL 5
REMARK VINA RESULT:    -3.373      2.664      4.879
REMARK INTER + INTRA:          -4.837
REMARK INTER:                  -4.552
REMARK INTRA:                  -0.285
REMARK UNBOUND:                -0.281
REMARK SMILES CCCCCCCC(=O)[O-]
REMARK SMILES IDX 5 1 6 2 7 3 8 4 9 5 10 6 4 7 3 8 2 9 1 10
REMARK H PARENT
REMARK Flexibility Score: inf
ROOT
ATOM      1  C   UNL     1     -43.214  27.835  -0.372  1.00  0.00     0.000 C 
ENDROOT
BRANCH   1   2
ATOM      2  C   UNL     1     -44.415  26.877  -0.385  1.00  0.00     0.006 C 
BRANCH   2   3
ATOM      3  C   UNL     1     -45.394  27.243  -1.504  1.00  0.00     0.053 C 
BRANCH   3   4
ATOM      4  C   UNL     1     -45.770  26.027  -2.291  1.00  0.00     0.041 C 
ATOM      5  O   UNL     1     -45.809  24.899  -1.734  1.00  0.00    -0.550 OA
ATOM      6  O   UNL     1     -46.029  26.133  -3.652  1.00  0.00    -0.550 OA
ENDBRANCH   3   4
ENDBRANCH   2   3
ENDBRANCH   1   2
BRANCH   1   7
ATOM      7  C   UNL     1     -42.633  28.038   1.036  1.00  0.00     0.000 C 
BRANCH   7   8
ATOM      8  C   UNL     1     -43.382  27.233   2.108  1.00  0.00    -0.000 C 
BRANCH   8   9
ATOM      9  C   UNL     1     -43.901  28.151   3.221  1.00  0.00    -0.003 C 
ATOM     10  C   UNL     1     -42.957  29.330   3.448  1.00  0.00     0.004 C 
ENDBRANCH   8   9
ENDBRANCH   7   8
ENDBRANCH   1   7
TORSDOF 6
ENDMDL
MODEL 6
REMARK VINA RESULT:    -3.357      2.678      4.003
REMARK INTER + INTRA:          -4.815
REMARK INTER:                  -4.611
REMARK INTRA:                  -0.204
REMARK UNBOUND:                -0.281
REMARK SMILES CCCCCCCC(=O)[O-]
REMARK SMILES IDX 5 1 6 2 7 3 8 4 9 5 10 6 4 7 3 8 2 9 1 10
REMARK H PARENT
REMARK Flexibility Score: inf
ROOT
ATOM      1  C   UNL     1     -44.611  27.466   3.314  1.00  0.00     0.000 C 
ENDROOT
BRANCH   1   2
ATOM      2  C   UNL     1     -44.652  27.954   4.770  1.00  0.00     0.006 C 
BRANCH   2   3
ATOM      3  C   UNL     1     -44.081  26.895   5.717  1.00  0.00     0.053 C 
BRANCH   3   4
ATOM      4  C   UNL     1     -43.292  27.542   6.812  1.00  0.00     0.041 C 
ATOM      5  O   UNL     1     -42.233  28.168   6.545  1.00  0.00    -0.550 OA
ATOM      6  O   UNL     1     -43.700  27.411   8.134  1.00  0.00    -0.550 OA
ENDBRANCH   3   4
ENDBRANCH   2   3
ENDBRANCH   1   2
BRANCH   1   7
ATOM      7  C   UNL     1     -43.444  28.073   2.519  1.00  0.00     0.000 C 
BRANCH   7   8
ATOM      8  C   UNL     1     -42.933  27.141   1.411  1.00  0.00    -0.000 C 
BRANCH   8   9
ATOM      9  C   UNL     1     -43.214  27.732   0.024  1.00  0.00    -0.003 C 
ATOM     10  C   UNL     1     -44.366  27.003  -0.663  1.00  0.00     0.004 C 
ENDBRANCH   8   9
ENDBRANCH   7   8
ENDBRANCH   1   7
TORSDOF 6
ENDMDL
MODEL 7
REMARK VINA RESULT:    -3.300      1.776      3.152
REMARK INTER + INTRA:          -4.739
REMARK INTER:                  -4.222
REMARK INTRA:                  -0.517
REMARK UNBOUND:                -0.281
REMARK SMILES CCCCCCCC(=O)[O-]
REMARK SMILES IDX 5 1 6 2 7 3 8 4 9 5 10 6 4 7 3 8 2 9 1 10
REMARK H PARENT
REMARK Flexibility Score: inf
ROOT
ATOM      1  C   UNL     1     -42.690  29.025   3.259  1.00  0.00     0.000 C 
ENDROOT
BRANCH   1   2
ATOM      2  C   UNL     1     -43.667  29.259   4.421  1.00  0.00     0.006 C 
BRANCH   2   3
ATOM      3  C   UNL     1     -44.226  27.932   4.942  1.00  0.00     0.053 C 
BRANCH   3   4
ATOM      4  C   UNL     1     -44.771  27.114   3.813  1.00  0.00     0.041 C 
ATOM      5  O   UNL     1     -44.208  26.038   3.479  1.00  0.00    -0.550 OA
ATOM      6  O   UNL     1     -45.873  27.566   3.097  1.00  0.00    -0.550 OA
ENDBRANCH   3   4
ENDBRANCH   2   3
ENDBRANCH   1   2
BRANCH   1   7
ATOM      7  C   UNL     1     -42.913  30.002   2.093  1.00  0.00     0.000 C 
BRANCH   7   8
ATOM      8  C   UNL     1     -42.683  29.352   0.722  1.00  0.00    -0.000 C 
BRANCH   8   9
ATOM      9  C   UNL     1     -42.644  27.823   0.839  1.00  0.00    -0.003 C 
ATOM     10  C   UNL     1     -43.792  27.181   0.064  1.00  0.00     0.004 C 
ENDBRANCH   8   9
ENDBRANCH   7   8
ENDBRANCH   1   7
TORSDOF 6
ENDMDL
MODEL 8
REMARK VINA RESULT:    -3.300      4.572      6.696
REMARK INTER + INTRA:          -4.739
REMARK INTER:                  -4.552
REMARK INTRA:                  -0.187
REMARK UNBOUND:                -0.281
REMARK SMILES CCCCCCCC(=O)[O-]
REMARK SMILES IDX 5 1 6 2 7 3 8 4 9 5 10 6 4 7 3 8 2 9 1 10
REMARK H PARENT
REMARK Flexibility Score: inf
ROOT
ATOM      1  C   UNL     1     -45.616  26.125  -3.045  1.00  0.00     0.000 C 
ENDROOT
BRANCH   1   2
ATOM      2  C   UNL     1     -46.432  27.066  -3.944  1.00  0.00     0.006 C 
BRANCH   2   3
ATOM      3  C   UNL     1     -46.733  26.408  -5.294  1.00  0.00     0.053 C 
BRANCH   3   4
ATOM      4  C   UNL     1     -45.812  26.934  -6.350  1.00  0.00     0.041 C 
ATOM      5  O   UNL     1     -45.347  26.161  -7.228  1.00  0.00    -0.550 OA
ATOM      6  O   UNL     1     -45.429  28.270  -6.335  1.00  0.00    -0.550 OA
ENDBRANCH   3   4
ENDBRANCH   2   3
ENDBRANCH   1   2
BRANCH   1   7
ATOM      7  C   UNL     1     -45.888  26.351  -1.550  1.00  0.00     0.000 C 
BRANCH   7   8
ATOM      8  C   UNL     1     -45.106  27.542  -0.977  1.00  0.00    -0.000 C 
BRANCH   8   9
ATOM      9  C   UNL     1     -43.943  27.063  -0.099  1.00  0.00    -0.003 C 
ATOM     10  C   UNL     1     -42.742  27.998  -0.217  1.00  0.00     0.004 C 
ENDBRANCH   8   9
ENDBRANCH   7   8
ENDBRANCH   1   7
TORSDOF 6
ENDMDL
