MODEL 1
REMARK VINA RESULT:    -4.889      0.000      0.000
REMARK INTER + INTRA:          -8.186
REMARK INTER:                  -7.461
REMARK INTRA:                  -0.725
REMARK UNBOUND:                -0.725
REMARK SMILES O=C([O-])CCCCCCCCC(=O)[O-]
REMARK SMILES IDX 7 1 6 2 5 3 4 4 2 5 1 6 3 7 8 8 9 9 10 10 11 11 12 12 13 13
REMARK SMILES IDX 14 14
REMARK H PARENT
REMARK Flexibility Score: inf
ROOT
ATOM      1  C   UNL     1     104.963 107.953 230.957  1.00  0.00     0.000 C 
ENDROOT
BRANCH   1   2
ATOM      2  C   UNL     1     104.807 106.969 232.127  1.00  0.00     0.000 C 
BRANCH   2   3
ATOM      3  C   UNL     1     103.645 105.981 231.923  1.00  0.00     0.006 C 
BRANCH   3   4
ATOM      4  C   UNL     1     102.293 106.647 231.618  1.00  0.00     0.053 C 
BRANCH   4   5
ATOM      5  C   UNL     1     101.252 106.299 232.637  1.00  0.00     0.041 C 
ATOM      6  O   UNL     1     100.087 105.996 232.275  1.00  0.00    -0.550 OA
ATOM      7  O   UNL     1     101.582 106.278 233.987  1.00  0.00    -0.550 OA
ENDBRANCH   4   5
ENDBRANCH   3   4
ENDBRANCH   2   3
ENDBRANCH   1   2
BRANCH   1   8
ATOM      8  C   UNL     1     105.678 107.290 229.774  1.00  0.00     0.000 C 
BRANCH   8   9
ATOM      9  C   UNL     1     104.730 107.120 228.581  1.00  0.00     0.000 C 
BRANCH   9  10
ATOM     10  C   UNL     1     104.696 105.659 228.108  1.00  0.00     0.006 C 
BRANCH  10  11
ATOM     11  C   UNL     1     103.601 105.413 227.061  1.00  0.00     0.053 C 
BRANCH  11  12
ATOM     12  C   UNL     1     102.318 104.968 227.693  1.00  0.00     0.041 C 
ATOM     13  O   UNL     1     102.333 104.348 228.789  1.00  0.00    -0.550 OA
ATOM     14  O   UNL     1     101.103 105.267 227.087  1.00  0.00    -0.550 OA
ENDBRANCH  11  12
ENDBRANCH  10  11
ENDBRANCH   9  10
ENDBRANCH   8   9
ENDBRANCH   1   8
TORSDOF 9
ENDMDL
MODEL 2
REMARK VINA RESULT:    -4.880      1.733      2.225
REMARK INTER + INTRA:          -8.172
REMARK INTER:                  -7.322
REMARK INTRA:                  -0.850
REMARK UNBOUND:                -0.725
REMARK SMILES O=C([O-])CCCCCCCCC(=O)[O-]
REMARK SMILES IDX 7 1 6 2 5 3 4 4 2 5 1 6 3 7 8 8 9 9 10 10 11 11 12 12 13 13
REMARK SMILES IDX 14 14
REMARK H PARENT
REMARK Flexibility Score: inf
ROOT
ATOM      1  C   UNL     1     104.808 107.940 231.137  1.00  0.00     0.000 C 
ENDROOT
BRANCH   1   2
ATOM      2  C   UNL     1     104.918 106.875 232.239  1.00  0.00     0.000 C 
BRANCH   2   3
ATOM      3  C   UNL     1     103.725 105.903 232.248  1.00  0.00     0.006 C 
BRANCH   3   4
ATOM      4  C   UNL     1     102.397 106.525 231.788  1.00  0.00     0.053 C 
BRANCH   4   5
ATOM      5  C   UNL     1     101.297 106.301 232.780  1.00  0.00     0.041 C 
ATOM      6  O   UNL     1     100.127 106.061 232.385  1.00  0.00    -0.550 OA
ATOM      7  O   UNL     1     101.574 106.325 234.142  1.00  0.00    -0.550 OA
ENDBRANCH   4   5
ENDBRANCH   3   4
ENDBRANCH   2   3
ENDBRANCH   1   2
BRANCH   1   8
ATOM      8  C   UNL     1     105.721 107.600 229.952  1.00  0.00     0.000 C 
BRANCH   8   9
ATOM      9  C   UNL     1     104.957 107.685 228.625  1.00  0.00     0.000 C 
BRANCH   9  10
ATOM     10  C   UNL     1     104.320 106.333 228.269  1.00  0.00     0.006 C 
BRANCH  10  11
ATOM     11  C   UNL     1     105.203 105.148 228.682  1.00  0.00     0.053 C 
BRANCH  11  12
ATOM     12  C   UNL     1     105.749 104.421 227.491  1.00  0.00     0.041 C 
ATOM     13  O   UNL     1     105.170 104.508 226.376  1.00  0.00    -0.550 OA
ATOM     14  O   UNL     1     106.915 103.674 227.605  1.00  0.00    -0.550 OA
ENDBRANCH  11  12
ENDBRANCH  10  11
ENDBRANCH   9  10
ENDBRANCH   8   9
ENDBRANCH   1   8
TORSDOF 9
ENDMDL
MODEL 3
REMARK VINA RESULT:    -4.837      0.914      1.406
REMARK INTER + INTRA:          -8.107
REMARK INTER:                  -7.189
REMARK INTRA:                  -0.918
REMARK UNBOUND:                -0.725
REMARK SMILES O=C([O-])CCCCCCCCC(=O)[O-]
REMARK SMILES IDX 7 1 6 2 5 3 4 4 2 5 1 6 3 7 8 8 9 9 10 10 11 11 12 12 13 13
REMARK SMILES IDX 14 14
REMARK H PARENT
REMARK Flexibility Score: inf
ROOT
ATOM      1  C   UNL     1     104.421 106.188 230.993  1.00  0.00     0.000 C 
ENDROOT
BRANCH   1   2
ATOM      2  C   UNL     1     103.465 107.381 231.146  1.00  0.00     0.000 C 
BRANCH   2   3
ATOM      3  C   UNL     1     102.000 107.011 230.857  1.00  0.00     0.006 C 
BRANCH   3   4
ATOM      4  C   UNL     1     101.443 105.888 231.746  1.00  0.00     0.053 C 
BRANCH   4   5
ATOM      5  C   UNL     1     101.294 106.321 233.173  1.00  0.00     0.041 C 
ATOM      6  O   UNL     1     100.323 107.043 233.517  1.00  0.00    -0.550 OA
ATOM      7  O   UNL     1     102.212 105.898 234.127  1.00  0.00    -0.550 OA
ENDBRANCH   4   5
ENDBRANCH   3   4
ENDBRANCH   2   3
ENDBRANCH   1   2
BRANCH   1   8
ATOM      8  C   UNL     1     105.562 106.519 230.023  1.00  0.00     0.000 C 
BRANCH   8   9
ATOM      9  C   UNL     1     105.029 106.750 228.604  1.00  0.00     0.000 C 
BRANCH   9  10
ATOM     10  C   UNL     1     104.640 105.421 227.939  1.00  0.00     0.006 C 
BRANCH  10  11
ATOM     11  C   UNL     1     103.384 105.553 227.067  1.00  0.00     0.053 C 
BRANCH  11  12
ATOM     12  C   UNL     1     102.176 104.978 227.742  1.00  0.00     0.041 C 
ATOM     13  O   UNL     1     101.023 105.261 227.323  1.00  0.00    -0.550 OA
ATOM     14  O   UNL     1     102.326 104.105 228.812  1.00  0.00    -0.550 OA
ENDBRANCH  11  12
ENDBRANCH  10  11
ENDBRANCH   9  10
ENDBRANCH   8   9
ENDBRANCH   1   8
TORSDOF 9
ENDMDL
MODEL 4
REMARK VINA RESULT:    -4.780      0.886      4.580
REMARK INTER + INTRA:          -8.019
REMARK INTER:                  -7.164
REMARK INTRA:                  -0.855
REMARK UNBOUND:                -0.725
REMARK SMILES O=C([O-])CCCCCCCCC(=O)[O-]
REMARK SMILES IDX 7 1 6 2 5 3 4 4 2 5 1 6 3 7 8 8 9 9 10 10 11 11 12 12 13 13
REMARK SMILES IDX 14 14
REMARK H PARENT
REMARK Flexibility Score: inf
ROOT
ATOM      1  C   UNL     1     104.920 107.407 228.572  1.00  0.00     0.000 C 
ENDROOT
BRANCH   1   2
ATOM      2  C   UNL     1     105.348 105.982 228.954  1.00  0.00     0.000 C 
BRANCH   2   3
ATOM      3  C   UNL     1     104.491 104.900 228.274  1.00  0.00     0.006 C 
BRANCH   3   4
ATOM      4  C   UNL     1     103.401 105.450 227.339  1.00  0.00     0.053 C 
BRANCH   4   5
ATOM      5  C   UNL     1     102.045 104.909 227.677  1.00  0.00     0.041 C 
ATOM      6  O   UNL     1     101.030 105.308 227.051  1.00  0.00    -0.550 OA
ATOM      7  O   UNL     1     101.910 103.939 228.663  1.00  0.00    -0.550 OA
ENDBRANCH   4   5
ENDBRANCH   3   4
ENDBRANCH   2   3
ENDBRANCH   1   2
BRANCH   1   8
ATOM      8  C   UNL     1     104.725 108.276 229.821  1.00  0.00     0.000 C 
BRANCH   8   9
ATOM      9  C   UNL     1     104.185 107.444 230.991  1.00  0.00     0.000 C 
BRANCH   9  10
ATOM     10  C   UNL     1     102.655 107.552 231.083  1.00  0.00     0.006 C 
BRANCH  10  11
ATOM     11  C   UNL     1     101.998 106.209 231.430  1.00  0.00     0.053 C 
BRANCH  11  12
ATOM     12  C   UNL     1     101.428 106.211 232.815  1.00  0.00     0.041 C 
ATOM     13  O   UNL     1     100.249 106.606 233.014  1.00  0.00    -0.550 OA
ATOM     14  O   UNL     1     102.187 105.746 233.881  1.00  0.00    -0.550 OA
ENDBRANCH  11  12
ENDBRANCH  10  11
ENDBRANCH   9  10
ENDBRANCH   8   9
ENDBRANCH   1   8
TORSDOF 9
ENDMDL
MODEL 5
REMARK VINA RESULT:    -4.760      2.958      4.363
REMARK INTER + INTRA:          -7.990
REMARK INTER:                  -7.030
REMARK INTRA:                  -0.960
REMARK UNBOUND:                -0.725
REMARK SMILES O=C([O-])CCCCCCCCC(=O)[O-]
REMARK SMILES IDX 7 1 6 2 5 3 4 4 2 5 1 6 3 7 8 8 9 9 10 10 11 11 12 12 13 13
REMARK SMILES IDX 14 14
REMARK H PARENT
REMARK Flexibility Score: inf
ROOT
ATOM      1  C   UNL     1     103.921 107.313 229.940  1.00  0.00     0.000 C 
ENDROOT
BRANCH   1   2
ATOM      2  C   UNL     1     102.770 107.694 230.884  1.00  0.00     0.000 C 
BRANCH   2   3
ATOM      3  C   UNL     1     101.602 106.694 230.832  1.00  0.00     0.006 C 
BRANCH   3   4
ATOM      4  C   UNL     1     101.606 105.655 231.965  1.00  0.00     0.053 C 
BRANCH   4   5
ATOM      5  C   UNL     1     101.262 106.267 233.289  1.00  0.00     0.041 C 
ATOM      6  O   UNL     1     102.065 106.181 234.253  1.00  0.00    -0.550 OA
ATOM      7  O   UNL     1     100.067 106.959 233.445  1.00  0.00    -0.550 OA
ENDBRANCH   4   5
ENDBRANCH   3   4
ENDBRANCH   2   3
ENDBRANCH   1   2
BRANCH   1   8
ATOM      8  C   UNL     1     105.203 107.017 230.729  1.00  0.00     0.000 C 
BRANCH   8   9
ATOM      9  C   UNL     1     105.033 107.372 232.211  1.00  0.00     0.000 C 
BRANCH   9  10
ATOM     10  C   UNL     1     105.306 106.152 233.104  1.00  0.00     0.006 C 
BRANCH  10  11
ATOM     11  C   UNL     1     105.589 104.885 232.285  1.00  0.00     0.053 C 
BRANCH  11  12
ATOM     12  C   UNL     1     106.757 104.121 232.831  1.00  0.00     0.041 C 
ATOM     13  O   UNL     1     107.637 104.712 233.511  1.00  0.00    -0.550 OA
ATOM     14  O   UNL     1     106.856 102.752 232.615  1.00  0.00    -0.550 OA
ENDBRANCH  11  12
ENDBRANCH  10  11
ENDBRANCH   9  10
ENDBRANCH   8   9
ENDBRANCH   1   8
TORSDOF 9
ENDMDL
MODEL 6
REMARK VINA RESULT:    -4.733      1.302      4.583
REMARK INTER + INTRA:          -7.949
REMARK INTER:                  -6.972
REMARK INTRA:                  -0.977
REMARK UNBOUND:                -0.725
REMARK SMILES O=C([O-])CCCCCCCCC(=O)[O-]
REMARK SMILES IDX 7 1 6 2 5 3 4 4 2 5 1 6 3 7 8 8 9 9 10 10 11 11 12 12 13 13
REMARK SMILES IDX 14 14
REMARK H PARENT
REMARK Flexibility Score: inf
ROOT
ATOM      1  C   UNL     1     105.673 107.685 230.191  1.00  0.00     0.000 C 
ENDROOT
BRANCH   1   2
ATOM      2  C   UNL     1     104.803 107.861 228.937  1.00  0.00     0.000 C 
BRANCH   2   3
ATOM      3  C   UNL     1     104.535 106.532 228.207  1.00  0.00     0.006 C 
BRANCH   3   4
ATOM      4  C   UNL     1     105.247 105.317 228.824  1.00  0.00     0.053 C 
BRANCH   4   5
ATOM      5  C   UNL     1     104.281 104.360 229.453  1.00  0.00     0.041 C 
ATOM      6  O   UNL     1     104.701 103.425 230.182  1.00  0.00    -0.550 OA
ATOM      7  O   UNL     1     102.914 104.523 229.260  1.00  0.00    -0.550 OA
ENDBRANCH   4   5
ENDBRANCH   3   4
ENDBRANCH   2   3
ENDBRANCH   1   2
BRANCH   1   8
ATOM      8  C   UNL     1     104.837 107.852 231.466  1.00  0.00     0.000 C 
BRANCH   8   9
ATOM      9  C   UNL     1     105.025 106.657 232.409  1.00  0.00     0.000 C 
BRANCH   9  10
ATOM     10  C   UNL     1     103.676 105.998 232.737  1.00  0.00     0.006 C 
BRANCH  10  11
ATOM     11  C   UNL     1     102.501 106.706 232.050  1.00  0.00     0.053 C 
BRANCH  11  12
ATOM     12  C   UNL     1     101.200 106.413 232.733  1.00  0.00     0.041 C 
ATOM     13  O   UNL     1     100.293 105.785 232.125  1.00  0.00    -0.550 OA
ATOM     14  O   UNL     1     101.002 106.804 234.051  1.00  0.00    -0.550 OA
ENDBRANCH  11  12
ENDBRANCH  10  11
ENDBRANCH   9  10
ENDBRANCH   8   9
ENDBRANCH   1   8
TORSDOF 9
ENDMDL
MODEL 7
REMARK VINA RESULT:    -4.727      2.244      3.157
REMARK INTER + INTRA:          -7.939
REMARK INTER:                  -7.344
REMARK INTRA:                  -0.595
REMARK UNBOUND:                -0.725
REMARK SMILES O=C([O-])CCCCCCCCC(=O)[O-]
REMARK SMILES IDX 7 1 6 2 5 3 4 4 2 5 1 6 3 7 8 8 9 9 10 10 11 11 12 12 13 13
REMARK SMILES IDX 14 14
REMARK H PARENT
REMARK Flexibility Score: inf
ROOT
ATOM      1  C   UNL     1     104.047 107.716 230.042  1.00  0.00     0.000 C 
ENDROOT
BRANCH   1   2
ATOM      2  C   UNL     1     105.011 107.443 231.207  1.00  0.00     0.000 C 
BRANCH   2   3
ATOM      3  C   UNL     1     104.399 106.532 232.286  1.00  0.00     0.006 C 
BRANCH   3   4
ATOM      4  C   UNL     1     105.404 106.033 233.337  1.00  0.00     0.053 C 
BRANCH   4   5
ATOM      5  C   UNL     1     106.170 104.838 232.859  1.00  0.00     0.041 C 
ATOM      6  O   UNL     1     107.273 104.540 233.387  1.00  0.00    -0.550 OA
ATOM      7  O   UNL     1     105.648 104.034 231.853  1.00  0.00    -0.550 OA
ENDBRANCH   4   5
ENDBRANCH   3   4
ENDBRANCH   2   3
ENDBRANCH   1   2
BRANCH   1   8
ATOM      8  C   UNL     1     104.678 107.319 228.702  1.00  0.00     0.000 C 
BRANCH   8   9
ATOM      9  C   UNL     1     105.363 105.951 228.799  1.00  0.00     0.000 C 
BRANCH   9  10
ATOM     10  C   UNL     1     104.540 104.872 228.079  1.00  0.00     0.006 C 
BRANCH  10  11
ATOM     11  C   UNL     1     103.446 105.474 227.188  1.00  0.00     0.053 C 
BRANCH  11  12
ATOM     12  C   UNL     1     102.083 104.988 227.577  1.00  0.00     0.041 C 
ATOM     13  O   UNL     1     101.061 105.433 226.991  1.00  0.00    -0.550 OA
ATOM     14  O   UNL     1     101.944 104.020 228.564  1.00  0.00    -0.550 OA
ENDBRANCH  11  12
ENDBRANCH  10  11
ENDBRANCH   9  10
ENDBRANCH   8   9
ENDBRANCH   1   8
TORSDOF 9
ENDMDL
MODEL 8
REMARK VINA RESULT:    -4.726      2.007      3.456
REMARK INTER + INTRA:          -7.938
REMARK INTER:                  -6.905
REMARK INTRA:                  -1.033
REMARK UNBOUND:                -0.725
REMARK SMILES O=C([O-])CCCCCCCCC(=O)[O-]
REMARK SMILES IDX 7 1 6 2 5 3 4 4 2 5 1 6 3 7 8 8 9 9 10 10 11 11 12 12 13 13
REMARK SMILES IDX 14 14
REMARK H PARENT
REMARK Flexibility Score: inf
ROOT
ATOM      1  C   UNL     1     101.253 104.339 229.649  1.00  0.00     0.000 C 
ENDROOT
BRANCH   1   2
ATOM      2  C   UNL     1     100.727 105.759 229.906  1.00  0.00     0.000 C 
BRANCH   2   3
ATOM      3  C   UNL     1     101.630 106.567 230.853  1.00  0.00     0.006 C 
BRANCH   3   4
ATOM      4  C   UNL     1     102.251 105.743 231.993  1.00  0.00     0.053 C 
BRANCH   4   5
ATOM      5  C   UNL     1     101.739 106.165 233.336  1.00  0.00     0.041 C 
ATOM      6  O   UNL     1     102.381 105.875 234.378  1.00  0.00    -0.550 OA
ATOM      7  O   UNL     1     100.569 106.909 233.431  1.00  0.00    -0.550 OA
ENDBRANCH   4   5
ENDBRANCH   3   4
ENDBRANCH   2   3
ENDBRANCH   1   2
BRANCH   1   8
ATOM      8  C   UNL     1     101.327 104.044 228.145  1.00  0.00     0.000 C 
BRANCH   8   9
ATOM      9  C   UNL     1     101.899 105.241 227.377  1.00  0.00     0.000 C 
BRANCH   9  10
ATOM     10  C   UNL     1     103.426 105.135 227.250  1.00  0.00     0.006 C 
BRANCH  10  11
ATOM     11  C   UNL     1     104.153 106.199 228.084  1.00  0.00     0.053 C 
BRANCH  11  12
ATOM     12  C   UNL     1     104.900 105.590 229.231  1.00  0.00     0.041 C 
ATOM     13  O   UNL     1     104.759 104.368 229.500  1.00  0.00    -0.550 OA
ATOM     14  O   UNL     1     105.775 106.364 229.982  1.00  0.00    -0.550 OA
ENDBRANCH  11  12
ENDBRANCH  10  11
ENDBRANCH   9  10
ENDBRANCH   8   9
ENDBRANCH   1   8
TORSDOF 9
ENDMDL
MODEL 9
REMARK VINA RESULT:    -4.666      2.009      4.476
REMARK INTER + INTRA:          -7.847
REMARK INTER:                  -6.813
REMARK INTRA:                  -1.034
REMARK UNBOUND:                -0.725
REMARK SMILES O=C([O-])CCCCCCCCC(=O)[O-]
REMARK SMILES IDX 7 1 6 2 5 3 4 4 2 5 1 6 3 7 8 8 9 9 10 10 11 11 12 12 13 13
REMARK SMILES IDX 14 14
REMARK H PARENT
REMARK Flexibility Score: inf
ROOT
ATOM      1  C   UNL     1     104.847 107.091 231.118  1.00  0.00     0.000 C 
ENDROOT
BRANCH   1   2
ATOM      2  C   UNL     1     104.293 107.721 229.832  1.00  0.00     0.000 C 
BRANCH   2   3
ATOM      3  C   UNL     1     104.951 107.156 228.560  1.00  0.00     0.006 C 
BRANCH   3   4
ATOM      4  C   UNL     1     104.876 105.626 228.435  1.00  0.00     0.053 C 
BRANCH   4   5
ATOM      5  C   UNL     1     104.409 105.195 227.078  1.00  0.00     0.041 C 
ATOM      6  O   UNL     1     103.306 105.600 226.631  1.00  0.00    -0.550 OA
ATOM      7  O   UNL     1     105.210 104.371 226.296  1.00  0.00    -0.550 OA
ENDBRANCH   4   5
ENDBRANCH   3   4
ENDBRANCH   2   3
ENDBRANCH   1   2
BRANCH   1   8
ATOM      8  C   UNL     1     103.728 106.424 231.929  1.00  0.00     0.000 C 
BRANCH   8   9
ATOM      9  C   UNL     1     102.352 106.950 231.504  1.00  0.00     0.000 C 
BRANCH   9  10
ATOM     10  C   UNL     1     101.349 105.798 231.345  1.00  0.00     0.006 C 
BRANCH  10  11
ATOM     11  C   UNL     1     101.055 105.483 229.871  1.00  0.00     0.053 C 
BRANCH  11  12
ATOM     12  C   UNL     1     101.613 104.153 229.466  1.00  0.00     0.041 C 
ATOM     13  O   UNL     1     101.233 103.607 228.397  1.00  0.00    -0.550 OA
ATOM     14  O   UNL     1     102.575 103.533 230.253  1.00  0.00    -0.550 OA
ENDBRANCH  11  12
ENDBRANCH  10  11
ENDBRANCH   9  10
ENDBRANCH   8   9
ENDBRANCH   1   8
TORSDOF 9
ENDMDL
