MODEL 1
REMARK VINA RESULT:    -3.414      0.000      0.000
REMARK INTER + INTRA:          -4.058
REMARK INTER:                  -4.013
REMARK INTRA:                  -0.045
REMARK UNBOUND:                -0.045
REMARK SMILES CCCCC(=O)[O-]
REMARK SMILES IDX 4 1 5 2 6 3 7 4 3 5 2 6 1 7
REMARK H PARENT
REMARK Flexibility Score: inf
ROOT
ATOM      1  C   UNL     1      -3.024   4.002   0.386  1.00  0.00     0.053 C 
ENDROOT
BRANCH   1   2
ATOM      2  C   UNL     1      -2.890   5.268  -0.406  1.00  0.00     0.041 C 
ATOM      3  O   UNL     1      -2.652   6.359   0.175  1.00  0.00    -0.550 OA
ATOM      4  O   UNL     1      -3.059   5.246  -1.784  1.00  0.00    -0.550 OA
ENDBRANCH   1   2
BRANCH   1   5
ATOM      5  C   UNL     1      -2.741   2.744  -0.454  1.00  0.00     0.006 C 
BRANCH   5   6
ATOM      6  C   UNL     1      -3.599   1.528  -0.062  1.00  0.00    -0.003 C 
ATOM      7  C   UNL     1      -4.586   1.826   1.064  1.00  0.00     0.004 C 
ENDBRANCH   5   6
ENDBRANCH   1   5
TORSDOF 3
ENDMDL
MODEL 2
REMARK VINA RESULT:    -3.249      5.496      6.809
REMARK INTER + INTRA:          -3.865
REMARK INTER:                  -3.830
REMARK INTRA:                  -0.035
REMARK UNBOUND:                -0.045
REMARK SMILES CCCCC(=O)[O-]
REMARK SMILES IDX 4 1 5 2 6 3 7 4 3 5 2 6 1 7
REMARK H PARENT
REMARK Flexibility Score: inf
ROOT
ATOM      1  C   UNL     1      -3.791  -1.520  -2.367  1.00  0.00     0.053 C 
ENDROOT
BRANCH   1   2
ATOM      2  C   UNL     1      -3.779  -3.011  -2.217  1.00  0.00     0.041 C 
ATOM      3  O   UNL     1      -3.825  -3.753  -3.234  1.00  0.00    -0.550 OA
ATOM      4  O   UNL     1      -3.746  -3.582  -0.952  1.00  0.00    -0.550 OA
ENDBRANCH   1   2
BRANCH   1   5
ATOM      5  C   UNL     1      -4.087  -0.793  -1.043  1.00  0.00     0.006 C 
BRANCH   5   6
ATOM      6  C   UNL     1      -3.071   0.310  -0.698  1.00  0.00    -0.003 C 
ATOM      7  C   UNL     1      -3.704   1.518  -0.010  1.00  0.00     0.004 C 
ENDBRANCH   5   6
ENDBRANCH   1   5
TORSDOF 3
ENDMDL
MODEL 3
REMARK VINA RESULT:    -3.224      2.627      3.842
REMARK INTER + INTRA:          -3.834
REMARK INTER:                  -3.763
REMARK INTRA:                  -0.071
REMARK UNBOUND:                -0.045
REMARK SMILES CCCCC(=O)[O-]
REMARK SMILES IDX 4 1 5 2 6 3 7 4 3 5 2 6 1 7
REMARK H PARENT
REMARK Flexibility Score: inf
ROOT
ATOM      1  C   UNL     1      -2.556   2.857  -0.036  1.00  0.00     0.053 C 
ENDROOT
BRANCH   1   2
ATOM      2  C   UNL     1      -3.646   1.848   0.163  1.00  0.00     0.041 C 
ATOM      3  O   UNL     1      -3.707   0.826  -0.570  1.00  0.00    -0.550 OA
ATOM      4  O   UNL     1      -4.614   2.054   1.138  1.00  0.00    -0.550 OA
ENDBRANCH   1   2
BRANCH   1   5
ATOM      5  C   UNL     1      -2.912   3.916  -1.095  1.00  0.00     0.006 C 
BRANCH   5   6
ATOM      6  C   UNL     1      -3.150   5.321  -0.515  1.00  0.00    -0.003 C 
ATOM      7  C   UNL     1      -2.386   5.574   0.783  1.00  0.00     0.004 C 
ENDBRANCH   5   6
ENDBRANCH   1   5
TORSDOF 3
ENDMDL
MODEL 4
REMARK VINA RESULT:    -3.218      2.638      3.945
REMARK INTER + INTRA:          -3.827
REMARK INTER:                  -3.770
REMARK INTRA:                  -0.058
REMARK UNBOUND:                -0.045
REMARK SMILES CCCCC(=O)[O-]
REMARK SMILES IDX 4 1 5 2 6 3 7 4 3 5 2 6 1 7
REMARK H PARENT
REMARK Flexibility Score: inf
ROOT
ATOM      1  C   UNL     1      -2.627   2.855  -0.344  1.00  0.00     0.053 C 
ENDROOT
BRANCH   1   2
ATOM      2  C   UNL     1      -3.647   1.858   0.113  1.00  0.00     0.041 C 
ATOM      3  O   UNL     1      -3.740   0.737  -0.454  1.00  0.00    -0.550 OA
ATOM      4  O   UNL     1      -4.516   2.178   1.148  1.00  0.00    -0.550 OA
ENDBRANCH   1   2
BRANCH   1   5
ATOM      5  C   UNL     1      -3.002   4.301   0.026  1.00  0.00     0.006 C 
BRANCH   5   6
ATOM      6  C   UNL     1      -3.053   5.258  -1.179  1.00  0.00    -0.003 C 
ATOM      7  C   UNL     1      -2.938   4.542  -2.522  1.00  0.00     0.004 C 
ENDBRANCH   5   6
ENDBRANCH   1   5
TORSDOF 3
ENDMDL
MODEL 5
REMARK VINA RESULT:    -3.044      3.319      4.225
REMARK INTER + INTRA:          -3.623
REMARK INTER:                  -3.605
REMARK INTRA:                  -0.017
REMARK UNBOUND:                -0.045
REMARK SMILES CCCCC(=O)[O-]
REMARK SMILES IDX 4 1 5 2 6 3 7 4 3 5 2 6 1 7
REMARK H PARENT
REMARK Flexibility Score: inf
ROOT
ATOM      1  C   UNL     1      -2.992   0.313  -0.659  1.00  0.00     0.053 C 
ENDROOT
BRANCH   1   2
ATOM      2  C   UNL     1      -3.534   1.583  -0.078  1.00  0.00     0.041 C 
ATOM      3  O   UNL     1      -4.473   1.549   0.761  1.00  0.00    -0.550 OA
ATOM      4  O   UNL     1      -3.021   2.808  -0.486  1.00  0.00    -0.550 OA
ENDBRANCH   1   2
BRANCH   1   5
ATOM      5  C   UNL     1      -4.100  -0.690  -1.029  1.00  0.00     0.006 C 
BRANCH   5   6
ATOM      6  C   UNL     1      -3.728  -1.626  -2.194  1.00  0.00    -0.003 C 
ATOM      7  C   UNL     1      -3.758  -3.104  -1.810  1.00  0.00     0.004 C 
ENDBRANCH   5   6
ENDBRANCH   1   5
TORSDOF 3
ENDMDL
MODEL 6
REMARK VINA RESULT:    -2.855      7.018      8.233
REMARK INTER + INTRA:          -3.401
REMARK INTER:                  -3.337
REMARK INTRA:                  -0.065
REMARK UNBOUND:                -0.045
REMARK SMILES CCCCC(=O)[O-]
REMARK SMILES IDX 4 1 5 2 6 3 7 4 3 5 2 6 1 7
REMARK H PARENT
REMARK Flexibility Score: inf
ROOT
ATOM      1  C   UNL     1      -3.530  -3.721  -0.690  1.00  0.00     0.053 C 
ENDROOT
BRANCH   1   2
ATOM      2  C   UNL     1      -4.554  -4.451   0.124  1.00  0.00     0.041 C 
ATOM      3  O   UNL     1      -5.023  -3.930   1.171  1.00  0.00    -0.550 OA
ATOM      4  O   UNL     1      -4.969  -5.720  -0.257  1.00  0.00    -0.550 OA
ENDBRANCH   1   2
BRANCH   1   5
ATOM      5  C   UNL     1      -3.980  -3.491  -2.144  1.00  0.00     0.006 C 
BRANCH   5   6
ATOM      6  C   UNL     1      -4.003  -2.010  -2.562  1.00  0.00    -0.003 C 
ATOM      7  C   UNL     1      -3.778  -1.052  -1.395  1.00  0.00     0.004 C 
ENDBRANCH   5   6
ENDBRANCH   1   5
TORSDOF 3
ENDMDL
MODEL 7
REMARK VINA RESULT:    -2.831      9.082     10.260
REMARK INTER + INTRA:          -3.373
REMARK INTER:                  -3.239
REMARK INTRA:                  -0.134
REMARK UNBOUND:                -0.045
REMARK SMILES CCCCC(=O)[O-]
REMARK SMILES IDX 4 1 5 2 6 3 7 4 3 5 2 6 1 7
REMARK H PARENT
REMARK Flexibility Score: inf
ROOT
ATOM      1  C   UNL     1      -8.536   7.064  -8.589  1.00  0.00     0.053 C 
ENDROOT
BRANCH   1   2
ATOM      2  C   UNL     1      -7.605   6.292  -7.704  1.00  0.00     0.041 C 
ATOM      3  O   UNL     1      -6.511   5.860  -8.156  1.00  0.00    -0.550 OA
ATOM      4  O   UNL     1      -7.960   6.023  -6.389  1.00  0.00    -0.550 OA
ENDBRANCH   1   2
BRANCH   1   5
ATOM      5  C   UNL     1      -7.994   8.459  -8.948  1.00  0.00     0.006 C 
BRANCH   5   6
ATOM      6  C   UNL     1      -7.537   9.282  -7.731  1.00  0.00    -0.003 C 
ATOM      7  C   UNL     1      -6.070   9.701  -7.803  1.00  0.00     0.004 C 
ENDBRANCH   5   6
ENDBRANCH   1   5
TORSDOF 3
ENDMDL
MODEL 8
REMARK VINA RESULT:    -2.770     14.280     14.986
REMARK INTER + INTRA:          -3.302
REMARK INTER:                  -3.191
REMARK INTRA:                  -0.110
REMARK UNBOUND:                -0.045
REMARK SMILES CCCCC(=O)[O-]
REMARK SMILES IDX 4 1 5 2 6 3 7 4 3 5 2 6 1 7
REMARK H PARENT
REMARK Flexibility Score: inf
ROOT
ATOM      1  C   UNL     1       8.396   0.082  -9.850  1.00  0.00     0.053 C 
ENDROOT
BRANCH   1   2
ATOM      2  C   UNL     1       6.970   0.524  -9.721  1.00  0.00     0.041 C 
ATOM      3  O   UNL     1       6.699   1.687  -9.321  1.00  0.00    -0.550 OA
ATOM      4  O   UNL     1       5.940  -0.359 -10.016  1.00  0.00    -0.550 OA
ENDBRANCH   1   2
BRANCH   1   5
ATOM      5  C   UNL     1       9.073  -0.145  -8.486  1.00  0.00     0.006 C 
BRANCH   5   6
ATOM      6  C   UNL     1      10.124   0.921  -8.128  1.00  0.00    -0.003 C 
ATOM      7  C   UNL     1       9.587   2.007  -7.198  1.00  0.00     0.004 C 
ENDBRANCH   5   6
ENDBRANCH   1   5
TORSDOF 3
ENDMDL
MODEL 9
REMARK VINA RESULT:    -2.668     13.891     14.684
REMARK INTER + INTRA:          -3.182
REMARK INTER:                  -3.150
REMARK INTRA:                  -0.032
REMARK UNBOUND:                -0.045
REMARK SMILES CCCCC(=O)[O-]
REMARK SMILES IDX 4 1 5 2 6 3 7 4 3 5 2 6 1 7
REMARK H PARENT
REMARK Flexibility Score: inf
ROOT
ATOM      1  C   UNL     1       8.231   1.415  -9.845  1.00  0.00     0.053 C 
ENDROOT
BRANCH   1   2
ATOM      2  C   UNL     1       7.142   2.304  -9.328  1.00  0.00     0.041 C 
ATOM      3  O   UNL     1       5.933   1.986  -9.484  1.00  0.00    -0.550 OA
ATOM      4  O   UNL     1       7.462   3.501  -8.700  1.00  0.00    -0.550 OA
ENDBRANCH   1   2
BRANCH   1   5
ATOM      5  C   UNL     1       8.325   0.084  -9.078  1.00  0.00     0.006 C 
BRANCH   5   6
ATOM      6  C   UNL     1       9.608  -0.062  -8.240  1.00  0.00    -0.003 C 
ATOM      7  C   UNL     1      10.003   1.223  -7.516  1.00  0.00     0.004 C 
ENDBRANCH   5   6
ENDBRANCH   1   5
TORSDOF 3
ENDMDL
