MODEL 1
REMARK VINA RESULT:    -5.654      0.000      0.000
REMARK INTER + INTRA:          -6.651
REMARK INTER:                  -6.481
REMARK INTRA:                  -0.170
REMARK UNBOUND:                -0.170
REMARK SMILES CC=Cc1ccc(O)c(OC)c1
REMARK SMILES IDX 4 1 12 2 9 3 7 4 6 5 5 6 3 7 1 8 2 9 10 10 11 11 8 12
REMARK H PARENT 8 13
REMARK Flexibility Score: inf
ROOT
ATOM      1  C   UNL     1      62.489 151.383   3.897  1.00  0.00    -0.022 A 
ATOM      2  C   UNL     1      62.150 150.231   4.629  1.00  0.00     0.058 A 
ATOM      3  C   UNL     1      63.150 149.413   5.190  1.00  0.00     0.161 A 
ATOM      4  C   UNL     1      64.498 149.748   5.003  1.00  0.00     0.157 A 
ATOM      5  C   UNL     1      64.842 150.884   4.262  1.00  0.00     0.051 A 
ATOM      6  C   UNL     1      63.849 151.694   3.708  1.00  0.00     0.012 A 
ENDROOT
BRANCH   1   7
ATOM      7  C   UNL     1      61.396 152.204   3.320  1.00  0.00     0.003 C 
ATOM      8  C   UNL     1      60.110 153.267   1.506  1.00  0.00     0.035 C 
ATOM      9  C   UNL     1      61.230 152.412   2.008  1.00  0.00    -0.030 C 
ENDBRANCH   1   7
BRANCH   3  10
ATOM     10  O   UNL     1      62.845 148.262   5.934  1.00  0.00    -0.493 OA
ATOM     11  C   UNL     1      62.180 147.116   5.412  1.00  0.00     0.278 C 
ENDBRANCH   3  10
BRANCH   4  12
ATOM     12  O   UNL     1      65.491 148.942   5.557  1.00  0.00    -0.504 OA
ATOM     13  H   UNL     1      65.586 147.965   5.302  1.00  0.00     0.293 HD
ENDBRANCH   4  12
TORSDOF 3
ENDMDL
MODEL 2
REMARK VINA RESULT:    -5.339      1.121      1.241
REMARK INTER + INTRA:          -6.290
REMARK INTER:                  -6.112
REMARK INTRA:                  -0.178
REMARK UNBOUND:                -0.170
REMARK SMILES CC=Cc1ccc(O)c(OC)c1
REMARK SMILES IDX 4 1 12 2 9 3 7 4 6 5 5 6 3 7 1 8 2 9 10 10 11 11 8 12
REMARK H PARENT 8 13
REMARK Flexibility Score: inf
ROOT
ATOM      1  C   UNL     1      62.038 151.511   3.470  1.00  0.00    -0.022 A 
ATOM      2  C   UNL     1      61.668 150.702   4.559  1.00  0.00     0.058 A 
ATOM      3  C   UNL     1      62.642 150.025   5.318  1.00  0.00     0.161 A 
ATOM      4  C   UNL     1      63.994 150.153   4.974  1.00  0.00     0.157 A 
ATOM      5  C   UNL     1      64.368 150.945   3.882  1.00  0.00     0.051 A 
ATOM      6  C   UNL     1      63.400 151.615   3.132  1.00  0.00     0.012 A 
ENDROOT
BRANCH   1   7
ATOM      7  C   UNL     1      60.970 152.194   2.699  1.00  0.00     0.003 C 
ATOM      8  C   UNL     1      60.069 153.660   0.934  1.00  0.00     0.035 C 
ATOM      9  C   UNL     1      61.200 152.996   1.652  1.00  0.00    -0.030 C 
ENDBRANCH   1   7
BRANCH   3  10
ATOM     10  O   UNL     1      62.307 149.216   6.416  1.00  0.00    -0.493 OA
ATOM     11  C   UNL     1      62.052 149.704   7.730  1.00  0.00     0.278 C 
ENDBRANCH   3  10
BRANCH   4  12
ATOM     12  O   UNL     1      64.963 149.486   5.723  1.00  0.00    -0.504 OA
ATOM     13  H   UNL     1      65.399 149.917   6.530  1.00  0.00     0.293 HD
ENDBRANCH   4  12
TORSDOF 3
ENDMDL
MODEL 3
REMARK VINA RESULT:    -5.175      1.729      2.642
REMARK INTER + INTRA:          -6.101
REMARK INTER:                  -5.922
REMARK INTRA:                  -0.179
REMARK UNBOUND:                -0.170
REMARK SMILES CC=Cc1ccc(O)c(OC)c1
REMARK SMILES IDX 4 1 12 2 9 3 7 4 6 5 5 6 3 7 1 8 2 9 10 10 11 11 8 12
REMARK H PARENT 8 13
REMARK Flexibility Score: inf
ROOT
ATOM      1  C   UNL     1      61.630 152.084   3.060  1.00  0.00    -0.022 A 
ATOM      2  C   UNL     1      62.956 151.629   3.158  1.00  0.00     0.058 A 
ATOM      3  C   UNL     1      63.449 151.096   4.366  1.00  0.00     0.161 A 
ATOM      4  C   UNL     1      62.605 151.032   5.483  1.00  0.00     0.157 A 
ATOM      5  C   UNL     1      61.288 151.497   5.396  1.00  0.00     0.051 A 
ATOM      6  C   UNL     1      60.803 152.024   4.197  1.00  0.00     0.012 A 
ENDROOT
BRANCH   1   7
ATOM      7  C   UNL     1      61.167 152.645   1.767  1.00  0.00     0.003 C 
ATOM      8  C   UNL     1      59.690 153.961   0.295  1.00  0.00     0.035 C 
ATOM      9  C   UNL     1      60.103 153.448   1.638  1.00  0.00    -0.030 C 
ENDBRANCH   1   7
BRANCH   3  10
ATOM     10  O   UNL     1      64.765 150.626   4.495  1.00  0.00    -0.493 OA
ATOM     11  C   UNL     1      65.211 149.345   4.059  1.00  0.00     0.278 C 
ENDBRANCH   3  10
BRANCH   4  12
ATOM     12  O   UNL     1      63.087 150.504   6.680  1.00  0.00    -0.504 OA
ATOM     13  H   UNL     1      63.294 151.097   7.476  1.00  0.00     0.293 HD
ENDBRANCH   4  12
TORSDOF 3
ENDMDL
MODEL 4
REMARK VINA RESULT:    -5.112      3.580      5.767
REMARK INTER + INTRA:          -6.030
REMARK INTER:                  -5.851
REMARK INTRA:                  -0.178
REMARK UNBOUND:                -0.170
REMARK SMILES CC=Cc1ccc(O)c(OC)c1
REMARK SMILES IDX 4 1 12 2 9 3 7 4 6 5 5 6 3 7 1 8 2 9 10 10 11 11 8 12
REMARK H PARENT 8 13
REMARK Flexibility Score: inf
ROOT
ATOM      1  C   UNL     1      61.494 151.972   3.330  1.00  0.00    -0.022 A 
ATOM      2  C   UNL     1      60.489 152.463   4.182  1.00  0.00     0.058 A 
ATOM      3  C   UNL     1      59.412 153.213   3.670  1.00  0.00     0.161 A 
ATOM      4  C   UNL     1      59.352 153.481   2.296  1.00  0.00     0.157 A 
ATOM      5  C   UNL     1      60.358 153.008   1.445  1.00  0.00     0.051 A 
ATOM      6  C   UNL     1      61.423 152.264   1.955  1.00  0.00     0.012 A 
ENDROOT
BRANCH   1   7
ATOM      7  C   UNL     1      62.610 151.196   3.924  1.00  0.00     0.003 C 
ATOM      8  C   UNL     1      64.958 150.498   4.196  1.00  0.00     0.035 C 
ATOM      9  C   UNL     1      63.891 151.330   3.559  1.00  0.00    -0.030 C 
ENDBRANCH   1   7
BRANCH   3  10
ATOM     10  O   UNL     1      58.388 153.710   4.492  1.00  0.00    -0.493 OA
ATOM     11  C   UNL     1      58.551 154.762   5.438  1.00  0.00     0.278 C 
ENDBRANCH   3  10
BRANCH   4  12
ATOM     12  O   UNL     1      58.288 154.221   1.784  1.00  0.00    -0.504 OA
ATOM     13  H   UNL     1      57.559 153.788   1.228  1.00  0.00     0.293 HD
ENDBRANCH   4  12
TORSDOF 3
ENDMDL
MODEL 5
REMARK VINA RESULT:    -5.109      3.779      6.029
REMARK INTER + INTRA:          -6.026
REMARK INTER:                  -5.871
REMARK INTRA:                  -0.155
REMARK UNBOUND:                -0.170
REMARK SMILES CC=Cc1ccc(O)c(OC)c1
REMARK SMILES IDX 4 1 12 2 9 3 7 4 6 5 5 6 3 7 1 8 2 9 10 10 11 11 8 12
REMARK H PARENT 8 13
REMARK Flexibility Score: inf
ROOT
ATOM      1  C   UNL     1      61.424 151.973   3.538  1.00  0.00    -0.022 A 
ATOM      2  C   UNL     1      61.270 152.386   2.203  1.00  0.00     0.058 A 
ATOM      3  C   UNL     1      60.197 153.216   1.824  1.00  0.00     0.161 A 
ATOM      4  C   UNL     1      59.268 153.623   2.790  1.00  0.00     0.157 A 
ATOM      5  C   UNL     1      59.407 153.203   4.118  1.00  0.00     0.051 A 
ATOM      6  C   UNL     1      60.472 152.381   4.491  1.00  0.00     0.012 A 
ENDROOT
BRANCH   1   7
ATOM      7  C   UNL     1      62.567 151.091   3.881  1.00  0.00     0.003 C 
ATOM      8  C   UNL     1      64.941 150.434   3.976  1.00  0.00     0.035 C 
ATOM      9  C   UNL     1      63.845 151.384   3.611  1.00  0.00    -0.030 C 
ENDBRANCH   1   7
BRANCH   3  10
ATOM     10  O   UNL     1      60.020 153.653   0.501  1.00  0.00    -0.493 OA
ATOM     11  C   UNL     1      61.069 154.118  -0.343  1.00  0.00     0.278 C 
ENDBRANCH   3  10
BRANCH   4  12
ATOM     12  O   UNL     1      58.205 154.445   2.420  1.00  0.00    -0.504 OA
ATOM     13  H   UNL     1      57.265 154.284   2.764  1.00  0.00     0.293 HD
ENDBRANCH   4  12
TORSDOF 3
ENDMDL
MODEL 6
REMARK VINA RESULT:    -4.877     18.253     19.390
REMARK INTER + INTRA:          -5.760
REMARK INTER:                  -5.592
REMARK INTRA:                  -0.168
REMARK UNBOUND:                -0.170
REMARK SMILES CC=Cc1ccc(O)c(OC)c1
REMARK SMILES IDX 4 1 12 2 9 3 7 4 6 5 5 6 3 7 1 8 2 9 10 10 11 11 8 12
REMARK H PARENT 8 13
REMARK Flexibility Score: inf
ROOT
ATOM      1  C   UNL     1      70.876 138.440  -7.750  1.00  0.00    -0.022 A 
ATOM      2  C   UNL     1      72.250 138.718  -7.644  1.00  0.00     0.058 A 
ATOM      3  C   UNL     1      72.919 139.441  -8.651  1.00  0.00     0.161 A 
ATOM      4  C   UNL     1      72.205 139.876  -9.776  1.00  0.00     0.157 A 
ATOM      5  C   UNL     1      70.840 139.588  -9.894  1.00  0.00     0.051 A 
ATOM      6  C   UNL     1      70.180 138.872  -8.894  1.00  0.00     0.012 A 
ENDROOT
BRANCH   1   7
ATOM      7  C   UNL     1      70.224 137.666  -6.665  1.00  0.00     0.003 C 
ATOM      8  C   UNL     1      68.777 137.352  -4.694  1.00  0.00     0.035 C 
ATOM      9  C   UNL     1      69.383 138.197  -5.769  1.00  0.00    -0.030 C 
ENDBRANCH   1   7
BRANCH   3  10
ATOM     10  O   UNL     1      74.288 139.744  -8.572  1.00  0.00    -0.493 OA
ATOM     11  C   UNL     1      74.835 140.816  -7.811  1.00  0.00     0.278 C 
ENDBRANCH   3  10
BRANCH   4  12
ATOM     12  O   UNL     1      72.861 140.593 -10.774  1.00  0.00    -0.504 OA
ATOM     13  H   UNL     1      73.030 141.589 -10.689  1.00  0.00     0.293 HD
ENDBRANCH   4  12
TORSDOF 3
ENDMDL
MODEL 7
REMARK VINA RESULT:    -4.787     18.180     19.234
REMARK INTER + INTRA:          -5.657
REMARK INTER:                  -5.504
REMARK INTRA:                  -0.153
REMARK UNBOUND:                -0.170
REMARK SMILES CC=Cc1ccc(O)c(OC)c1
REMARK SMILES IDX 4 1 12 2 9 3 7 4 6 5 5 6 3 7 1 8 2 9 10 10 11 11 8 12
REMARK H PARENT 8 13
REMARK Flexibility Score: inf
ROOT
ATOM      1  C   UNL     1      71.088 138.288  -7.357  1.00  0.00    -0.022 A 
ATOM      2  C   UNL     1      70.399 138.671  -8.521  1.00  0.00     0.058 A 
ATOM      3  C   UNL     1      71.039 139.430  -9.521  1.00  0.00     0.161 A 
ATOM      4  C   UNL     1      72.374 139.815  -9.343  1.00  0.00     0.157 A 
ATOM      5  C   UNL     1      73.061 139.450  -8.180  1.00  0.00     0.051 A 
ATOM      6  C   UNL     1      72.425 138.697  -7.191  1.00  0.00     0.012 A 
ENDROOT
BRANCH   1   7
ATOM      7  C   UNL     1      70.364 137.498  -6.331  1.00  0.00     0.003 C 
ATOM      8  C   UNL     1      68.684 137.119  -4.567  1.00  0.00     0.035 C 
ATOM      9  C   UNL     1      69.355 137.976  -5.593  1.00  0.00    -0.030 C 
ENDBRANCH   1   7
BRANCH   3  10
ATOM     10  O   UNL     1      70.381 139.821 -10.698  1.00  0.00    -0.493 OA
ATOM     11  C   UNL     1      69.008 140.192 -10.771  1.00  0.00     0.278 C 
ENDBRANCH   3  10
BRANCH   4  12
ATOM     12  O   UNL     1      73.012 140.565 -10.330  1.00  0.00    -0.504 OA
ATOM     13  H   UNL     1      72.983 140.292 -11.306  1.00  0.00     0.293 HD
ENDBRANCH   4  12
TORSDOF 3
ENDMDL
MODEL 8
REMARK VINA RESULT:    -4.786      4.460      6.446
REMARK INTER + INTRA:          -5.655
REMARK INTER:                  -5.614
REMARK INTRA:                  -0.041
REMARK UNBOUND:                -0.170
REMARK SMILES CC=Cc1ccc(O)c(OC)c1
REMARK SMILES IDX 4 1 12 2 9 3 7 4 6 5 5 6 3 7 1 8 2 9 10 10 11 11 8 12
REMARK H PARENT 8 13
REMARK Flexibility Score: inf
ROOT
ATOM      1  C   UNL     1      60.460 152.407   3.368  1.00  0.00    -0.022 A 
ATOM      2  C   UNL     1      59.296 153.167   3.159  1.00  0.00     0.058 A 
ATOM      3  C   UNL     1      59.077 153.830   1.936  1.00  0.00     0.161 A 
ATOM      4  C   UNL     1      60.040 153.738   0.922  1.00  0.00     0.157 A 
ATOM      5  C   UNL     1      61.208 152.996   1.130  1.00  0.00     0.051 A 
ATOM      6  C   UNL     1      61.422 152.339   2.343  1.00  0.00     0.012 A 
ENDROOT
BRANCH   1   7
ATOM      7  C   UNL     1      60.644 151.737   4.679  1.00  0.00     0.003 C 
ATOM      8  C   UNL     1      61.900 151.037   6.681  1.00  0.00     0.035 C 
ATOM      9  C   UNL     1      61.790 151.750   5.371  1.00  0.00    -0.030 C 
ENDBRANCH   1   7
BRANCH   3  10
ATOM     10  O   UNL     1      57.921 154.589   1.692  1.00  0.00    -0.493 OA
ATOM     11  C   UNL     1      57.875 156.012   1.692  1.00  0.00     0.278 C 
ENDBRANCH   3  10
BRANCH   4  12
ATOM     12  O   UNL     1      59.828 154.391  -0.291  1.00  0.00    -0.504 OA
ATOM     13  H   UNL     1      59.348 155.283  -0.337  1.00  0.00     0.293 HD
ENDBRANCH   4  12
TORSDOF 3
ENDMDL
MODEL 9
REMARK VINA RESULT:    -4.769      2.249      4.571
REMARK INTER + INTRA:          -5.637
REMARK INTER:                  -5.474
REMARK INTRA:                  -0.163
REMARK UNBOUND:                -0.170
REMARK SMILES CC=Cc1ccc(O)c(OC)c1
REMARK SMILES IDX 4 1 12 2 9 3 7 4 6 5 5 6 3 7 1 8 2 9 10 10 11 11 8 12
REMARK H PARENT 8 13
REMARK Flexibility Score: inf
ROOT
ATOM      1  C   UNL     1      62.377 149.126   5.697  1.00  0.00    -0.022 A 
ATOM      2  C   UNL     1      61.633 150.043   4.934  1.00  0.00     0.058 A 
ATOM      3  C   UNL     1      62.255 151.160   4.342  1.00  0.00     0.161 A 
ATOM      4  C   UNL     1      63.629 151.361   4.528  1.00  0.00     0.157 A 
ATOM      5  C   UNL     1      64.371 150.460   5.300  1.00  0.00     0.051 A 
ATOM      6  C   UNL     1      63.753 149.354   5.884  1.00  0.00     0.012 A 
ENDROOT
BRANCH   1   7
ATOM      7  C   UNL     1      61.670 147.972   6.306  1.00  0.00     0.003 C 
ATOM      8  C   UNL     1      59.879 146.863   7.587  1.00  0.00     0.035 C 
ATOM      9  C   UNL     1      60.523 148.074   6.989  1.00  0.00    -0.030 C 
ENDBRANCH   1   7
BRANCH   3  10
ATOM     10  O   UNL     1      61.543 152.089   3.567  1.00  0.00    -0.493 OA
ATOM     11  C   UNL     1      61.263 151.937   2.179  1.00  0.00     0.278 C 
ENDBRANCH   3  10
BRANCH   4  12
ATOM     12  O   UNL     1      64.249 152.464   3.944  1.00  0.00    -0.504 OA
ATOM     13  H   UNL     1      64.888 152.362   3.163  1.00  0.00     0.293 HD
ENDBRANCH   4  12
TORSDOF 3
ENDMDL
