MODEL 1
REMARK VINA RESULT:    -3.801      0.000      0.000
REMARK INTER + INTRA:          -4.389
REMARK INTER:                  -4.135
REMARK INTRA:                  -0.255
REMARK UNBOUND:                -0.255
REMARK SMILES O=C([O-])c1ccccc1O
REMARK SMILES IDX 4 1 9 2 5 3 8 4 6 5 7 6 2 7 1 8 3 9 10 10
REMARK H PARENT 10 11
REMARK Flexibility Score: inf
ROOT
ATOM      1  C   UNL     1     -17.607  43.689  -6.153  1.00  0.00     0.039 A 
ATOM      2  C   UNL     1     -18.768  44.351  -5.689  1.00  0.00     0.124 A 
ATOM      3  C   UNL     1     -16.955  42.782  -5.294  1.00  0.00     0.014 A 
ATOM      4  C   UNL     1     -19.248  44.100  -4.395  1.00  0.00     0.047 A 
ATOM      5  C   UNL     1     -17.444  42.541  -4.007  1.00  0.00     0.001 A 
ATOM      6  C   UNL     1     -18.588  43.199  -3.559  1.00  0.00     0.004 A 
ENDROOT
BRANCH   1   7
ATOM      7  C   UNL     1     -17.064  43.924  -7.516  1.00  0.00     0.075 C 
ATOM      8  O   UNL     1     -15.828  44.087  -7.690  1.00  0.00    -0.545 OA
ATOM      9  O   UNL     1     -17.902  43.970  -8.625  1.00  0.00    -0.545 OA
ENDBRANCH   1   7
BRANCH   2  10
ATOM     10  O   UNL     1     -19.447  45.257  -6.505  1.00  0.00    -0.507 OA
ATOM     11  H   UNL     1     -19.342  46.259  -6.392  1.00  0.00     0.293 HD
ENDBRANCH   2  10
TORSDOF 2
ENDMDL
MODEL 2
REMARK VINA RESULT:    -3.743      0.980      2.370
REMARK INTER + INTRA:          -4.326
REMARK INTER:                  -4.116
REMARK INTRA:                  -0.210
REMARK UNBOUND:                -0.255
REMARK SMILES O=C([O-])c1ccccc1O
REMARK SMILES IDX 4 1 9 2 5 3 8 4 6 5 7 6 2 7 1 8 3 9 10 10
REMARK H PARENT 10 11
REMARK Flexibility Score: inf
ROOT
ATOM      1  C   UNL     1     -18.008  43.847  -6.130  1.00  0.00     0.039 A 
ATOM      2  C   UNL     1     -16.873  43.258  -5.525  1.00  0.00     0.124 A 
ATOM      3  C   UNL     1     -19.128  44.143  -5.328  1.00  0.00     0.014 A 
ATOM      4  C   UNL     1     -16.879  42.978  -4.149  1.00  0.00     0.047 A 
ATOM      5  C   UNL     1     -19.121  43.858  -3.960  1.00  0.00     0.001 A 
ATOM      6  C   UNL     1     -17.999  43.277  -3.372  1.00  0.00     0.004 A 
ENDROOT
BRANCH   1   7
ATOM      7  C   UNL     1     -18.045  44.162  -7.583  1.00  0.00     0.075 C 
ATOM      8  O   UNL     1     -19.147  44.295  -8.177  1.00  0.00    -0.545 OA
ATOM      9  O   UNL     1     -16.873  44.314  -8.314  1.00  0.00    -0.545 OA
ENDBRANCH   1   7
BRANCH   2  10
ATOM     10  O   UNL     1     -15.741  42.948  -6.279  1.00  0.00    -0.507 OA
ATOM     11  H   UNL     1     -15.330  42.022  -6.268  1.00  0.00     0.293 HD
ENDBRANCH   2  10
TORSDOF 2
ENDMDL
MODEL 3
REMARK VINA RESULT:    -3.719      2.218      3.854
REMARK INTER + INTRA:          -4.300
REMARK INTER:                  -4.051
REMARK INTRA:                  -0.249
REMARK UNBOUND:                -0.255
REMARK SMILES O=C([O-])c1ccccc1O
REMARK SMILES IDX 4 1 9 2 5 3 8 4 6 5 7 6 2 7 1 8 3 9 10 10
REMARK H PARENT 10 11
REMARK Flexibility Score: inf
ROOT
ATOM      1  C   UNL     1     -18.052  43.701  -5.350  1.00  0.00     0.039 A 
ATOM      2  C   UNL     1     -17.107  43.586  -6.396  1.00  0.00     0.124 A 
ATOM      3  C   UNL     1     -19.255  44.392  -5.595  1.00  0.00     0.014 A 
ATOM      4  C   UNL     1     -17.378  44.155  -7.650  1.00  0.00     0.047 A 
ATOM      5  C   UNL     1     -19.512  44.955  -6.848  1.00  0.00     0.001 A 
ATOM      6  C   UNL     1     -18.575  44.837  -7.873  1.00  0.00     0.004 A 
ENDROOT
BRANCH   1   7
ATOM      7  C   UNL     1     -17.808  43.112  -4.007  1.00  0.00     0.075 C 
ATOM      8  O   UNL     1     -16.691  43.253  -3.444  1.00  0.00    -0.545 OA
ATOM      9  O   UNL     1     -18.799  42.396  -3.345  1.00  0.00    -0.545 OA
ENDBRANCH   1   7
BRANCH   2  10
ATOM     10  O   UNL     1     -15.902  42.910  -6.200  1.00  0.00    -0.507 OA
ATOM     11  H   UNL     1     -15.024  43.405  -6.100  1.00  0.00     0.293 HD
ENDBRANCH   2  10
TORSDOF 2
ENDMDL
MODEL 4
REMARK VINA RESULT:    -3.719      3.247      3.976
REMARK INTER + INTRA:          -4.300
REMARK INTER:                  -4.066
REMARK INTRA:                  -0.234
REMARK UNBOUND:                -0.255
REMARK SMILES O=C([O-])c1ccccc1O
REMARK SMILES IDX 4 1 9 2 5 3 8 4 6 5 7 6 2 7 1 8 3 9 10 10
REMARK H PARENT 10 11
REMARK Flexibility Score: inf
ROOT
ATOM      1  C   UNL     1     -17.344  44.304  -8.862  1.00  0.00     0.039 A 
ATOM      2  C   UNL     1     -18.636  44.672  -8.420  1.00  0.00     0.124 A 
ATOM      3  C   UNL     1     -17.227  43.360  -9.901  1.00  0.00     0.014 A 
ATOM      4  C   UNL     1     -19.771  44.099  -9.016  1.00  0.00     0.047 A 
ATOM      5  C   UNL     1     -18.364  42.796 -10.485  1.00  0.00     0.001 A 
ATOM      6  C   UNL     1     -19.633  43.165 -10.043  1.00  0.00     0.004 A 
ENDROOT
BRANCH   1   7
ATOM      7  C   UNL     1     -16.116  44.886  -8.261  1.00  0.00     0.075 C 
ATOM      8  O   UNL     1     -15.253  44.140  -7.727  1.00  0.00    -0.545 OA
ATOM      9  O   UNL     1     -15.892  46.258  -8.272  1.00  0.00    -0.545 OA
ENDBRANCH   1   7
BRANCH   2  10
ATOM     10  O   UNL     1     -18.802  45.603  -7.394  1.00  0.00    -0.507 OA
ATOM     11  H   UNL     1     -19.304  45.376  -6.544  1.00  0.00     0.293 HD
ENDBRANCH   2  10
TORSDOF 2
ENDMDL
MODEL 5
REMARK VINA RESULT:    -3.435      2.392      4.261
REMARK INTER + INTRA:          -3.991
REMARK INTER:                  -3.740
REMARK INTRA:                  -0.251
REMARK UNBOUND:                -0.255
REMARK SMILES O=C([O-])c1ccccc1O
REMARK SMILES IDX 4 1 9 2 5 3 8 4 6 5 7 6 2 7 1 8 3 9 10 10
REMARK H PARENT 10 11
REMARK Flexibility Score: inf
ROOT
ATOM      1  C   UNL     1     -17.880  44.033  -8.030  1.00  0.00     0.039 A 
ATOM      2  C   UNL     1     -17.600  45.264  -8.669  1.00  0.00     0.124 A 
ATOM      3  C   UNL     1     -18.763  43.131  -8.654  1.00  0.00     0.014 A 
ATOM      4  C   UNL     1     -18.199  45.565  -9.902  1.00  0.00     0.047 A 
ATOM      5  C   UNL     1     -19.354  43.443  -9.881  1.00  0.00     0.001 A 
ATOM      6  C   UNL     1     -19.072  44.658 -10.504  1.00  0.00     0.004 A 
ENDROOT
BRANCH   1   7
ATOM      7  C   UNL     1     -17.268  43.673  -6.724  1.00  0.00     0.075 C 
ATOM      8  O   UNL     1     -17.991  43.298  -5.764  1.00  0.00    -0.545 OA
ATOM      9  O   UNL     1     -15.893  43.741  -6.533  1.00  0.00    -0.545 OA
ENDBRANCH   1   7
BRANCH   2  10
ATOM     10  O   UNL     1     -16.731  46.189  -8.089  1.00  0.00    -0.507 OA
ATOM     11  H   UNL     1     -16.577  46.220  -7.088  1.00  0.00     0.293 HD
ENDBRANCH   2  10
TORSDOF 2
ENDMDL
MODEL 6
REMARK VINA RESULT:    -3.326      2.741      4.849
REMARK INTER + INTRA:          -3.872
REMARK INTER:                  -3.623
REMARK INTRA:                  -0.250
REMARK UNBOUND:                -0.255
REMARK SMILES O=C([O-])c1ccccc1O
REMARK SMILES IDX 4 1 9 2 5 3 8 4 6 5 7 6 2 7 1 8 3 9 10 10
REMARK H PARENT 10 11
REMARK Flexibility Score: inf
ROOT
ATOM      1  C   UNL     1     -18.172  45.000  -8.555  1.00  0.00     0.039 A 
ATOM      2  C   UNL     1     -19.095  45.008  -9.627  1.00  0.00     0.124 A 
ATOM      3  C   UNL     1     -16.848  45.416  -8.797  1.00  0.00     0.014 A 
ATOM      4  C   UNL     1     -18.683  45.426 -10.902  1.00  0.00     0.047 A 
ATOM      5  C   UNL     1     -16.451  45.828 -10.071  1.00  0.00     0.001 A 
ATOM      6  C   UNL     1     -17.367  45.833 -11.122  1.00  0.00     0.004 A 
ENDROOT
BRANCH   1   7
ATOM      7  C   UNL     1     -18.565  44.567  -7.188  1.00  0.00     0.075 C 
ATOM      8  O   UNL     1     -19.565  45.081  -6.620  1.00  0.00    -0.545 OA
ATOM      9  O   UNL     1     -17.844  43.592  -6.509  1.00  0.00    -0.545 OA
ENDBRANCH   1   7
BRANCH   2  10
ATOM     10  O   UNL     1     -20.417  44.606  -9.435  1.00  0.00    -0.507 OA
ATOM     11  H   UNL     1     -21.164  45.276  -9.298  1.00  0.00     0.293 HD
ENDBRANCH   2  10
TORSDOF 2
ENDMDL
MODEL 7
REMARK VINA RESULT:    -3.323      2.987      4.259
REMARK INTER + INTRA:          -3.869
REMARK INTER:                  -3.616
REMARK INTRA:                  -0.252
REMARK UNBOUND:                -0.255
REMARK SMILES O=C([O-])c1ccccc1O
REMARK SMILES IDX 4 1 9 2 5 3 8 4 6 5 7 6 2 7 1 8 3 9 10 10
REMARK H PARENT 10 11
REMARK Flexibility Score: inf
ROOT
ATOM      1  C   UNL     1     -17.149  44.089  -8.337  1.00  0.00     0.039 A 
ATOM      2  C   UNL     1     -17.208  43.688  -9.692  1.00  0.00     0.124 A 
ATOM      3  C   UNL     1     -18.344  44.444  -7.681  1.00  0.00     0.014 A 
ATOM      4  C   UNL     1     -18.444  43.649 -10.357  1.00  0.00     0.047 A 
ATOM      5  C   UNL     1     -19.567  44.402  -8.356  1.00  0.00     0.001 A 
ATOM      6  C   UNL     1     -19.616  44.005  -9.691  1.00  0.00     0.004 A 
ENDROOT
BRANCH   1   7
ATOM      7  C   UNL     1     -15.863  44.143  -7.593  1.00  0.00     0.075 C 
ATOM      8  O   UNL     1     -15.799  43.741  -6.402  1.00  0.00    -0.545 OA
ATOM      9  O   UNL     1     -14.708  44.637  -8.190  1.00  0.00    -0.545 OA
ENDBRANCH   1   7
BRANCH   2  10
ATOM     10  O   UNL     1     -16.050  43.327 -10.382  1.00  0.00    -0.507 OA
ATOM     11  H   UNL     1     -16.055  42.600 -11.088  1.00  0.00     0.293 HD
ENDBRANCH   2  10
TORSDOF 2
ENDMDL
MODEL 8
REMARK VINA RESULT:    -3.266      3.892      4.987
REMARK INTER + INTRA:          -3.807
REMARK INTER:                  -3.556
REMARK INTRA:                  -0.251
REMARK UNBOUND:                -0.255
REMARK SMILES O=C([O-])c1ccccc1O
REMARK SMILES IDX 4 1 9 2 5 3 8 4 6 5 7 6 2 7 1 8 3 9 10 10
REMARK H PARENT 10 11
REMARK Flexibility Score: inf
ROOT
ATOM      1  C   UNL     1     -17.664  45.150  -9.921  1.00  0.00     0.039 A 
ATOM      2  C   UNL     1     -17.606  43.913  -9.238  1.00  0.00     0.124 A 
ATOM      3  C   UNL     1     -18.815  45.455 -10.675  1.00  0.00     0.014 A 
ATOM      4  C   UNL     1     -18.682  43.016  -9.319  1.00  0.00     0.047 A 
ATOM      5  C   UNL     1     -19.879  44.553 -10.748  1.00  0.00     0.001 A 
ATOM      6  C   UNL     1     -19.813  43.337 -10.071  1.00  0.00     0.004 A 
ENDROOT
BRANCH   1   7
ATOM      7  C   UNL     1     -16.548  46.130  -9.862  1.00  0.00     0.075 C 
ATOM      8  O   UNL     1     -16.202  46.764 -10.894  1.00  0.00    -0.545 OA
ATOM      9  O   UNL     1     -15.863  46.368  -8.676  1.00  0.00    -0.545 OA
ENDBRANCH   1   7
BRANCH   2  10
ATOM     10  O   UNL     1     -16.487  43.568  -8.479  1.00  0.00    -0.507 OA
ATOM     11  H   UNL     1     -16.336  43.944  -7.550  1.00  0.00     0.293 HD
ENDBRANCH   2  10
TORSDOF 2
ENDMDL
MODEL 9
REMARK VINA RESULT:    -3.247      3.642      4.534
REMARK INTER + INTRA:          -3.786
REMARK INTER:                  -3.533
REMARK INTRA:                  -0.254
REMARK UNBOUND:                -0.255
REMARK SMILES O=C([O-])c1ccccc1O
REMARK SMILES IDX 4 1 9 2 5 3 8 4 6 5 7 6 2 7 1 8 3 9 10 10
REMARK H PARENT 10 11
REMARK Flexibility Score: inf
ROOT
ATOM      1  C   UNL     1     -17.639  44.131  -9.434  1.00  0.00     0.039 A 
ATOM      2  C   UNL     1     -17.447  45.201  -8.528  1.00  0.00     0.124 A 
ATOM      3  C   UNL     1     -16.569  43.747 -10.266  1.00  0.00     0.014 A 
ATOM      4  C   UNL     1     -16.208  45.858  -8.473  1.00  0.00     0.047 A 
ATOM      5  C   UNL     1     -15.341  44.410 -10.201  1.00  0.00     0.001 A 
ATOM      6  C   UNL     1     -15.161  45.463  -9.306  1.00  0.00     0.004 A 
ENDROOT
BRANCH   1   7
ATOM      7  C   UNL     1     -18.934  43.407  -9.525  1.00  0.00     0.075 C 
ATOM      8  O   UNL     1     -18.963  42.149  -9.496  1.00  0.00    -0.545 OA
ATOM      9  O   UNL     1     -20.135  44.097  -9.646  1.00  0.00    -0.545 OA
ENDBRANCH   1   7
BRANCH   2  10
ATOM     10  O   UNL     1     -18.477  45.617  -7.684  1.00  0.00    -0.507 OA
ATOM     11  H   UNL     1     -18.449  46.512  -7.210  1.00  0.00     0.293 HD
ENDBRANCH   2  10
TORSDOF 2
ENDMDL
