MODEL 1
REMARK VINA RESULT:    24.349      0.000      0.000
REMARK INTER + INTRA:          55.664
REMARK INTER:                  51.394
REMARK INTRA:                   4.270
REMARK UNBOUND:                 4.270
REMARK SMILES CCC(=O)CCCCC[C@@H]1NC(=O)[C@@H]2CCCCN2C(=O)[C@@H]([C@H](C)CC)NC(=O)[C@H](Cc2cn(OC)c3ccccc23)NC1=O
REMARK SMILES IDX 9 1 10 2 44 3 43 4 45 6 30 7 28 8 27 9 29 11 22 12 23 14
REMARK SMILES IDX 24 15 25 16 26 17 31 18 32 19 33 20 42 21 34 22 37 23 41 24
REMARK SMILES IDX 38 25 40 26 39 27 35 28 36 29 11 30 12 31 13 33 14 34 19 35
REMARK SMILES IDX 15 36 18 37 16 38 17 39 20 40 21 41 8 43 7 44 6 45 5 46 3 47
REMARK SMILES IDX 4 48 2 49 1 50
REMARK H PARENT 43 5 27 10 11 32
REMARK Flexibility Score: 80.00
ROOT
ATOM      1  C   UNL     1       6.052  16.341  25.147  1.00  0.00     0.035 C 
ENDROOT
BRANCH   1   2
ATOM      2  C   UNL     1       6.634  14.952  25.499  1.00  0.00     0.171 C 
BRANCH   2   3
ATOM      3  C   UNL     1       7.668  14.448  24.515  1.00  0.00     0.243 C 
ATOM      4  N   UNL     1       8.940  15.103  24.346  1.00  0.00    -0.342 N 
ATOM      5  H   UNL     1       9.077  16.069  24.702  1.00  0.00     0.164 HD
ATOM      6  O   UNL     1       7.427  13.384  23.882  1.00  0.00    -0.273 OA
BRANCH   4   7
ATOM      7  C   UNL     1      10.094  14.381  23.800  1.00  0.00     0.175 C 
BRANCH   7   8
ATOM      8  C   UNL     1      11.106  14.168  24.901  1.00  0.00     0.243 C 
ATOM      9  N   UNL     1      11.039  14.937  26.121  1.00  0.00    -0.342 N 
ATOM     10  H   UNL     1      10.364  15.724  26.147  1.00  0.00     0.164 HD
ATOM     11  O   UNL     1      11.974  13.270  24.752  1.00  0.00    -0.273 OA
BRANCH   9  12
ATOM     12  C   UNL     1      11.648  14.584  27.417  1.00  0.00     0.174 CG0
ATOM     13  G   UNL     1      10.764  13.664  28.226  1.00  0.00     0.000 G0
BRANCH  12  14
ATOM     14  C   UNL     1      13.144  14.148  27.316  1.00  0.00     0.018 C 
ATOM     15  C   UNL     1      13.860  14.423  28.652  1.00  0.00     0.010 C 
BRANCH  14  16
ATOM     16  C   UNL     1      13.918  14.783  26.134  1.00  0.00     0.002 C 
ATOM     17  C   UNL     1      14.110  13.809  24.967  1.00  0.00     0.004 C 
ENDBRANCH  14  16
ENDBRANCH  12  14
ENDBRANCH   9  12
ENDBRANCH   7   8
BRANCH   7  18
ATOM     18  C   UNL     1      10.665  15.128  22.580  1.00  0.00     0.073 C 
BRANCH  18  19
ATOM     19  C   UNL     1      10.076  14.635  21.290  1.00  0.00    -0.016 A 
ATOM     20  C   UNL     1      10.547  13.580  20.528  1.00  0.00     0.134 A 
ATOM     21  C   UNL     1       8.935  15.088  20.651  1.00  0.00     0.006 A 
ATOM     22  N   UNL     1       9.749  13.376  19.457  1.00  0.00    -0.191 N 
ATOM     23  C   UNL     1       8.753  14.305  19.529  1.00  0.00     0.087 A 
ATOM     24  C   UNL     1       8.067  16.131  20.979  1.00  0.00     0.011 A 
ATOM     25  C   UNL     1       7.673  14.543  18.663  1.00  0.00     0.030 A 
ATOM     26  C   UNL     1       6.985  16.384  20.123  1.00  0.00     0.001 A 
ATOM     27  C   UNL     1       6.792  15.595  18.971  1.00  0.00     0.002 A 
BRANCH  22  28
ATOM     28  O   UNL     1       9.996  12.365  18.537  1.00  0.00    -0.417 OA
ATOM     29  C   UNL     1       9.251  11.161  18.432  1.00  0.00     0.313 C 
ENDBRANCH  22  28
ENDBRANCH  18  19
ENDBRANCH   7  18
ENDBRANCH   4   7
ENDBRANCH   2   3
BRANCH   2  30
ATOM     30  N   UNL     1       7.162  14.911  26.873  1.00  0.00    -0.343 N 
ATOM     31  C   UNL     1       7.973  13.844  27.395  1.00  0.00     0.243 C 
ATOM     32  H   UNL     1       6.886  15.682  27.524  1.00  0.00     0.164 HD
ATOM     33  O   UNL     1       8.434  12.960  26.626  1.00  0.00    -0.273 OA
BRANCH  31  34
ATOM     34  C   UNL     1       8.342  13.814  28.864  1.00  0.00     0.174 C 
ATOM     35  N   UNL     1       9.763  14.168  29.074  1.00  0.00    -0.329 N 
ATOM     36  C   UNL     1       7.415  14.790  29.613  1.00  0.00     0.035 C 
ATOM     37  C   UNL     1      10.228  14.479  30.432  1.00  0.00     0.120 C 
ATOM     38  C   UNL     1       7.848  14.961  31.068  1.00  0.00     0.004 C 
ATOM     39  C   UNL     1       9.289  15.467  31.124  1.00  0.00     0.022 C 
BRANCH  35  40
ATOM     40  C   UNL     1      10.761  13.672  28.163  1.00  0.00     0.246 CG0
ATOM     41  O   UNL     1      10.852  12.430  27.967  1.00  0.00    -0.272 OA
ATOM     42  G   UNL     1      11.641  14.650  27.421  1.00  0.00     0.000 G0
ENDBRANCH  35  40
ENDBRANCH  31  34
ENDBRANCH   2  30
ENDBRANCH   1   2
BRANCH   1  43
ATOM     43  C   UNL     1       4.626  16.226  24.579  1.00  0.00     0.003 C 
BRANCH  43  44
ATOM     44  C   UNL     1       4.068  14.795  24.647  1.00  0.00     0.001 C 
BRANCH  44  45
ATOM     45  C   UNL     1       4.476  13.872  23.476  1.00  0.00     0.008 C 
BRANCH  45  46
ATOM     46  C   UNL     1       5.135  12.546  23.897  1.00  0.00     0.075 C 
BRANCH  46  47
ATOM     47  C   UNL     1       4.136  11.438  24.116  1.00  0.00     0.132 C 
ATOM     48  O   UNL     1       4.256  10.390  23.495  1.00  0.00    -0.300 OA
BRANCH  47  49
ATOM     49  C   UNL     1       3.014  11.595  25.112  1.00  0.00     0.072 C 
ATOM     50  C   UNL     1       3.532  11.552  26.546  1.00  0.00     0.012 C 
ENDBRANCH  47  49
ENDBRANCH  46  47
ENDBRANCH  45  46
ENDBRANCH  44  45
ENDBRANCH  43  44
ENDBRANCH   1  43
TORSDOF 12
ENDMDL
MODEL 2
REMARK VINA RESULT:    25.001      2.221      4.809
REMARK INTER + INTRA:          57.040
REMARK INTER:                  51.434
REMARK INTRA:                   5.606
REMARK UNBOUND:                 4.270
REMARK SMILES CCC(=O)CCCCC[C@@H]1NC(=O)[C@@H]2CCCCN2C(=O)[C@@H]([C@H](C)CC)NC(=O)[C@H](Cc2cn(OC)c3ccccc23)NC1=O
REMARK SMILES IDX 9 1 10 2 44 3 43 4 45 6 30 7 28 8 27 9 29 11 22 12 23 14
REMARK SMILES IDX 24 15 25 16 26 17 31 18 32 19 33 20 42 21 34 22 37 23 41 24
REMARK SMILES IDX 38 25 40 26 39 27 35 28 36 29 11 30 12 31 13 33 14 34 19 35
REMARK SMILES IDX 15 36 18 37 16 38 17 39 20 40 21 41 8 43 7 44 6 45 5 46 3 47
REMARK SMILES IDX 4 48 2 49 1 50
REMARK H PARENT 43 5 27 10 11 32
REMARK Flexibility Score: 80.00
ROOT
ATOM      1  C   UNL     1       7.004  14.939  28.163  1.00  0.00     0.035 C 
ENDROOT
BRANCH   1   2
ATOM      2  C   UNL     1       7.850  13.727  27.707  1.00  0.00     0.171 C 
BRANCH   2   3
ATOM      3  C   UNL     1       7.755  13.429  26.226  1.00  0.00     0.243 C 
ATOM      4  N   UNL     1       8.036  14.430  25.229  1.00  0.00    -0.342 N 
ATOM      5  H   UNL     1       8.062  15.433  25.496  1.00  0.00     0.164 HD
ATOM      6  O   UNL     1       7.489  12.250  25.866  1.00  0.00    -0.273 OA
BRANCH   4   7
ATOM      7  C   UNL     1       8.424  14.050  23.867  1.00  0.00     0.175 C 
BRANCH   7   8
ATOM      8  C   UNL     1       9.897  14.326  23.680  1.00  0.00     0.243 C 
ATOM      9  N   UNL     1      10.665  14.965  24.723  1.00  0.00    -0.342 N 
ATOM     10  H   UNL     1      10.137  15.345  25.532  1.00  0.00     0.164 HD
ATOM     11  O   UNL     1      10.450  13.940  22.619  1.00  0.00    -0.273 OA
BRANCH   9  12
ATOM     12  C   UNL     1      12.130  14.928  24.885  1.00  0.00     0.174 CG0
ATOM     13  G   UNL     1      12.575  13.764  25.739  1.00  0.00     0.000 G0
BRANCH  12  14
ATOM     14  C   UNL     1      12.919  15.112  23.550  1.00  0.00     0.018 C 
ATOM     15  C   UNL     1      12.531  16.451  22.894  1.00  0.00     0.010 C 
BRANCH  14  16
ATOM     16  C   UNL     1      12.765  13.941  22.549  1.00  0.00     0.002 C 
ATOM     17  C   UNL     1      14.110  13.464  21.993  1.00  0.00     0.004 C 
ENDBRANCH  14  16
ENDBRANCH  12  14
ENDBRANCH   9  12
ENDBRANCH   7   8
BRANCH   7  18
ATOM     18  C   UNL     1       7.532  14.767  22.836  1.00  0.00     0.073 C 
BRANCH  18  19
ATOM     19  C   UNL     1       8.044  14.601  21.435  1.00  0.00    -0.016 A 
ATOM     20  C   UNL     1       8.873  13.587  20.983  1.00  0.00     0.134 A 
ATOM     21  C   UNL     1       7.749  15.374  20.325  1.00  0.00     0.006 A 
ATOM     22  N   UNL     1       9.097  13.714  19.658  1.00  0.00    -0.191 N 
ATOM     23  C   UNL     1       8.406  14.815  19.247  1.00  0.00     0.087 A 
ATOM     24  C   UNL     1       6.964  16.522  20.205  1.00  0.00     0.011 A 
ATOM     25  C   UNL     1       8.307  15.401  17.975  1.00  0.00     0.030 A 
ATOM     26  C   UNL     1       6.858  17.121  18.941  1.00  0.00     0.001 A 
ATOM     27  C   UNL     1       7.528  16.563  17.834  1.00  0.00     0.002 A 
BRANCH  22  28
ATOM     28  O   UNL     1       9.889  12.814  18.956  1.00  0.00    -0.417 OA
ATOM     29  C   UNL     1       9.412  11.644  18.307  1.00  0.00     0.313 C 
ENDBRANCH  22  28
ENDBRANCH  18  19
ENDBRANCH   7  18
ENDBRANCH   4   7
ENDBRANCH   2   3
BRANCH   2  30
ATOM     30  N   UNL     1       9.258  13.854  28.122  1.00  0.00    -0.343 N 
ATOM     31  C   UNL     1      10.356  13.203  27.459  1.00  0.00     0.243 C 
ATOM     32  H   UNL     1       9.462  14.410  28.983  1.00  0.00     0.164 HD
ATOM     33  O   UNL     1      10.180  12.627  26.354  1.00  0.00    -0.273 OA
BRANCH  31  34
ATOM     34  C   UNL     1      11.749  13.270  28.049  1.00  0.00     0.174 C 
ATOM     35  N   UNL     1      12.681  13.999  27.159  1.00  0.00    -0.329 N 
ATOM     36  C   UNL     1      11.657  13.951  29.427  1.00  0.00     0.035 C 
ATOM     37  C   UNL     1      13.986  14.419  27.684  1.00  0.00     0.120 C 
ATOM     38  C   UNL     1      13.045  14.228  30.003  1.00  0.00     0.004 C 
ATOM     39  C   UNL     1      13.840  15.109  29.041  1.00  0.00     0.022 C 
BRANCH  35  40
ATOM     40  C   UNL     1      12.607  13.799  25.736  1.00  0.00     0.246 CG0
ATOM     41  O   UNL     1      12.893  12.667  25.258  1.00  0.00    -0.272 OA
ATOM     42  G   UNL     1      12.138  14.929  24.850  1.00  0.00     0.000 G0
ENDBRANCH  35  40
ENDBRANCH  31  34
ENDBRANCH   2  30
ENDBRANCH   1   2
BRANCH   1  43
ATOM     43  C   UNL     1       6.760  14.917  29.682  1.00  0.00     0.003 C 
BRANCH  43  44
ATOM     44  C   UNL     1       8.063  14.962  30.498  1.00  0.00     0.001 C 
BRANCH  44  45
ATOM     45  C   UNL     1       7.945  15.622  31.891  1.00  0.00     0.008 C 
BRANCH  45  46
ATOM     46  C   UNL     1       6.503  15.859  32.374  1.00  0.00     0.075 C 
BRANCH  46  47
ATOM     47  C   UNL     1       6.436  16.583  33.694  1.00  0.00     0.132 C 
ATOM     48  O   UNL     1       6.702  15.978  34.726  1.00  0.00    -0.300 OA
BRANCH  47  49
ATOM     49  C   UNL     1       6.077  18.047  33.756  1.00  0.00     0.072 C 
ATOM     50  C   UNL     1       4.869  18.361  32.880  1.00  0.00     0.012 C 
ENDBRANCH  47  49
ENDBRANCH  46  47
ENDBRANCH  45  46
ENDBRANCH  44  45
ENDBRANCH  43  44
ENDBRANCH   1  43
TORSDOF 12
ENDMDL
MODEL 3
REMARK VINA RESULT:    25.131      2.789      7.011
REMARK INTER + INTRA:          57.314
REMARK INTER:                  54.562
REMARK INTRA:                   2.752
REMARK UNBOUND:                 4.270
REMARK SMILES CCC(=O)CCCCC[C@@H]1NC(=O)[C@@H]2CCCCN2C(=O)[C@@H]([C@H](C)CC)NC(=O)[C@H](Cc2cn(OC)c3ccccc23)NC1=O
REMARK SMILES IDX 9 1 10 2 44 3 43 4 45 6 30 7 28 8 27 9 29 11 22 12 23 14
REMARK SMILES IDX 24 15 25 16 26 17 31 18 32 19 33 20 42 21 34 22 37 23 41 24
REMARK SMILES IDX 38 25 40 26 39 27 35 28 36 29 11 30 12 31 13 33 14 34 19 35
REMARK SMILES IDX 15 36 18 37 16 38 17 39 20 40 21 41 8 43 7 44 6 45 5 46 3 47
REMARK SMILES IDX 4 48 2 49 1 50
REMARK H PARENT 43 5 27 10 11 32
REMARK Flexibility Score: 80.00
ROOT
ATOM      1  C   UNL     1      12.780  13.433  24.480  1.00  0.00     0.035 C 
ENDROOT
BRANCH   1   2
ATOM      2  C   UNL     1      12.289  14.458  23.432  1.00  0.00     0.171 C 
BRANCH   2   3
ATOM      3  C   UNL     1      12.214  13.911  22.022  1.00  0.00     0.243 C 
ATOM      4  N   UNL     1      11.614  12.634  21.732  1.00  0.00    -0.342 N 
ATOM      5  H   UNL     1      11.450  11.953  22.499  1.00  0.00     0.164 HD
ATOM      6  O   UNL     1      12.629  14.633  21.074  1.00  0.00    -0.273 OA
BRANCH   4   7
ATOM      7  C   UNL     1      11.101  12.328  20.392  1.00  0.00     0.175 C 
BRANCH   7   8
ATOM      8  C   UNL     1      10.176  13.439  19.954  1.00  0.00     0.243 C 
ATOM      9  N   UNL     1       8.824  13.511  20.455  1.00  0.00    -0.342 N 
ATOM     10  H   UNL     1       8.480  12.701  21.005  1.00  0.00     0.164 HD
ATOM     11  O   UNL     1      10.627  14.327  19.188  1.00  0.00    -0.273 OA
BRANCH   9  12
ATOM     12  C   UNL     1       7.956  14.703  20.475  1.00  0.00     0.174 CG0
ATOM     13  G   UNL     1       8.242  15.591  21.664  1.00  0.00     0.000 G0
BRANCH  12  14
ATOM     14  C   UNL     1       7.862  15.441  19.102  1.00  0.00     0.018 C 
ATOM     15  C   UNL     1       7.076  16.756  19.269  1.00  0.00     0.010 C 
BRANCH  14  16
ATOM     16  C   UNL     1       7.271  14.586  17.954  1.00  0.00     0.002 C 
ATOM     17  C   UNL     1       8.092  13.321  17.683  1.00  0.00     0.004 C 
ENDBRANCH  14  16
ENDBRANCH  12  14
ENDBRANCH   9  12
ENDBRANCH   7   8
BRANCH   7  18
ATOM     18  C   UNL     1      10.437  10.938  20.378  1.00  0.00     0.073 C 
BRANCH  18  19
ATOM     19  C   UNL     1      10.322  10.383  18.988  1.00  0.00    -0.016 A 
ATOM     20  C   UNL     1       9.361  10.722  18.050  1.00  0.00     0.134 A 
ATOM     21  C   UNL     1      11.168   9.486  18.358  1.00  0.00     0.006 A 
ATOM     22  N   UNL     1       9.582  10.071  16.888  1.00  0.00    -0.191 N 
ATOM     23  C   UNL     1      10.697   9.307  17.073  1.00  0.00     0.087 A 
ATOM     24  C   UNL     1      12.300   8.822  18.836  1.00  0.00     0.011 A 
ATOM     25  C   UNL     1      11.349   8.429  16.193  1.00  0.00     0.030 A 
ATOM     26  C   UNL     1      12.961   7.939  17.969  1.00  0.00     0.001 A 
ATOM     27  C   UNL     1      12.486   7.743  16.657  1.00  0.00     0.002 A 
BRANCH  22  28
ATOM     28  O   UNL     1       8.764  10.247  15.779  1.00  0.00    -0.417 OA
ATOM     29  C   UNL     1       7.345  10.256  15.808  1.00  0.00     0.313 C 
ENDBRANCH  22  28
ENDBRANCH  18  19
ENDBRANCH   7  18
ENDBRANCH   4   7
ENDBRANCH   2   3
BRANCH   2  30
ATOM     30  N   UNL     1      11.007  15.069  23.820  1.00  0.00    -0.343 N 
ATOM     31  C   UNL     1       9.759  14.355  23.886  1.00  0.00     0.243 C 
ATOM     32  H   UNL     1      10.996  16.098  24.008  1.00  0.00     0.164 HD
ATOM     33  O   UNL     1       9.739  13.101  23.790  1.00  0.00    -0.273 OA
BRANCH  31  34
ATOM     34  C   UNL     1       8.467  15.102  24.147  1.00  0.00     0.174 C 
ATOM     35  N   UNL     1       7.658  15.232  22.914  1.00  0.00    -0.329 N 
ATOM     36  C   UNL     1       7.687  14.348  25.241  1.00  0.00     0.035 C 
ATOM     37  C   UNL     1       6.257  15.658  23.023  1.00  0.00     0.120 C 
ATOM     38  C   UNL     1       6.287  14.930  25.425  1.00  0.00     0.004 C 
ATOM     39  C   UNL     1       5.521  14.867  24.104  1.00  0.00     0.022 C 
BRANCH  35  40
ATOM     40  C   UNL     1       8.310  15.517  21.663  1.00  0.00     0.246 CG0
ATOM     41  O   UNL     1       9.188  16.421  21.618  1.00  0.00    -0.272 OA
ATOM     42  G   UNL     1       7.969  14.692  20.443  1.00  0.00     0.000 G0
ENDBRANCH  35  40
ENDBRANCH  31  34
ENDBRANCH   2  30
ENDBRANCH   1   2
BRANCH   1  43
ATOM     43  C   UNL     1      12.467  13.899  25.914  1.00  0.00     0.003 C 
BRANCH  43  44
ATOM     44  C   UNL     1      11.066  13.476  26.388  1.00  0.00     0.001 C 
BRANCH  44  45
ATOM     45  C   UNL     1      10.668  13.979  27.795  1.00  0.00     0.008 C 
BRANCH  45  46
ATOM     46  C   UNL     1       9.152  14.125  28.023  1.00  0.00     0.075 C 
BRANCH  46  47
ATOM     47  C   UNL     1       8.796  14.371  29.466  1.00  0.00     0.132 C 
ATOM     48  O   UNL     1       9.670  14.722  30.249  1.00  0.00    -0.300 OA
BRANCH  47  49
ATOM     49  C   UNL     1       7.375  14.219  29.949  1.00  0.00     0.072 C 
ATOM     50  C   UNL     1       7.135  15.013  31.230  1.00  0.00     0.012 C 
ENDBRANCH  47  49
ENDBRANCH  46  47
ENDBRANCH  45  46
ENDBRANCH  44  45
ENDBRANCH  43  44
ENDBRANCH   1  43
TORSDOF 12
ENDMDL
MODEL 4
REMARK VINA RESULT:    25.167      2.188      7.210
REMARK INTER + INTRA:          57.392
REMARK INTER:                  54.423
REMARK INTRA:                   2.969
REMARK UNBOUND:                 4.270
REMARK SMILES CCC(=O)CCCCC[C@@H]1NC(=O)[C@@H]2CCCCN2C(=O)[C@@H]([C@H](C)CC)NC(=O)[C@H](Cc2cn(OC)c3ccccc23)NC1=O
REMARK SMILES IDX 9 1 10 2 44 3 43 4 45 6 30 7 28 8 27 9 29 11 22 12 23 14
REMARK SMILES IDX 24 15 25 16 26 17 31 18 32 19 33 20 42 21 34 22 37 23 41 24
REMARK SMILES IDX 38 25 40 26 39 27 35 28 36 29 11 30 12 31 13 33 14 34 19 35
REMARK SMILES IDX 15 36 18 37 16 38 17 39 20 40 21 41 8 43 7 44 6 45 5 46 3 47
REMARK SMILES IDX 4 48 2 49 1 50
REMARK H PARENT 43 5 27 10 11 32
REMARK Flexibility Score: 80.00
ROOT
ATOM      1  C   UNL     1       5.115  14.015  23.841  1.00  0.00     0.035 C 
ENDROOT
BRANCH   1   2
ATOM      2  C   UNL     1       6.395  14.882  23.871  1.00  0.00     0.171 C 
BRANCH   2   3
ATOM      3  C   UNL     1       7.132  14.849  25.194  1.00  0.00     0.243 C 
ATOM      4  N   UNL     1       8.059  13.796  25.522  1.00  0.00    -0.342 N 
ATOM      5  H   UNL     1       8.054  12.913  24.976  1.00  0.00     0.164 HD
ATOM      6  O   UNL     1       6.974  15.811  25.993  1.00  0.00    -0.273 OA
BRANCH   4   7
ATOM      7  C   UNL     1       9.107  14.001  26.527  1.00  0.00     0.175 C 
BRANCH   7   8
ATOM      8  C   UNL     1      10.454  13.991  25.842  1.00  0.00     0.243 C 
ATOM      9  N   UNL     1      10.641  13.285  24.597  1.00  0.00    -0.342 N 
ATOM     10  H   UNL     1       9.862  12.679  24.276  1.00  0.00     0.164 HD
ATOM     11  O   UNL     1      11.391  14.656  26.353  1.00  0.00    -0.273 OA
BRANCH   9  12
ATOM     12  C   UNL     1      11.714  13.510  23.611  1.00  0.00     0.174 CG0
ATOM     13  G   UNL     1      11.352  14.589  22.617  1.00  0.00     0.000 G0
BRANCH  12  14
ATOM     14  C   UNL     1      13.136  13.639  24.242  1.00  0.00     0.018 C 
ATOM     15  C   UNL     1      13.434  12.406  25.117  1.00  0.00     0.010 C 
BRANCH  14  16
ATOM     16  C   UNL     1      13.367  14.949  25.036  1.00  0.00     0.002 C 
ATOM     17  C   UNL     1      13.932  14.693  26.438  1.00  0.00     0.004 C 
ENDBRANCH  14  16
ENDBRANCH  12  14
ENDBRANCH   9  12
ENDBRANCH   7   8
BRANCH   7  18
ATOM     18  C   UNL     1       8.985  12.953  27.650  1.00  0.00     0.073 C 
BRANCH  18  19
ATOM     19  C   UNL     1       8.514  13.561  28.939  1.00  0.00    -0.016 A 
ATOM     20  C   UNL     1       9.092  14.635  29.595  1.00  0.00     0.134 A 
ATOM     21  C   UNL     1       7.398  13.216  29.683  1.00  0.00     0.006 A 
ATOM     22  N   UNL     1       8.384  14.952  30.700  1.00  0.00    -0.191 N 
ATOM     23  C   UNL     1       7.338  14.079  30.758  1.00  0.00     0.087 A 
ATOM     24  C   UNL     1       6.455  12.206  29.485  1.00  0.00     0.011 A 
ATOM     25  C   UNL     1       6.310  13.960  31.708  1.00  0.00     0.030 A 
ATOM     26  C   UNL     1       5.425  12.071  30.426  1.00  0.00     0.001 A 
ATOM     27  C   UNL     1       5.355  12.942  31.532  1.00  0.00     0.002 A 
BRANCH  22  28
ATOM     28  O   UNL     1       8.748  16.005  31.530  1.00  0.00    -0.417 OA
ATOM     29  C   UNL     1       7.983  17.184  31.731  1.00  0.00     0.313 C 
ENDBRANCH  22  28
ENDBRANCH  18  19
ENDBRANCH   7  18
ENDBRANCH   4   7
ENDBRANCH   2   3
BRANCH   2  30
ATOM     30  N   UNL     1       7.306  14.554  22.762  1.00  0.00    -0.343 N 
ATOM     31  C   UNL     1       8.477  15.320  22.426  1.00  0.00     0.243 C 
ATOM     32  H   UNL     1       7.056  13.744  22.150  1.00  0.00     0.164 HD
ATOM     33  O   UNL     1       8.889  16.224  23.198  1.00  0.00    -0.273 OA
BRANCH  31  34
ATOM     34  C   UNL     1       9.267  14.995  21.175  1.00  0.00     0.174 C 
ATOM     35  N   UNL     1      10.487  14.220  21.490  1.00  0.00    -0.329 N 
ATOM     36  C   UNL     1       8.350  14.213  20.215  1.00  0.00     0.035 C 
ATOM     37  C   UNL     1      11.218  13.565  20.397  1.00  0.00     0.120 C 
ATOM     38  C   UNL     1       9.128  13.682  19.012  1.00  0.00     0.004 C 
ATOM     39  C   UNL     1      10.269  12.784  19.488  1.00  0.00     0.022 C 
BRANCH  35  40
ATOM     40  C   UNL     1      11.262  14.557  22.655  1.00  0.00     0.246 CG0
ATOM     41  O   UNL     1      11.501  15.769  22.906  1.00  0.00    -0.272 OA
ATOM     42  G   UNL     1      11.726  13.457  23.582  1.00  0.00     0.000 G0
ENDBRANCH  35  40
ENDBRANCH  31  34
ENDBRANCH   2  30
ENDBRANCH   1   2
BRANCH   1  43
ATOM     43  C   UNL     1       5.437  12.527  24.070  1.00  0.00     0.003 C 
BRANCH  43  44
ATOM     44  C   UNL     1       4.375  11.586  23.474  1.00  0.00     0.001 C 
BRANCH  44  45
ATOM     45  C   UNL     1       4.110  10.296  24.283  1.00  0.00     0.008 C 
BRANCH  45  46
ATOM     46  C   UNL     1       4.375  10.415  25.795  1.00  0.00     0.075 C 
BRANCH  46  47
ATOM     47  C   UNL     1       3.452  11.391  26.478  1.00  0.00     0.132 C 
ATOM     48  O   UNL     1       3.748  12.579  26.507  1.00  0.00    -0.300 OA
BRANCH  47  49
ATOM     49  C   UNL     1       2.157  10.927  27.097  1.00  0.00     0.072 C 
ATOM     50  C   UNL     1       1.039  11.942  26.875  1.00  0.00     0.012 C 
ENDBRANCH  47  49
ENDBRANCH  46  47
ENDBRANCH  45  46
ENDBRANCH  44  45
ENDBRANCH  43  44
ENDBRANCH   1  43
TORSDOF 12
ENDMDL
MODEL 5
REMARK VINA RESULT:    25.244      2.821      7.471
REMARK INTER + INTRA:          57.554
REMARK INTER:                  53.559
REMARK INTRA:                   3.995
REMARK UNBOUND:                 4.270
REMARK SMILES CCC(=O)CCCCC[C@@H]1NC(=O)[C@@H]2CCCCN2C(=O)[C@@H]([C@H](C)CC)NC(=O)[C@H](Cc2cn(OC)c3ccccc23)NC1=O
REMARK SMILES IDX 9 1 10 2 44 3 43 4 45 6 30 7 28 8 27 9 29 11 22 12 23 14
REMARK SMILES IDX 24 15 25 16 26 17 31 18 32 19 33 20 42 21 34 22 37 23 41 24
REMARK SMILES IDX 38 25 40 26 39 27 35 28 36 29 11 30 12 31 13 33 14 34 19 35
REMARK SMILES IDX 15 36 18 37 16 38 17 39 20 40 21 41 8 43 7 44 6 45 5 46 3 47
REMARK SMILES IDX 4 48 2 49 1 50
REMARK H PARENT 43 5 27 10 11 32
REMARK Flexibility Score: 80.00
ROOT
ATOM      1  C   UNL     1       5.040  12.504  24.651  1.00  0.00     0.035 C 
ENDROOT
BRANCH   1   2
ATOM      2  C   UNL     1       5.730  13.878  24.484  1.00  0.00     0.171 C 
BRANCH   2   3
ATOM      3  C   UNL     1       6.651  14.249  25.627  1.00  0.00     0.243 C 
ATOM      4  N   UNL     1       7.843  13.495  25.919  1.00  0.00    -0.342 N 
ATOM      5  H   UNL     1       7.965  12.544  25.520  1.00  0.00     0.164 HD
ATOM      6  O   UNL     1       6.394  15.290  26.292  1.00  0.00    -0.273 OA
BRANCH   4   7
ATOM      7  C   UNL     1       8.956  14.100  26.658  1.00  0.00     0.175 C 
BRANCH   7   8
ATOM      8  C   UNL     1      10.144  14.235  25.734  1.00  0.00     0.243 C 
ATOM      9  N   UNL     1      10.215  13.474  24.510  1.00  0.00    -0.342 N 
ATOM     10  H   UNL     1       9.496  12.739  24.369  1.00  0.00     0.164 HD
ATOM     11  O   UNL     1      11.041  15.065  26.030  1.00  0.00    -0.273 OA
BRANCH   9  12
ATOM     12  C   UNL     1      11.047  13.778  23.332  1.00  0.00     0.174 CG0
ATOM     13  G   UNL     1      10.498  14.940  22.537  1.00  0.00     0.000 G0
BRANCH  12  14
ATOM     14  C   UNL     1      12.577  13.847  23.638  1.00  0.00     0.018 C 
ATOM     15  C   UNL     1      12.824  14.742  24.868  1.00  0.00     0.010 C 
BRANCH  14  16
ATOM     16  C   UNL     1      13.449  14.300  22.441  1.00  0.00     0.002 C 
ATOM     17  C   UNL     1      14.125  13.124  21.729  1.00  0.00     0.004 C 
ENDBRANCH  14  16
ENDBRANCH  12  14
ENDBRANCH   9  12
ENDBRANCH   7   8
BRANCH   7  18
ATOM     18  C   UNL     1       9.260  13.286  27.930  1.00  0.00     0.073 C 
BRANCH  18  19
ATOM     19  C   UNL     1       8.624  13.886  29.150  1.00  0.00    -0.016 A 
ATOM     20  C   UNL     1       9.062  15.011  29.829  1.00  0.00     0.134 A 
ATOM     21  C   UNL     1       7.465  13.482  29.790  1.00  0.00     0.006 A 
ATOM     22  N   UNL     1       8.228  15.302  30.850  1.00  0.00    -0.191 N 
ATOM     23  C   UNL     1       7.241  14.361  30.830  1.00  0.00     0.087 A 
ATOM     24  C   UNL     1       6.615  12.406  29.528  1.00  0.00     0.011 A 
ATOM     25  C   UNL     1       6.134  14.191  31.677  1.00  0.00     0.030 A 
ATOM     26  C   UNL     1       5.507  12.221  30.367  1.00  0.00     0.001 A 
ATOM     27  C   UNL     1       5.270  13.108  31.436  1.00  0.00     0.002 A 
BRANCH  22  28
ATOM     28  O   UNL     1       8.437  16.394  31.683  1.00  0.00    -0.417 OA
ATOM     29  C   UNL     1       7.409  17.188  32.256  1.00  0.00     0.313 C 
ENDBRANCH  22  28
ENDBRANCH  18  19
ENDBRANCH   7  18
ENDBRANCH   4   7
ENDBRANCH   2   3
BRANCH   2  30
ATOM     30  N   UNL     1       6.433  13.985  23.195  1.00  0.00    -0.343 N 
ATOM     31  C   UNL     1       7.565  14.842  22.962  1.00  0.00     0.243 C 
ATOM     32  H   UNL     1       6.052  13.443  22.387  1.00  0.00     0.164 HD
ATOM     33  O   UNL     1       8.135  15.418  23.925  1.00  0.00    -0.273 OA
BRANCH  31  34
ATOM     34  C   UNL     1       8.126  15.000  21.564  1.00  0.00     0.174 C 
ATOM     35  N   UNL     1       9.542  14.577  21.497  1.00  0.00    -0.329 N 
ATOM     36  C   UNL     1       7.257  14.171  20.599  1.00  0.00     0.035 C 
ATOM     37  C   UNL     1      10.166  14.379  20.182  1.00  0.00     0.120 C 
ATOM     38  C   UNL     1       7.870  14.125  19.200  1.00  0.00     0.004 C 
ATOM     39  C   UNL     1       9.277  13.533  19.271  1.00  0.00     0.022 C 
BRANCH  35  40
ATOM     40  C   UNL     1      10.435  14.908  22.576  1.00  0.00     0.246 CG0
ATOM     41  O   UNL     1      10.631  16.120  22.862  1.00  0.00    -0.272 OA
ATOM     42  G   UNL     1      11.075  13.799  23.378  1.00  0.00     0.000 G0
ENDBRANCH  35  40
ENDBRANCH  31  34
ENDBRANCH   2  30
ENDBRANCH   1   2
BRANCH   1  43
ATOM     43  C   UNL     1       4.729  11.860  23.288  1.00  0.00     0.003 C 
BRANCH  43  44
ATOM     44  C   UNL     1       3.482  10.959  23.322  1.00  0.00     0.001 C 
BRANCH  44  45
ATOM     45  C   UNL     1       2.848  10.660  21.945  1.00  0.00     0.008 C 
BRANCH  45  46
ATOM     46  C   UNL     1       1.316  10.503  21.960  1.00  0.00     0.075 C 
BRANCH  46  47
ATOM     47  C   UNL     1       0.699  10.637  20.591  1.00  0.00     0.132 C 
ATOM     48  O   UNL     1       1.420  10.853  19.625  1.00  0.00    -0.300 OA
BRANCH  47  49
ATOM     49  C   UNL     1      -0.788  10.480  20.395  1.00  0.00     0.072 C 
ATOM     50  C   UNL     1      -1.353   9.374  21.281  1.00  0.00     0.012 C 
ENDBRANCH  47  49
ENDBRANCH  46  47
ENDBRANCH  45  46
ENDBRANCH  44  45
ENDBRANCH  43  44
ENDBRANCH   1  43
TORSDOF 12
ENDMDL
MODEL 6
REMARK VINA RESULT:    25.272      2.165      7.104
REMARK INTER + INTRA:          57.613
REMARK INTER:                  55.716
REMARK INTRA:                   1.897
REMARK UNBOUND:                 4.270
REMARK SMILES CCC(=O)CCCCC[C@@H]1NC(=O)[C@@H]2CCCCN2C(=O)[C@@H]([C@H](C)CC)NC(=O)[C@H](Cc2cn(OC)c3ccccc23)NC1=O
REMARK SMILES IDX 9 1 10 2 44 3 43 4 45 6 30 7 28 8 27 9 29 11 22 12 23 14
REMARK SMILES IDX 24 15 25 16 26 17 31 18 32 19 33 20 42 21 34 22 37 23 41 24
REMARK SMILES IDX 38 25 40 26 39 27 35 28 36 29 11 30 12 31 13 33 14 34 19 35
REMARK SMILES IDX 15 36 18 37 16 38 17 39 20 40 21 41 8 43 7 44 6 45 5 46 3 47
REMARK SMILES IDX 4 48 2 49 1 50
REMARK H PARENT 43 5 27 10 11 32
REMARK Flexibility Score: 80.00
ROOT
ATOM      1  C   UNL     1       5.093  13.751  24.650  1.00  0.00     0.035 C 
ENDROOT
BRANCH   1   2
ATOM      2  C   UNL     1       6.275  14.747  24.603  1.00  0.00     0.171 C 
BRANCH   2   3
ATOM      3  C   UNL     1       7.109  14.775  25.867  1.00  0.00     0.243 C 
ATOM      4  N   UNL     1       8.091  13.760  26.152  1.00  0.00    -0.342 N 
ATOM      5  H   UNL     1       8.074  12.862  25.632  1.00  0.00     0.164 HD
ATOM      6  O   UNL     1       6.981  15.755  26.650  1.00  0.00    -0.273 OA
BRANCH   4   7
ATOM      7  C   UNL     1       9.204  14.025  27.069  1.00  0.00     0.175 C 
BRANCH   7   8
ATOM      8  C   UNL     1      10.490  14.081  26.278  1.00  0.00     0.243 C 
ATOM      9  N   UNL     1      10.628  13.343  25.045  1.00  0.00    -0.342 N 
ATOM     10  H   UNL     1       9.871  12.675  24.807  1.00  0.00     0.164 HD
ATOM     11  O   UNL     1      11.416  14.825  26.690  1.00  0.00    -0.273 OA
BRANCH   9  12
ATOM     12  C   UNL     1      11.603  13.603  23.969  1.00  0.00     0.174 CG0
ATOM     13  G   UNL     1      11.145  14.709  23.047  1.00  0.00     0.000 G0
BRANCH  12  14
ATOM     14  C   UNL     1      13.078  13.721  24.466  1.00  0.00     0.018 C 
ATOM     15  C   UNL     1      14.042  13.269  23.353  1.00  0.00     0.010 C 
BRANCH  14  16
ATOM     16  C   UNL     1      13.370  12.970  25.788  1.00  0.00     0.002 C 
ATOM     17  C   UNL     1      13.806  13.912  26.915  1.00  0.00     0.004 C 
ENDBRANCH  14  16
ENDBRANCH  12  14
ENDBRANCH   9  12
ENDBRANCH   7   8
BRANCH   7  18
ATOM     18  C   UNL     1       9.227  12.980  28.201  1.00  0.00     0.073 C 
BRANCH  18  19
ATOM     19  C   UNL     1       8.195  13.265  29.252  1.00  0.00    -0.016 A 
ATOM     20  C   UNL     1       7.100  12.474  29.557  1.00  0.00     0.134 A 
ATOM     21  C   UNL     1       8.164  14.320  30.148  1.00  0.00     0.006 A 
ATOM     22  N   UNL     1       6.407  13.002  30.589  1.00  0.00    -0.191 N 
ATOM     23  C   UNL     1       7.060  14.141  30.957  1.00  0.00     0.087 A 
ATOM     24  C   UNL     1       9.021  15.413  30.289  1.00  0.00     0.011 A 
ATOM     25  C   UNL     1       6.756  15.075  31.961  1.00  0.00     0.030 A 
ATOM     26  C   UNL     1       8.730  16.356  31.285  1.00  0.00     0.001 A 
ATOM     27  C   UNL     1       7.602  16.188  32.114  1.00  0.00     0.002 A 
BRANCH  22  28
ATOM     28  O   UNL     1       5.268  12.392  31.100  1.00  0.00    -0.417 OA
ATOM     29  C   UNL     1       4.370  11.588  30.349  1.00  0.00     0.313 C 
ENDBRANCH  22  28
ENDBRANCH  18  19
ENDBRANCH   7  18
ENDBRANCH   4   7
ENDBRANCH   2   3
BRANCH   2  30
ATOM     30  N   UNL     1       7.128  14.531  23.423  1.00  0.00    -0.343 N 
ATOM     31  C   UNL     1       8.280  15.331  23.102  1.00  0.00     0.243 C 
ATOM     32  H   UNL     1       6.847  13.781  22.750  1.00  0.00     0.164 HD
ATOM     33  O   UNL     1       8.730  16.160  23.935  1.00  0.00    -0.273 OA
BRANCH  31  34
ATOM     34  C   UNL     1       9.005  15.130  21.787  1.00  0.00     0.174 C 
ATOM     35  N   UNL     1      10.274  14.392  21.975  1.00  0.00    -0.329 N 
ATOM     36  C   UNL     1       8.065  14.375  20.828  1.00  0.00     0.035 C 
ATOM     37  C   UNL     1      10.964  13.849  20.798  1.00  0.00     0.120 C 
ATOM     38  C   UNL     1       8.790  13.966  19.548  1.00  0.00     0.004 C 
ATOM     39  C   UNL     1       9.995  13.090  19.891  1.00  0.00     0.022 C 
BRANCH  35  40
ATOM     40  C   UNL     1      11.103  14.683  23.115  1.00  0.00     0.246 CG0
ATOM     41  O   UNL     1      11.382  15.883  23.383  1.00  0.00    -0.272 OA
ATOM     42  G   UNL     1      11.576  13.551  23.997  1.00  0.00     0.000 G0
ENDBRANCH  35  40
ENDBRANCH  31  34
ENDBRANCH   2  30
ENDBRANCH   1   2
BRANCH   1  43
ATOM     43  C   UNL     1       4.983  12.946  23.342  1.00  0.00     0.003 C 
BRANCH  43  44
ATOM     44  C   UNL     1       4.784  11.439  23.582  1.00  0.00     0.001 C 
BRANCH  44  45
ATOM     45  C   UNL     1       3.678  11.075  24.599  1.00  0.00     0.008 C 
BRANCH  45  46
ATOM     46  C   UNL     1       4.014  11.405  26.065  1.00  0.00     0.075 C 
BRANCH  46  47
ATOM     47  C   UNL     1       2.871  11.125  27.006  1.00  0.00     0.132 C 
ATOM     48  O   UNL     1       1.887  11.854  26.991  1.00  0.00    -0.300 OA
BRANCH  47  49
ATOM     49  C   UNL     1       2.913   9.943  27.943  1.00  0.00     0.072 C 
ATOM     50  C   UNL     1       4.297   9.302  27.969  1.00  0.00     0.012 C 
ENDBRANCH  47  49
ENDBRANCH  46  47
ENDBRANCH  45  46
ENDBRANCH  44  45
ENDBRANCH  43  44
ENDBRANCH   1  43
TORSDOF 12
ENDMDL
MODEL 7
REMARK VINA RESULT:    25.601      2.208      8.618
REMARK INTER + INTRA:          58.307
REMARK INTER:                  53.336
REMARK INTRA:                   4.972
REMARK UNBOUND:                 4.270
REMARK SMILES CCC(=O)CCCCC[C@@H]1NC(=O)[C@@H]2CCCCN2C(=O)[C@@H]([C@H](C)CC)NC(=O)[C@H](Cc2cn(OC)c3ccccc23)NC1=O
REMARK SMILES IDX 9 1 10 2 44 3 43 4 45 6 30 7 28 8 27 9 29 11 22 12 23 14
REMARK SMILES IDX 24 15 25 16 26 17 31 18 32 19 33 20 42 21 34 22 37 23 41 24
REMARK SMILES IDX 38 25 40 26 39 27 35 28 36 29 11 30 12 31 13 33 14 34 19 35
REMARK SMILES IDX 15 36 18 37 16 38 17 39 20 40 21 41 8 43 7 44 6 45 5 46 3 47
REMARK SMILES IDX 4 48 2 49 1 50
REMARK H PARENT 43 5 27 10 11 32
REMARK Flexibility Score: 80.00
ROOT
ATOM      1  C   UNL     1      12.722  14.711  24.391  1.00  0.00     0.035 C 
ENDROOT
BRANCH   1   2
ATOM      2  C   UNL     1      11.863  13.425  24.366  1.00  0.00     0.171 C 
BRANCH   2   3
ATOM      3  C   UNL     1      11.151  13.133  25.670  1.00  0.00     0.243 C 
ATOM      4  N   UNL     1      10.603  14.183  26.489  1.00  0.00    -0.342 N 
ATOM      5  H   UNL     1      10.900  15.167  26.337  1.00  0.00     0.164 HD
ATOM      6  O   UNL     1      10.978  11.929  26.004  1.00  0.00    -0.273 OA
BRANCH   4   7
ATOM      7  C   UNL     1       9.525  13.910  27.445  1.00  0.00     0.175 C 
BRANCH   7   8
ATOM      8  C   UNL     1       8.204  14.296  26.822  1.00  0.00     0.243 C 
ATOM      9  N   UNL     1       8.155  15.229  25.721  1.00  0.00    -0.342 N 
ATOM     10  H   UNL     1       9.036  15.719  25.478  1.00  0.00     0.164 HD
ATOM     11  O   UNL     1       7.157  13.746  27.248  1.00  0.00    -0.273 OA
BRANCH   9  12
ATOM     12  C   UNL     1       7.055  15.388  24.752  1.00  0.00     0.174 CG0
ATOM     13  G   UNL     1       7.058  14.295  23.708  1.00  0.00     0.000 G0
BRANCH  12  14
ATOM     14  C   UNL     1       5.668  15.673  25.410  1.00  0.00     0.018 C 
ATOM     15  C   UNL     1       4.758  14.437  25.268  1.00  0.00     0.010 C 
BRANCH  14  16
ATOM     16  C   UNL     1       4.958  16.944  24.882  1.00  0.00     0.002 C 
ATOM     17  C   UNL     1       4.786  18.013  25.966  1.00  0.00     0.004 C 
ENDBRANCH  14  16
ENDBRANCH  12  14
ENDBRANCH   9  12
ENDBRANCH   7   8
BRANCH   7  18
ATOM     18  C   UNL     1       9.802  14.623  28.782  1.00  0.00     0.073 C 
BRANCH  18  19
ATOM     19  C   UNL     1       8.674  14.449  29.758  1.00  0.00    -0.016 A 
ATOM     20  C   UNL     1       7.893  13.315  29.909  1.00  0.00     0.134 A 
ATOM     21  C   UNL     1       8.238  15.343  30.721  1.00  0.00     0.006 A 
ATOM     22  N   UNL     1       7.004  13.483  30.912  1.00  0.00    -0.191 N 
ATOM     23  C   UNL     1       7.214  14.733  31.415  1.00  0.00     0.087 A 
ATOM     24  C   UNL     1       8.670  16.638  31.014  1.00  0.00     0.011 A 
ATOM     25  C   UNL     1       6.556  15.413  32.453  1.00  0.00     0.030 A 
ATOM     26  C   UNL     1       8.021  17.331  32.047  1.00  0.00     0.001 A 
ATOM     27  C   UNL     1       6.969  16.722  32.759  1.00  0.00     0.002 A 
BRANCH  22  28
ATOM     28  O   UNL     1       6.108  12.486  31.276  1.00  0.00    -0.417 OA
ATOM     29  C   UNL     1       4.979  12.088  30.512  1.00  0.00     0.313 C 
ENDBRANCH  22  28
ENDBRANCH  18  19
ENDBRANCH   7  18
ENDBRANCH   4   7
ENDBRANCH   2   3
BRANCH   2  30
ATOM     30  N   UNL     1      10.911  13.423  23.243  1.00  0.00    -0.343 N 
ATOM     31  C   UNL     1       9.883  14.411  23.054  1.00  0.00     0.243 C 
ATOM     32  H   UNL     1      10.954  12.622  22.571  1.00  0.00     0.164 HD
ATOM     33  O   UNL     1       9.866  15.453  23.759  1.00  0.00    -0.273 OA
BRANCH  31  34
ATOM     34  C   UNL     1       8.854  14.240  21.955  1.00  0.00     0.174 C 
ATOM     35  N   UNL     1       7.508  14.662  22.402  1.00  0.00    -0.329 N 
ATOM     36  C   UNL     1       9.312  15.061  20.734  1.00  0.00     0.035 C 
ATOM     37  C   UNL     1       6.450  14.848  21.401  1.00  0.00     0.120 C 
ATOM     38  C   UNL     1       8.234  15.095  19.652  1.00  0.00     0.004 C 
ATOM     39  C   UNL     1       6.946  15.687  20.223  1.00  0.00     0.022 C 
BRANCH  35  40
ATOM     40  C   UNL     1       7.068  14.339  23.734  1.00  0.00     0.246 CG0
ATOM     41  O   UNL     1       6.747  13.150  24.004  1.00  0.00    -0.272 OA
ATOM     42  G   UNL     1       7.052  15.417  24.793  1.00  0.00     0.000 G0
ENDBRANCH  35  40
ENDBRANCH  31  34
ENDBRANCH   2  30
ENDBRANCH   1   2
BRANCH   1  43
ATOM     43  C   UNL     1      13.102  15.162  22.969  1.00  0.00     0.003 C 
BRANCH  43  44
ATOM     44  C   UNL     1      13.492  13.990  22.053  1.00  0.00     0.001 C 
BRANCH  44  45
ATOM     45  C   UNL     1      12.679  13.879  20.743  1.00  0.00     0.008 C 
BRANCH  45  46
ATOM     46  C   UNL     1      11.584  12.795  20.751  1.00  0.00     0.075 C 
BRANCH  46  47
ATOM     47  C   UNL     1      10.856  12.686  19.437  1.00  0.00     0.132 C 
ATOM     48  O   UNL     1      10.744  13.678  18.727  1.00  0.00    -0.300 OA
BRANCH  47  49
ATOM     49  C   UNL     1      10.292  11.366  18.973  1.00  0.00     0.072 C 
ATOM     50  C   UNL     1       9.036  11.563  18.129  1.00  0.00     0.012 C 
ENDBRANCH  47  49
ENDBRANCH  46  47
ENDBRANCH  45  46
ENDBRANCH  44  45
ENDBRANCH  43  44
ENDBRANCH   1  43
TORSDOF 12
ENDMDL
MODEL 8
REMARK VINA RESULT:    25.758      2.552      7.207
REMARK INTER + INTRA:          58.638
REMARK INTER:                  58.406
REMARK INTRA:                   0.232
REMARK UNBOUND:                 4.270
REMARK SMILES CCC(=O)CCCCC[C@@H]1NC(=O)[C@@H]2CCCCN2C(=O)[C@@H]([C@H](C)CC)NC(=O)[C@H](Cc2cn(OC)c3ccccc23)NC1=O
REMARK SMILES IDX 9 1 10 2 44 3 43 4 45 6 30 7 28 8 27 9 29 11 22 12 23 14
REMARK SMILES IDX 24 15 25 16 26 17 31 18 32 19 33 20 42 21 34 22 37 23 41 24
REMARK SMILES IDX 38 25 40 26 39 27 35 28 36 29 11 30 12 31 13 33 14 34 19 35
REMARK SMILES IDX 15 36 18 37 16 38 17 39 20 40 21 41 8 43 7 44 6 45 5 46 3 47
REMARK SMILES IDX 4 48 2 49 1 50
REMARK H PARENT 43 5 27 10 11 32
REMARK Flexibility Score: 80.00
ROOT
ATOM      1  C   UNL     1       5.083  13.489  24.630  1.00  0.00     0.035 C 
ENDROOT
BRANCH   1   2
ATOM      2  C   UNL     1       6.150  14.598  24.479  1.00  0.00     0.171 C 
BRANCH   2   3
ATOM      3  C   UNL     1       7.030  14.779  25.698  1.00  0.00     0.243 C 
ATOM      4  N   UNL     1       8.084  13.850  26.019  1.00  0.00    -0.342 N 
ATOM      5  H   UNL     1       8.100  12.912  25.574  1.00  0.00     0.164 HD
ATOM      6  O   UNL     1       6.874  15.811  26.405  1.00  0.00    -0.273 OA
BRANCH   4   7
ATOM      7  C   UNL     1       9.215  14.254  26.861  1.00  0.00     0.175 C 
BRANCH   7   8
ATOM      8  C   UNL     1      10.462  14.319  26.011  1.00  0.00     0.243 C 
ATOM      9  N   UNL     1      10.621  13.448  24.870  1.00  0.00    -0.342 N 
ATOM     10  H   UNL     1       9.919  12.694  24.749  1.00  0.00     0.164 HD
ATOM     11  O   UNL     1      11.331  15.184  26.287  1.00  0.00    -0.273 OA
BRANCH   9  12
ATOM     12  C   UNL     1      11.530  13.654  23.728  1.00  0.00     0.174 CG0
ATOM     13  G   UNL     1      11.014  14.709  22.777  1.00  0.00     0.000 G0
BRANCH  12  14
ATOM     14  C   UNL     1      13.031  13.802  24.131  1.00  0.00     0.018 C 
ATOM     15  C   UNL     1      13.932  13.455  22.930  1.00  0.00     0.010 C 
BRANCH  14  16
ATOM     16  C   UNL     1      13.441  12.986  25.382  1.00  0.00     0.002 C 
ATOM     17  C   UNL     1      14.124  13.850  26.447  1.00  0.00     0.004 C 
ENDBRANCH  14  16
ENDBRANCH  12  14
ENDBRANCH   9  12
ENDBRANCH   7   8
BRANCH   7  18
ATOM     18  C   UNL     1       9.347  13.308  28.070  1.00  0.00     0.073 C 
BRANCH  18  19
ATOM     19  C   UNL     1       8.221  13.480  29.047  1.00  0.00    -0.016 A 
ATOM     20  C   UNL     1       7.124  12.646  29.183  1.00  0.00     0.134 A 
ATOM     21  C   UNL     1       8.085  14.450  30.025  1.00  0.00     0.006 A 
ATOM     22  N   UNL     1       6.331  13.067  30.191  1.00  0.00    -0.191 N 
ATOM     23  C   UNL     1       6.920  14.180  30.714  1.00  0.00     0.087 A 
ATOM     24  C   UNL     1       8.900  15.540  30.337  1.00  0.00     0.011 A 
ATOM     25  C   UNL     1       6.508  15.015  31.765  1.00  0.00     0.030 A 
ATOM     26  C   UNL     1       8.500  16.385  31.382  1.00  0.00     0.001 A 
ATOM     27  C   UNL     1       7.309  16.124  32.089  1.00  0.00     0.002 A 
BRANCH  22  28
ATOM     28  O   UNL     1       5.167  12.394  30.543  1.00  0.00    -0.417 OA
ATOM     29  C   UNL     1       4.379  11.615  29.656  1.00  0.00     0.313 C 
ENDBRANCH  22  28
ENDBRANCH  18  19
ENDBRANCH   7  18
ENDBRANCH   4   7
ENDBRANCH   2   3
BRANCH   2  30
ATOM     30  N   UNL     1       6.969  14.411  23.270  1.00  0.00    -0.343 N 
ATOM     31  C   UNL     1       8.124  15.206  22.946  1.00  0.00     0.243 C 
ATOM     32  H   UNL     1       6.659  13.689  22.580  1.00  0.00     0.164 HD
ATOM     33  O   UNL     1       8.608  15.999  23.795  1.00  0.00    -0.273 OA
BRANCH  31  34
ATOM     34  C   UNL     1       8.812  15.040  21.607  1.00  0.00     0.174 C 
ATOM     35  N   UNL     1      10.123  14.370  21.750  1.00  0.00    -0.329 N 
ATOM     36  C   UNL     1       7.879  14.234  20.682  1.00  0.00     0.035 C 
ATOM     37  C   UNL     1      10.799  13.861  20.549  1.00  0.00     0.120 C 
ATOM     38  C   UNL     1       8.579  13.860  19.377  1.00  0.00     0.004 C 
ATOM     39  C   UNL     1       9.839  13.050  19.678  1.00  0.00     0.022 C 
BRANCH  35  40
ATOM     40  C   UNL     1      10.976  14.706  22.859  1.00  0.00     0.246 CG0
ATOM     41  O   UNL     1      11.223  15.919  23.101  1.00  0.00    -0.272 OA
ATOM     42  G   UNL     1      11.512  13.605  23.745  1.00  0.00     0.000 G0
ENDBRANCH  35  40
ENDBRANCH  31  34
ENDBRANCH   2  30
ENDBRANCH   1   2
BRANCH   1  43
ATOM     43  C   UNL     1       4.530  13.048  23.263  1.00  0.00     0.003 C 
BRANCH  43  44
ATOM     44  C   UNL     1       4.542  11.522  23.076  1.00  0.00     0.001 C 
BRANCH  44  45
ATOM     45  C   UNL     1       3.166  10.885  22.772  1.00  0.00     0.008 C 
BRANCH  45  46
ATOM     46  C   UNL     1       2.725  10.973  21.299  1.00  0.00     0.075 C 
BRANCH  46  47
ATOM     47  C   UNL     1       1.264  10.659  21.104  1.00  0.00     0.132 C 
ATOM     48  O   UNL     1       0.596  10.289  22.061  1.00  0.00    -0.300 OA
BRANCH  47  49
ATOM     49  C   UNL     1       0.612  10.825  19.754  1.00  0.00     0.072 C 
ATOM     50  C   UNL     1      -0.898  10.625  19.837  1.00  0.00     0.012 C 
ENDBRANCH  47  49
ENDBRANCH  46  47
ENDBRANCH  45  46
ENDBRANCH  44  45
ENDBRANCH  43  44
ENDBRANCH   1  43
TORSDOF 12
ENDMDL
MODEL 9
REMARK VINA RESULT:    26.712      2.395      7.413
REMARK INTER + INTRA:          60.652
REMARK INTER:                  53.704
REMARK INTRA:                   6.948
REMARK UNBOUND:                 4.270
REMARK SMILES CCC(=O)CCCCC[C@@H]1NC(=O)[C@@H]2CCCCN2C(=O)[C@@H]([C@H](C)CC)NC(=O)[C@H](Cc2cn(OC)c3ccccc23)NC1=O
REMARK SMILES IDX 9 1 10 2 44 3 43 4 45 6 30 7 28 8 27 9 29 11 22 12 23 14
REMARK SMILES IDX 24 15 25 16 26 17 31 18 32 19 33 20 42 21 34 22 37 23 41 24
REMARK SMILES IDX 38 25 40 26 39 27 35 28 36 29 11 30 12 31 13 33 14 34 19 35
REMARK SMILES IDX 15 36 18 37 16 38 17 39 20 40 21 41 8 43 7 44 6 45 5 46 3 47
REMARK SMILES IDX 4 48 2 49 1 50
REMARK H PARENT 43 5 27 10 11 32
REMARK Flexibility Score: 80.00
ROOT
ATOM      1  C   UNL     1       6.179  12.949  24.821  1.00  0.00     0.035 C 
ENDROOT
BRANCH   1   2
ATOM      2  C   UNL     1       7.051  14.209  24.611  1.00  0.00     0.171 C 
BRANCH   2   3
ATOM      3  C   UNL     1       7.946  14.544  25.785  1.00  0.00     0.243 C 
ATOM      4  N   UNL     1       8.795  13.556  26.400  1.00  0.00    -0.342 N 
ATOM      5  H   UNL     1       8.629  12.547  26.221  1.00  0.00     0.164 HD
ATOM      6  O   UNL     1       7.993  15.740  26.183  1.00  0.00    -0.273 OA
BRANCH   4   7
ATOM      7  C   UNL     1       9.981  13.953  27.166  1.00  0.00     0.175 C 
BRANCH   7   8
ATOM      8  C   UNL     1      11.216  13.670  26.343  1.00  0.00     0.243 C 
ATOM      9  N   UNL     1      11.109  13.364  24.937  1.00  0.00    -0.342 N 
ATOM     10  H   UNL     1      10.155  13.209  24.558  1.00  0.00     0.164 HD
ATOM     11  O   UNL     1      12.340  13.761  26.899  1.00  0.00    -0.273 OA
BRANCH   9  12
ATOM     12  C   UNL     1      12.178  13.478  23.928  1.00  0.00     0.174 CG0
ATOM     13  G   UNL     1      11.886  14.561  22.915  1.00  0.00     0.000 G0
BRANCH  12  14
ATOM     14  C   UNL     1      13.618  13.504  24.531  1.00  0.00     0.018 C 
ATOM     15  C   UNL     1      14.074  12.068  24.856  1.00  0.00     0.010 C 
BRANCH  14  16
ATOM     16  C   UNL     1      13.779  14.427  25.764  1.00  0.00     0.002 C 
ATOM     17  C   UNL     1      14.000  15.892  25.375  1.00  0.00     0.004 C 
ENDBRANCH  14  16
ENDBRANCH  12  14
ENDBRANCH   9  12
ENDBRANCH   7   8
BRANCH   7  18
ATOM     18  C   UNL     1       9.989  13.255  28.540  1.00  0.00     0.073 C 
BRANCH  18  19
ATOM     19  C   UNL     1       9.096  13.947  29.529  1.00  0.00    -0.016 A 
ATOM     20  C   UNL     1       9.387  15.114  30.214  1.00  0.00     0.134 A 
ATOM     21  C   UNL     1       7.809  13.598  29.900  1.00  0.00     0.006 A 
ATOM     22  N   UNL     1       8.342  15.485  30.985  1.00  0.00    -0.191 N 
ATOM     23  C   UNL     1       7.366  14.552  30.794  1.00  0.00     0.087 A 
ATOM     24  C   UNL     1       7.020  12.512  29.518  1.00  0.00     0.011 A 
ATOM     25  C   UNL     1       6.085  14.451  31.362  1.00  0.00     0.030 A 
ATOM     26  C   UNL     1       5.740  12.396  30.079  1.00  0.00     0.001 A 
ATOM     27  C   UNL     1       5.278  13.359  30.998  1.00  0.00     0.002 A 
BRANCH  22  28
ATOM     28  O   UNL     1       8.373  16.633  31.766  1.00  0.00    -0.417 OA
ATOM     29  C   UNL     1       7.282  17.129  32.527  1.00  0.00     0.313 C 
ENDBRANCH  22  28
ENDBRANCH  18  19
ENDBRANCH   7  18
ENDBRANCH   4   7
ENDBRANCH   2   3
BRANCH   2  30
ATOM     30  N   UNL     1       7.834  14.132  23.366  1.00  0.00    -0.343 N 
ATOM     31  C   UNL     1       8.992  14.940  23.090  1.00  0.00     0.243 C 
ATOM     32  H   UNL     1       7.495  13.486  22.617  1.00  0.00     0.164 HD
ATOM     33  O   UNL     1       9.511  15.639  23.999  1.00  0.00    -0.273 OA
BRANCH  31  34
ATOM     34  C   UNL     1       9.641  14.899  21.722  1.00  0.00     0.174 C 
ATOM     35  N   UNL     1      10.978  14.267  21.775  1.00  0.00    -0.329 N 
ATOM     36  C   UNL     1       8.706  14.132  20.767  1.00  0.00     0.035 C 
ATOM     37  C   UNL     1      11.630  13.873  20.519  1.00  0.00     0.120 C 
ATOM     38  C   UNL     1       9.375  13.882  19.417  1.00  0.00     0.004 C 
ATOM     39  C   UNL     1      10.670  13.097  19.618  1.00  0.00     0.022 C 
BRANCH  35  40
ATOM     40  C   UNL     1      11.855  14.549  22.880  1.00  0.00     0.246 CG0
ATOM     41  O   UNL     1      12.342  15.706  22.999  1.00  0.00    -0.272 OA
ATOM     42  G   UNL     1      12.129  13.472  23.905  1.00  0.00     0.000 G0
ENDBRANCH  35  40
ENDBRANCH  31  34
ENDBRANCH   2  30
ENDBRANCH   1   2
BRANCH   1  43
ATOM     43  C   UNL     1       4.714  13.320  25.113  1.00  0.00     0.003 C 
BRANCH  43  44
ATOM     44  C   UNL     1       4.440  14.828  24.977  1.00  0.00     0.001 C 
BRANCH  44  45
ATOM     45  C   UNL     1       5.095  15.717  26.058  1.00  0.00     0.008 C 
BRANCH  45  46
ATOM     46  C   UNL     1       4.984  17.231  25.804  1.00  0.00     0.075 C 
BRANCH  46  47
ATOM     47  C   UNL     1       4.776  17.569  24.350  1.00  0.00     0.132 C 
ATOM     48  O   UNL     1       5.132  18.663  23.930  1.00  0.00    -0.300 OA
BRANCH  47  49
ATOM     49  C   UNL     1       4.165  16.566  23.403  1.00  0.00     0.072 C 
ATOM     50  C   UNL     1       3.692  17.234  22.115  1.00  0.00     0.012 C 
ENDBRANCH  47  49
ENDBRANCH  46  47
ENDBRANCH  45  46
ENDBRANCH  44  45
ENDBRANCH  43  44
ENDBRANCH   1  43
TORSDOF 12
ENDMDL
