MODEL 1
REMARK VINA RESULT:     0.311      0.000      0.000
REMARK INTER + INTRA:           2.345
REMARK INTER:                   0.438
REMARK INTRA:                   1.907
REMARK UNBOUND:                 1.907
REMARK SMILES CC1=CCCC(C)=CCC(C)(C)C=CC1
REMARK SMILES IDX 2 1 3 2 1 3 4 4 5 5 6 6 7 7 8 8 15 10 14 11 13 12 10 13
REMARK SMILES IDX 11 14 12 15 9 16
REMARK H PARENT
REMARK Flexibility Score: 60.00
ROOT
ATOM      1  C   UNL     1       3.446  10.339  11.270  1.00  0.00    -0.074 C 
ATOM      2  C   UNL     1       4.383   9.436  10.881  1.00  0.00    -0.027 C 
ATOM      3  C   UNL     1       3.673  11.780  10.885  1.00  0.00     0.039 C 
ENDROOT
BRANCH   2   4
ATOM      4  C   UNL     1       4.373   7.940  11.122  1.00  0.00     0.032 C 
BRANCH   4   5
ATOM      5  C   UNL     1       5.811   7.396  11.285  1.00  0.00     0.034 C 
BRANCH   5   6
ATOM      6  C   UNL     1       6.067   6.848  12.680  1.00  0.00    -0.077 C 
ATOM      7  C   UNL     1       6.771   5.524  12.831  1.00  0.00     0.039 C 
ATOM      8  C   UNL     1       5.662   7.488  13.802  1.00  0.00    -0.027 CG0
ATOM      9  G   UNL     1       4.939   8.820  13.818  1.00  0.00     0.000 G0
ENDBRANCH   5   6
ENDBRANCH   4   5
ENDBRANCH   2   4
BRANCH   1  10
ATOM     10  C   UNL     1       2.231  10.016  12.127  1.00  0.00     0.057 C 
BRANCH  10  11
ATOM     11  C   UNL     1       2.307  10.648  13.501  1.00  0.00    -0.026 C 
ATOM     12  C   UNL     1       2.927  10.174  14.609  1.00  0.00    -0.024 C 
BRANCH  12  13
ATOM     13  C   UNL     1       3.682   8.851  14.792  1.00  0.00    -0.014 C 
ATOM     14  C   UNL     1       2.739   7.709  14.342  1.00  0.00     0.016 C 
ATOM     15  C   UNL     1       4.013   8.608  16.291  1.00  0.00     0.016 C 
BRANCH  13  16
ATOM     16  C   UNL     1       4.938   8.836  13.865  1.00  0.00     0.038 CG0
ATOM     17  G   UNL     1       5.640   7.496  13.796  1.00  0.00     0.000 G0
ENDBRANCH  13  16
ENDBRANCH  12  13
ENDBRANCH  10  11
ENDBRANCH   1  10
TORSDOF 0
ENDMDL
MODEL 2
REMARK VINA RESULT:     0.329      1.667      3.593
REMARK INTER + INTRA:           2.370
REMARK INTER:                  -1.301
REMARK INTRA:                   3.671
REMARK UNBOUND:                 1.907
REMARK SMILES CC1=CCCC(C)=CCC(C)(C)C=CC1
REMARK SMILES IDX 2 1 3 2 1 3 4 4 5 5 6 6 7 7 8 8 15 10 14 11 13 12 10 13
REMARK SMILES IDX 11 14 12 15 9 16
REMARK H PARENT
REMARK Flexibility Score: 60.00
ROOT
ATOM      1  C   UNL     1       4.960   5.553  12.451  1.00  0.00    -0.074 C 
ATOM      2  C   UNL     1       5.648   4.896  13.421  1.00  0.00    -0.027 C 
ATOM      3  C   UNL     1       3.634   4.970  12.029  1.00  0.00     0.039 C 
ENDROOT
BRANCH   2   4
ATOM      4  C   UNL     1       6.979   5.288  14.030  1.00  0.00     0.032 C 
BRANCH   4   5
ATOM      5  C   UNL     1       7.630   6.446  13.238  1.00  0.00     0.034 C 
BRANCH   5   6
ATOM      6  C   UNL     1       7.695   7.734  14.044  1.00  0.00    -0.077 C 
ATOM      7  C   UNL     1       9.042   8.314  14.391  1.00  0.00     0.039 C 
ATOM      8  C   UNL     1       6.589   8.371  14.493  1.00  0.00    -0.027 CG0
ATOM      9  G   UNL     1       5.169   7.912  14.235  1.00  0.00     0.000 G0
ENDBRANCH   5   6
ENDBRANCH   4   5
ENDBRANCH   2   4
BRANCH   1  10
ATOM     10  C   UNL     1       5.463   6.784  11.712  1.00  0.00     0.057 C 
BRANCH  10  11
ATOM     11  C   UNL     1       4.357   7.777  11.421  1.00  0.00    -0.026 C 
ATOM     12  C   UNL     1       3.837   8.718  12.246  1.00  0.00    -0.024 C 
BRANCH  12  13
ATOM     13  C   UNL     1       4.191   9.010  13.711  1.00  0.00    -0.014 C 
ATOM     14  C   UNL     1       2.881   8.930  14.533  1.00  0.00     0.016 C 
ATOM     15  C   UNL     1       4.743  10.454  13.868  1.00  0.00     0.016 C 
BRANCH  13  16
ATOM     16  C   UNL     1       5.163   7.909  14.240  1.00  0.00     0.038 CG0
ATOM     17  G   UNL     1       6.572   8.401  14.498  1.00  0.00     0.000 G0
ENDBRANCH  13  16
ENDBRANCH  12  13
ENDBRANCH  10  11
ENDBRANCH   1  10
TORSDOF 0
ENDMDL
MODEL 3
REMARK VINA RESULT:     0.549      1.893      3.765
REMARK INTER + INTRA:           2.680
REMARK INTER:                   1.242
REMARK INTRA:                   1.439
REMARK UNBOUND:                 1.907
REMARK SMILES CC1=CCCC(C)=CCC(C)(C)C=CC1
REMARK SMILES IDX 2 1 3 2 1 3 4 4 5 5 6 6 7 7 8 8 15 10 14 11 13 12 10 13
REMARK SMILES IDX 11 14 12 15 9 16
REMARK H PARENT
REMARK Flexibility Score: 60.00
ROOT
ATOM      1  C   UNL     1       7.857   7.867  14.092  1.00  0.00    -0.074 C 
ATOM      2  C   UNL     1       7.770   6.523  13.911  1.00  0.00    -0.027 C 
ATOM      3  C   UNL     1       9.169   8.412  14.603  1.00  0.00     0.039 C 
ENDROOT
BRANCH   2   4
ATOM      4  C   UNL     1       6.582   5.742  13.391  1.00  0.00     0.032 C 
BRANCH   4   5
ATOM      5  C   UNL     1       5.939   6.454  12.178  1.00  0.00     0.034 C 
BRANCH   5   6
ATOM      6  C   UNL     1       4.429   6.285  12.141  1.00  0.00    -0.077 C 
ATOM      7  C   UNL     1       3.847   4.896  12.084  1.00  0.00     0.039 C 
ATOM      8  C   UNL     1       3.576   7.337  12.125  1.00  0.00    -0.027 CG0
ATOM      9  G   UNL     1       4.004   8.789  12.171  1.00  0.00     0.000 G0
ENDBRANCH   5   6
ENDBRANCH   4   5
ENDBRANCH   2   4
BRANCH   1  10
ATOM     10  C   UNL     1       6.711   8.847  13.891  1.00  0.00     0.057 C 
BRANCH  10  11
ATOM     11  C   UNL     1       5.570   8.609  14.857  1.00  0.00    -0.026 C 
ATOM     12  C   UNL     1       4.254   8.880  14.684  1.00  0.00    -0.024 C 
BRANCH  12  13
ATOM     13  C   UNL     1       3.562   9.541  13.483  1.00  0.00    -0.014 C 
ATOM     14  C   UNL     1       4.064  11.003  13.401  1.00  0.00     0.016 C 
ATOM     15  C   UNL     1       2.023   9.596  13.695  1.00  0.00     0.016 C 
BRANCH  13  16
ATOM     16  C   UNL     1       3.985   8.809  12.171  1.00  0.00     0.038 CG0
ATOM     17  G   UNL     1       3.596   7.346  12.127  1.00  0.00     0.000 G0
ENDBRANCH  13  16
ENDBRANCH  12  13
ENDBRANCH  10  11
ENDBRANCH   1  10
TORSDOF 0
ENDMDL
MODEL 4
REMARK VINA RESULT:     0.849      1.295      3.809
REMARK INTER + INTRA:           3.103
REMARK INTER:                   0.012
REMARK INTRA:                   3.091
REMARK UNBOUND:                 1.907
REMARK SMILES CC1=CCCC(C)=CCC(C)(C)C=CC1
REMARK SMILES IDX 2 1 3 2 1 3 4 4 5 5 6 6 7 7 8 8 15 10 14 11 13 12 10 13
REMARK SMILES IDX 11 14 12 15 9 16
REMARK H PARENT
REMARK Flexibility Score: 60.00
ROOT
ATOM      1  C   UNL     1       3.767   9.392  12.063  1.00  0.00    -0.074 C 
ATOM      2  C   UNL     1       3.307   9.845  13.259  1.00  0.00    -0.027 C 
ATOM      3  C   UNL     1       3.635  10.317  10.877  1.00  0.00     0.039 C 
ENDROOT
BRANCH   2   4
ATOM      4  C   UNL     1       3.345   9.124  14.590  1.00  0.00     0.032 C 
BRANCH   4   5
ATOM      5  C   UNL     1       4.381   7.976  14.568  1.00  0.00     0.034 C 
BRANCH   5   6
ATOM      6  C   UNL     1       5.809   8.483  14.693  1.00  0.00    -0.077 C 
ATOM      7  C   UNL     1       6.047   9.941  14.993  1.00  0.00     0.039 C 
ATOM      8  C   UNL     1       6.887   7.682  14.516  1.00  0.00    -0.027 CG0
ATOM      9  G   UNL     1       6.814   6.202  14.204  1.00  0.00     0.000 G0
ENDBRANCH   5   6
ENDBRANCH   4   5
ENDBRANCH   2   4
BRANCH   1  10
ATOM     10  C   UNL     1       4.330   8.001  11.820  1.00  0.00     0.057 C 
BRANCH  10  11
ATOM     11  C   UNL     1       5.806   8.024  11.485  1.00  0.00    -0.026 C 
ATOM     12  C   UNL     1       6.758   7.122  11.827  1.00  0.00    -0.024 C 
BRANCH  12  13
ATOM     13  C   UNL     1       6.614   5.855  12.681  1.00  0.00    -0.014 C 
ATOM     14  C   UNL     1       7.735   4.875  12.256  1.00  0.00     0.016 C 
ATOM     15  C   UNL     1       5.258   5.149  12.398  1.00  0.00     0.016 C 
BRANCH  13  16
ATOM     16  C   UNL     1       6.829   6.214  14.185  1.00  0.00     0.038 CG0
ATOM     17  G   UNL     1       6.886   7.702  14.462  1.00  0.00     0.000 G0
ENDBRANCH  13  16
ENDBRANCH  12  13
ENDBRANCH  10  11
ENDBRANCH   1  10
TORSDOF 0
ENDMDL
MODEL 5
REMARK VINA RESULT:     0.925      1.195      4.319
REMARK INTER + INTRA:           3.211
REMARK INTER:                   0.852
REMARK INTRA:                   2.359
REMARK UNBOUND:                 1.907
REMARK SMILES CC1=CCCC(C)=CCC(C)(C)C=CC1
REMARK SMILES IDX 2 1 3 2 1 3 4 4 5 5 6 6 7 7 8 8 15 10 14 11 13 12 10 13
REMARK SMILES IDX 11 14 12 15 9 16
REMARK H PARENT
REMARK Flexibility Score: 60.00
ROOT
ATOM      1  C   UNL     1       3.489   9.015  15.385  1.00  0.00    -0.074 C 
ATOM      2  C   UNL     1       2.790  10.043  14.835  1.00  0.00    -0.027 C 
ATOM      3  C   UNL     1       3.663   9.021  16.884  1.00  0.00     0.039 C 
ENDROOT
BRANCH   2   4
ATOM      4  C   UNL     1       2.461  10.250  13.372  1.00  0.00     0.032 C 
BRANCH   4   5
ATOM      5  C   UNL     1       2.802   8.989  12.544  1.00  0.00     0.034 C 
BRANCH   5   6
ATOM      6  C   UNL     1       3.948   9.227  11.573  1.00  0.00    -0.077 C 
ATOM      7  C   UNL     1       4.056  10.558  10.876  1.00  0.00     0.039 C 
ATOM      8  C   UNL     1       4.868   8.276  11.282  1.00  0.00    -0.027 CG0
ATOM      9  G   UNL     1       4.893   6.891  11.893  1.00  0.00     0.000 G0
ENDBRANCH   5   6
ENDBRANCH   4   5
ENDBRANCH   2   4
BRANCH   1  10
ATOM     10  C   UNL     1       4.171   7.908  14.595  1.00  0.00     0.057 C 
BRANCH  10  11
ATOM     11  C   UNL     1       5.678   8.050  14.582  1.00  0.00    -0.026 C 
ATOM     12  C   UNL     1       6.565   7.490  13.724  1.00  0.00    -0.024 C 
BRANCH  12  13
ATOM     13  C   UNL     1       6.295   6.525  12.561  1.00  0.00    -0.014 C 
ATOM     14  C   UNL     1       6.189   5.099  13.152  1.00  0.00     0.016 C 
ATOM     15  C   UNL     1       7.486   6.519  11.561  1.00  0.00     0.016 C 
BRANCH  13  16
ATOM     16  C   UNL     1       4.927   6.879  11.899  1.00  0.00     0.038 CG0
ATOM     17  G   UNL     1       4.871   8.269  11.300  1.00  0.00     0.000 G0
ENDBRANCH  13  16
ENDBRANCH  12  13
ENDBRANCH  10  11
ENDBRANCH   1  10
TORSDOF 0
ENDMDL
MODEL 6
REMARK VINA RESULT:     1.647      1.017      3.417
REMARK INTER + INTRA:           4.228
REMARK INTER:                   2.916
REMARK INTRA:                   1.312
REMARK UNBOUND:                 1.907
REMARK SMILES CC1=CCCC(C)=CCC(C)(C)C=CC1
REMARK SMILES IDX 2 1 3 2 1 3 4 4 5 5 6 6 7 7 8 8 15 10 14 11 13 12 10 13
REMARK SMILES IDX 11 14 12 15 9 16
REMARK H PARENT
REMARK Flexibility Score: 60.00
ROOT
ATOM      1  C   UNL     1       2.628  10.781  11.945  1.00  0.00    -0.074 C 
ATOM      2  C   UNL     1       1.750  10.337  12.884  1.00  0.00    -0.027 C 
ATOM      3  C   UNL     1       2.089  11.698  10.875  1.00  0.00     0.039 C 
ENDROOT
BRANCH   2   4
ATOM      4  C   UNL     1       2.047   9.435  14.064  1.00  0.00     0.032 C 
BRANCH   4   5
ATOM      5  C   UNL     1       3.174  10.024  14.942  1.00  0.00     0.034 C 
BRANCH   5   6
ATOM      6  C   UNL     1       4.006   8.945  15.618  1.00  0.00    -0.077 C 
ATOM      7  C   UNL     1       3.701   8.569  17.045  1.00  0.00     0.039 C 
ATOM      8  C   UNL     1       5.036   8.322  14.998  1.00  0.00    -0.027 CG0
ATOM      9  G   UNL     1       5.470   8.592  13.572  1.00  0.00     0.000 G0
ENDBRANCH   5   6
ENDBRANCH   4   5
ENDBRANCH   2   4
BRANCH   1  10
ATOM     10  C   UNL     1       4.086  10.360  11.853  1.00  0.00     0.057 C 
BRANCH  10  11
ATOM     11  C   UNL     1       4.292   9.187  10.918  1.00  0.00    -0.026 C 
ATOM     12  C   UNL     1       4.730   7.940  11.221  1.00  0.00    -0.024 C 
BRANCH  12  13
ATOM     13  C   UNL     1       5.178   7.386  12.580  1.00  0.00    -0.014 C 
ATOM     14  C   UNL     1       6.507   6.624  12.358  1.00  0.00     0.016 C 
ATOM     15  C   UNL     1       4.146   6.359  13.124  1.00  0.00     0.016 C 
BRANCH  13  16
ATOM     16  C   UNL     1       5.455   8.570  13.559  1.00  0.00     0.038 CG0
ATOM     17  G   UNL     1       5.025   8.305  14.987  1.00  0.00     0.000 G0
ENDBRANCH  13  16
ENDBRANCH  12  13
ENDBRANCH  10  11
ENDBRANCH   1  10
TORSDOF 0
ENDMDL
MODEL 7
REMARK VINA RESULT:     1.828      1.394      4.141
REMARK INTER + INTRA:           4.483
REMARK INTER:                   0.912
REMARK INTRA:                   3.571
REMARK UNBOUND:                 1.907
REMARK SMILES CC1=CCCC(C)=CCC(C)(C)C=CC1
REMARK SMILES IDX 2 1 3 2 1 3 4 4 5 5 6 6 7 7 8 8 15 10 14 11 13 12 10 13
REMARK SMILES IDX 11 14 12 15 9 16
REMARK H PARENT
REMARK Flexibility Score: 60.00
ROOT
ATOM      1  C   UNL     1       5.335   6.217  13.048  1.00  0.00    -0.074 C 
ATOM      2  C   UNL     1       6.440   6.392  13.819  1.00  0.00    -0.027 C 
ATOM      3  C   UNL     1       5.176   4.884  12.360  1.00  0.00     0.039 C 
ENDROOT
BRANCH   2   4
ATOM      4  C   UNL     1       6.813   7.619  14.625  1.00  0.00     0.032 C 
BRANCH   4   5
ATOM      5  C   UNL     1       6.067   8.870  14.105  1.00  0.00     0.034 C 
BRANCH   5   6
ATOM      6  C   UNL     1       4.760   9.112  14.843  1.00  0.00    -0.077 C 
ATOM      7  C   UNL     1       4.500   8.381  16.134  1.00  0.00     0.039 C 
ATOM      8  C   UNL     1       3.798   9.941  14.371  1.00  0.00    -0.027 CG0
ATOM      9  G   UNL     1       3.906  10.740  13.089  1.00  0.00     0.000 G0
ENDBRANCH   5   6
ENDBRANCH   4   5
ENDBRANCH   2   4
BRANCH   1  10
ATOM     10  C   UNL     1       4.292   7.289  12.770  1.00  0.00     0.057 C 
BRANCH  10  11
ATOM     11  C   UNL     1       4.536   8.008  11.460  1.00  0.00    -0.026 C 
ATOM     12  C   UNL     1       4.085   9.227  11.075  1.00  0.00    -0.024 C 
BRANCH  12  13
ATOM     13  C   UNL     1       3.169  10.194  11.838  1.00  0.00    -0.014 C 
ATOM     14  C   UNL     1       1.952   9.382  12.346  1.00  0.00     0.016 C 
ATOM     15  C   UNL     1       2.620  11.298  10.891  1.00  0.00     0.016 C 
BRANCH  13  16
ATOM     16  C   UNL     1       3.927  10.758  13.080  1.00  0.00     0.038 CG0
ATOM     17  G   UNL     1       3.786   9.911  14.328  1.00  0.00     0.000 G0
ENDBRANCH  13  16
ENDBRANCH  12  13
ENDBRANCH  10  11
ENDBRANCH   1  10
TORSDOF 0
ENDMDL
MODEL 8
REMARK VINA RESULT:     2.044      1.406      3.657
REMARK INTER + INTRA:           4.787
REMARK INTER:                   1.965
REMARK INTRA:                   2.821
REMARK UNBOUND:                 1.907
REMARK SMILES CC1=CCCC(C)=CCC(C)(C)C=CC1
REMARK SMILES IDX 2 1 3 2 1 3 4 4 5 5 6 6 7 7 8 8 15 10 14 11 13 12 10 13
REMARK SMILES IDX 11 14 12 15 9 16
REMARK H PARENT
REMARK Flexibility Score: 60.00
ROOT
ATOM      1  C   UNL     1       5.428   8.361  14.656  1.00  0.00    -0.074 C 
ATOM      2  C   UNL     1       6.094   7.241  14.271  1.00  0.00    -0.027 C 
ATOM      3  C   UNL     1       4.560   8.259  15.887  1.00  0.00     0.039 C 
ENDROOT
BRANCH   2   4
ATOM      4  C   UNL     1       7.037   7.092  13.095  1.00  0.00     0.032 C 
BRANCH   4   5
ATOM      5  C   UNL     1       6.253   6.972  11.768  1.00  0.00     0.034 C 
BRANCH   5   6
ATOM      6  C   UNL     1       4.750   6.909  11.988  1.00  0.00    -0.077 C 
ATOM      7  C   UNL     1       4.130   5.616  12.454  1.00  0.00     0.039 C 
ATOM      8  C   UNL     1       3.932   7.962  11.753  1.00  0.00    -0.027 CG0
ATOM      9  G   UNL     1       4.399   9.322  11.277  1.00  0.00     0.000 G0
ENDBRANCH   5   6
ENDBRANCH   4   5
ENDBRANCH   2   4
BRANCH   1  10
ATOM     10  C   UNL     1       5.433   9.678  13.897  1.00  0.00     0.057 C 
BRANCH  10  11
ATOM     11  C   UNL     1       4.119  10.422  14.017  1.00  0.00    -0.026 C 
ATOM     12  C   UNL     1       3.249  10.751  13.032  1.00  0.00    -0.024 C 
BRANCH  12  13
ATOM     13  C   UNL     1       3.372  10.503  11.522  1.00  0.00    -0.014 C 
ATOM     14  C   UNL     1       3.937  11.795  10.882  1.00  0.00     0.016 C 
ATOM     15  C   UNL     1       1.975  10.252  10.889  1.00  0.00     0.016 C 
BRANCH  13  16
ATOM     16  C   UNL     1       4.391   9.349  11.266  1.00  0.00     0.038 CG0
ATOM     17  G   UNL     1       3.911   7.988  11.725  1.00  0.00     0.000 G0
ENDBRANCH  13  16
ENDBRANCH  12  13
ENDBRANCH  10  11
ENDBRANCH   1  10
TORSDOF 0
ENDMDL
MODEL 9
REMARK VINA RESULT:     2.181      1.943      4.024
REMARK INTER + INTRA:           4.981
REMARK INTER:                   2.164
REMARK INTRA:                   2.817
REMARK UNBOUND:                 1.907
REMARK SMILES CC1=CCCC(C)=CCC(C)(C)C=CC1
REMARK SMILES IDX 2 1 3 2 1 3 4 4 5 5 6 6 7 7 8 8 15 10 14 11 13 12 10 13
REMARK SMILES IDX 11 14 12 15 9 16
REMARK H PARENT
REMARK Flexibility Score: 60.00
ROOT
ATOM      1  C   UNL     1       3.795   9.139  13.922  1.00  0.00    -0.074 C 
ATOM      2  C   UNL     1       4.536   8.952  15.047  1.00  0.00    -0.027 C 
ATOM      3  C   UNL     1       2.567  10.008  14.041  1.00  0.00     0.039 C 
ENDROOT
BRANCH   2   4
ATOM      4  C   UNL     1       5.813   8.149  15.181  1.00  0.00     0.032 C 
BRANCH   4   5
ATOM      5  C   UNL     1       7.055   9.048  14.983  1.00  0.00     0.034 C 
BRANCH   5   6
ATOM      6  C   UNL     1       8.242   8.281  14.424  1.00  0.00    -0.077 C 
ATOM      7  C   UNL     1       9.589   8.954  14.362  1.00  0.00     0.039 C 
ATOM      8  C   UNL     1       8.137   7.017  13.948  1.00  0.00    -0.027 CG0
ATOM      9  G   UNL     1       6.856   6.209  13.936  1.00  0.00     0.000 G0
ENDBRANCH   5   6
ENDBRANCH   4   5
ENDBRANCH   2   4
BRANCH   1  10
ATOM     10  C   UNL     1       4.072   8.479  12.581  1.00  0.00     0.057 C 
BRANCH  10  11
ATOM     11  C   UNL     1       3.819   6.986  12.607  1.00  0.00    -0.026 C 
ATOM     12  C   UNL     1       4.728   5.981  12.583  1.00  0.00    -0.024 C 
BRANCH  12  13
ATOM     13  C   UNL     1       6.257   6.075  12.479  1.00  0.00    -0.014 C 
ATOM     14  C   UNL     1       6.593   7.360  11.684  1.00  0.00     0.016 C 
ATOM     15  C   UNL     1       6.829   4.875  11.672  1.00  0.00     0.016 C 
BRANCH  13  16
ATOM     16  C   UNL     1       6.869   6.214  13.908  1.00  0.00     0.038 CG0
ATOM     17  G   UNL     1       8.143   7.031  13.957  1.00  0.00     0.000 G0
ENDBRANCH  13  16
ENDBRANCH  12  13
ENDBRANCH  10  11
ENDBRANCH   1  10
TORSDOF 0
ENDMDL
