MODEL 1
REMARK VINA RESULT:    -1.073      0.000      0.000
REMARK INTER + INTRA:          -1.308
REMARK INTER:                  -1.261
REMARK INTRA:                  -0.047
REMARK UNBOUND:                -0.047
REMARK SMILES CCCCC(=O)[O-]
REMARK SMILES IDX 4 1 5 2 6 3 7 4 3 5 2 6 1 7
REMARK H PARENT
REMARK Flexibility Score: inf
ROOT
ATOM      1  C   UNL     1      38.525   3.075  40.874  1.00  0.00     0.053 C 
ENDROOT
BRANCH   1   2
ATOM      2  C   UNL     1      39.248   1.857  41.359  1.00  0.00     0.041 C 
ATOM      3  O   UNL     1      40.487   1.739  41.169  1.00  0.00    -0.550 OA
ATOM      4  O   UNL     1      38.562   0.877  42.063  1.00  0.00    -0.550 OA
ENDBRANCH   1   2
BRANCH   1   5
ATOM      5  C   UNL     1      37.726   3.714  42.014  1.00  0.00     0.006 C 
BRANCH   5   6
ATOM      6  C   UNL     1      36.219   3.541  41.793  1.00  0.00    -0.003 C 
ATOM      7  C   UNL     1      35.468   4.838  42.081  1.00  0.00     0.004 C 
ENDBRANCH   5   6
ENDBRANCH   1   5
TORSDOF 3
ENDMDL
MODEL 2
REMARK VINA RESULT:    -0.988      1.299      1.759
REMARK INTER + INTRA:          -1.208
REMARK INTER:                  -1.159
REMARK INTRA:                  -0.048
REMARK UNBOUND:                -0.047
REMARK SMILES CCCCC(=O)[O-]
REMARK SMILES IDX 4 1 5 2 6 3 7 4 3 5 2 6 1 7
REMARK H PARENT
REMARK Flexibility Score: inf
ROOT
ATOM      1  C   UNL     1      38.177   2.568  41.827  1.00  0.00     0.053 C 
ENDROOT
BRANCH   1   2
ATOM      2  C   UNL     1      39.249   2.423  40.793  1.00  0.00     0.041 C 
ATOM      3  O   UNL     1      39.178   3.065  39.713  1.00  0.00    -0.550 OA
ATOM      4  O   UNL     1      40.351   1.615  41.043  1.00  0.00    -0.550 OA
ENDBRANCH   1   2
BRANCH   1   5
ATOM      5  C   UNL     1      37.166   3.637  41.405  1.00  0.00     0.006 C 
BRANCH   5   6
ATOM      6  C   UNL     1      35.815   3.420  42.096  1.00  0.00    -0.003 C 
ATOM      7  C   UNL     1      35.440   1.941  42.122  1.00  0.00     0.004 C 
ENDBRANCH   5   6
ENDBRANCH   1   5
TORSDOF 3
ENDMDL
MODEL 3
REMARK VINA RESULT:    -0.915      2.120      2.841
REMARK INTER + INTRA:          -1.122
REMARK INTER:                  -1.052
REMARK INTRA:                  -0.070
REMARK UNBOUND:                -0.047
REMARK SMILES CCCCC(=O)[O-]
REMARK SMILES IDX 4 1 5 2 6 3 7 4 3 5 2 6 1 7
REMARK H PARENT
REMARK Flexibility Score: inf
ROOT
ATOM      1  C   UNL     1      39.716   1.643  40.196  1.00  0.00     0.053 C 
ENDROOT
BRANCH   1   2
ATOM      2  C   UNL     1      41.140   2.104  40.186  1.00  0.00     0.041 C 
ATOM      3  O   UNL     1      41.610   2.685  39.173  1.00  0.00    -0.550 OA
ATOM      4  O   UNL     1      41.933   1.935  41.313  1.00  0.00    -0.550 OA
ENDBRANCH   1   2
BRANCH   1   5
ATOM      5  C   UNL     1      39.389   0.941  41.517  1.00  0.00     0.006 C 
BRANCH   5   6
ATOM      6  C   UNL     1      38.091   1.486  42.123  1.00  0.00    -0.003 C 
ATOM      7  C   UNL     1      38.002   3.001  41.965  1.00  0.00     0.004 C 
ENDBRANCH   5   6
ENDBRANCH   1   5
TORSDOF 3
ENDMDL
MODEL 4
REMARK VINA RESULT:    -0.907      2.193      2.376
REMARK INTER + INTRA:          -1.112
REMARK INTER:                  -1.006
REMARK INTRA:                  -0.106
REMARK UNBOUND:                -0.047
REMARK SMILES CCCCC(=O)[O-]
REMARK SMILES IDX 4 1 5 2 6 3 7 4 3 5 2 6 1 7
REMARK H PARENT
REMARK Flexibility Score: inf
ROOT
ATOM      1  C   UNL     1      38.990   2.411  40.937  1.00  0.00     0.053 C 
ENDROOT
BRANCH   1   2
ATOM      2  C   UNL     1      39.106   3.903  40.945  1.00  0.00     0.041 C 
ATOM      3  O   UNL     1      39.604   4.505  39.958  1.00  0.00    -0.550 OA
ATOM      4  O   UNL     1      38.621   4.632  42.023  1.00  0.00    -0.550 OA
ENDBRANCH   1   2
BRANCH   1   5
ATOM      5  C   UNL     1      37.953   1.948  41.965  1.00  0.00     0.006 C 
BRANCH   5   6
ATOM      6  C   UNL     1      36.552   1.894  41.346  1.00  0.00    -0.003 C 
ATOM      7  C   UNL     1      35.573   2.774  42.118  1.00  0.00     0.004 C 
ENDBRANCH   5   6
ENDBRANCH   1   5
TORSDOF 3
ENDMDL
MODEL 5
REMARK VINA RESULT:    -0.896      3.605      4.894
REMARK INTER + INTRA:          -1.100
REMARK INTER:                  -1.052
REMARK INTRA:                  -0.048
REMARK UNBOUND:                -0.047
REMARK SMILES CCCCC(=O)[O-]
REMARK SMILES IDX 4 1 5 2 6 3 7 4 3 5 2 6 1 7
REMARK H PARENT
REMARK Flexibility Score: inf
ROOT
ATOM      1  C   UNL     1      35.180   3.853  41.124  1.00  0.00     0.053 C 
ENDROOT
BRANCH   1   2
ATOM      2  C   UNL     1      34.501   5.021  41.766  1.00  0.00     0.041 C 
ATOM      3  O   UNL     1      33.274   4.967  42.043  1.00  0.00    -0.550 OA
ATOM      4  O   UNL     1      35.234   6.152  42.104  1.00  0.00    -0.550 OA
ENDBRANCH   1   2
BRANCH   1   5
ATOM      5  C   UNL     1      36.113   3.159  42.121  1.00  0.00     0.006 C 
BRANCH   5   6
ATOM      6  C   UNL     1      37.580   3.334  41.714  1.00  0.00    -0.003 C 
ATOM      7  C   UNL     1      38.214   1.996  41.345  1.00  0.00     0.004 C 
ENDBRANCH   5   6
ENDBRANCH   1   5
TORSDOF 3
ENDMDL
MODEL 6
REMARK VINA RESULT:    -0.895      1.833      2.545
REMARK INTER + INTRA:          -1.098
REMARK INTER:                  -1.057
REMARK INTRA:                  -0.041
REMARK UNBOUND:                -0.047
REMARK SMILES CCCCC(=O)[O-]
REMARK SMILES IDX 4 1 5 2 6 3 7 4 3 5 2 6 1 7
REMARK H PARENT
REMARK Flexibility Score: inf
ROOT
ATOM      1  C   UNL     1      37.296   3.981  42.123  1.00  0.00     0.053 C 
ENDROOT
BRANCH   1   2
ATOM      2  C   UNL     1      37.029   2.516  41.980  1.00  0.00     0.041 C 
ATOM      3  O   UNL     1      37.986   1.705  41.870  1.00  0.00    -0.550 OA
ATOM      4  O   UNL     1      35.725   2.040  42.017  1.00  0.00    -0.550 OA
ENDBRANCH   1   2
BRANCH   1   5
ATOM      5  C   UNL     1      35.982   4.768  42.124  1.00  0.00     0.006 C 
BRANCH   5   6
ATOM      6  C   UNL     1      36.221   6.237  41.754  1.00  0.00    -0.003 C 
ATOM      7  C   UNL     1      37.711   6.561  41.715  1.00  0.00     0.004 C 
ENDBRANCH   5   6
ENDBRANCH   1   5
TORSDOF 3
ENDMDL
MODEL 7
REMARK VINA RESULT:    -0.877      1.711      2.748
REMARK INTER + INTRA:          -1.078
REMARK INTER:                  -0.992
REMARK INTRA:                  -0.086
REMARK UNBOUND:                -0.047
REMARK SMILES CCCCC(=O)[O-]
REMARK SMILES IDX 4 1 5 2 6 3 7 4 3 5 2 6 1 7
REMARK H PARENT
REMARK Flexibility Score: inf
ROOT
ATOM      1  C   UNL     1      36.792   3.356  41.405  1.00  0.00     0.053 C 
ENDROOT
BRANCH   1   2
ATOM      2  C   UNL     1      36.967   1.921  41.794  1.00  0.00     0.041 C 
ATOM      3  O   UNL     1      35.982   1.137  41.784  1.00  0.00    -0.550 OA
ATOM      4  O   UNL     1      38.227   1.439  42.121  1.00  0.00    -0.550 OA
ENDBRANCH   1   2
BRANCH   1   5
ATOM      5  C   UNL     1      37.818   4.236  42.124  1.00  0.00     0.006 C 
BRANCH   5   6
ATOM      6  C   UNL     1      38.732   4.948  41.120  1.00  0.00    -0.003 C 
ATOM      7  C   UNL     1      38.271   4.705  39.686  1.00  0.00     0.004 C 
ENDBRANCH   5   6
ENDBRANCH   1   5
TORSDOF 3
ENDMDL
MODEL 8
REMARK VINA RESULT:    -0.859      2.153      2.805
REMARK INTER + INTRA:          -1.056
REMARK INTER:                  -1.002
REMARK INTRA:                  -0.054
REMARK UNBOUND:                -0.047
REMARK SMILES CCCCC(=O)[O-]
REMARK SMILES IDX 4 1 5 2 6 3 7 4 3 5 2 6 1 7
REMARK H PARENT
REMARK Flexibility Score: inf
ROOT
ATOM      1  C   UNL     1      35.838   3.595  40.781  1.00  0.00     0.053 C 
ENDROOT
BRANCH   1   2
ATOM      2  C   UNL     1      36.182   2.157  41.012  1.00  0.00     0.041 C 
ATOM      3  O   UNL     1      37.259   1.684  40.563  1.00  0.00    -0.550 OA
ATOM      4  O   UNL     1      35.336   1.352  41.763  1.00  0.00    -0.550 OA
ENDBRANCH   1   2
BRANCH   1   5
ATOM      5  C   UNL     1      35.863   4.371  42.101  1.00  0.00     0.006 C 
BRANCH   5   6
ATOM      6  C   UNL     1      36.951   5.451  42.084  1.00  0.00    -0.003 C 
ATOM      7  C   UNL     1      38.344   4.830  42.069  1.00  0.00     0.004 C 
ENDBRANCH   5   6
ENDBRANCH   1   5
TORSDOF 3
ENDMDL
MODEL 9
REMARK VINA RESULT:     0.020      8.160      8.820
REMARK INTER + INTRA:          -0.024
REMARK INTER:                   0.000
REMARK INTRA:                  -0.024
REMARK UNBOUND:                -0.047
REMARK SMILES CCCCC(=O)[O-]
REMARK SMILES IDX 4 1 5 2 6 3 7 4 3 5 2 6 1 7
REMARK H PARENT
REMARK Flexibility Score: inf
ROOT
ATOM      1  C   UNL     1      37.014   6.067  33.866  1.00  0.00     0.053 C 
ENDROOT
BRANCH   1   2
ATOM      2  C   UNL     1      37.494   7.388  33.353  1.00  0.00     0.041 C 
ATOM      3  O   UNL     1      37.481   8.401  34.101  1.00  0.00    -0.550 OA
ATOM      4  O   UNL     1      38.001   7.491  32.065  1.00  0.00    -0.550 OA
ENDBRANCH   1   2
BRANCH   1   5
ATOM      5  C   UNL     1      37.706   5.721  35.187  1.00  0.00     0.006 C 
BRANCH   5   6
ATOM      6  C   UNL     1      36.947   4.618  35.934  1.00  0.00    -0.003 C 
ATOM      7  C   UNL     1      37.025   3.291  35.185  1.00  0.00     0.004 C 
ENDBRANCH   5   6
ENDBRANCH   1   5
TORSDOF 3
ENDMDL
