MODEL 1
REMARK VINA RESULT:    -5.759      0.000      0.000
REMARK INTER + INTRA:          -6.129
REMARK INTER:                  -6.096
REMARK INTRA:                  -0.033
REMARK UNBOUND:                -0.033
REMARK SMILES COc1ccc2ccc(=O)oc2c1
REMARK SMILES IDX 3 1 13 2 12 3 6 4 5 5 4 6 7 7 8 8 9 9 10 10 11 11 2 12 1 13
REMARK H PARENT
REMARK Flexibility Score: inf
ROOT
ATOM      1  C   UNL     1     -33.083  14.608  53.469  1.00  0.00     0.122 A 
ATOM      2  C   UNL     1     -34.430  14.794  53.135  1.00  0.00     0.094 A 
ATOM      3  C   UNL     1     -34.785  15.455  51.953  1.00  0.00     0.142 A 
ATOM      4  C   UNL     1     -33.778  15.937  51.090  1.00  0.00     0.018 A 
ATOM      5  C   UNL     1     -32.430  15.754  51.420  1.00  0.00     0.016 A 
ATOM      6  C   UNL     1     -32.082  15.093  52.603  1.00  0.00     0.047 A 
ATOM      7  C   UNL     1     -34.163  16.593  49.917  1.00  0.00     0.019 A 
ATOM      8  C   UNL     1     -35.520  16.750  49.635  1.00  0.00     0.094 A 
ATOM      9  C   UNL     1     -36.463  16.245  50.537  1.00  0.00     0.336 A 
ATOM     10  O   UNL     1     -37.692  16.376  50.299  1.00  0.00    -0.246 OA
ATOM     11  O   UNL     1     -36.068  15.626  51.646  1.00  0.00    -0.423 OA
ENDROOT
BRANCH   1  12
ATOM     12  O   UNL     1     -32.781  13.940  54.666  1.00  0.00    -0.497 OA
ATOM     13  C   UNL     1     -32.774  12.525  54.817  1.00  0.00     0.278 C 
ENDBRANCH   1  12
TORSDOF 1
ENDMDL
MODEL 2
REMARK VINA RESULT:    -5.739      1.744      5.497
REMARK INTER + INTRA:          -6.108
REMARK INTER:                  -6.074
REMARK INTRA:                  -0.034
REMARK UNBOUND:                -0.033
REMARK SMILES COc1ccc2ccc(=O)oc2c1
REMARK SMILES IDX 3 1 13 2 12 3 6 4 5 5 4 6 7 7 8 8 9 9 10 10 11 11 2 12 1 13
REMARK H PARENT
REMARK Flexibility Score: inf
ROOT
ATOM      1  C   UNL     1     -33.781  16.099  51.207  1.00  0.00     0.122 A 
ATOM      2  C   UNL     1     -32.456  15.693  51.409  1.00  0.00     0.094 A 
ATOM      3  C   UNL     1     -32.110  14.927  52.527  1.00  0.00     0.142 A 
ATOM      4  C   UNL     1     -33.102  14.560  53.460  1.00  0.00     0.018 A 
ATOM      5  C   UNL     1     -34.428  14.963  53.263  1.00  0.00     0.016 A 
ATOM      6  C   UNL     1     -34.768  15.729  52.143  1.00  0.00     0.047 A 
ATOM      7  C   UNL     1     -32.725  13.793  54.568  1.00  0.00     0.019 A 
ATOM      8  C   UNL     1     -31.391  13.418  54.718  1.00  0.00     0.094 A 
ATOM      9  C   UNL     1     -30.461  13.819  53.752  1.00  0.00     0.336 A 
ATOM     10  O   UNL     1     -29.252  13.489  53.869  1.00  0.00    -0.246 OA
ATOM     11  O   UNL     1     -30.847  14.547  52.708  1.00  0.00    -0.423 OA
ENDROOT
BRANCH   1  12
ATOM     12  O   UNL     1     -34.076  16.866  50.069  1.00  0.00    -0.497 OA
ATOM     13  C   UNL     1     -35.328  16.853  49.393  1.00  0.00     0.278 C 
ENDBRANCH   1  12
TORSDOF 1
ENDMDL
MODEL 3
REMARK VINA RESULT:    -5.554      2.256      5.237
REMARK INTER + INTRA:          -5.912
REMARK INTER:                  -5.874
REMARK INTRA:                  -0.038
REMARK UNBOUND:                -0.033
REMARK SMILES COc1ccc2ccc(=O)oc2c1
REMARK SMILES IDX 3 1 13 2 12 3 6 4 5 5 4 6 7 7 8 8 9 9 10 10 11 11 2 12 1 13
REMARK H PARENT
REMARK Flexibility Score: inf
ROOT
ATOM      1  C   UNL     1     -34.451  15.921  51.887  1.00  0.00     0.122 A 
ATOM      2  C   UNL     1     -33.176  16.143  51.355  1.00  0.00     0.094 A 
ATOM      3  C   UNL     1     -32.050  15.543  51.931  1.00  0.00     0.142 A 
ATOM      4  C   UNL     1     -32.201  14.708  53.058  1.00  0.00     0.018 A 
ATOM      5  C   UNL     1     -33.475  14.482  53.594  1.00  0.00     0.016 A 
ATOM      6  C   UNL     1     -34.596  15.086  53.013  1.00  0.00     0.047 A 
ATOM      7  C   UNL     1     -31.058  14.122  53.611  1.00  0.00     0.019 A 
ATOM      8  C   UNL     1     -29.812  14.379  53.040  1.00  0.00     0.094 A 
ATOM      9  C   UNL     1     -29.740  15.218  51.922  1.00  0.00     0.336 A 
ATOM     10  O   UNL     1     -28.624  15.461  51.391  1.00  0.00    -0.246 OA
ATOM     11  O   UNL     1     -30.843  15.762  51.416  1.00  0.00    -0.423 OA
ENDROOT
BRANCH   1  12
ATOM     12  O   UNL     1     -35.547  16.547  51.272  1.00  0.00    -0.497 OA
ATOM     13  C   UNL     1     -35.812  16.512  49.874  1.00  0.00     0.278 C 
ENDBRANCH   1  12
TORSDOF 1
ENDMDL
MODEL 4
REMARK VINA RESULT:    -5.523      2.300      3.391
REMARK INTER + INTRA:          -5.879
REMARK INTER:                  -5.846
REMARK INTRA:                  -0.033
REMARK UNBOUND:                -0.033
REMARK SMILES COc1ccc2ccc(=O)oc2c1
REMARK SMILES IDX 3 1 13 2 12 3 6 4 5 5 4 6 7 7 8 8 9 9 10 10 11 11 2 12 1 13
REMARK H PARENT
REMARK Flexibility Score: inf
ROOT
ATOM      1  C   UNL     1     -30.498  13.871  53.860  1.00  0.00     0.122 A 
ATOM      2  C   UNL     1     -30.808  14.655  52.742  1.00  0.00     0.094 A 
ATOM      3  C   UNL     1     -32.126  15.056  52.498  1.00  0.00     0.142 A 
ATOM      4  C   UNL     1     -33.153  14.667  53.384  1.00  0.00     0.018 A 
ATOM      5  C   UNL     1     -32.849  13.883  54.503  1.00  0.00     0.016 A 
ATOM      6  C   UNL     1     -31.528  13.485  54.741  1.00  0.00     0.047 A 
ATOM      7  C   UNL     1     -34.460  15.083  53.114  1.00  0.00     0.019 A 
ATOM      8  C   UNL     1     -34.711  15.863  51.986  1.00  0.00     0.094 A 
ATOM      9  C   UNL     1     -33.643  16.210  51.151  1.00  0.00     0.336 A 
ATOM     10  O   UNL     1     -33.849  16.915  50.128  1.00  0.00    -0.246 OA
ATOM     11  O   UNL     1     -32.409  15.801  51.432  1.00  0.00    -0.423 OA
ENDROOT
BRANCH   1  12
ATOM     12  O   UNL     1     -29.161  13.496  54.059  1.00  0.00    -0.497 OA
ATOM     13  C   UNL     1     -28.246  14.192  54.898  1.00  0.00     0.278 C 
ENDBRANCH   1  12
TORSDOF 1
ENDMDL
MODEL 5
REMARK VINA RESULT:    -5.515      1.039      4.614
REMARK INTER + INTRA:          -5.871
REMARK INTER:                  -5.832
REMARK INTRA:                  -0.039
REMARK UNBOUND:                -0.033
REMARK SMILES COc1ccc2ccc(=O)oc2c1
REMARK SMILES IDX 3 1 13 2 12 3 6 4 5 5 4 6 7 7 8 8 9 9 10 10 11 11 2 12 1 13
REMARK H PARENT
REMARK Flexibility Score: inf
ROOT
ATOM      1  C   UNL     1     -36.443  16.156  50.440  1.00  0.00     0.122 A 
ATOM      2  C   UNL     1     -36.073  15.478  51.607  1.00  0.00     0.094 A 
ATOM      3  C   UNL     1     -34.725  15.368  51.969  1.00  0.00     0.142 A 
ATOM      4  C   UNL     1     -33.731  15.944  51.150  1.00  0.00     0.018 A 
ATOM      5  C   UNL     1     -34.096  16.623  49.982  1.00  0.00     0.016 A 
ATOM      6  C   UNL     1     -35.445  16.729  49.626  1.00  0.00     0.047 A 
ATOM      7  C   UNL     1     -32.393  15.818  51.538  1.00  0.00     0.019 A 
ATOM      8  C   UNL     1     -32.082  15.132  52.712  1.00  0.00     0.094 A 
ATOM      9  C   UNL     1     -33.122  14.587  53.473  1.00  0.00     0.336 A 
ATOM     10  O   UNL     1     -32.861  13.965  54.537  1.00  0.00    -0.246 OA
ATOM     11  O   UNL     1     -34.386  14.722  53.082  1.00  0.00    -0.423 OA
ENDROOT
BRANCH   1  12
ATOM     12  O   UNL     1     -37.808  16.237  50.122  1.00  0.00    -0.497 OA
ATOM     13  C   UNL     1     -38.735  15.169  50.280  1.00  0.00     0.278 C 
ENDBRANCH   1  12
TORSDOF 1
ENDMDL
MODEL 6
REMARK VINA RESULT:    -5.465      2.433      3.721
REMARK INTER + INTRA:          -5.818
REMARK INTER:                  -5.785
REMARK INTRA:                  -0.033
REMARK UNBOUND:                -0.033
REMARK SMILES COc1ccc2ccc(=O)oc2c1
REMARK SMILES IDX 3 1 13 2 12 3 6 4 5 5 4 6 7 7 8 8 9 9 10 10 11 11 2 12 1 13
REMARK H PARENT
REMARK Flexibility Score: inf
ROOT
ATOM      1  C   UNL     1     -29.843  14.960  52.422  1.00  0.00     0.122 A 
ATOM      2  C   UNL     1     -30.844  15.675  51.753  1.00  0.00     0.094 A 
ATOM      3  C   UNL     1     -32.187  15.528  52.117  1.00  0.00     0.142 A 
ATOM      4  C   UNL     1     -32.537  14.652  53.167  1.00  0.00     0.018 A 
ATOM      5  C   UNL     1     -31.541  13.935  53.839  1.00  0.00     0.016 A 
ATOM      6  C   UNL     1     -30.200  14.087  53.470  1.00  0.00     0.047 A 
ATOM      7  C   UNL     1     -33.888  14.527  53.509  1.00  0.00     0.019 A 
ATOM      8  C   UNL     1     -34.842  15.264  52.808  1.00  0.00     0.094 A 
ATOM      9  C   UNL     1     -34.421  16.112  51.778  1.00  0.00     0.336 A 
ATOM     10  O   UNL     1     -35.268  16.787  51.134  1.00  0.00    -0.246 OA
ATOM     11  O   UNL     1     -33.130  16.213  51.474  1.00  0.00    -0.423 OA
ENDROOT
BRANCH   1  12
ATOM     12  O   UNL     1     -28.512  15.143  52.018  1.00  0.00    -0.497 OA
ATOM     13  C   UNL     1     -27.676  16.206  52.462  1.00  0.00     0.278 C 
ENDBRANCH   1  12
TORSDOF 1
ENDMDL
MODEL 7
REMARK VINA RESULT:    -5.412      9.059     11.642
REMARK INTER + INTRA:          -5.761
REMARK INTER:                  -5.729
REMARK INTRA:                  -0.033
REMARK UNBOUND:                -0.033
REMARK SMILES COc1ccc2ccc(=O)oc2c1
REMARK SMILES IDX 3 1 13 2 12 3 6 4 5 5 4 6 7 7 8 8 9 9 10 10 11 11 2 12 1 13
REMARK H PARENT
REMARK Flexibility Score: inf
ROOT
ATOM      1  C   UNL     1     -28.302   5.636  58.979  1.00  0.00     0.122 A 
ATOM      2  C   UNL     1     -28.091   7.006  58.788  1.00  0.00     0.094 A 
ATOM      3  C   UNL     1     -28.593   7.652  57.653  1.00  0.00     0.142 A 
ATOM      4  C   UNL     1     -29.319   6.917  56.692  1.00  0.00     0.018 A 
ATOM      5  C   UNL     1     -29.533   5.546  56.878  1.00  0.00     0.016 A 
ATOM      6  C   UNL     1     -29.027   4.906  58.015  1.00  0.00     0.047 A 
ATOM      7  C   UNL     1     -29.809   7.590  55.568  1.00  0.00     0.019 A 
ATOM      8  C   UNL     1     -29.569   8.956  55.430  1.00  0.00     0.094 A 
ATOM      9  C   UNL     1     -28.841   9.620  56.424  1.00  0.00     0.336 A 
ATOM     10  O   UNL     1     -28.615  10.855  56.318  1.00  0.00    -0.246 OA
ATOM     11  O   UNL     1     -28.387   8.956  57.483  1.00  0.00    -0.423 OA
ENDROOT
BRANCH   1  12
ATOM     12  O   UNL     1     -27.776   5.036  60.134  1.00  0.00    -0.497 OA
ATOM     13  C   UNL     1     -28.476   4.096  60.942  1.00  0.00     0.278 C 
ENDBRANCH   1  12
TORSDOF 1
ENDMDL
MODEL 8
REMARK VINA RESULT:    -5.343      1.080      5.000
REMARK INTER + INTRA:          -5.688
REMARK INTER:                  -5.656
REMARK INTRA:                  -0.033
REMARK UNBOUND:                -0.033
REMARK SMILES COc1ccc2ccc(=O)oc2c1
REMARK SMILES IDX 3 1 13 2 12 3 6 4 5 5 4 6 7 7 8 8 9 9 10 10 11 11 2 12 1 13
REMARK H PARENT
REMARK Flexibility Score: inf
ROOT
ATOM      1  C   UNL     1     -34.394  15.958  51.726  1.00  0.00     0.122 A 
ATOM      2  C   UNL     1     -34.426  15.193  52.898  1.00  0.00     0.094 A 
ATOM      3  C   UNL     1     -33.254  14.621  53.407  1.00  0.00     0.142 A 
ATOM      4  C   UNL     1     -32.030  14.815  52.733  1.00  0.00     0.018 A 
ATOM      5  C   UNL     1     -31.992  15.579  51.560  1.00  0.00     0.016 A 
ATOM      6  C   UNL     1     -33.167  16.148  51.057  1.00  0.00     0.047 A 
ATOM      7  C   UNL     1     -30.876  14.231  53.265  1.00  0.00     0.019 A 
ATOM      8  C   UNL     1     -30.967  13.479  54.436  1.00  0.00     0.094 A 
ATOM      9  C   UNL     1     -32.216  13.330  55.050  1.00  0.00     0.336 A 
ATOM     10  O   UNL     1     -32.318  12.656  56.109  1.00  0.00    -0.246 OA
ATOM     11  O   UNL     1     -33.297  13.896  54.522  1.00  0.00    -0.423 OA
ENDROOT
BRANCH   1  12
ATOM     12  O   UNL     1     -35.597  16.509  51.258  1.00  0.00    -0.497 OA
ATOM     13  C   UNL     1     -36.002  16.514  49.894  1.00  0.00     0.278 C 
ENDBRANCH   1  12
TORSDOF 1
ENDMDL
MODEL 9
REMARK VINA RESULT:    -5.238      7.643      8.129
REMARK INTER + INTRA:          -5.578
REMARK INTER:                  -5.545
REMARK INTRA:                  -0.033
REMARK UNBOUND:                -0.033
REMARK SMILES COc1ccc2ccc(=O)oc2c1
REMARK SMILES IDX 3 1 13 2 12 3 6 4 5 5 4 6 7 7 8 8 9 9 10 10 11 11 2 12 1 13
REMARK H PARENT
REMARK Flexibility Score: inf
ROOT
ATOM      1  C   UNL     1     -26.624  15.794  55.506  1.00  0.00     0.122 A 
ATOM      2  C   UNL     1     -26.465  14.580  54.827  1.00  0.00     0.094 A 
ATOM      3  C   UNL     1     -26.722  14.494  53.454  1.00  0.00     0.142 A 
ATOM      4  C   UNL     1     -27.144  15.640  52.747  1.00  0.00     0.018 A 
ATOM      5  C   UNL     1     -27.305  16.856  53.421  1.00  0.00     0.016 A 
ATOM      6  C   UNL     1     -27.047  16.935  54.794  1.00  0.00     0.047 A 
ATOM      7  C   UNL     1     -27.393  15.523  51.376  1.00  0.00     0.019 A 
ATOM      8  C   UNL     1     -27.218  14.288  50.751  1.00  0.00     0.094 A 
ATOM      9  C   UNL     1     -26.796  13.195  51.517  1.00  0.00     0.336 A 
ATOM     10  O   UNL     1     -26.631  12.073  50.971  1.00  0.00    -0.246 OA
ATOM     11  O   UNL     1     -26.567  13.335  52.820  1.00  0.00    -0.423 OA
ENDROOT
BRANCH   1  12
ATOM     12  O   UNL     1     -26.354  15.827  56.883  1.00  0.00    -0.497 OA
ATOM     13  C   UNL     1     -27.305  15.517  57.896  1.00  0.00     0.278 C 
ENDBRANCH   1  12
TORSDOF 1
ENDMDL
