MODEL 1
REMARK VINA RESULT:    -1.317      0.000      0.000
REMARK INTER + INTRA:          -2.117
REMARK INTER:                  -2.317
REMARK INTRA:                   0.201
REMARK UNBOUND:                 0.201
REMARK SMILES CCCCCCCCCCCCCCC(=O)[O-]
REMARK SMILES IDX 9 1 10 2 11 3 12 4 13 5 14 6 15 7 16 8 17 9 8 10 7 11 6 12
REMARK SMILES IDX 5 13 4 14 3 15 2 16 1 17
REMARK H PARENT
REMARK Flexibility Score: inf
ROOT
ATOM      1  C   UNL     1      32.957  23.339  28.191  1.00  0.00     0.000 C 
ENDROOT
BRANCH   1   2
ATOM      2  C   UNL     1      33.331  22.485  26.968  1.00  0.00     0.000 C 
BRANCH   2   3
ATOM      3  C   UNL     1      34.616  21.672  27.189  1.00  0.00     0.000 C 
BRANCH   3   4
ATOM      4  C   UNL     1      35.744  22.513  27.811  1.00  0.00     0.000 C 
BRANCH   4   5
ATOM      5  C   UNL     1      36.233  23.637  26.877  1.00  0.00     0.006 C 
BRANCH   5   6
ATOM      6  C   UNL     1      36.368  25.007  27.559  1.00  0.00     0.053 C 
BRANCH   6   7
ATOM      7  C   UNL     1      35.847  24.989  28.963  1.00  0.00     0.041 C 
ATOM      8  O   UNL     1      36.640  24.841  29.930  1.00  0.00    -0.550 OA
ATOM      9  O   UNL     1      34.484  25.099  29.201  1.00  0.00    -0.550 OA
ENDBRANCH   6   7
ENDBRANCH   5   6
ENDBRANCH   4   5
ENDBRANCH   3   4
ENDBRANCH   2   3
ENDBRANCH   1   2
BRANCH   1  10
ATOM     10  C   UNL     1      31.682  22.844  28.892  1.00  0.00     0.000 C 
BRANCH  10  11
ATOM     11  C   UNL     1      30.406  23.484  28.320  1.00  0.00    -0.000 C 
BRANCH  11  12
ATOM     12  C   UNL     1      30.174  24.910  28.866  1.00  0.00    -0.000 C 
BRANCH  12  13
ATOM     13  C   UNL     1      30.661  25.100  30.313  1.00  0.00    -0.000 C 
BRANCH  13  14
ATOM     14  C   UNL     1      29.524  24.997  31.343  1.00  0.00    -0.000 C 
BRANCH  14  15
ATOM     15  C   UNL     1      30.042  24.876  32.785  1.00  0.00    -0.000 C 
BRANCH  15  16
ATOM     16  C   UNL     1      31.575  24.878  32.864  1.00  0.00    -0.003 C 
ATOM     17  C   UNL     1      32.052  25.115  34.294  1.00  0.00     0.004 C 
ENDBRANCH  15  16
ENDBRANCH  14  15
ENDBRANCH  13  14
ENDBRANCH  12  13
ENDBRANCH  11  12
ENDBRANCH  10  11
ENDBRANCH   1  10
TORSDOF 13
ENDMDL
MODEL 2
REMARK VINA RESULT:     0.503      1.905      3.515
REMARK INTER + INTRA:           1.086
REMARK INTER:                   1.752
REMARK INTRA:                  -0.666
REMARK UNBOUND:                 0.201
REMARK SMILES CCCCCCCCCCCCCCC(=O)[O-]
REMARK SMILES IDX 9 1 10 2 11 3 12 4 13 5 14 6 15 7 16 8 17 9 8 10 7 11 6 12
REMARK SMILES IDX 5 13 4 14 3 15 2 16 1 17
REMARK H PARENT
REMARK Flexibility Score: inf
ROOT
ATOM      1  C   UNL     1      30.758  23.245  29.306  1.00  0.00     0.000 C 
ENDROOT
BRANCH   1   2
ATOM      2  C   UNL     1      29.833  23.460  28.096  1.00  0.00     0.000 C 
BRANCH   2   3
ATOM      3  C   UNL     1      30.352  24.550  27.145  1.00  0.00     0.000 C 
BRANCH   3   4
ATOM      4  C   UNL     1      31.706  25.125  27.592  1.00  0.00     0.000 C 
BRANCH   4   5
ATOM      5  C   UNL     1      32.899  24.458  26.882  1.00  0.00     0.006 C 
BRANCH   5   6
ATOM      6  C   UNL     1      33.637  23.415  27.735  1.00  0.00     0.053 C 
BRANCH   6   7
ATOM      7  C   UNL     1      34.936  23.941  28.265  1.00  0.00     0.041 C 
ATOM      8  O   UNL     1      34.952  24.680  29.284  1.00  0.00    -0.550 OA
ATOM      9  O   UNL     1      36.124  23.643  27.612  1.00  0.00    -0.550 OA
ENDBRANCH   6   7
ENDBRANCH   5   6
ENDBRANCH   4   5
ENDBRANCH   3   4
ENDBRANCH   2   3
ENDBRANCH   1   2
BRANCH   1  10
ATOM     10  C   UNL     1      30.010  23.326  30.645  1.00  0.00     0.000 C 
BRANCH  10  11
ATOM     11  C   UNL     1      30.239  24.664  31.370  1.00  0.00    -0.000 C 
BRANCH  11  12
ATOM     12  C   UNL     1      30.143  24.520  32.904  1.00  0.00    -0.000 C 
BRANCH  12  13
ATOM     13  C   UNL     1      31.345  25.120  33.654  1.00  0.00    -0.000 C 
BRANCH  13  14
ATOM     14  C   UNL     1      32.665  24.973  32.880  1.00  0.00    -0.000 C 
BRANCH  14  15
ATOM     15  C   UNL     1      33.791  24.378  33.739  1.00  0.00    -0.000 C 
BRANCH  15  16
ATOM     16  C   UNL     1      35.166  24.973  33.403  1.00  0.00    -0.003 C 
ATOM     17  C   UNL     1      36.289  24.005  33.769  1.00  0.00     0.004 C 
ENDBRANCH  15  16
ENDBRANCH  14  15
ENDBRANCH  13  14
ENDBRANCH  12  13
ENDBRANCH  11  12
ENDBRANCH  10  11
ENDBRANCH   1  10
TORSDOF 13
ENDMDL
MODEL 3
REMARK VINA RESULT:     1.153      2.644      5.548
REMARK INTER + INTRA:           2.231
REMARK INTER:                   0.702
REMARK INTRA:                   1.529
REMARK UNBOUND:                 0.201
REMARK SMILES CCCCCCCCCCCCCCC(=O)[O-]
REMARK SMILES IDX 9 1 10 2 11 3 12 4 13 5 14 6 15 7 16 8 17 9 8 10 7 11 6 12
REMARK SMILES IDX 5 13 4 14 3 15 2 16 1 17
REMARK H PARENT
REMARK Flexibility Score: inf
ROOT
ATOM      1  C   UNL     1      32.170  21.904  28.925  1.00  0.00     0.000 C 
ENDROOT
BRANCH   1   2
ATOM      2  C   UNL     1      30.748  22.324  28.513  1.00  0.00     0.000 C 
BRANCH   2   3
ATOM      3  C   UNL     1      30.353  23.697  29.079  1.00  0.00     0.000 C 
BRANCH   3   4
ATOM      4  C   UNL     1      31.575  24.553  29.452  1.00  0.00     0.000 C 
BRANCH   4   5
ATOM      5  C   UNL     1      31.887  24.519  30.960  1.00  0.00     0.006 C 
BRANCH   5   6
ATOM      6  C   UNL     1      30.863  23.736  31.797  1.00  0.00     0.053 C 
BRANCH   6   7
ATOM      7  C   UNL     1      30.019  24.641  32.642  1.00  0.00     0.041 C 
ATOM      8  O   UNL     1      30.432  25.023  33.768  1.00  0.00    -0.550 OA
ATOM      9  O   UNL     1      28.763  25.032  32.199  1.00  0.00    -0.550 OA
ENDBRANCH   6   7
ENDBRANCH   5   6
ENDBRANCH   4   5
ENDBRANCH   3   4
ENDBRANCH   2   3
ENDBRANCH   1   2
BRANCH   1  10
ATOM     10  C   UNL     1      33.251  22.497  28.009  1.00  0.00     0.000 C 
BRANCH  10  11
ATOM     11  C   UNL     1      33.648  23.928  28.411  1.00  0.00    -0.000 C 
BRANCH  11  12
ATOM     12  C   UNL     1      34.549  24.602  27.355  1.00  0.00    -0.000 C 
BRANCH  12  13
ATOM     13  C   UNL     1      36.050  24.514  27.682  1.00  0.00    -0.000 C 
BRANCH  13  14
ATOM     14  C   UNL     1      36.360  24.841  29.153  1.00  0.00    -0.000 C 
BRANCH  14  15
ATOM     15  C   UNL     1      36.781  23.601  29.957  1.00  0.00    -0.000 C 
BRANCH  15  16
ATOM     16  C   UNL     1      36.923  23.891  31.458  1.00  0.00    -0.003 C 
ATOM     17  C   UNL     1      36.063  25.083  31.871  1.00  0.00     0.004 C 
ENDBRANCH  15  16
ENDBRANCH  14  15
ENDBRANCH  13  14
ENDBRANCH  12  13
ENDBRANCH  11  12
ENDBRANCH  10  11
ENDBRANCH   1  10
TORSDOF 13
ENDMDL
