MODEL 1
REMARK VINA RESULT:    -3.771      0.000      0.000
REMARK INTER + INTRA:          -5.583
REMARK INTER:                  -5.315
REMARK INTRA:                  -0.268
REMARK UNBOUND:                -0.268
REMARK SMILES C=CCCCCCCC(=O)[O-]
REMARK SMILES IDX 6 1 7 2 8 3 9 4 10 5 11 6 5 7 4 8 3 9 2 10 1 11
REMARK H PARENT
REMARK Flexibility Score: inf
ROOT
ATOM      1  C   UNL     1     120.570  72.515   1.560  1.00  0.00     0.000 C 
ENDROOT
BRANCH   1   2
ATOM      2  C   UNL     1     121.244  72.585   2.942  1.00  0.00     0.006 C 
BRANCH   2   3
ATOM      3  C   UNL     1     120.219  72.622   4.084  1.00  0.00     0.053 C 
BRANCH   3   4
ATOM      4  C   UNL     1     120.430  71.504   5.059  1.00  0.00     0.041 C 
ATOM      5  O   UNL     1     120.683  70.342   4.646  1.00  0.00    -0.550 OA
ATOM      6  O   UNL     1     120.320  71.740   6.424  1.00  0.00    -0.550 OA
ENDBRANCH   3   4
ENDBRANCH   2   3
ENDBRANCH   1   2
BRANCH   1   7
ATOM      7  C   UNL     1     120.137  71.089   1.177  1.00  0.00     0.000 C 
BRANCH   7   8
ATOM      8  C   UNL     1     121.079  70.362   0.200  1.00  0.00     0.004 C 
BRANCH   8   9
ATOM      9  C   UNL     1     120.359  69.306  -0.651  1.00  0.00     0.027 C 
BRANCH   9  10
ATOM     10  C   UNL     1     120.482  67.938  -0.038  1.00  0.00    -0.035 C 
ATOM     11  C   UNL     1     120.701  66.850  -0.783  1.00  0.00     0.004 C 
ENDBRANCH   9  10
ENDBRANCH   8   9
ENDBRANCH   7   8
ENDBRANCH   1   7
TORSDOF 7
ENDMDL
MODEL 2
REMARK VINA RESULT:    -3.619      2.284      3.713
REMARK INTER + INTRA:          -5.368
REMARK INTER:                  -5.098
REMARK INTRA:                  -0.270
REMARK UNBOUND:                -0.268
REMARK SMILES C=CCCCCCCC(=O)[O-]
REMARK SMILES IDX 6 1 7 2 8 3 9 4 10 5 11 6 5 7 4 8 3 9 2 10 1 11
REMARK H PARENT
REMARK Flexibility Score: inf
ROOT
ATOM      1  C   UNL     1     120.631  70.991   5.040  1.00  0.00     0.000 C 
ENDROOT
BRANCH   1   2
ATOM      2  C   UNL     1     120.292  71.881   6.248  1.00  0.00     0.006 C 
BRANCH   2   3
ATOM      3  C   UNL     1     121.009  71.421   7.525  1.00  0.00     0.053 C 
BRANCH   3   4
ATOM      4  C   UNL     1     120.750  72.347   8.674  1.00  0.00     0.041 C 
ATOM      5  O   UNL     1     120.769  73.594   8.500  1.00  0.00    -0.550 OA
ATOM      6  O   UNL     1     120.515  71.833   9.944  1.00  0.00    -0.550 OA
ENDBRANCH   3   4
ENDBRANCH   2   3
ENDBRANCH   1   2
BRANCH   1   7
ATOM      7  C   UNL     1     120.067  71.538   3.716  1.00  0.00     0.000 C 
BRANCH   7   8
ATOM      8  C   UNL     1     120.950  72.588   3.017  1.00  0.00     0.004 C 
BRANCH   8   9
ATOM      9  C   UNL     1     120.925  72.467   1.486  1.00  0.00     0.027 C 
BRANCH   9  10
ATOM     10  C   UNL     1     120.415  71.118   1.058  1.00  0.00    -0.035 C 
ATOM     11  C   UNL     1     121.066  70.374   0.158  1.00  0.00     0.004 C 
ENDBRANCH   9  10
ENDBRANCH   8   9
ENDBRANCH   7   8
ENDBRANCH   1   7
TORSDOF 7
ENDMDL
MODEL 3
REMARK VINA RESULT:    -3.611      1.324      2.292
REMARK INTER + INTRA:          -5.357
REMARK INTER:                  -5.013
REMARK INTRA:                  -0.344
REMARK UNBOUND:                -0.268
REMARK SMILES C=CCCCCCCC(=O)[O-]
REMARK SMILES IDX 6 1 7 2 8 3 9 4 10 5 11 6 5 7 4 8 3 9 2 10 1 11
REMARK H PARENT
REMARK Flexibility Score: inf
ROOT
ATOM      1  C   UNL     1     120.782  70.451   0.166  1.00  0.00     0.000 C 
ENDROOT
BRANCH   1   2
ATOM      2  C   UNL     1     120.022  71.399   1.109  1.00  0.00     0.006 C 
BRANCH   2   3
ATOM      3  C   UNL     1     119.924  70.841   2.535  1.00  0.00     0.053 C 
BRANCH   3   4
ATOM      4  C   UNL     1     120.927  71.472   3.452  1.00  0.00     0.041 C 
ATOM      5  O   UNL     1     121.414  72.601   3.177  1.00  0.00    -0.550 OA
ATOM      6  O   UNL     1     121.345  70.803   4.596  1.00  0.00    -0.550 OA
ENDBRANCH   3   4
ENDBRANCH   2   3
ENDBRANCH   1   2
BRANCH   1   7
ATOM      7  C   UNL     1     119.940  70.010  -1.045  1.00  0.00     0.000 C 
BRANCH   7   8
ATOM      8  C   UNL     1     119.933  68.494  -1.316  1.00  0.00     0.004 C 
BRANCH   8   9
ATOM      9  C   UNL     1     120.401  67.669  -0.108  1.00  0.00     0.027 C 
BRANCH   9  10
ATOM     10  C   UNL     1     120.485  66.207  -0.451  1.00  0.00    -0.035 C 
ATOM     11  C   UNL     1     119.969  65.267   0.348  1.00  0.00     0.004 C 
ENDBRANCH   9  10
ENDBRANCH   8   9
ENDBRANCH   7   8
ENDBRANCH   1   7
TORSDOF 7
ENDMDL
MODEL 4
REMARK VINA RESULT:    -3.477      1.778      2.629
REMARK INTER + INTRA:          -5.168
REMARK INTER:                  -4.880
REMARK INTRA:                  -0.288
REMARK UNBOUND:                -0.268
REMARK SMILES C=CCCCCCCC(=O)[O-]
REMARK SMILES IDX 6 1 7 2 8 3 9 4 10 5 11 6 5 7 4 8 3 9 2 10 1 11
REMARK H PARENT
REMARK Flexibility Score: inf
ROOT
ATOM      1  C   UNL     1     120.918  70.671   0.535  1.00  0.00     0.000 C 
ENDROOT
BRANCH   1   2
ATOM      2  C   UNL     1     120.198  71.839   1.230  1.00  0.00     0.006 C 
BRANCH   2   3
ATOM      3  C   UNL     1     121.066  72.492   2.314  1.00  0.00     0.053 C 
BRANCH   3   4
ATOM      4  C   UNL     1     120.667  72.051   3.689  1.00  0.00     0.041 C 
ATOM      5  O   UNL     1     120.073  72.848   4.462  1.00  0.00    -0.550 OA
ATOM      6  O   UNL     1     120.975  70.769   4.127  1.00  0.00    -0.550 OA
ENDBRANCH   3   4
ENDBRANCH   2   3
ENDBRANCH   1   2
BRANCH   1   7
ATOM      7  C   UNL     1     120.066  69.390   0.480  1.00  0.00     0.000 C 
BRANCH   7   8
ATOM      8  C   UNL     1     119.875  68.794  -0.927  1.00  0.00     0.004 C 
BRANCH   8   9
ATOM      9  C   UNL     1     120.302  69.755  -2.046  1.00  0.00     0.027 C 
BRANCH   9  10
ATOM     10  C   UNL     1     120.013  69.172  -3.402  1.00  0.00    -0.035 C 
ATOM     11  C   UNL     1     120.090  69.907  -4.515  1.00  0.00     0.004 C 
ENDBRANCH   9  10
ENDBRANCH   8   9
ENDBRANCH   7   8
ENDBRANCH   1   7
TORSDOF 7
ENDMDL
MODEL 5
REMARK VINA RESULT:    -3.452      2.784      5.624
REMARK INTER + INTRA:          -5.132
REMARK INTER:                  -4.921
REMARK INTRA:                  -0.212
REMARK UNBOUND:                -0.268
REMARK SMILES C=CCCCCCCC(=O)[O-]
REMARK SMILES IDX 6 1 7 2 8 3 9 4 10 5 11 6 5 7 4 8 3 9 2 10 1 11
REMARK H PARENT
REMARK Flexibility Score: inf
ROOT
ATOM      1  C   UNL     1     121.016  71.023   1.005  1.00  0.00     0.000 C 
ENDROOT
BRANCH   1   2
ATOM      2  C   UNL     1     120.109  70.201   0.072  1.00  0.00     0.006 C 
BRANCH   2   3
ATOM      3  C   UNL     1     120.915  69.282  -0.856  1.00  0.00     0.053 C 
BRANCH   3   4
ATOM      4  C   UNL     1     120.502  67.849  -0.718  1.00  0.00     0.041 C 
ATOM      5  O   UNL     1     120.281  67.152  -1.743  1.00  0.00    -0.550 OA
ATOM      6  O   UNL     1     120.334  67.290   0.543  1.00  0.00    -0.550 OA
ENDBRANCH   3   4
ENDBRANCH   2   3
ENDBRANCH   1   2
BRANCH   1   7
ATOM      7  C   UNL     1     120.428  72.404   1.347  1.00  0.00     0.000 C 
BRANCH   7   8
ATOM      8  C   UNL     1     121.026  73.075   2.597  1.00  0.00     0.004 C 
BRANCH   8   9
ATOM      9  C   UNL     1     120.239  72.761   3.878  1.00  0.00     0.027 C 
BRANCH   9  10
ATOM     10  C   UNL     1     120.658  71.439   4.461  1.00  0.00    -0.035 C 
ATOM     11  C   UNL     1     120.544  71.179   5.767  1.00  0.00     0.004 C 
ENDBRANCH   9  10
ENDBRANCH   8   9
ENDBRANCH   7   8
ENDBRANCH   1   7
TORSDOF 7
ENDMDL
MODEL 6
REMARK VINA RESULT:    -3.440      2.287      3.406
REMARK INTER + INTRA:          -5.115
REMARK INTER:                  -4.844
REMARK INTRA:                  -0.271
REMARK UNBOUND:                -0.268
REMARK SMILES C=CCCCCCCC(=O)[O-]
REMARK SMILES IDX 6 1 7 2 8 3 9 4 10 5 11 6 5 7 4 8 3 9 2 10 1 11
REMARK H PARENT
REMARK Flexibility Score: inf
ROOT
ATOM      1  C   UNL     1     121.055  69.470  -0.448  1.00  0.00     0.000 C 
ENDROOT
BRANCH   1   2
ATOM      2  C   UNL     1     120.291  70.178   0.684  1.00  0.00     0.006 C 
BRANCH   2   3
ATOM      3  C   UNL     1     120.915  71.533   1.044  1.00  0.00     0.053 C 
BRANCH   3   4
ATOM      4  C   UNL     1     120.790  71.834   2.506  1.00  0.00     0.041 C 
ATOM      5  O   UNL     1     120.720  73.027   2.904  1.00  0.00    -0.550 OA
ATOM      6  O   UNL     1     120.779  70.798   3.433  1.00  0.00    -0.550 OA
ENDBRANCH   3   4
ENDBRANCH   2   3
ENDBRANCH   1   2
BRANCH   1   7
ATOM      7  C   UNL     1     120.121  68.823  -1.487  1.00  0.00     0.000 C 
BRANCH   7   8
ATOM      8  C   UNL     1     119.922  69.635  -2.780  1.00  0.00     0.004 C 
BRANCH   8   9
ATOM      9  C   UNL     1     119.962  68.766  -4.045  1.00  0.00     0.027 C 
BRANCH   9  10
ATOM     10  C   UNL     1     119.959  67.302  -3.697  1.00  0.00    -0.035 C 
ATOM     11  C   UNL     1     120.141  66.359  -4.626  1.00  0.00     0.004 C 
ENDBRANCH   9  10
ENDBRANCH   8   9
ENDBRANCH   7   8
ENDBRANCH   1   7
TORSDOF 7
ENDMDL
MODEL 7
REMARK VINA RESULT:    -3.357      5.121      7.625
REMARK INTER + INTRA:          -4.998
REMARK INTER:                  -4.835
REMARK INTRA:                  -0.163
REMARK UNBOUND:                -0.268
REMARK SMILES C=CCCCCCCC(=O)[O-]
REMARK SMILES IDX 6 1 7 2 8 3 9 4 10 5 11 6 5 7 4 8 3 9 2 10 1 11
REMARK H PARENT
REMARK Flexibility Score: inf
ROOT
ATOM      1  C   UNL     1     120.123  69.838  -1.885  1.00  0.00     0.000 C 
ENDROOT
BRANCH   1   2
ATOM      2  C   UNL     1     119.899  68.915  -3.095  1.00  0.00     0.006 C 
BRANCH   2   3
ATOM      3  C   UNL     1     120.052  69.661  -4.428  1.00  0.00     0.053 C 
BRANCH   3   4
ATOM      4  C   UNL     1     120.551  68.761  -5.517  1.00  0.00     0.041 C 
ATOM      5  O   UNL     1     120.931  69.247  -6.615  1.00  0.00    -0.550 OA
ATOM      6  O   UNL     1     120.570  67.384  -5.329  1.00  0.00    -0.550 OA
ENDBRANCH   3   4
ENDBRANCH   2   3
ENDBRANCH   1   2
BRANCH   1   7
ATOM      7  C   UNL     1     120.585  69.077  -0.629  1.00  0.00     0.000 C 
BRANCH   7   8
ATOM      8  C   UNL     1     120.283  69.780   0.707  1.00  0.00     0.004 C 
BRANCH   8   9
ATOM      9  C   UNL     1     120.636  71.274   0.689  1.00  0.00     0.027 C 
BRANCH   9  10
ATOM     10  C   UNL     1     120.917  71.782   2.077  1.00  0.00    -0.035 C 
ATOM     11  C   UNL     1     120.915  73.088   2.361  1.00  0.00     0.004 C 
ENDBRANCH   9  10
ENDBRANCH   8   9
ENDBRANCH   7   8
ENDBRANCH   1   7
TORSDOF 7
ENDMDL
MODEL 8
REMARK VINA RESULT:    -3.339      2.488      5.870
REMARK INTER + INTRA:          -4.973
REMARK INTER:                  -4.541
REMARK INTRA:                  -0.431
REMARK UNBOUND:                -0.268
REMARK SMILES C=CCCCCCCC(=O)[O-]
REMARK SMILES IDX 6 1 7 2 8 3 9 4 10 5 11 6 5 7 4 8 3 9 2 10 1 11
REMARK H PARENT
REMARK Flexibility Score: inf
ROOT
ATOM      1  C   UNL     1     121.284  72.168   3.622  1.00  0.00     0.000 C 
ENDROOT
BRANCH   1   2
ATOM      2  C   UNL     1     120.916  72.752   2.248  1.00  0.00     0.006 C 
BRANCH   2   3
ATOM      3  C   UNL     1     119.921  71.864   1.488  1.00  0.00     0.053 C 
BRANCH   3   4
ATOM      4  C   UNL     1     120.429  70.463   1.336  1.00  0.00     0.041 C 
ATOM      5  O   UNL     1     121.341  70.206   0.507  1.00  0.00    -0.550 OA
ATOM      6  O   UNL     1     119.875  69.435   2.090  1.00  0.00    -0.550 OA
ENDBRANCH   3   4
ENDBRANCH   2   3
ENDBRANCH   1   2
BRANCH   1   7
ATOM      7  C   UNL     1     120.140  72.279   4.646  1.00  0.00     0.000 C 
BRANCH   7   8
ATOM      8  C   UNL     1     119.911  71.023   5.507  1.00  0.00     0.004 C 
BRANCH   8   9
ATOM      9  C   UNL     1     120.390  71.196   6.956  1.00  0.00     0.027 C 
BRANCH   9  10
ATOM     10  C   UNL     1     120.087  72.578   7.466  1.00  0.00    -0.035 C 
ATOM     11  C   UNL     1     120.617  73.039   8.603  1.00  0.00     0.004 C 
ENDBRANCH   9  10
ENDBRANCH   8   9
ENDBRANCH   7   8
ENDBRANCH   1   7
TORSDOF 7
ENDMDL
