MODEL 1
REMARK VINA RESULT:    -3.461      0.000      0.000
REMARK INTER + INTRA:          -4.427
REMARK INTER:                  -4.372
REMARK INTRA:                  -0.055
REMARK UNBOUND:                -0.055
REMARK SMILES CCCCCCO
REMARK SMILES IDX 4 1 3 2 2 3 1 4 5 5 6 6 7 7
REMARK H PARENT 7 8
REMARK Flexibility Score: inf
ROOT
ATOM      1  C   UNL     1     180.216 167.523 184.271  1.00  0.00     0.002 C 
ENDROOT
BRANCH   1   2
ATOM      2  C   UNL     1     178.871 168.252 184.134  1.00  0.00    -0.000 C 
BRANCH   2   3
ATOM      3  C   UNL     1     178.062 168.250 185.440  1.00  0.00    -0.003 C 
ATOM      4  C   UNL     1     177.966 169.634 186.080  1.00  0.00     0.004 C 
ENDBRANCH   2   3
ENDBRANCH   1   2
BRANCH   1   5
ATOM      5  C   UNL     1     180.644 166.904 182.933  1.00  0.00     0.028 C 
BRANCH   5   6
ATOM      6  C   UNL     1     181.039 165.432 183.082  1.00  0.00     0.156 C 
BRANCH   6   7
ATOM      7  O   UNL     1     179.900 164.617 183.154  1.00  0.00    -0.396 OA
ATOM      8  H   UNL     1     180.220 163.684 183.266  1.00  0.00     0.210 HD
ENDBRANCH   6   7
ENDBRANCH   5   6
ENDBRANCH   1   5
TORSDOF 5
ENDMDL
MODEL 2
REMARK VINA RESULT:    -3.421     16.284     17.977
REMARK INTER + INTRA:          -4.376
REMARK INTER:                  -4.302
REMARK INTRA:                  -0.074
REMARK UNBOUND:                -0.055
REMARK SMILES CCCCCCO
REMARK SMILES IDX 4 1 3 2 2 3 1 4 5 5 6 6 7 7
REMARK H PARENT 7 8
REMARK Flexibility Score: inf
ROOT
ATOM      1  C   UNL     1     164.077 176.944 183.928  1.00  0.00     0.002 C 
ENDROOT
BRANCH   1   2
ATOM      2  C   UNL     1     165.353 176.088 183.885  1.00  0.00    -0.000 C 
BRANCH   2   3
ATOM      3  C   UNL     1     166.152 176.153 185.196  1.00  0.00    -0.003 C 
ATOM      4  C   UNL     1     166.288 174.791 185.875  1.00  0.00     0.004 C 
ENDBRANCH   2   3
ENDBRANCH   1   2
BRANCH   1   5
ATOM      5  C   UNL     1     163.914 177.751 182.634  1.00  0.00     0.028 C 
BRANCH   5   6
ATOM      6  C   UNL     1     165.022 178.794 182.465  1.00  0.00     0.156 C 
BRANCH   6   7
ATOM      7  O   UNL     1     164.679 179.993 183.107  1.00  0.00    -0.396 OA
ATOM      8  H   UNL     1     165.162 180.721 182.637  1.00  0.00     0.210 HD
ENDBRANCH   6   7
ENDBRANCH   5   6
ENDBRANCH   1   5
TORSDOF 5
ENDMDL
MODEL 3
REMARK VINA RESULT:    -3.353      1.560      2.186
REMARK INTER + INTRA:          -4.289
REMARK INTER:                  -4.229
REMARK INTRA:                  -0.060
REMARK UNBOUND:                -0.055
REMARK SMILES CCCCCCO
REMARK SMILES IDX 4 1 3 2 2 3 1 4 5 5 6 6 7 7
REMARK H PARENT 7 8
REMARK Flexibility Score: inf
ROOT
ATOM      1  C   UNL     1     178.723 168.947 184.332  1.00  0.00     0.002 C 
ENDROOT
BRANCH   1   2
ATOM      2  C   UNL     1     178.049 168.857 185.710  1.00  0.00    -0.000 C 
BRANCH   2   3
ATOM      3  C   UNL     1     178.029 170.206 186.447  1.00  0.00    -0.003 C 
ATOM      4  C   UNL     1     176.669 170.899 186.376  1.00  0.00     0.004 C 
ENDBRANCH   2   3
ENDBRANCH   1   2
BRANCH   1   5
ATOM      5  C   UNL     1     179.188 167.564 183.858  1.00  0.00     0.028 C 
BRANCH   5   6
ATOM      6  C   UNL     1     180.714 167.453 183.821  1.00  0.00     0.156 C 
BRANCH   6   7
ATOM      7  O   UNL     1     181.188 166.736 184.930  1.00  0.00    -0.396 OA
ATOM      8  H   UNL     1     182.008 167.198 185.243  1.00  0.00     0.210 HD
ENDBRANCH   6   7
ENDBRANCH   5   6
ENDBRANCH   1   5
TORSDOF 5
ENDMDL
MODEL 4
REMARK VINA RESULT:    -3.339     15.057     16.995
REMARK INTER + INTRA:          -4.272
REMARK INTER:                  -4.216
REMARK INTRA:                  -0.056
REMARK UNBOUND:                -0.055
REMARK SMILES CCCCCCO
REMARK SMILES IDX 4 1 3 2 2 3 1 4 5 5 6 6 7 7
REMARK H PARENT 7 8
REMARK Flexibility Score: inf
ROOT
ATOM      1  C   UNL     1     165.645 175.517 184.156  1.00  0.00     0.002 C 
ENDROOT
BRANCH   1   2
ATOM      2  C   UNL     1     166.246 175.515 185.570  1.00  0.00    -0.000 C 
BRANCH   2   3
ATOM      3  C   UNL     1     166.196 174.128 186.231  1.00  0.00    -0.003 C 
ATOM      4  C   UNL     1     167.557 173.434 186.253  1.00  0.00     0.004 C 
ENDBRANCH   2   3
ENDBRANCH   1   2
BRANCH   1   5
ATOM      5  C   UNL     1     165.178 176.924 183.760  1.00  0.00     0.028 C 
BRANCH   5   6
ATOM      6  C   UNL     1     163.656 177.006 183.625  1.00  0.00     0.156 C 
BRANCH   6   7
ATOM      7  O   UNL     1     163.096 177.692 184.713  1.00  0.00    -0.396 OA
ATOM      8  H   UNL     1     162.961 178.632 184.422  1.00  0.00     0.210 HD
ENDBRANCH   6   7
ENDBRANCH   5   6
ENDBRANCH   1   5
TORSDOF 5
ENDMDL
MODEL 5
REMARK VINA RESULT:    -3.264      3.406      5.078
REMARK INTER + INTRA:          -4.177
REMARK INTER:                  -4.002
REMARK INTRA:                  -0.175
REMARK UNBOUND:                -0.055
REMARK SMILES CCCCCCO
REMARK SMILES IDX 4 1 3 2 2 3 1 4 5 5 6 6 7 7
REMARK H PARENT 7 8
REMARK Flexibility Score: inf
ROOT
ATOM      1  C   UNL     1     177.919 170.039 186.040  1.00  0.00     0.002 C 
ENDROOT
BRANCH   1   2
ATOM      2  C   UNL     1     177.935 168.538 185.712  1.00  0.00    -0.000 C 
BRANCH   2   3
ATOM      3  C   UNL     1     179.043 168.163 184.716  1.00  0.00    -0.003 C 
ATOM      4  C   UNL     1     178.914 168.897 183.382  1.00  0.00     0.004 C 
ENDBRANCH   2   3
ENDBRANCH   1   2
BRANCH   1   5
ATOM      5  C   UNL     1     176.481 170.571 186.104  1.00  0.00     0.028 C 
BRANCH   5   6
ATOM      6  C   UNL     1     175.613 170.015 184.972  1.00  0.00     0.156 C 
BRANCH   6   7
ATOM      7  O   UNL     1     174.486 169.359 185.487  1.00  0.00    -0.396 OA
ATOM      8  H   UNL     1     173.852 169.238 184.733  1.00  0.00     0.210 HD
ENDBRANCH   6   7
ENDBRANCH   5   6
ENDBRANCH   1   5
TORSDOF 5
ENDMDL
MODEL 6
REMARK VINA RESULT:    -3.162     13.702     15.582
REMARK INTER + INTRA:          -4.049
REMARK INTER:                  -3.964
REMARK INTRA:                  -0.085
REMARK UNBOUND:                -0.055
REMARK SMILES CCCCCCO
REMARK SMILES IDX 4 1 3 2 2 3 1 4 5 5 6 6 7 7
REMARK H PARENT 7 8
REMARK Flexibility Score: inf
ROOT
ATOM      1  C   UNL     1     166.333 175.606 185.536  1.00  0.00     0.002 C 
ENDROOT
BRANCH   1   2
ATOM      2  C   UNL     1     166.201 175.446 184.013  1.00  0.00    -0.000 C 
BRANCH   2   3
ATOM      3  C   UNL     1     165.490 176.638 183.354  1.00  0.00    -0.003 C 
ATOM      4  C   UNL     1     164.105 176.901 183.943  1.00  0.00     0.004 C 
ENDBRANCH   2   3
ENDBRANCH   1   2
BRANCH   1   5
ATOM      5  C   UNL     1     166.313 174.240 186.234  1.00  0.00     0.028 C 
BRANCH   5   6
ATOM      6  C   UNL     1     167.532 173.389 185.866  1.00  0.00     0.156 C 
BRANCH   6   7
ATOM      7  O   UNL     1     168.495 173.433 186.885  1.00  0.00    -0.396 OA
ATOM      8  H   UNL     1     168.074 173.046 187.696  1.00  0.00     0.210 HD
ENDBRANCH   6   7
ENDBRANCH   5   6
ENDBRANCH   1   5
TORSDOF 5
ENDMDL
MODEL 7
REMARK VINA RESULT:    -3.114      2.893      4.541
REMARK INTER + INTRA:          -3.988
REMARK INTER:                  -3.902
REMARK INTRA:                  -0.087
REMARK UNBOUND:                -0.055
REMARK SMILES CCCCCCO
REMARK SMILES IDX 4 1 3 2 2 3 1 4 5 5 6 6 7 7
REMARK H PARENT 7 8
REMARK Flexibility Score: inf
ROOT
ATOM      1  C   UNL     1     178.540 168.535 184.024  1.00  0.00     0.002 C 
ENDROOT
BRANCH   1   2
ATOM      2  C   UNL     1     179.600 167.486 183.656  1.00  0.00    -0.000 C 
BRANCH   2   3
ATOM      3  C   UNL     1     179.103 166.491 182.596  1.00  0.00    -0.003 C 
ATOM      4  C   UNL     1     178.085 167.106 181.637  1.00  0.00     0.004 C 
ENDBRANCH   2   3
ENDBRANCH   1   2
BRANCH   1   5
ATOM      5  C   UNL     1     178.071 168.357 185.474  1.00  0.00     0.028 C 
BRANCH   5   6
ATOM      6  C   UNL     1     177.616 169.679 186.097  1.00  0.00     0.156 C 
BRANCH   6   7
ATOM      7  O   UNL     1     178.714 170.406 186.580  1.00  0.00    -0.396 OA
ATOM      8  H   UNL     1     178.454 171.364 186.568  1.00  0.00     0.210 HD
ENDBRANCH   6   7
ENDBRANCH   5   6
ENDBRANCH   1   5
TORSDOF 5
ENDMDL
MODEL 8
REMARK VINA RESULT:    -3.106     15.372     16.593
REMARK INTER + INTRA:          -3.977
REMARK INTER:                  -3.855
REMARK INTRA:                  -0.123
REMARK UNBOUND:                -0.055
REMARK SMILES CCCCCCO
REMARK SMILES IDX 4 1 3 2 2 3 1 4 5 5 6 6 7 7
REMARK H PARENT 7 8
REMARK Flexibility Score: inf
ROOT
ATOM      1  C   UNL     1     165.056 176.433 184.281  1.00  0.00     0.002 C 
ENDROOT
BRANCH   1   2
ATOM      2  C   UNL     1     165.356 175.985 182.843  1.00  0.00    -0.000 C 
BRANCH   2   3
ATOM      3  C   UNL     1     166.231 176.992 182.080  1.00  0.00    -0.003 C 
ATOM      4  C   UNL     1     165.754 178.434 182.246  1.00  0.00     0.004 C 
ENDBRANCH   2   3
ENDBRANCH   1   2
BRANCH   1   5
ATOM      5  C   UNL     1     166.172 175.994 185.237  1.00  0.00     0.028 C 
BRANCH   5   6
ATOM      6  C   UNL     1     166.302 174.470 185.307  1.00  0.00     0.156 C 
BRANCH   6   7
ATOM      7  O   UNL     1     165.542 173.954 186.366  1.00  0.00    -0.396 OA
ATOM      8  H   UNL     1     166.018 174.190 187.205  1.00  0.00     0.210 HD
ENDBRANCH   6   7
ENDBRANCH   5   6
ENDBRANCH   1   5
TORSDOF 5
ENDMDL
MODEL 9
REMARK VINA RESULT:    -3.092      2.417      3.946
REMARK INTER + INTRA:          -3.960
REMARK INTER:                  -3.855
REMARK INTRA:                  -0.105
REMARK UNBOUND:                -0.055
REMARK SMILES CCCCCCO
REMARK SMILES IDX 4 1 3 2 2 3 1 4 5 5 6 6 7 7
REMARK H PARENT 7 8
REMARK Flexibility Score: inf
ROOT
ATOM      1  C   UNL     1     178.038 170.345 186.102  1.00  0.00     0.002 C 
ENDROOT
BRANCH   1   2
ATOM      2  C   UNL     1     176.639 170.870 186.460  1.00  0.00    -0.000 C 
BRANCH   2   3
ATOM      3  C   UNL     1     176.185 172.016 185.542  1.00  0.00    -0.003 C 
ATOM      4  C   UNL     1     177.221 172.364 184.475  1.00  0.00     0.004 C 
ENDBRANCH   2   3
ENDBRANCH   1   2
BRANCH   1   5
ATOM      5  C   UNL     1     178.003 168.838 185.818  1.00  0.00     0.028 C 
BRANCH   5   6
ATOM      6  C   UNL     1     178.856 168.463 184.603  1.00  0.00     0.156 C 
BRANCH   6   7
ATOM      7  O   UNL     1     179.885 167.584 184.971  1.00  0.00    -0.396 OA
ATOM      8  H   UNL     1     180.317 167.967 185.778  1.00  0.00     0.210 HD
ENDBRANCH   6   7
ENDBRANCH   5   6
ENDBRANCH   1   5
TORSDOF 5
ENDMDL
