MODEL 1
REMARK VINA RESULT:    -5.640      0.000      0.000
REMARK INTER + INTRA:          -8.166
REMARK INTER:                  -7.618
REMARK INTRA:                  -0.547
REMARK UNBOUND:                -0.547
REMARK SMILES CC(=O)CCC=C(C)CCC=C(C)C
REMARK SMILES IDX 7 1 6 2 8 3 9 4 10 5 11 6 13 7 12 8 14 9 5 10 4 11 2 12 3 13
REMARK SMILES IDX 1 14
REMARK H PARENT
REMARK Flexibility Score: inf
ROOT
ATOM      1  C   UNL     1      -4.126   0.429   1.772  1.00  0.00    -0.077 C 
ATOM      2  C   UNL     1      -4.477  -0.479   0.834  1.00  0.00    -0.028 C 
ATOM      3  C   UNL     1      -5.150   1.291   2.473  1.00  0.00     0.039 C 
ENDROOT
BRANCH   1   4
ATOM      4  C   UNL     1      -2.660   0.593   2.124  1.00  0.00     0.034 C 
BRANCH   4   5
ATOM      5  C   UNL     1      -1.897  -0.737   2.032  1.00  0.00     0.032 C 
BRANCH   5   6
ATOM      6  C   UNL     1      -1.683  -1.358   3.393  1.00  0.00    -0.028 C 
ATOM      7  C   UNL     1       0.367  -0.003   3.879  1.00  0.00     0.039 C 
ATOM      8  C   UNL     1      -0.691  -1.019   4.244  1.00  0.00    -0.080 C 
ATOM      9  C   UNL     1      -0.639  -1.695   5.589  1.00  0.00     0.039 C 
ENDBRANCH   5   6
ENDBRANCH   4   5
ENDBRANCH   1   4
BRANCH   2  10
ATOM     10  C   UNL     1      -5.900  -0.806   0.451  1.00  0.00     0.035 C 
BRANCH  10  11
ATOM     11  C   UNL     1      -6.100  -2.314   0.248  1.00  0.00     0.079 C 
BRANCH  11  12
ATOM     12  C   UNL     1      -6.185  -2.673  -1.212  1.00  0.00     0.130 C 
ATOM     13  O   UNL     1      -7.274  -2.707  -1.763  1.00  0.00    -0.300 OA
ATOM     14  C   UNL     1      -4.956  -3.029  -1.992  1.00  0.00     0.087 C 
ENDBRANCH  11  12
ENDBRANCH  10  11
ENDBRANCH   2  10
TORSDOF 6
ENDMDL
MODEL 2
REMARK VINA RESULT:    -5.560      2.049      2.951
REMARK INTER + INTRA:          -8.058
REMARK INTER:                  -6.707
REMARK INTRA:                  -1.351
REMARK UNBOUND:                -0.547
REMARK SMILES CC(=O)CCC=C(C)CCC=C(C)C
REMARK SMILES IDX 7 1 6 2 8 3 9 4 10 5 11 6 13 7 12 8 14 9 5 10 4 11 2 12 3 13
REMARK SMILES IDX 1 14
REMARK H PARENT
REMARK Flexibility Score: inf
ROOT
ATOM      1  C   UNL     1      -5.895  -0.003   0.504  1.00  0.00    -0.077 C 
ATOM      2  C   UNL     1      -6.319  -1.280   0.636  1.00  0.00    -0.028 C 
ATOM      3  C   UNL     1      -5.472   0.565  -0.830  1.00  0.00     0.039 C 
ENDROOT
BRANCH   1   4
ATOM      4  C   UNL     1      -5.836   0.882   1.733  1.00  0.00     0.034 C 
BRANCH   4   5
ATOM      5  C   UNL     1      -4.668   0.505   2.656  1.00  0.00     0.032 C 
BRANCH   5   6
ATOM      6  C   UNL     1      -3.341   0.561   1.934  1.00  0.00    -0.028 C 
ATOM      7  C   UNL     1      -2.989  -1.918   2.031  1.00  0.00     0.039 C 
ATOM      8  C   UNL     1      -2.591  -0.519   1.621  1.00  0.00    -0.080 C 
ATOM      9  C   UNL     1      -1.313  -0.304   0.853  1.00  0.00     0.039 C 
ENDBRANCH   5   6
ENDBRANCH   4   5
ENDBRANCH   1   4
BRANCH   2  10
ATOM     10  C   UNL     1      -6.510  -2.240  -0.513  1.00  0.00     0.035 C 
BRANCH  10  11
ATOM     11  C   UNL     1      -5.289  -3.151  -0.700  1.00  0.00     0.079 C 
BRANCH  11  12
ATOM     12  C   UNL     1      -4.607  -2.906  -2.021  1.00  0.00     0.130 C 
ATOM     13  O   UNL     1      -5.124  -3.310  -3.051  1.00  0.00    -0.300 OA
ATOM     14  C   UNL     1      -3.282  -2.210  -2.088  1.00  0.00     0.087 C 
ENDBRANCH  11  12
ENDBRANCH  10  11
ENDBRANCH   2  10
TORSDOF 6
ENDMDL
MODEL 3
REMARK VINA RESULT:    -5.415      1.153      1.595
REMARK INTER + INTRA:          -7.861
REMARK INTER:                  -7.367
REMARK INTRA:                  -0.494
REMARK UNBOUND:                -0.547
REMARK SMILES CC(=O)CCC=C(C)CCC=C(C)C
REMARK SMILES IDX 7 1 6 2 8 3 9 4 10 5 11 6 13 7 12 8 14 9 5 10 4 11 2 12 3 13
REMARK SMILES IDX 1 14
REMARK H PARENT
REMARK Flexibility Score: inf
ROOT
ATOM      1  C   UNL     1      -5.120  -0.589   1.131  1.00  0.00    -0.077 C 
ATOM      2  C   UNL     1      -4.922  -1.855   0.702  1.00  0.00    -0.028 C 
ATOM      3  C   UNL     1      -6.442   0.119   0.947  1.00  0.00     0.039 C 
ENDROOT
BRANCH   1   4
ATOM      4  C   UNL     1      -3.980   0.144   1.811  1.00  0.00     0.034 C 
BRANCH   4   5
ATOM      5  C   UNL     1      -2.650  -0.610   1.670  1.00  0.00     0.032 C 
BRANCH   5   6
ATOM      6  C   UNL     1      -2.193  -1.194   2.987  1.00  0.00    -0.028 C 
ATOM      7  C   UNL     1      -0.067   0.130   3.033  1.00  0.00     0.039 C 
ATOM      8  C   UNL     1      -1.053  -0.851   3.626  1.00  0.00    -0.080 C 
ATOM      9  C   UNL     1      -0.759  -1.486   4.959  1.00  0.00     0.039 C 
ENDBRANCH   5   6
ENDBRANCH   4   5
ENDBRANCH   1   4
BRANCH   2  10
ATOM     10  C   UNL     1      -5.992  -2.729   0.092  1.00  0.00     0.035 C 
BRANCH  10  11
ATOM     11  C   UNL     1      -6.095  -2.522  -1.425  1.00  0.00     0.079 C 
BRANCH  11  12
ATOM     12  C   UNL     1      -4.886  -3.063  -2.144  1.00  0.00     0.130 C 
ATOM     13  O   UNL     1      -4.851  -4.241  -2.463  1.00  0.00    -0.300 OA
ATOM     14  C   UNL     1      -3.706  -2.186  -2.438  1.00  0.00     0.087 C 
ENDBRANCH  11  12
ENDBRANCH  10  11
ENDBRANCH   2  10
TORSDOF 6
ENDMDL
MODEL 4
REMARK VINA RESULT:    -5.395      3.833      7.642
REMARK INTER + INTRA:          -7.835
REMARK INTER:                  -7.508
REMARK INTRA:                  -0.327
REMARK UNBOUND:                -0.547
REMARK SMILES CC(=O)CCC=C(C)CCC=C(C)C
REMARK SMILES IDX 7 1 6 2 8 3 9 4 10 5 11 6 13 7 12 8 14 9 5 10 4 11 2 12 3 13
REMARK SMILES IDX 1 14
REMARK H PARENT
REMARK Flexibility Score: inf
ROOT
ATOM      1  C   UNL     1      -1.750  -0.728   2.923  1.00  0.00    -0.077 C 
ATOM      2  C   UNL     1      -1.113  -1.080   4.062  1.00  0.00    -0.028 C 
ATOM      3  C   UNL     1      -1.221   0.356   2.013  1.00  0.00     0.039 C 
ENDROOT
BRANCH   1   4
ATOM      4  C   UNL     1      -3.038  -1.437   2.551  1.00  0.00     0.034 C 
BRANCH   4   5
ATOM      5  C   UNL     1      -3.912  -0.586   1.619  1.00  0.00     0.032 C 
BRANCH   5   6
ATOM      6  C   UNL     1      -4.718  -1.441   0.668  1.00  0.00    -0.028 C 
ATOM      7  C   UNL     1      -6.733   0.044   0.770  1.00  0.00     0.039 C 
ATOM      8  C   UNL     1      -5.972  -1.157   0.255  1.00  0.00    -0.080 C 
ATOM      9  C   UNL     1      -6.627  -2.082  -0.737  1.00  0.00     0.039 C 
ENDBRANCH   5   6
ENDBRANCH   4   5
ENDBRANCH   1   4
BRANCH   2  10
ATOM     10  C   UNL     1       0.217  -0.521   4.505  1.00  0.00     0.035 C 
BRANCH  10  11
ATOM     11  C   UNL     1       0.772  -1.276   5.721  1.00  0.00     0.079 C 
BRANCH  11  12
ATOM     12  C   UNL     1       1.995  -0.600   6.286  1.00  0.00     0.130 C 
ATOM     13  O   UNL     1       1.868   0.252   7.151  1.00  0.00    -0.300 OA
ATOM     14  C   UNL     1       3.364  -0.928   5.772  1.00  0.00     0.087 C 
ENDBRANCH  11  12
ENDBRANCH  10  11
ENDBRANCH   2  10
TORSDOF 6
ENDMDL
MODEL 5
REMARK VINA RESULT:    -5.331      2.576      4.280
REMARK INTER + INTRA:          -7.748
REMARK INTER:                  -6.534
REMARK INTRA:                  -1.214
REMARK UNBOUND:                -0.547
REMARK SMILES CC(=O)CCC=C(C)CCC=C(C)C
REMARK SMILES IDX 7 1 6 2 8 3 9 4 10 5 11 6 13 7 12 8 14 9 5 10 4 11 2 12 3 13
REMARK SMILES IDX 1 14
REMARK H PARENT
REMARK Flexibility Score: inf
ROOT
ATOM      1  C   UNL     1      -5.529  -1.124  -0.752  1.00  0.00    -0.077 C 
ATOM      2  C   UNL     1      -4.398  -1.133  -1.491  1.00  0.00    -0.028 C 
ATOM      3  C   UNL     1      -6.379  -2.360  -0.575  1.00  0.00     0.039 C 
ENDROOT
BRANCH   1   4
ATOM      4  C   UNL     1      -5.962   0.168  -0.086  1.00  0.00     0.034 C 
BRANCH   4   5
ATOM      5  C   UNL     1      -5.604   0.191   1.407  1.00  0.00     0.032 C 
BRANCH   5   6
ATOM      6  C   UNL     1      -4.174   0.624   1.636  1.00  0.00    -0.028 C 
ATOM      7  C   UNL     1      -3.362  -1.703   2.088  1.00  0.00     0.039 C 
ATOM      8  C   UNL     1      -3.152  -0.216   1.912  1.00  0.00    -0.080 C 
ATOM      9  C   UNL     1      -1.770   0.362   2.065  1.00  0.00     0.039 C 
ENDBRANCH   5   6
ENDBRANCH   4   5
ENDBRANCH   1   4
BRANCH   2  10
ATOM     10  C   UNL     1      -3.806  -2.365  -2.133  1.00  0.00     0.035 C 
BRANCH  10  11
ATOM     11  C   UNL     1      -2.302  -2.482  -1.854  1.00  0.00     0.079 C 
BRANCH  11  12
ATOM     12  C   UNL     1      -1.528  -1.357  -2.489  1.00  0.00     0.130 C 
ATOM     13  O   UNL     1      -1.470  -1.275  -3.705  1.00  0.00    -0.300 OA
ATOM     14  C   UNL     1      -0.791  -0.357  -1.649  1.00  0.00     0.087 C 
ENDBRANCH  11  12
ENDBRANCH  10  11
ENDBRANCH   2  10
TORSDOF 6
ENDMDL
MODEL 6
REMARK VINA RESULT:    -5.325      1.147      1.331
REMARK INTER + INTRA:          -7.741
REMARK INTER:                  -7.308
REMARK INTRA:                  -0.433
REMARK UNBOUND:                -0.547
REMARK SMILES CC(=O)CCC=C(C)CCC=C(C)C
REMARK SMILES IDX 7 1 6 2 8 3 9 4 10 5 11 6 13 7 12 8 14 9 5 10 4 11 2 12 3 13
REMARK SMILES IDX 1 14
REMARK H PARENT
REMARK Flexibility Score: inf
ROOT
ATOM      1  C   UNL     1      -3.785  -0.239   1.909  1.00  0.00    -0.077 C 
ATOM      2  C   UNL     1      -3.793  -0.710   0.642  1.00  0.00    -0.028 C 
ATOM      3  C   UNL     1      -4.507   1.031   2.293  1.00  0.00     0.039 C 
ENDROOT
BRANCH   1   4
ATOM      4  C   UNL     1      -3.024  -1.005   2.973  1.00  0.00     0.034 C 
BRANCH   4   5
ATOM      5  C   UNL     1      -1.538  -0.619   3.004  1.00  0.00     0.032 C 
BRANCH   5   6
ATOM      6  C   UNL     1      -0.792  -1.343   4.101  1.00  0.00    -0.028 C 
ATOM      7  C   UNL     1       0.693   0.608   4.615  1.00  0.00     0.039 C 
ATOM      8  C   UNL     1       0.189  -0.797   4.852  1.00  0.00    -0.080 C 
ATOM      9  C   UNL     1       0.804  -1.632   5.944  1.00  0.00     0.039 C 
ENDBRANCH   5   6
ENDBRANCH   4   5
ENDBRANCH   1   4
BRANCH   2  10
ATOM     10  C   UNL     1      -4.579  -0.099  -0.493  1.00  0.00     0.035 C 
BRANCH  10  11
ATOM     11  C   UNL     1      -6.004  -0.664  -0.564  1.00  0.00     0.079 C 
BRANCH  11  12
ATOM     12  C   UNL     1      -6.004  -2.169  -0.620  1.00  0.00     0.130 C 
ATOM     13  O   UNL     1      -6.352  -2.810   0.360  1.00  0.00    -0.300 OA
ATOM     14  C   UNL     1      -5.545  -2.896  -1.847  1.00  0.00     0.087 C 
ENDBRANCH  11  12
ENDBRANCH  10  11
ENDBRANCH   2  10
TORSDOF 6
ENDMDL
MODEL 7
REMARK VINA RESULT:    -5.311      2.600      5.471
REMARK INTER + INTRA:          -7.722
REMARK INTER:                  -6.495
REMARK INTRA:                  -1.227
REMARK UNBOUND:                -0.547
REMARK SMILES CC(=O)CCC=C(C)CCC=C(C)C
REMARK SMILES IDX 7 1 6 2 8 3 9 4 10 5 11 6 13 7 12 8 14 9 5 10 4 11 2 12 3 13
REMARK SMILES IDX 1 14
REMARK H PARENT
REMARK Flexibility Score: inf
ROOT
ATOM      1  C   UNL     1      -5.582  -1.196   0.696  1.00  0.00    -0.077 C 
ATOM      2  C   UNL     1      -4.485  -1.154   1.484  1.00  0.00    -0.028 C 
ATOM      3  C   UNL     1      -6.450   0.020   0.468  1.00  0.00     0.039 C 
ENDROOT
BRANCH   1   4
ATOM      4  C   UNL     1      -5.957  -2.504   0.027  1.00  0.00     0.034 C 
BRANCH   4   5
ATOM      5  C   UNL     1      -5.580  -2.515  -1.462  1.00  0.00     0.032 C 
BRANCH   5   6
ATOM      6  C   UNL     1      -4.133  -2.896  -1.673  1.00  0.00    -0.028 C 
ATOM      7  C   UNL     1      -3.383  -0.532  -2.028  1.00  0.00     0.039 C 
ATOM      8  C   UNL     1      -3.132  -2.017  -1.898  1.00  0.00    -0.080 C 
ATOM      9  C   UNL     1      -1.730  -2.549  -2.038  1.00  0.00     0.039 C 
ENDBRANCH   5   6
ENDBRANCH   4   5
ENDBRANCH   1   4
BRANCH   2  10
ATOM     10  C   UNL     1      -3.949   0.096   2.137  1.00  0.00     0.035 C 
BRANCH  10  11
ATOM     11  C   UNL     1      -2.447   0.273   1.876  1.00  0.00     0.079 C 
BRANCH  11  12
ATOM     12  C   UNL     1      -1.643  -0.860   2.458  1.00  0.00     0.130 C 
ATOM     13  O   UNL     1      -1.622  -1.026   3.668  1.00  0.00    -0.300 OA
ATOM     14  C   UNL     1      -0.834  -1.765   1.578  1.00  0.00     0.087 C 
ENDBRANCH  11  12
ENDBRANCH  10  11
ENDBRANCH   2  10
TORSDOF 6
ENDMDL
MODEL 8
REMARK VINA RESULT:    -5.288      2.551      6.313
REMARK INTER + INTRA:          -7.690
REMARK INTER:                  -6.739
REMARK INTRA:                  -0.951
REMARK UNBOUND:                -0.547
REMARK SMILES CC(=O)CCC=C(C)CCC=C(C)C
REMARK SMILES IDX 7 1 6 2 8 3 9 4 10 5 11 6 13 7 12 8 14 9 5 10 4 11 2 12 3 13
REMARK SMILES IDX 1 14
REMARK H PARENT
REMARK Flexibility Score: inf
ROOT
ATOM      1  C   UNL     1      -3.430  -0.321   2.033  1.00  0.00    -0.077 C 
ATOM      2  C   UNL     1      -2.246   0.329   1.968  1.00  0.00    -0.028 C 
ATOM      3  C   UNL     1      -3.510  -1.822   2.181  1.00  0.00     0.039 C 
ENDROOT
BRANCH   1   4
ATOM      4  C   UNL     1      -4.714   0.480   1.948  1.00  0.00     0.034 C 
BRANCH   4   5
ATOM      5  C   UNL     1      -5.153   0.705   0.493  1.00  0.00     0.032 C 
BRANCH   5   6
ATOM      6  C   UNL     1      -6.139  -0.346   0.035  1.00  0.00    -0.028 C 
ATOM      7  C   UNL     1      -4.438  -1.605  -1.304  1.00  0.00     0.039 C 
ATOM      8  C   UNL     1      -5.828  -1.403  -0.746  1.00  0.00    -0.080 C 
ATOM      9  C   UNL     1      -6.913  -2.394  -1.076  1.00  0.00     0.039 C 
ENDBRANCH   5   6
ENDBRANCH   4   5
ENDBRANCH   1   4
BRANCH   2  10
ATOM     10  C   UNL     1      -0.898  -0.332   2.128  1.00  0.00     0.035 C 
BRANCH  10  11
ATOM     11  C   UNL     1      -0.402  -0.262   3.578  1.00  0.00     0.079 C 
BRANCH  11  12
ATOM     12  C   UNL     1      -0.373  -1.623   4.224  1.00  0.00     0.130 C 
ATOM     13  O   UNL     1      -0.384  -2.623   3.523  1.00  0.00    -0.300 OA
ATOM     14  C   UNL     1      -0.371  -1.770   5.715  1.00  0.00     0.087 C 
ENDBRANCH  11  12
ENDBRANCH  10  11
ENDBRANCH   2  10
TORSDOF 6
ENDMDL
MODEL 9
REMARK VINA RESULT:    -5.275      1.696      2.978
REMARK INTER + INTRA:          -7.672
REMARK INTER:                  -6.954
REMARK INTRA:                  -0.718
REMARK UNBOUND:                -0.547
REMARK SMILES CC(=O)CCC=C(C)CCC=C(C)C
REMARK SMILES IDX 7 1 6 2 8 3 9 4 10 5 11 6 13 7 12 8 14 9 5 10 4 11 2 12 3 13
REMARK SMILES IDX 1 14
REMARK H PARENT
REMARK Flexibility Score: inf
ROOT
ATOM      1  C   UNL     1      -1.810  -0.611   2.646  1.00  0.00    -0.077 C 
ATOM      2  C   UNL     1      -3.161  -0.645   2.631  1.00  0.00    -0.028 C 
ATOM      3  C   UNL     1      -1.030   0.481   1.953  1.00  0.00     0.039 C 
ENDROOT
BRANCH   1   4
ATOM      4  C   UNL     1      -1.055  -1.706   3.374  1.00  0.00     0.034 C 
BRANCH   4   5
ATOM      5  C   UNL     1      -0.969  -1.438   4.883  1.00  0.00     0.032 C 
BRANCH   5   6
ATOM      6  C   UNL     1       0.443  -1.582   5.401  1.00  0.00    -0.028 C 
ATOM      7  C   UNL     1       0.985   0.846   5.103  1.00  0.00     0.039 C 
ATOM      8  C   UNL     1       1.321  -0.564   5.533  1.00  0.00    -0.080 C 
ATOM      9  C   UNL     1       2.679  -0.859   6.113  1.00  0.00     0.039 C 
ENDBRANCH   5   6
ENDBRANCH   4   5
ENDBRANCH   1   4
BRANCH   2  10
ATOM     10  C   UNL     1      -4.036   0.424   2.023  1.00  0.00     0.035 C 
BRANCH  10  11
ATOM     11  C   UNL     1      -4.509   0.036   0.615  1.00  0.00     0.079 C 
BRANCH  11  12
ATOM     12  C   UNL     1      -5.868  -0.613   0.643  1.00  0.00     0.130 C 
ATOM     13  O   UNL     1      -6.848   0.051   0.942  1.00  0.00    -0.300 OA
ATOM     14  C   UNL     1      -6.032  -2.074   0.348  1.00  0.00     0.087 C 
ENDBRANCH  11  12
ENDBRANCH  10  11
ENDBRANCH   2  10
TORSDOF 6
ENDMDL
