MODEL 1
REMARK VINA RESULT:    -3.192      0.000      0.000
REMARK INTER + INTRA:          -8.486
REMARK INTER:                  -5.804
REMARK INTRA:                  -2.682
REMARK UNBOUND:                -2.682
REMARK SMILES CCCCCCCCCCCCCCCC(=O)[O-]
REMARK SMILES IDX 9 1 10 2 11 3 12 4 13 5 14 6 15 7 16 8 17 9 18 10 8 11 7 12
REMARK SMILES IDX 6 13 5 14 4 15 3 16 2 17 1 18
REMARK H PARENT
REMARK Flexibility Score: inf
ROOT
ATOM      1  C   UNL     1      -2.434  -8.862 -42.397  1.00  0.00     0.000 C 
ENDROOT
BRANCH   1   2
ATOM      2  C   UNL     1      -2.814  -8.539 -40.939  1.00  0.00     0.000 C 
BRANCH   2   3
ATOM      3  C   UNL     1      -1.644  -8.749 -39.966  1.00  0.00     0.000 C 
BRANCH   3   4
ATOM      4  C   UNL     1      -0.369  -9.243 -40.674  1.00  0.00     0.000 C 
BRANCH   4   5
ATOM      5  C   UNL     1      -0.002 -10.686 -40.293  1.00  0.00     0.000 C 
BRANCH   5   6
ATOM      6  C   UNL     1       0.419 -11.528 -41.510  1.00  0.00     0.006 C 
BRANCH   6   7
ATOM      7  C   UNL     1       0.754 -10.658 -42.728  1.00  0.00     0.053 C 
BRANCH   7   8
ATOM      8  C   UNL     1       2.205 -10.749 -43.093  1.00  0.00     0.041 C 
ATOM      9  O   UNL     1       2.548 -10.904 -44.294  1.00  0.00    -0.550 OA
ATOM     10  O   UNL     1       3.176 -10.689 -42.102  1.00  0.00    -0.550 OA
ENDBRANCH   7   8
ENDBRANCH   6   7
ENDBRANCH   5   6
ENDBRANCH   4   5
ENDBRANCH   3   4
ENDBRANCH   2   3
ENDBRANCH   1   2
BRANCH   1  11
ATOM     11  C   UNL     1      -3.622  -9.392 -43.215  1.00  0.00     0.000 C 
BRANCH  11  12
ATOM     12  C   UNL     1      -4.185 -10.710 -42.653  1.00  0.00    -0.000 C 
BRANCH  12  13
ATOM     13  C   UNL     1      -3.097 -11.777 -42.453  1.00  0.00    -0.000 C 
BRANCH  13  14
ATOM     14  C   UNL     1      -3.212 -12.496 -41.099  1.00  0.00    -0.000 C 
BRANCH  14  15
ATOM     15  C   UNL     1      -4.331 -11.881 -40.244  1.00  0.00    -0.000 C 
BRANCH  15  16
ATOM     16  C   UNL     1      -4.024 -11.964 -38.734  1.00  0.00    -0.000 C 
BRANCH  16  17
ATOM     17  C   UNL     1      -2.582 -12.397 -38.423  1.00  0.00    -0.003 C 
ATOM     18  C   UNL     1      -1.931 -11.567 -37.318  1.00  0.00     0.004 C 
ENDBRANCH  16  17
ENDBRANCH  15  16
ENDBRANCH  14  15
ENDBRANCH  13  14
ENDBRANCH  12  13
ENDBRANCH  11  12
ENDBRANCH   1  11
TORSDOF 14
ENDMDL
MODEL 2
REMARK VINA RESULT:    -3.110      2.303      4.397
REMARK INTER + INTRA:          -8.337
REMARK INTER:                  -6.720
REMARK INTRA:                  -1.617
REMARK UNBOUND:                -2.682
REMARK SMILES CCCCCCCCCCCCCCCC(=O)[O-]
REMARK SMILES IDX 9 1 10 2 11 3 12 4 13 5 14 6 15 7 16 8 17 9 18 10 8 11 7 12
REMARK SMILES IDX 6 13 5 14 4 15 3 16 2 17 1 18
REMARK H PARENT
REMARK Flexibility Score: inf
ROOT
ATOM      1  C   UNL     1      -1.470  -7.118 -38.433  1.00  0.00     0.000 C 
ENDROOT
BRANCH   1   2
ATOM      2  C   UNL     1      -1.660  -8.167 -39.544  1.00  0.00     0.000 C 
BRANCH   2   3
ATOM      3  C   UNL     1      -1.739  -9.600 -38.994  1.00  0.00     0.000 C 
BRANCH   3   4
ATOM      4  C   UNL     1      -0.670 -10.525 -39.603  1.00  0.00     0.000 C 
BRANCH   4   5
ATOM      5  C   UNL     1      -1.237 -11.445 -40.695  1.00  0.00     0.000 C 
BRANCH   5   6
ATOM      6  C   UNL     1      -0.516 -11.274 -42.044  1.00  0.00     0.006 C 
BRANCH   6   7
ATOM      7  C   UNL     1      -0.357  -9.799 -42.432  1.00  0.00     0.053 C 
BRANCH   7   8
ATOM      8  C   UNL     1       1.079  -9.435 -42.656  1.00  0.00     0.041 C 
ATOM      9  O   UNL     1       1.400  -8.678 -43.608  1.00  0.00    -0.550 OA
ATOM     10  O   UNL     1       2.065  -9.954 -41.827  1.00  0.00    -0.550 OA
ENDBRANCH   7   8
ENDBRANCH   6   7
ENDBRANCH   5   6
ENDBRANCH   4   5
ENDBRANCH   3   4
ENDBRANCH   2   3
ENDBRANCH   1   2
BRANCH   1  11
ATOM     11  C   UNL     1      -0.359  -7.500 -37.442  1.00  0.00     0.000 C 
BRANCH  11  12
ATOM     12  C   UNL     1      -0.794  -7.332 -35.975  1.00  0.00    -0.000 C 
BRANCH  12  13
ATOM     13  C   UNL     1      -1.302  -8.644 -35.357  1.00  0.00    -0.000 C 
BRANCH  13  14
ATOM     14  C   UNL     1      -0.361  -9.830 -35.624  1.00  0.00    -0.000 C 
BRANCH  14  15
ATOM     15  C   UNL     1      -0.463 -10.876 -34.503  1.00  0.00    -0.000 C 
BRANCH  15  16
ATOM     16  C   UNL     1      -1.538 -11.944 -34.798  1.00  0.00    -0.000 C 
BRANCH  16  17
ATOM     17  C   UNL     1      -1.901 -12.056 -36.288  1.00  0.00    -0.003 C 
ATOM     18  C   UNL     1      -1.412 -13.355 -36.928  1.00  0.00     0.004 C 
ENDBRANCH  16  17
ENDBRANCH  15  16
ENDBRANCH  14  15
ENDBRANCH  13  14
ENDBRANCH  12  13
ENDBRANCH  11  12
ENDBRANCH   1  11
TORSDOF 14
ENDMDL
MODEL 3
REMARK VINA RESULT:    -3.109      4.269      6.685
REMARK INTER + INTRA:          -8.335
REMARK INTER:                  -6.992
REMARK INTRA:                  -1.343
REMARK UNBOUND:                -2.682
REMARK SMILES CCCCCCCCCCCCCCCC(=O)[O-]
REMARK SMILES IDX 9 1 10 2 11 3 12 4 13 5 14 6 15 7 16 8 17 9 18 10 8 11 7 12
REMARK SMILES IDX 6 13 5 14 4 15 3 16 2 17 1 18
REMARK H PARENT
REMARK Flexibility Score: inf
ROOT
ATOM      1  C   UNL     1      -1.062  -7.146 -38.564  1.00  0.00     0.000 C 
ENDROOT
BRANCH   1   2
ATOM      2  C   UNL     1      -0.258  -7.786 -37.417  1.00  0.00     0.000 C 
BRANCH   2   3
ATOM      3  C   UNL     1      -0.817  -7.423 -36.033  1.00  0.00     0.000 C 
BRANCH   3   4
ATOM      4  C   UNL     1      -1.392  -8.644 -35.291  1.00  0.00     0.000 C 
BRANCH   4   5
ATOM      5  C   UNL     1      -0.888  -9.977 -35.867  1.00  0.00     0.000 C 
BRANCH   5   6
ATOM      6  C   UNL     1      -0.023 -10.763 -34.867  1.00  0.00     0.006 C 
BRANCH   6   7
ATOM      7  C   UNL     1      -0.771 -11.055 -33.560  1.00  0.00     0.053 C 
BRANCH   7   8
ATOM      8  C   UNL     1      -0.747 -12.514 -33.220  1.00  0.00     0.041 C 
ATOM      9  O   UNL     1      -1.809 -13.108 -32.900  1.00  0.00    -0.550 OA
ATOM     10  O   UNL     1       0.455 -13.210 -33.232  1.00  0.00    -0.550 OA
ENDBRANCH   7   8
ENDBRANCH   6   7
ENDBRANCH   5   6
ENDBRANCH   4   5
ENDBRANCH   3   4
ENDBRANCH   2   3
ENDBRANCH   1   2
BRANCH   1  11
ATOM     11  C   UNL     1      -1.872  -8.177 -39.367  1.00  0.00     0.000 C 
BRANCH  11  12
ATOM     12  C   UNL     1      -0.981  -9.251 -40.016  1.00  0.00    -0.000 C 
BRANCH  12  13
ATOM     13  C   UNL     1      -1.340 -10.672 -39.553  1.00  0.00    -0.000 C 
BRANCH  13  14
ATOM     14  C   UNL     1      -0.442 -11.747 -40.186  1.00  0.00    -0.000 C 
BRANCH  14  15
ATOM     15  C   UNL     1      -0.090 -11.384 -41.638  1.00  0.00    -0.000 C 
BRANCH  15  16
ATOM     16  C   UNL     1       1.421 -11.520 -41.923  1.00  0.00    -0.000 C 
BRANCH  16  17
ATOM     17  C   UNL     1       2.134 -10.171 -42.112  1.00  0.00    -0.003 C 
ATOM     18  C   UNL     1       1.321  -9.173 -42.935  1.00  0.00     0.004 C 
ENDBRANCH  16  17
ENDBRANCH  15  16
ENDBRANCH  14  15
ENDBRANCH  13  14
ENDBRANCH  12  13
ENDBRANCH  11  12
ENDBRANCH   1  11
TORSDOF 14
ENDMDL
MODEL 4
REMARK VINA RESULT:    -3.094      2.554      4.397
REMARK INTER + INTRA:          -8.308
REMARK INTER:                  -7.302
REMARK INTRA:                  -1.006
REMARK UNBOUND:                -2.682
REMARK SMILES CCCCCCCCCCCCCCCC(=O)[O-]
REMARK SMILES IDX 9 1 10 2 11 3 12 4 13 5 14 6 15 7 16 8 17 9 18 10 8 11 7 12
REMARK SMILES IDX 6 13 5 14 4 15 3 16 2 17 1 18
REMARK H PARENT
REMARK Flexibility Score: inf
ROOT
ATOM      1  C   UNL     1      -2.028  -7.917 -39.748  1.00  0.00     0.000 C 
ENDROOT
BRANCH   1   2
ATOM      2  C   UNL     1      -2.698  -9.117 -40.444  1.00  0.00     0.000 C 
BRANCH   2   3
ATOM      3  C   UNL     1      -2.361  -9.192 -41.941  1.00  0.00     0.000 C 
BRANCH   3   4
ATOM      4  C   UNL     1      -1.609 -10.483 -42.312  1.00  0.00     0.000 C 
BRANCH   4   5
ATOM      5  C   UNL     1      -0.295 -10.647 -41.532  1.00  0.00     0.000 C 
BRANCH   5   6
ATOM      6  C   UNL     1       0.732  -9.552 -41.868  1.00  0.00     0.006 C 
BRANCH   6   7
ATOM      7  C   UNL     1       1.577  -9.909 -43.097  1.00  0.00     0.053 C 
BRANCH   7   8
ATOM      8  C   UNL     1       2.219 -11.256 -42.957  1.00  0.00     0.041 C 
ATOM      9  O   UNL     1       1.961 -12.171 -43.782  1.00  0.00    -0.550 OA
ATOM     10  O   UNL     1       3.084 -11.507 -41.900  1.00  0.00    -0.550 OA
ENDBRANCH   7   8
ENDBRANCH   6   7
ENDBRANCH   5   6
ENDBRANCH   4   5
ENDBRANCH   3   4
ENDBRANCH   2   3
ENDBRANCH   1   2
BRANCH   1  11
ATOM     11  C   UNL     1      -1.035  -8.345 -38.655  1.00  0.00     0.000 C 
BRANCH  11  12
ATOM     12  C   UNL     1      -0.686  -7.195 -37.693  1.00  0.00    -0.000 C 
BRANCH  12  13
ATOM     13  C   UNL     1      -0.735  -7.625 -36.218  1.00  0.00    -0.000 C 
BRANCH  13  14
ATOM     14  C   UNL     1      -0.401  -9.112 -36.022  1.00  0.00    -0.000 C 
BRANCH  14  15
ATOM     15  C   UNL     1      -1.174  -9.696 -34.829  1.00  0.00    -0.000 C 
BRANCH  15  16
ATOM     16  C   UNL     1      -0.596 -11.050 -34.365  1.00  0.00    -0.000 C 
BRANCH  16  17
ATOM     17  C   UNL     1      -1.463 -11.760 -33.313  1.00  0.00    -0.003 C 
ATOM     18  C   UNL     1      -0.987 -11.519 -31.881  1.00  0.00     0.004 C 
ENDBRANCH  16  17
ENDBRANCH  15  16
ENDBRANCH  14  15
ENDBRANCH  13  14
ENDBRANCH  12  13
ENDBRANCH  11  12
ENDBRANCH   1  11
TORSDOF 14
ENDMDL
MODEL 5
REMARK VINA RESULT:    -3.085      2.720      5.232
REMARK INTER + INTRA:          -8.292
REMARK INTER:                  -6.468
REMARK INTRA:                  -1.823
REMARK UNBOUND:                -2.682
REMARK SMILES CCCCCCCCCCCCCCCC(=O)[O-]
REMARK SMILES IDX 9 1 10 2 11 3 12 4 13 5 14 6 15 7 16 8 17 9 18 10 8 11 7 12
REMARK SMILES IDX 6 13 5 14 4 15 3 16 2 17 1 18
REMARK H PARENT
REMARK Flexibility Score: inf
ROOT
ATOM      1  C   UNL     1      -5.707 -11.001 -44.227  1.00  0.00     0.000 C 
ENDROOT
BRANCH   1   2
ATOM      2  C   UNL     1      -5.423 -11.313 -42.746  1.00  0.00     0.000 C 
BRANCH   2   3
ATOM      3  C   UNL     1      -4.007 -10.901 -42.318  1.00  0.00     0.000 C 
BRANCH   3   4
ATOM      4  C   UNL     1      -2.960 -11.990 -42.618  1.00  0.00     0.000 C 
BRANCH   4   5
ATOM      5  C   UNL     1      -1.521 -11.511 -42.367  1.00  0.00     0.000 C 
BRANCH   5   6
ATOM      6  C   UNL     1      -1.399  -9.978 -42.374  1.00  0.00     0.006 C 
BRANCH   6   7
ATOM      7  C   UNL     1      -0.271  -9.483 -41.460  1.00  0.00     0.053 C 
BRANCH   7   8
ATOM      8  C   UNL     1       1.055  -9.495 -42.157  1.00  0.00     0.041 C 
ATOM      9  O   UNL     1       2.041 -10.078 -41.636  1.00  0.00    -0.550 OA
ATOM     10  O   UNL     1       1.207  -8.839 -43.372  1.00  0.00    -0.550 OA
ENDBRANCH   7   8
ENDBRANCH   6   7
ENDBRANCH   5   6
ENDBRANCH   4   5
ENDBRANCH   3   4
ENDBRANCH   2   3
ENDBRANCH   1   2
BRANCH   1  11
ATOM     11  C   UNL     1      -7.121 -10.446 -44.456  1.00  0.00     0.000 C 
BRANCH  11  12
ATOM     12  C   UNL     1      -7.221  -9.595 -45.736  1.00  0.00    -0.000 C 
BRANCH  12  13
ATOM     13  C   UNL     1      -6.079  -9.880 -46.723  1.00  0.00    -0.000 C 
BRANCH  13  14
ATOM     14  C   UNL     1      -5.579  -8.614 -47.435  1.00  0.00    -0.000 C 
BRANCH  14  15
ATOM     15  C   UNL     1      -4.078  -8.397 -47.183  1.00  0.00    -0.000 C 
BRANCH  15  16
ATOM     16  C   UNL     1      -3.818  -7.378 -46.053  1.00  0.00    -0.000 C 
BRANCH  16  17
ATOM     17  C   UNL     1      -3.626  -8.028 -44.672  1.00  0.00    -0.003 C 
ATOM     18  C   UNL     1      -4.561  -7.459 -43.607  1.00  0.00     0.004 C 
ENDBRANCH  16  17
ENDBRANCH  15  16
ENDBRANCH  14  15
ENDBRANCH  13  14
ENDBRANCH  12  13
ENDBRANCH  11  12
ENDBRANCH   1  11
TORSDOF 14
ENDMDL
MODEL 6
REMARK VINA RESULT:    -3.067      4.435      6.648
REMARK INTER + INTRA:          -8.258
REMARK INTER:                  -7.161
REMARK INTRA:                  -1.097
REMARK UNBOUND:                -2.682
REMARK SMILES CCCCCCCCCCCCCCCC(=O)[O-]
REMARK SMILES IDX 9 1 10 2 11 3 12 4 13 5 14 6 15 7 16 8 17 9 18 10 8 11 7 12
REMARK SMILES IDX 6 13 5 14 4 15 3 16 2 17 1 18
REMARK H PARENT
REMARK Flexibility Score: inf
ROOT
ATOM      1  C   UNL     1      -1.957  -7.873 -39.370  1.00  0.00     0.000 C 
ENDROOT
BRANCH   1   2
ATOM      2  C   UNL     1      -0.608  -8.468 -38.925  1.00  0.00     0.000 C 
BRANCH   2   3
ATOM      3  C   UNL     1      -0.749  -9.413 -37.722  1.00  0.00     0.000 C 
BRANCH   3   4
ATOM      4  C   UNL     1      -0.564  -8.687 -36.377  1.00  0.00     0.000 C 
BRANCH   4   5
ATOM      5  C   UNL     1      -1.172  -9.463 -35.198  1.00  0.00     0.000 C 
BRANCH   5   6
ATOM      6  C   UNL     1      -0.286 -10.635 -34.742  1.00  0.00     0.006 C 
BRANCH   6   7
ATOM      7  C   UNL     1      -1.115 -11.843 -34.286  1.00  0.00     0.053 C 
BRANCH   7   8
ATOM      8  C   UNL     1      -0.825 -12.209 -32.862  1.00  0.00     0.041 C 
ATOM      9  O   UNL     1      -0.632 -13.411 -32.543  1.00  0.00    -0.550 OA
ATOM     10  O   UNL     1      -0.795 -11.224 -31.884  1.00  0.00    -0.550 OA
ENDBRANCH   7   8
ENDBRANCH   6   7
ENDBRANCH   5   6
ENDBRANCH   4   5
ENDBRANCH   3   4
ENDBRANCH   2   3
ENDBRANCH   1   2
BRANCH   1  11
ATOM     11  C   UNL     1      -2.729  -8.802 -40.320  1.00  0.00     0.000 C 
BRANCH  11  12
ATOM     12  C   UNL     1      -2.719  -8.297 -41.775  1.00  0.00    -0.000 C 
BRANCH  12  13
ATOM     13  C   UNL     1      -2.122  -9.323 -42.750  1.00  0.00    -0.000 C 
BRANCH  13  14
ATOM     14  C   UNL     1      -1.019 -10.181 -42.109  1.00  0.00    -0.000 C 
BRANCH  14  15
ATOM     15  C   UNL     1       0.369  -9.573 -42.366  1.00  0.00    -0.000 C 
BRANCH  15  16
ATOM     16  C   UNL     1       1.467 -10.246 -41.516  1.00  0.00    -0.000 C 
BRANCH  16  17
ATOM     17  C   UNL     1       2.616 -10.836 -42.351  1.00  0.00    -0.003 C 
ATOM     18  C   UNL     1       2.136 -11.796 -43.438  1.00  0.00     0.004 C 
ENDBRANCH  16  17
ENDBRANCH  15  16
ENDBRANCH  14  15
ENDBRANCH  13  14
ENDBRANCH  12  13
ENDBRANCH  11  12
ENDBRANCH   1  11
TORSDOF 14
ENDMDL
MODEL 7
REMARK VINA RESULT:    -3.034      3.430      5.518
REMARK INTER + INTRA:          -8.198
REMARK INTER:                  -6.603
REMARK INTRA:                  -1.596
REMARK UNBOUND:                -2.682
REMARK SMILES CCCCCCCCCCCCCCCC(=O)[O-]
REMARK SMILES IDX 9 1 10 2 11 3 12 4 13 5 14 6 15 7 16 8 17 9 18 10 8 11 7 12
REMARK SMILES IDX 6 13 5 14 4 15 3 16 2 17 1 18
REMARK H PARENT
REMARK Flexibility Score: inf
ROOT
ATOM      1  C   UNL     1      -3.308  -7.579 -45.434  1.00  0.00     0.000 C 
ENDROOT
BRANCH   1   2
ATOM      2  C   UNL     1      -4.526  -7.414 -44.506  1.00  0.00     0.000 C 
BRANCH   2   3
ATOM      3  C   UNL     1      -4.262  -7.947 -43.090  1.00  0.00     0.000 C 
BRANCH   3   4
ATOM      4  C   UNL     1      -2.870  -8.590 -42.951  1.00  0.00     0.000 C 
BRANCH   4   5
ATOM      5  C   UNL     1      -2.942 -10.100 -42.676  1.00  0.00     0.000 C 
BRANCH   5   6
ATOM      6  C   UNL     1      -1.628 -10.659 -42.102  1.00  0.00     0.006 C 
BRANCH   6   7
ATOM      7  C   UNL     1      -0.553  -9.574 -41.956  1.00  0.00     0.053 C 
BRANCH   7   8
ATOM      8  C   UNL     1       0.663  -9.884 -42.774  1.00  0.00     0.041 C 
ATOM      9  O   UNL     1       1.022 -11.077 -42.951  1.00  0.00    -0.550 OA
ATOM     10  O   UNL     1       1.415  -8.851 -43.320  1.00  0.00    -0.550 OA
ENDBRANCH   7   8
ENDBRANCH   6   7
ENDBRANCH   5   6
ENDBRANCH   4   5
ENDBRANCH   3   4
ENDBRANCH   2   3
ENDBRANCH   1   2
BRANCH   1  11
ATOM     11  C   UNL     1      -3.502  -6.890 -46.795  1.00  0.00     0.000 C 
BRANCH  11  12
ATOM     12  C   UNL     1      -3.204  -7.829 -47.978  1.00  0.00    -0.000 C 
BRANCH  12  13
ATOM     13  C   UNL     1      -4.464  -8.173 -48.788  1.00  0.00    -0.000 C 
BRANCH  13  14
ATOM     14  C   UNL     1      -5.161  -9.449 -48.289  1.00  0.00    -0.000 C 
BRANCH  14  15
ATOM     15  C   UNL     1      -6.418  -9.106 -47.475  1.00  0.00    -0.000 C 
BRANCH  15  16
ATOM     16  C   UNL     1      -6.940 -10.314 -46.669  1.00  0.00    -0.000 C 
BRANCH  16  17
ATOM     17  C   UNL     1      -6.942 -10.084 -45.148  1.00  0.00    -0.003 C 
ATOM     18  C   UNL     1      -5.993 -11.017 -44.399  1.00  0.00     0.004 C 
ENDBRANCH  16  17
ENDBRANCH  15  16
ENDBRANCH  14  15
ENDBRANCH  13  14
ENDBRANCH  12  13
ENDBRANCH  11  12
ENDBRANCH   1  11
TORSDOF 14
ENDMDL
MODEL 8
REMARK VINA RESULT:    -3.022      1.356      2.069
REMARK INTER + INTRA:          -8.178
REMARK INTER:                  -6.182
REMARK INTRA:                  -1.996
REMARK UNBOUND:                -2.682
REMARK SMILES CCCCCCCCCCCCCCCC(=O)[O-]
REMARK SMILES IDX 9 1 10 2 11 3 12 4 13 5 14 6 15 7 16 8 17 9 18 10 8 11 7 12
REMARK SMILES IDX 6 13 5 14 4 15 3 16 2 17 1 18
REMARK H PARENT
REMARK Flexibility Score: inf
ROOT
ATOM      1  C   UNL     1      -4.597  -9.337 -43.925  1.00  0.00     0.000 C 
ENDROOT
BRANCH   1   2
ATOM      2  C   UNL     1      -3.447  -8.423 -43.464  1.00  0.00     0.000 C 
BRANCH   2   3
ATOM      3  C   UNL     1      -3.415  -8.241 -41.939  1.00  0.00     0.000 C 
BRANCH   3   4
ATOM      4  C   UNL     1      -2.063  -8.647 -41.325  1.00  0.00     0.000 C 
BRANCH   4   5
ATOM      5  C   UNL     1      -1.093  -9.231 -42.364  1.00  0.00     0.000 C 
BRANCH   5   6
ATOM      6  C   UNL     1       0.222  -9.722 -41.734  1.00  0.00     0.006 C 
BRANCH   6   7
ATOM      7  C   UNL     1       1.430  -9.467 -42.644  1.00  0.00     0.053 C 
BRANCH   7   8
ATOM      8  C   UNL     1       1.794 -10.684 -43.439  1.00  0.00     0.041 C 
ATOM      9  O   UNL     1       1.719 -11.828 -42.918  1.00  0.00    -0.550 OA
ATOM     10  O   UNL     1       2.242 -10.552 -44.747  1.00  0.00    -0.550 OA
ENDBRANCH   7   8
ENDBRANCH   6   7
ENDBRANCH   5   6
ENDBRANCH   4   5
ENDBRANCH   3   4
ENDBRANCH   2   3
ENDBRANCH   1   2
BRANCH   1  11
ATOM     11  C   UNL     1      -5.369  -9.957 -42.750  1.00  0.00     0.000 C 
BRANCH  11  12
ATOM     12  C   UNL     1      -5.338 -11.496 -42.770  1.00  0.00    -0.000 C 
BRANCH  12  13
ATOM     13  C   UNL     1      -4.583 -12.086 -41.569  1.00  0.00    -0.000 C 
BRANCH  13  14
ATOM     14  C   UNL     1      -3.076 -12.239 -41.832  1.00  0.00    -0.000 C 
BRANCH  14  15
ATOM     15  C   UNL     1      -2.449 -13.252 -40.861  1.00  0.00    -0.000 C 
BRANCH  15  16
ATOM     16  C   UNL     1      -1.290 -12.639 -40.047  1.00  0.00    -0.000 C 
BRANCH  16  17
ATOM     17  C   UNL     1      -1.699 -12.197 -38.632  1.00  0.00    -0.003 C 
ATOM     18  C   UNL     1      -1.476 -10.706 -38.382  1.00  0.00     0.004 C 
ENDBRANCH  16  17
ENDBRANCH  15  16
ENDBRANCH  14  15
ENDBRANCH  13  14
ENDBRANCH  12  13
ENDBRANCH  11  12
ENDBRANCH   1  11
TORSDOF 14
ENDMDL
MODEL 9
REMARK VINA RESULT:    -2.999      3.958      5.346
REMARK INTER + INTRA:          -8.135
REMARK INTER:                  -6.234
REMARK INTRA:                  -1.900
REMARK UNBOUND:                -2.682
REMARK SMILES CCCCCCCCCCCCCCCC(=O)[O-]
REMARK SMILES IDX 9 1 10 2 11 3 12 4 13 5 14 6 15 7 16 8 17 9 18 10 8 11 7 12
REMARK SMILES IDX 6 13 5 14 4 15 3 16 2 17 1 18
REMARK H PARENT
REMARK Flexibility Score: inf
ROOT
ATOM      1  C   UNL     1      -1.356  -8.728 -40.658  1.00  0.00     0.000 C 
ENDROOT
BRANCH   1   2
ATOM      2  C   UNL     1      -1.620  -7.998 -39.328  1.00  0.00     0.000 C 
BRANCH   2   3
ATOM      3  C   UNL     1      -0.516  -8.249 -38.289  1.00  0.00     0.000 C 
BRANCH   3   4
ATOM      4  C   UNL     1      -0.723  -7.433 -37.000  1.00  0.00     0.000 C 
BRANCH   4   5
ATOM      5  C   UNL     1      -0.328  -8.214 -35.737  1.00  0.00     0.000 C 
BRANCH   5   6
ATOM      6  C   UNL     1      -0.929  -9.630 -35.706  1.00  0.00     0.006 C 
BRANCH   6   7
ATOM      7  C   UNL     1      -0.069 -10.605 -34.892  1.00  0.00     0.053 C 
BRANCH   7   8
ATOM      8  C   UNL     1      -0.847 -11.231 -33.774  1.00  0.00     0.041 C 
ATOM      9  O   UNL     1      -0.277 -12.002 -32.958  1.00  0.00    -0.550 OA
ATOM     10  O   UNL     1      -2.208 -10.983 -33.650  1.00  0.00    -0.550 OA
ENDBRANCH   7   8
ENDBRANCH   6   7
ENDBRANCH   5   6
ENDBRANCH   4   5
ENDBRANCH   3   4
ENDBRANCH   2   3
ENDBRANCH   1   2
BRANCH   1  11
ATOM     11  C   UNL     1      -2.499  -8.548 -41.670  1.00  0.00     0.000 C 
BRANCH  11  12
ATOM     12  C   UNL     1      -2.480  -9.618 -42.776  1.00  0.00    -0.000 C 
BRANCH  12  13
ATOM     13  C   UNL     1      -1.735 -10.894 -42.350  1.00  0.00    -0.000 C 
BRANCH  13  14
ATOM     14  C   UNL     1      -2.639 -12.137 -42.351  1.00  0.00    -0.000 C 
BRANCH  14  15
ATOM     15  C   UNL     1      -2.728 -12.753 -40.946  1.00  0.00    -0.000 C 
BRANCH  15  16
ATOM     16  C   UNL     1      -3.640 -11.934 -40.007  1.00  0.00    -0.000 C 
BRANCH  16  17
ATOM     17  C   UNL     1      -2.920 -11.415 -38.751  1.00  0.00    -0.003 C 
ATOM     18  C   UNL     1      -1.474 -11.897 -38.646  1.00  0.00     0.004 C 
ENDBRANCH  16  17
ENDBRANCH  15  16
ENDBRANCH  14  15
ENDBRANCH  13  14
ENDBRANCH  12  13
ENDBRANCH  11  12
ENDBRANCH   1  11
TORSDOF 14
ENDMDL
