MODEL 1
REMARK VINA RESULT:     3.164      0.000      0.000
REMARK INTER + INTRA:           4.064
REMARK INTER:                   4.274
REMARK INTRA:                  -0.210
REMARK UNBOUND:                -0.210
REMARK SMILES CCCCCCCC(=O)[O-]
REMARK SMILES IDX 5 1 6 2 7 3 8 4 9 5 10 6 4 7 3 8 2 9 1 10
REMARK H PARENT
REMARK Flexibility Score: inf
ROOT
ATOM      1  C   UNL     1       9.565  17.890  29.122  1.00  0.00     0.000 C 
ENDROOT
BRANCH   1   2
ATOM      2  C   UNL     1       8.570  17.502  30.228  1.00  0.00     0.006 C 
BRANCH   2   3
ATOM      3  C   UNL     1       9.194  17.546  31.629  1.00  0.00     0.053 C 
BRANCH   3   4
ATOM      4  C   UNL     1       8.133  17.423  32.676  1.00  0.00     0.041 C 
ATOM      5  O   UNL     1       7.561  18.453  33.122  1.00  0.00    -0.550 OA
ATOM      6  O   UNL     1       7.740  16.169  33.125  1.00  0.00    -0.550 OA
ENDBRANCH   3   4
ENDBRANCH   2   3
ENDBRANCH   1   2
BRANCH   1   7
ATOM      7  C   UNL     1       9.257  17.200  27.782  1.00  0.00     0.000 C 
BRANCH   7   8
ATOM      8  C   UNL     1       7.749  17.093  27.507  1.00  0.00    -0.000 C 
BRANCH   8   9
ATOM      9  C   UNL     1       7.312  17.898  26.274  1.00  0.00    -0.003 C 
ATOM     10  C   UNL     1       5.830  18.257  26.349  1.00  0.00     0.004 C 
ENDBRANCH   8   9
ENDBRANCH   7   8
ENDBRANCH   1   7
TORSDOF 6
ENDMDL
MODEL 2
REMARK VINA RESULT:     3.561     16.049     16.873
REMARK INTER + INTRA:           4.600
REMARK INTER:                   4.801
REMARK INTRA:                  -0.201
REMARK UNBOUND:                -0.210
REMARK SMILES CCCCCCCC(=O)[O-]
REMARK SMILES IDX 5 1 6 2 7 3 8 4 9 5 10 6 4 7 3 8 2 9 1 10
REMARK H PARENT
REMARK Flexibility Score: inf
ROOT
ATOM      1  C   UNL     1      -4.795   5.966  33.052  1.00  0.00     0.000 C 
ENDROOT
BRANCH   1   2
ATOM      2  C   UNL     1      -6.116   6.741  32.924  1.00  0.00     0.006 C 
BRANCH   2   3
ATOM      3  C   UNL     1      -5.960   8.054  32.144  1.00  0.00     0.053 C 
BRANCH   3   4
ATOM      4  C   UNL     1      -6.025   7.796  30.672  1.00  0.00     0.041 C 
ATOM      5  O   UNL     1      -6.038   6.615  30.235  1.00  0.00    -0.550 OA
ATOM      6  O   UNL     1      -6.121   8.859  29.783  1.00  0.00    -0.550 OA
ENDBRANCH   3   4
ENDBRANCH   2   3
ENDBRANCH   1   2
BRANCH   1   7
ATOM      7  C   UNL     1      -3.563   6.854  32.808  1.00  0.00     0.000 C 
BRANCH   7   8
ATOM      8  C   UNL     1      -2.670   6.326  31.674  1.00  0.00    -0.000 C 
BRANCH   8   9
ATOM      9  C   UNL     1      -2.424   7.373  30.577  1.00  0.00    -0.003 C 
ATOM     10  C   UNL     1      -1.882   8.672  31.169  1.00  0.00     0.004 C 
ENDBRANCH   8   9
ENDBRANCH   7   8
ENDBRANCH   1   7
TORSDOF 6
ENDMDL
MODEL 3
REMARK VINA RESULT:     4.012      3.141      5.337
REMARK INTER + INTRA:           5.210
REMARK INTER:                   5.404
REMARK INTRA:                  -0.194
REMARK UNBOUND:                -0.210
REMARK SMILES CCCCCCCC(=O)[O-]
REMARK SMILES IDX 5 1 6 2 7 3 8 4 9 5 10 6 4 7 3 8 2 9 1 10
REMARK H PARENT
REMARK Flexibility Score: inf
ROOT
ATOM      1  C   UNL     1       9.684  17.715  29.379  1.00  0.00     0.000 C 
ENDROOT
BRANCH   1   2
ATOM      2  C   UNL     1       9.191  17.931  27.939  1.00  0.00     0.006 C 
BRANCH   2   3
ATOM      3  C   UNL     1       8.151  16.888  27.506  1.00  0.00     0.053 C 
BRANCH   3   4
ATOM      4  C   UNL     1       7.043  17.543  26.743  1.00  0.00     0.041 C 
ATOM      5  O   UNL     1       7.181  17.797  25.517  1.00  0.00    -0.550 OA
ATOM      6  O   UNL     1       5.838  17.827  27.373  1.00  0.00    -0.550 OA
ENDBRANCH   3   4
ENDBRANCH   2   3
ENDBRANCH   1   2
BRANCH   1   7
ATOM      7  C   UNL     1       8.528  17.519  30.375  1.00  0.00     0.000 C 
BRANCH   7   8
ATOM      8  C   UNL     1       8.887  17.990  31.794  1.00  0.00    -0.000 C 
BRANCH   8   9
ATOM      9  C   UNL     1       7.836  17.582  32.837  1.00  0.00    -0.003 C 
ATOM     10  C   UNL     1       7.896  16.084  33.120  1.00  0.00     0.004 C 
ENDBRANCH   8   9
ENDBRANCH   7   8
ENDBRANCH   1   7
TORSDOF 6
ENDMDL
MODEL 4
REMARK VINA RESULT:     4.024      3.096      5.167
REMARK INTER + INTRA:           5.226
REMARK INTER:                   5.524
REMARK INTRA:                  -0.298
REMARK UNBOUND:                -0.210
REMARK SMILES CCCCCCCC(=O)[O-]
REMARK SMILES IDX 5 1 6 2 7 3 8 4 9 5 10 6 4 7 3 8 2 9 1 10
REMARK H PARENT
REMARK Flexibility Score: inf
ROOT
ATOM      1  C   UNL     1       8.096  17.497  30.634  1.00  0.00     0.000 C 
ENDROOT
BRANCH   1   2
ATOM      2  C   UNL     1       9.380  17.563  29.792  1.00  0.00     0.006 C 
BRANCH   2   3
ATOM      3  C   UNL     1       9.143  18.147  28.392  1.00  0.00     0.053 C 
BRANCH   3   4
ATOM      4  C   UNL     1       8.561  17.110  27.486  1.00  0.00     0.041 C 
ATOM      5  O   UNL     1       7.404  17.260  27.010  1.00  0.00    -0.550 OA
ATOM      6  O   UNL     1       9.314  15.999  27.125  1.00  0.00    -0.550 OA
ENDBRANCH   3   4
ENDBRANCH   2   3
ENDBRANCH   1   2
BRANCH   1   7
ATOM      7  C   UNL     1       8.365  17.072  32.088  1.00  0.00     0.000 C 
BRANCH   7   8
ATOM      8  C   UNL     1       7.722  18.024  33.109  1.00  0.00    -0.000 C 
BRANCH   8   9
ATOM      9  C   UNL     1       7.902  19.503  32.736  1.00  0.00    -0.003 C 
ATOM     10  C   UNL     1       6.646  20.308  33.057  1.00  0.00     0.004 C 
ENDBRANCH   8   9
ENDBRANCH   7   8
ENDBRANCH   1   7
TORSDOF 6
ENDMDL
MODEL 5
REMARK VINA RESULT:     5.262      1.286      2.288
REMARK INTER + INTRA:           6.898
REMARK INTER:                   7.128
REMARK INTRA:                  -0.231
REMARK UNBOUND:                -0.210
REMARK SMILES CCCCCCCC(=O)[O-]
REMARK SMILES IDX 5 1 6 2 7 3 8 4 9 5 10 6 4 7 3 8 2 9 1 10
REMARK H PARENT
REMARK Flexibility Score: inf
ROOT
ATOM      1  C   UNL     1       9.078  17.786  28.868  1.00  0.00     0.000 C 
ENDROOT
BRANCH   1   2
ATOM      2  C   UNL     1       8.400  17.212  30.122  1.00  0.00     0.006 C 
BRANCH   2   3
ATOM      3  C   UNL     1       8.974  17.790  31.423  1.00  0.00     0.053 C 
BRANCH   3   4
ATOM      4  C   UNL     1       8.036  17.544  32.562  1.00  0.00     0.041 C 
ATOM      5  O   UNL     1       7.446  18.508  33.117  1.00  0.00    -0.550 OA
ATOM      6  O   UNL     1       7.773  16.245  32.979  1.00  0.00    -0.550 OA
ENDBRANCH   3   4
ENDBRANCH   2   3
ENDBRANCH   1   2
BRANCH   1   7
ATOM      7  C   UNL     1       8.265  17.529  27.587  1.00  0.00     0.000 C 
BRANCH   7   8
ATOM      8  C   UNL     1       8.653  16.211  26.897  1.00  0.00    -0.000 C 
BRANCH   8   9
ATOM      9  C   UNL     1      10.134  15.854  27.092  1.00  0.00    -0.003 C 
ATOM     10  C   UNL     1      10.427  14.440  26.599  1.00  0.00     0.004 C 
ENDBRANCH   8   9
ENDBRANCH   7   8
ENDBRANCH   1   7
TORSDOF 6
ENDMDL
