MODEL 1
REMARK VINA RESULT:    -5.121      0.000      0.000
REMARK INTER + INTRA:          -6.212
REMARK INTER:                  -5.870
REMARK INTRA:                  -0.343
REMARK UNBOUND:                -0.343
REMARK SMILES COc1ccc(C(C)=O)c(O)c1
REMARK SMILES IDX 6 1 10 2 12 3 3 4 4 5 5 6 7 7 8 8 9 9 11 10 2 12 1 13
REMARK H PARENT 11 11
REMARK Flexibility Score: inf
ROOT
ATOM      1  C   UNL     1     -11.049  -4.647  -8.578  1.00  0.00     0.059 A 
ATOM      2  C   UNL     1     -11.611  -4.254  -7.339  1.00  0.00     0.130 A 
ATOM      3  C   UNL     1     -11.191  -4.876  -6.157  1.00  0.00     0.093 A 
ATOM      4  C   UNL     1     -10.246  -5.905  -6.180  1.00  0.00     0.122 A 
ATOM      5  C   UNL     1      -9.710  -6.316  -7.412  1.00  0.00     0.047 A 
ATOM      6  C   UNL     1     -10.108  -5.692  -8.596  1.00  0.00     0.019 A 
ENDROOT
BRANCH   1   7
ATOM      7  C   UNL     1     -11.394  -3.965  -9.849  1.00  0.00     0.163 C 
ATOM      8  C   UNL     1     -11.541  -4.736 -11.124  1.00  0.00     0.093 C 
ATOM      9  O   UNL     1     -11.486  -2.709  -9.883  1.00  0.00    -0.294 OA
ENDBRANCH   1   7
BRANCH   2  10
ATOM     10  O   UNL     1     -12.606  -3.277  -7.244  1.00  0.00    -0.507 OA
ATOM     11  H   UNL     1     -12.419  -2.285  -7.299  1.00  0.00     0.293 HD
ENDBRANCH   2  10
BRANCH   4  12
ATOM     12  O   UNL     1      -9.872  -6.495  -4.963  1.00  0.00    -0.497 OA
ATOM     13  C   UNL     1      -9.113  -7.693  -4.850  1.00  0.00     0.278 C 
ENDBRANCH   4  12
TORSDOF 3
ENDMDL
MODEL 2
REMARK VINA RESULT:    -5.090      1.757      4.360
REMARK INTER + INTRA:          -6.177
REMARK INTER:                  -5.841
REMARK INTRA:                  -0.335
REMARK UNBOUND:                -0.343
REMARK SMILES COc1ccc(C(C)=O)c(O)c1
REMARK SMILES IDX 6 1 10 2 12 3 3 4 4 5 5 6 7 7 8 8 9 9 11 10 2 12 1 13
REMARK H PARENT 11 11
REMARK Flexibility Score: inf
ROOT
ATOM      1  C   UNL     1     -11.786  -5.318  -6.099  1.00  0.00     0.059 A 
ATOM      2  C   UNL     1     -11.722  -4.015  -6.649  1.00  0.00     0.130 A 
ATOM      3  C   UNL     1     -11.170  -3.825  -7.922  1.00  0.00     0.093 A 
ATOM      4  C   UNL     1     -10.651  -4.899  -8.651  1.00  0.00     0.122 A 
ATOM      5  C   UNL     1     -10.688  -6.187  -8.093  1.00  0.00     0.047 A 
ATOM      6  C   UNL     1     -11.250  -6.393  -6.831  1.00  0.00     0.019 A 
ENDROOT
BRANCH   1   7
ATOM      7  C   UNL     1     -12.435  -5.588  -4.793  1.00  0.00     0.163 C 
ATOM      8  C   UNL     1     -13.391  -6.728  -4.626  1.00  0.00     0.093 C 
ATOM      9  O   UNL     1     -12.248  -4.804  -3.825  1.00  0.00    -0.294 OA
ENDBRANCH   1   7
BRANCH   2  10
ATOM     10  O   UNL     1     -12.162  -2.886  -5.955  1.00  0.00    -0.507 OA
ATOM     11  H   UNL     1     -11.903  -1.941  -6.207  1.00  0.00     0.293 HD
ENDBRANCH   2  10
BRANCH   4  12
ATOM     12  O   UNL     1     -10.104  -4.643  -9.918  1.00  0.00    -0.497 OA
ATOM     13  C   UNL     1     -10.858  -4.600 -11.125  1.00  0.00     0.278 C 
ENDBRANCH   4  12
TORSDOF 3
ENDMDL
MODEL 3
REMARK VINA RESULT:    -5.039      1.754      2.601
REMARK INTER + INTRA:          -6.118
REMARK INTER:                  -6.091
REMARK INTRA:                  -0.028
REMARK UNBOUND:                -0.343
REMARK SMILES COc1ccc(C(C)=O)c(O)c1
REMARK SMILES IDX 6 1 10 2 12 3 3 4 4 5 5 6 7 7 8 8 9 9 11 10 2 12 1 13
REMARK H PARENT 11 11
REMARK Flexibility Score: inf
ROOT
ATOM      1  C   UNL     1     -11.391  -4.529  -8.362  1.00  0.00     0.059 A 
ATOM      2  C   UNL     1     -10.672  -5.621  -7.818  1.00  0.00     0.130 A 
ATOM      3  C   UNL     1     -10.985  -6.090  -6.536  1.00  0.00     0.093 A 
ATOM      4  C   UNL     1     -11.979  -5.478  -5.767  1.00  0.00     0.122 A 
ATOM      5  C   UNL     1     -12.673  -4.377  -6.294  1.00  0.00     0.047 A 
ATOM      6  C   UNL     1     -12.381  -3.910  -7.578  1.00  0.00     0.019 A 
ENDROOT
BRANCH   1   7
ATOM      7  C   UNL     1     -11.160  -4.046  -9.744  1.00  0.00     0.163 C 
ATOM      8  C   UNL     1     -11.322  -4.959 -10.920  1.00  0.00     0.093 C 
ATOM      9  O   UNL     1     -10.741  -2.874  -9.938  1.00  0.00    -0.294 OA
ENDBRANCH   1   7
BRANCH   2  10
ATOM     10  O   UNL     1      -9.623  -6.242  -8.501  1.00  0.00    -0.507 OA
ATOM     11  H   UNL     1      -9.340  -5.985  -9.437  1.00  0.00     0.293 HD
ENDBRANCH   2  10
BRANCH   4  12
ATOM     12  O   UNL     1     -12.241  -5.990  -4.486  1.00  0.00    -0.497 OA
ATOM     13  C   UNL     1     -13.383  -5.656  -3.706  1.00  0.00     0.278 C 
ENDBRANCH   4  12
TORSDOF 3
ENDMDL
MODEL 4
REMARK VINA RESULT:    -4.723      2.239      5.008
REMARK INTER + INTRA:          -5.756
REMARK INTER:                  -5.417
REMARK INTRA:                  -0.339
REMARK UNBOUND:                -0.343
REMARK SMILES COc1ccc(C(C)=O)c(O)c1
REMARK SMILES IDX 6 1 10 2 12 3 3 4 4 5 5 6 7 7 8 8 9 9 11 10 2 12 1 13
REMARK H PARENT 11 11
REMARK Flexibility Score: inf
ROOT
ATOM      1  C   UNL     1     -12.527  -5.874  -5.695  1.00  0.00     0.059 A 
ATOM      2  C   UNL     1     -11.529  -6.681  -6.293  1.00  0.00     0.130 A 
ATOM      3  C   UNL     1     -10.789  -6.184  -7.372  1.00  0.00     0.093 A 
ATOM      4  C   UNL     1     -11.037  -4.911  -7.893  1.00  0.00     0.122 A 
ATOM      5  C   UNL     1     -12.047  -4.122  -7.319  1.00  0.00     0.047 A 
ATOM      6  C   UNL     1     -12.782  -4.599  -6.231  1.00  0.00     0.019 A 
ENDROOT
BRANCH   1   7
ATOM      7  C   UNL     1     -13.282  -6.317  -4.498  1.00  0.00     0.163 C 
ATOM      8  C   UNL     1     -13.398  -5.441  -3.289  1.00  0.00     0.093 C 
ATOM      9  O   UNL     1     -13.769  -7.478  -4.456  1.00  0.00    -0.294 OA
ENDBRANCH   1   7
BRANCH   2  10
ATOM     10  O   UNL     1     -11.267  -7.986  -5.869  1.00  0.00    -0.507 OA
ATOM     11  H   UNL     1     -11.246  -8.261  -4.896  1.00  0.00     0.293 HD
ENDBRANCH   2  10
BRANCH   4  12
ATOM     12  O   UNL     1     -10.267  -4.472  -8.981  1.00  0.00    -0.497 OA
ATOM     13  C   UNL     1     -10.717  -4.454 -10.330  1.00  0.00     0.278 C 
ENDBRANCH   4  12
TORSDOF 3
ENDMDL
MODEL 5
REMARK VINA RESULT:    -4.489      1.339      1.822
REMARK INTER + INTRA:          -5.488
REMARK INTER:                  -5.244
REMARK INTRA:                  -0.244
REMARK UNBOUND:                -0.343
REMARK SMILES COc1ccc(C(C)=O)c(O)c1
REMARK SMILES IDX 6 1 10 2 12 3 3 4 4 5 5 6 7 7 8 8 9 9 11 10 2 12 1 13
REMARK H PARENT 11 11
REMARK Flexibility Score: inf
ROOT
ATOM      1  C   UNL     1     -10.945  -5.003  -7.060  1.00  0.00     0.059 A 
ATOM      2  C   UNL     1     -11.237  -5.115  -5.679  1.00  0.00     0.130 A 
ATOM      3  C   UNL     1     -10.500  -6.000  -4.883  1.00  0.00     0.093 A 
ATOM      4  C   UNL     1      -9.495  -6.801  -5.433  1.00  0.00     0.122 A 
ATOM      5  C   UNL     1      -9.225  -6.711  -6.808  1.00  0.00     0.047 A 
ATOM      6  C   UNL     1      -9.942  -5.821  -7.611  1.00  0.00     0.019 A 
ENDROOT
BRANCH   1   7
ATOM      7  C   UNL     1     -11.636  -4.023  -7.932  1.00  0.00     0.163 C 
ATOM      8  C   UNL     1     -11.113  -3.700  -9.297  1.00  0.00     0.093 C 
ATOM      9  O   UNL     1     -12.632  -3.387  -7.496  1.00  0.00    -0.294 OA
ENDBRANCH   1   7
BRANCH   2  10
ATOM     10  O   UNL     1     -12.268  -4.395  -5.070  1.00  0.00    -0.507 OA
ATOM     11  H   UNL     1     -12.456  -3.421  -5.266  1.00  0.00     0.293 HD
ENDBRANCH   2  10
BRANCH   4  12
ATOM     12  O   UNL     1      -8.797  -7.673  -4.584  1.00  0.00    -0.497 OA
ATOM     13  C   UNL     1      -8.599  -9.058  -4.842  1.00  0.00     0.278 C 
ENDBRANCH   4  12
TORSDOF 3
ENDMDL
MODEL 6
REMARK VINA RESULT:    -4.379      6.592      7.581
REMARK INTER + INTRA:          -5.362
REMARK INTER:                  -5.034
REMARK INTRA:                  -0.328
REMARK UNBOUND:                -0.343
REMARK SMILES COc1ccc(C(C)=O)c(O)c1
REMARK SMILES IDX 6 1 10 2 12 3 3 4 4 5 5 6 7 7 8 8 9 9 11 10 2 12 1 13
REMARK H PARENT 11 11
REMARK Flexibility Score: inf
ROOT
ATOM      1  C   UNL     1      -8.745 -11.095  -5.665  1.00  0.00     0.059 A 
ATOM      2  C   UNL     1      -7.905 -10.101  -5.107  1.00  0.00     0.130 A 
ATOM      3  C   UNL     1      -6.562 -10.030  -5.494  1.00  0.00     0.093 A 
ATOM      4  C   UNL     1      -6.023 -10.945  -6.403  1.00  0.00     0.122 A 
ATOM      5  C   UNL     1      -6.849 -11.949  -6.934  1.00  0.00     0.047 A 
ATOM      6  C   UNL     1      -8.195 -12.021  -6.569  1.00  0.00     0.019 A 
ENDROOT
BRANCH   1   7
ATOM      7  C   UNL     1     -10.194 -11.164  -5.355  1.00  0.00     0.163 C 
ATOM      8  C   UNL     1     -10.844 -12.460  -4.983  1.00  0.00     0.093 C 
ATOM      9  O   UNL     1     -10.913 -10.137  -5.483  1.00  0.00    -0.294 OA
ENDBRANCH   1   7
BRANCH   2  10
ATOM     10  O   UNL     1      -8.356  -9.192  -4.147  1.00  0.00    -0.507 OA
ATOM     11  H   UNL     1      -8.447  -9.418  -3.165  1.00  0.00     0.293 HD
ENDBRANCH   2  10
BRANCH   4  12
ATOM     12  O   UNL     1      -4.667 -10.826  -6.746  1.00  0.00    -0.497 OA
ATOM     13  C   UNL     1      -3.588 -11.188  -5.892  1.00  0.00     0.278 C 
ENDBRANCH   4  12
TORSDOF 3
ENDMDL
MODEL 7
REMARK VINA RESULT:    -4.358      5.655      8.366
REMARK INTER + INTRA:          -5.337
REMARK INTER:                  -5.022
REMARK INTRA:                  -0.315
REMARK UNBOUND:                -0.343
REMARK SMILES COc1ccc(C(C)=O)c(O)c1
REMARK SMILES IDX 6 1 10 2 12 3 3 4 4 5 5 6 7 7 8 8 9 9 11 10 2 12 1 13
REMARK H PARENT 11 11
REMARK Flexibility Score: inf
ROOT
ATOM      1  C   UNL     1      -6.223 -11.958  -7.241  1.00  0.00     0.059 A 
ATOM      2  C   UNL     1      -5.671 -10.805  -6.631  1.00  0.00     0.130 A 
ATOM      3  C   UNL     1      -6.454 -10.037  -5.762  1.00  0.00     0.093 A 
ATOM      4  C   UNL     1      -7.787 -10.370  -5.505  1.00  0.00     0.122 A 
ATOM      5  C   UNL     1      -8.344 -11.497  -6.133  1.00  0.00     0.047 A 
ATOM      6  C   UNL     1      -7.568 -12.281  -6.990  1.00  0.00     0.019 A 
ENDROOT
BRANCH   1   7
ATOM      7  C   UNL     1      -5.415 -12.854  -8.103  1.00  0.00     0.163 C 
ATOM      8  C   UNL     1      -5.873 -13.221  -9.480  1.00  0.00     0.093 C 
ATOM      9  O   UNL     1      -4.367 -13.386  -7.649  1.00  0.00    -0.294 OA
ENDBRANCH   1   7
BRANCH   2  10
ATOM     10  O   UNL     1      -4.367 -10.373  -6.888  1.00  0.00    -0.507 OA
ATOM     11  H   UNL     1      -3.837  -9.795  -6.250  1.00  0.00     0.293 HD
ENDBRANCH   2  10
BRANCH   4  12
ATOM     12  O   UNL     1      -8.522  -9.556  -4.630  1.00  0.00    -0.497 OA
ATOM     13  C   UNL     1      -8.870  -8.202  -4.893  1.00  0.00     0.278 C 
ENDBRANCH   4  12
TORSDOF 3
ENDMDL
MODEL 8
REMARK VINA RESULT:    -4.354      3.385      6.353
REMARK INTER + INTRA:          -5.333
REMARK INTER:                  -4.992
REMARK INTRA:                  -0.341
REMARK UNBOUND:                -0.343
REMARK SMILES COc1ccc(C(C)=O)c(O)c1
REMARK SMILES IDX 6 1 10 2 12 3 3 4 4 5 5 6 7 7 8 8 9 9 11 10 2 12 1 13
REMARK H PARENT 11 11
REMARK Flexibility Score: inf
ROOT
ATOM      1  C   UNL     1     -10.120  -9.820  -5.344  1.00  0.00     0.059 A 
ATOM      2  C   UNL     1      -9.051  -8.982  -4.944  1.00  0.00     0.130 A 
ATOM      3  C   UNL     1      -9.181  -7.592  -5.052  1.00  0.00     0.093 A 
ATOM      4  C   UNL     1     -10.340  -7.014  -5.577  1.00  0.00     0.122 A 
ATOM      5  C   UNL     1     -11.389  -7.846  -6.001  1.00  0.00     0.047 A 
ATOM      6  C   UNL     1     -11.279  -9.233  -5.884  1.00  0.00     0.019 A 
ENDROOT
BRANCH   1   7
ATOM      7  C   UNL     1     -10.070 -11.292  -5.174  1.00  0.00     0.163 C 
ATOM      8  C   UNL     1     -11.141 -12.021  -4.423  1.00  0.00     0.093 C 
ATOM      9  O   UNL     1      -9.074 -11.940  -5.594  1.00  0.00    -0.294 OA
ENDBRANCH   1   7
BRANCH   2  10
ATOM     10  O   UNL     1      -7.839  -9.488  -4.469  1.00  0.00    -0.507 OA
ATOM     11  H   UNL     1      -6.964  -8.985  -4.528  1.00  0.00     0.293 HD
ENDBRANCH   2  10
BRANCH   4  12
ATOM     12  O   UNL     1     -10.407  -5.615  -5.666  1.00  0.00    -0.497 OA
ATOM     13  C   UNL     1     -11.418  -4.818  -5.061  1.00  0.00     0.278 C 
ENDBRANCH   4  12
TORSDOF 3
ENDMDL
MODEL 9
REMARK VINA RESULT:    -4.345      1.061      4.574
REMARK INTER + INTRA:          -5.323
REMARK INTER:                  -5.003
REMARK INTRA:                  -0.320
REMARK UNBOUND:                -0.343
REMARK SMILES COc1ccc(C(C)=O)c(O)c1
REMARK SMILES IDX 6 1 10 2 12 3 3 4 4 5 5 6 7 7 8 8 9 9 11 10 2 12 1 13
REMARK H PARENT 11 11
REMARK Flexibility Score: inf
ROOT
ATOM      1  C   UNL     1     -10.054  -5.720  -6.356  1.00  0.00     0.059 A 
ATOM      2  C   UNL     1     -10.878  -4.573  -6.257  1.00  0.00     0.130 A 
ATOM      3  C   UNL     1     -11.448  -4.025  -7.412  1.00  0.00     0.093 A 
ATOM      4  C   UNL     1     -11.193  -4.573  -8.672  1.00  0.00     0.122 A 
ATOM      5  C   UNL     1     -10.353  -5.694  -8.774  1.00  0.00     0.047 A 
ATOM      6  C   UNL     1      -9.791  -6.260  -7.628  1.00  0.00     0.019 A 
ENDROOT
BRANCH   1   7
ATOM      7  C   UNL     1      -9.493  -6.391  -5.158  1.00  0.00     0.163 C 
ATOM      8  C   UNL     1      -9.297  -7.875  -5.124  1.00  0.00     0.093 C 
ATOM      9  O   UNL     1      -9.251  -5.722  -4.119  1.00  0.00    -0.294 OA
ENDBRANCH   1   7
BRANCH   2  10
ATOM     10  O   UNL     1     -11.126  -3.932  -5.040  1.00  0.00    -0.507 OA
ATOM     11  H   UNL     1     -11.998  -4.015  -4.535  1.00  0.00     0.293 HD
ENDBRANCH   2  10
BRANCH   4  12
ATOM     12  O   UNL     1     -11.788  -3.974  -9.794  1.00  0.00    -0.497 OA
ATOM     13  C   UNL     1     -11.665  -4.461 -11.125  1.00  0.00     0.278 C 
ENDBRANCH   4  12
TORSDOF 3
ENDMDL
