MODEL 1
REMARK VINA RESULT:    -2.534      0.000      0.000
REMARK INTER + INTRA:          -2.534
REMARK INTER:                  -2.534
REMARK INTRA:                   0.000
REMARK UNBOUND:                 0.000
REMARK SMILES CC(=O)[O-]
REMARK SMILES IDX 1 1 2 2 3 3 4 4
REMARK H PARENT
REMARK Flexibility Score: inf
ROOT
ATOM      1  C   UNL     1     -20.959   2.563 -48.443  1.00  0.00     0.063 C 
ATOM      2  C   UNL     1     -22.434   2.782 -48.428  1.00  0.00     0.038 C 
ATOM      3  O   UNL     1     -23.215   1.812 -48.241  1.00  0.00    -0.550 OA
ATOM      4  O   UNL     1     -22.949   4.064 -48.567  1.00  0.00    -0.550 OA
ENDROOT
TORSDOF 0
ENDMDL
MODEL 2
REMARK VINA RESULT:    -2.362     12.874     13.266
REMARK INTER + INTRA:          -2.362
REMARK INTER:                  -2.362
REMARK INTRA:                   0.000
REMARK UNBOUND:                 0.000
REMARK SMILES CC(=O)[O-]
REMARK SMILES IDX 1 1 2 2 3 3 4 4
REMARK H PARENT
REMARK Flexibility Score: inf
ROOT
ATOM      1  C   UNL     1     -14.718  -1.193 -40.368  1.00  0.00     0.063 C 
ATOM      2  C   UNL     1     -13.431  -1.776 -39.889  1.00  0.00     0.038 C 
ATOM      3  O   UNL     1     -13.435  -2.793 -39.147  1.00  0.00    -0.550 OA
ATOM      4  O   UNL     1     -12.223  -1.232 -40.304  1.00  0.00    -0.550 OA
ENDROOT
TORSDOF 0
ENDMDL
MODEL 3
REMARK VINA RESULT:    -2.355     12.266     12.659
REMARK INTER + INTRA:          -2.355
REMARK INTER:                  -2.355
REMARK INTRA:                   0.000
REMARK UNBOUND:                 0.000
REMARK SMILES CC(=O)[O-]
REMARK SMILES IDX 1 1 2 2 3 3 4 4
REMARK H PARENT
REMARK Flexibility Score: inf
ROOT
ATOM      1  C   UNL     1     -13.305  -2.366 -39.319  1.00  0.00     0.063 C 
ATOM      2  C   UNL     1     -13.806  -1.307 -40.242  1.00  0.00     0.038 C 
ATOM      3  O   UNL     1     -15.028  -1.261 -40.546  1.00  0.00    -0.550 OA
ATOM      4  O   UNL     1     -12.939  -0.337 -40.726  1.00  0.00    -0.550 OA
ENDROOT
TORSDOF 0
ENDMDL
MODEL 4
REMARK VINA RESULT:    -2.344      8.956      9.201
REMARK INTER + INTRA:          -2.344
REMARK INTER:                  -2.344
REMARK INTRA:                   0.000
REMARK UNBOUND:                 0.000
REMARK SMILES CC(=O)[O-]
REMARK SMILES IDX 1 1 2 2 3 3 4 4
REMARK H PARENT
REMARK Flexibility Score: inf
ROOT
ATOM      1  C   UNL     1     -16.611   4.434 -40.668  1.00  0.00     0.063 C 
ATOM      2  C   UNL     1     -17.642   3.362 -40.783  1.00  0.00     0.038 C 
ATOM      3  O   UNL     1     -18.625   3.510 -41.556  1.00  0.00    -0.550 OA
ATOM      4  O   UNL     1     -17.492   2.174 -40.079  1.00  0.00    -0.550 OA
ENDROOT
TORSDOF 0
ENDMDL
MODEL 5
REMARK VINA RESULT:    -2.317      9.242      9.539
REMARK INTER + INTRA:          -2.317
REMARK INTER:                  -2.317
REMARK INTRA:                   0.000
REMARK UNBOUND:                 0.000
REMARK SMILES CC(=O)[O-]
REMARK SMILES IDX 1 1 2 2 3 3 4 4
REMARK H PARENT
REMARK Flexibility Score: inf
ROOT
ATOM      1  C   UNL     1     -18.470   3.660 -41.532  1.00  0.00     0.063 C 
ATOM      2  C   UNL     1     -17.352   3.273 -40.624  1.00  0.00     0.038 C 
ATOM      3  O   UNL     1     -16.414   4.083 -40.397  1.00  0.00    -0.550 OA
ATOM      4  O   UNL     1     -17.369   2.042 -39.983  1.00  0.00    -0.550 OA
ENDROOT
TORSDOF 0
ENDMDL
MODEL 6
REMARK VINA RESULT:    -2.275     12.664     13.106
REMARK INTER + INTRA:          -2.275
REMARK INTER:                  -2.275
REMARK INTRA:                   0.000
REMARK UNBOUND:                 0.000
REMARK SMILES CC(=O)[O-]
REMARK SMILES IDX 1 1 2 2 3 3 4 4
REMARK H PARENT
REMARK Flexibility Score: inf
ROOT
ATOM      1  C   UNL     1     -12.271  -0.991 -40.328  1.00  0.00     0.063 C 
ATOM      2  C   UNL     1     -13.516  -1.706 -39.923  1.00  0.00     0.038 C 
ATOM      3  O   UNL     1     -13.456  -2.677 -39.124  1.00  0.00    -0.550 OA
ATOM      4  O   UNL     1     -14.751  -1.268 -40.384  1.00  0.00    -0.550 OA
ENDROOT
TORSDOF 0
ENDMDL
MODEL 7
REMARK VINA RESULT:    -2.227     13.306     13.702
REMARK INTER + INTRA:          -2.227
REMARK INTER:                  -2.227
REMARK INTRA:                   0.000
REMARK UNBOUND:                 0.000
REMARK SMILES CC(=O)[O-]
REMARK SMILES IDX 1 1 2 2 3 3 4 4
REMARK H PARENT
REMARK Flexibility Score: inf
ROOT
ATOM      1  C   UNL     1     -13.262  -2.236 -39.346  1.00  0.00     0.063 C 
ATOM      2  C   UNL     1     -12.376  -1.369 -40.176  1.00  0.00     0.038 C 
ATOM      3  O   UNL     1     -11.179  -1.702 -40.382  1.00  0.00    -0.550 OA
ATOM      4  O   UNL     1     -12.883  -0.221 -40.770  1.00  0.00    -0.550 OA
ENDROOT
TORSDOF 0
ENDMDL
MODEL 8
REMARK VINA RESULT:    -2.211      1.715      1.840
REMARK INTER + INTRA:          -2.211
REMARK INTER:                  -2.211
REMARK INTRA:                   0.000
REMARK UNBOUND:                 0.000
REMARK SMILES CC(=O)[O-]
REMARK SMILES IDX 1 1 2 2 3 3 4 4
REMARK H PARENT
REMARK Flexibility Score: inf
ROOT
ATOM      1  C   UNL     1     -22.952   2.358 -48.294  1.00  0.00     0.063 C 
ATOM      2  C   UNL     1     -23.650   3.615 -48.689  1.00  0.00     0.038 C 
ATOM      3  O   UNL     1     -24.742   3.563 -49.314  1.00  0.00    -0.550 OA
ATOM      4  O   UNL     1     -23.126   4.847 -48.322  1.00  0.00    -0.550 OA
ENDROOT
TORSDOF 0
ENDMDL
MODEL 9
REMARK VINA RESULT:    -2.193      9.368      9.560
REMARK INTER + INTRA:          -2.193
REMARK INTER:                  -2.193
REMARK INTRA:                   0.000
REMARK UNBOUND:                 0.000
REMARK SMILES CC(=O)[O-]
REMARK SMILES IDX 1 1 2 2 3 3 4 4
REMARK H PARENT
REMARK Flexibility Score: inf
ROOT
ATOM      1  C   UNL     1     -18.169   3.713 -41.577  1.00  0.00     0.063 C 
ATOM      2  C   UNL     1     -17.165   4.364 -40.687  1.00  0.00     0.038 C 
ATOM      3  O   UNL     1     -16.109   3.754 -40.371  1.00  0.00    -0.550 OA
ATOM      4  O   UNL     1     -17.365   5.666 -40.247  1.00  0.00    -0.550 OA
ENDROOT
TORSDOF 0
ENDMDL
