MODEL 1
REMARK VINA RESULT:     6.275      0.000      0.000
REMARK INTER + INTRA:           6.957
REMARK INTER:                   6.825
REMARK INTRA:                   0.132
REMARK UNBOUND:                 0.132
REMARK SMILES CC(=O)[C@H]1CC[C@@H]2[C@H]3CC=C4C[C@@H](O)CC[C@@]4(C)[C@@H]3CC[C@]12C
REMARK SMILES IDX 4 1 5 2 6 3 7 4 22 5 21 6 20 7 19 8 8 9 9 10 10 11 11 12
REMARK SMILES IDX 17 13 16 14 15 15 13 16 12 17 18 18 23 19 2 20 1 21 3 22
REMARK SMILES IDX 14 23
REMARK H PARENT 14 24
REMARK Flexibility Score: inf
ROOT
ATOM      1  C   UNL     1      12.440  13.539  26.600  1.00  0.00     0.062 C 
ATOM      2  C   UNL     1      11.504  13.405  25.390  1.00  0.00     0.012 C 
ATOM      3  C   UNL     1      11.067  14.825  25.006  1.00  0.00     0.005 C 
ATOM      4  C   UNL     1      11.886  15.810  25.867  1.00  0.00    -0.001 C 
ATOM      5  C   UNL     1      12.237  14.984  27.143  1.00  0.00    -0.020 C 
ATOM      6  C   UNL     1      13.489  15.516  27.898  1.00  0.00     0.008 C 
ATOM      7  C   UNL     1      14.662  15.863  26.986  1.00  0.00     0.005 C 
ATOM      8  C   UNL     1      14.255  16.915  25.935  1.00  0.00     0.003 C 
ATOM      9  C   UNL     1      13.109  16.362  25.047  1.00  0.00     0.000 C 
ATOM     10  C   UNL     1      12.623  17.482  24.097  1.00  0.00     0.031 C 
ATOM     11  C   UNL     1      13.721  18.295  23.469  1.00  0.00    -0.027 C 
ATOM     12  C   UNL     1      14.961  18.411  23.988  1.00  0.00    -0.065 C 
ATOM     13  C   UNL     1      15.474  17.449  25.072  1.00  0.00    -0.008 C 
ATOM     14  C   UNL     1      16.473  18.202  26.013  1.00  0.00     0.014 C 
ATOM     15  C   UNL     1      17.503  19.079  25.281  1.00  0.00     0.033 C 
ATOM     16  C   UNL     1      16.837  20.082  24.330  1.00  0.00     0.118 C 
ATOM     17  C   UNL     1      15.935  19.364  23.314  1.00  0.00     0.063 C 
ATOM     18  C   UNL     1      16.231  16.295  24.355  1.00  0.00     0.016 C 
ATOM     19  C   UNL     1      11.036  15.058  28.125  1.00  0.00     0.012 C 
ENDROOT
BRANCH   1  20
ATOM     20  C   UNL     1      12.258  12.432  27.631  1.00  0.00     0.133 C 
ATOM     21  C   UNL     1      10.884  11.981  28.038  1.00  0.00     0.088 C 
ATOM     22  O   UNL     1      13.227  11.875  28.125  1.00  0.00    -0.300 OA
ENDBRANCH   1  20
BRANCH  16  23
ATOM     23  O   UNL     1      16.144  21.079  25.044  1.00  0.00    -0.393 OA
ATOM     24  H   UNL     1      16.710  21.370  25.805  1.00  0.00     0.210 HD
ENDBRANCH  16  23
TORSDOF 2
ENDMDL
MODEL 2
REMARK VINA RESULT:     7.233      1.761      7.083
REMARK INTER + INTRA:           7.999
REMARK INTER:                   8.009
REMARK INTRA:                  -0.010
REMARK UNBOUND:                 0.132
REMARK SMILES CC(=O)[C@H]1CC[C@@H]2[C@H]3CC=C4C[C@@H](O)CC[C@@]4(C)[C@@H]3CC[C@]12C
REMARK SMILES IDX 4 1 5 2 6 3 7 4 22 5 21 6 20 7 19 8 8 9 9 10 10 11 11 12
REMARK SMILES IDX 17 13 16 14 15 15 13 16 12 17 18 18 23 19 2 20 1 21 3 22
REMARK SMILES IDX 14 23
REMARK H PARENT 14 24
REMARK Flexibility Score: inf
ROOT
ATOM      1  C   UNL     1      15.261  21.129  23.266  1.00  0.00     0.062 C 
ATOM      2  C   UNL     1      14.608  20.843  21.905  1.00  0.00     0.012 C 
ATOM      3  C   UNL     1      14.892  19.372  21.575  1.00  0.00     0.005 C 
ATOM      4  C   UNL     1      15.550  18.737  22.819  1.00  0.00    -0.001 C 
ATOM      5  C   UNL     1      16.235  19.943  23.532  1.00  0.00    -0.020 C 
ATOM      6  C   UNL     1      16.478  19.705  25.050  1.00  0.00     0.008 C 
ATOM      7  C   UNL     1      15.290  19.088  25.780  1.00  0.00     0.005 C 
ATOM      8  C   UNL     1      14.886  17.742  25.145  1.00  0.00     0.003 C 
ATOM      9  C   UNL     1      14.477  17.957  23.664  1.00  0.00     0.000 C 
ATOM     10  C   UNL     1      14.214  16.580  23.008  1.00  0.00     0.031 C 
ATOM     11  C   UNL     1      13.436  15.617  23.861  1.00  0.00    -0.027 C 
ATOM     12  C   UNL     1      13.363  15.693  25.206  1.00  0.00    -0.065 C 
ATOM     13  C   UNL     1      13.773  16.965  25.965  1.00  0.00    -0.008 C 
ATOM     14  C   UNL     1      14.351  16.578  27.367  1.00  0.00     0.014 C 
ATOM     15  C   UNL     1      13.533  15.519  28.125  1.00  0.00     0.033 C 
ATOM     16  C   UNL     1      13.315  14.250  27.290  1.00  0.00     0.118 C 
ATOM     17  C   UNL     1      12.641  14.580  25.949  1.00  0.00     0.063 C 
ATOM     18  C   UNL     1      12.493  17.824  26.168  1.00  0.00     0.016 C 
ATOM     19  C   UNL     1      17.619  20.186  22.872  1.00  0.00     0.012 C 
ENDROOT
BRANCH   1  20
ATOM     20  C   UNL     1      15.890  22.513  23.356  1.00  0.00     0.133 C 
ATOM     21  C   UNL     1      15.765  23.331  24.610  1.00  0.00     0.088 C 
ATOM     22  O   UNL     1      16.527  22.971  22.419  1.00  0.00    -0.300 OA
ENDBRANCH   1  20
BRANCH  16  23
ATOM     23  O   UNL     1      14.520  13.539  27.119  1.00  0.00    -0.393 OA
ATOM     24  H   UNL     1      14.688  13.438  26.146  1.00  0.00     0.210 HD
ENDBRANCH  16  23
TORSDOF 2
ENDMDL
MODEL 3
REMARK VINA RESULT:     8.156      1.620      2.645
REMARK INTER + INTRA:           9.003
REMARK INTER:                   8.740
REMARK INTRA:                   0.263
REMARK UNBOUND:                 0.132
REMARK SMILES CC(=O)[C@H]1CC[C@@H]2[C@H]3CC=C4C[C@@H](O)CC[C@@]4(C)[C@@H]3CC[C@]12C
REMARK SMILES IDX 4 1 5 2 6 3 7 4 22 5 21 6 20 7 19 8 8 9 9 10 10 11 11 12
REMARK SMILES IDX 17 13 16 14 15 15 13 16 12 17 18 18 23 19 2 20 1 21 3 22
REMARK SMILES IDX 14 23
REMARK H PARENT 14 24
REMARK Flexibility Score: inf
ROOT
ATOM      1  C   UNL     1      11.873  14.596  26.161  1.00  0.00     0.062 C 
ATOM      2  C   UNL     1      11.046  15.450  27.134  1.00  0.00     0.012 C 
ATOM      3  C   UNL     1      12.033  16.080  28.124  1.00  0.00     0.005 C 
ATOM      4  C   UNL     1      13.459  15.750  27.630  1.00  0.00    -0.001 C 
ATOM      5  C   UNL     1      13.274  14.429  26.821  1.00  0.00    -0.020 C 
ATOM      6  C   UNL     1      14.398  14.185  25.774  1.00  0.00     0.008 C 
ATOM      7  C   UNL     1      14.764  15.420  24.957  1.00  0.00     0.005 C 
ATOM      8  C   UNL     1      15.208  16.579  25.872  1.00  0.00     0.003 C 
ATOM      9  C   UNL     1      14.054  16.968  26.833  1.00  0.00     0.000 C 
ATOM     10  C   UNL     1      14.566  18.030  27.834  1.00  0.00     0.031 C 
ATOM     11  C   UNL     1      15.419  19.109  27.223  1.00  0.00    -0.027 C 
ATOM     12  C   UNL     1      16.090  18.968  26.061  1.00  0.00    -0.065 C 
ATOM     13  C   UNL     1      15.771  17.831  25.078  1.00  0.00    -0.008 C 
ATOM     14  C   UNL     1      17.074  17.410  24.321  1.00  0.00     0.014 C 
ATOM     15  C   UNL     1      17.926  18.585  23.811  1.00  0.00     0.033 C 
ATOM     16  C   UNL     1      18.278  19.572  24.932  1.00  0.00     0.118 C 
ATOM     17  C   UNL     1      17.011  20.097  25.625  1.00  0.00     0.063 C 
ATOM     18  C   UNL     1      14.743  18.377  24.047  1.00  0.00     0.016 C 
ATOM     19  C   UNL     1      13.296  13.235  27.813  1.00  0.00     0.012 C 
ENDROOT
BRANCH   1  20
ATOM     20  C   UNL     1      11.187  13.294  25.766  1.00  0.00     0.133 C 
ATOM     21  C   UNL     1      10.905  12.984  24.323  1.00  0.00     0.088 C 
ATOM     22  O   UNL     1      10.878  12.470  26.614  1.00  0.00    -0.300 OA
ENDBRANCH   1  20
BRANCH  16  23
ATOM     23  O   UNL     1      19.186  19.002  25.846  1.00  0.00    -0.393 OA
ATOM     24  H   UNL     1      18.680  18.697  26.642  1.00  0.00     0.210 HD
ENDBRANCH  16  23
TORSDOF 2
ENDMDL
MODEL 4
REMARK VINA RESULT:     9.009      1.505      6.916
REMARK INTER + INTRA:           9.930
REMARK INTER:                   9.927
REMARK INTRA:                   0.003
REMARK UNBOUND:                 0.132
REMARK SMILES CC(=O)[C@H]1CC[C@@H]2[C@H]3CC=C4C[C@@H](O)CC[C@@]4(C)[C@@H]3CC[C@]12C
REMARK SMILES IDX 4 1 5 2 6 3 7 4 22 5 21 6 20 7 19 8 8 9 9 10 10 11 11 12
REMARK SMILES IDX 17 13 16 14 15 15 13 16 12 17 18 18 23 19 2 20 1 21 3 22
REMARK SMILES IDX 14 23
REMARK H PARENT 14 24
REMARK Flexibility Score: inf
ROOT
ATOM      1  C   UNL     1      16.465  18.915  24.570  1.00  0.00     0.062 C 
ATOM      2  C   UNL     1      17.791  18.405  25.153  1.00  0.00     0.012 C 
ATOM      3  C   UNL     1      17.481  17.852  26.550  1.00  0.00     0.005 C 
ATOM      4  C   UNL     1      15.947  17.864  26.722  1.00  0.00    -0.001 C 
ATOM      5  C   UNL     1      15.476  19.006  25.770  1.00  0.00    -0.020 C 
ATOM      6  C   UNL     1      13.991  18.867  25.326  1.00  0.00     0.008 C 
ATOM      7  C   UNL     1      13.597  17.452  24.914  1.00  0.00     0.005 C 
ATOM      8  C   UNL     1      13.849  16.451  26.060  1.00  0.00     0.003 C 
ATOM      9  C   UNL     1      15.355  16.437  26.430  1.00  0.00     0.000 C 
ATOM     10  C   UNL     1      15.562  15.536  27.670  1.00  0.00     0.031 C 
ATOM     11  C   UNL     1      14.793  14.244  27.644  1.00  0.00    -0.027 C 
ATOM     12  C   UNL     1      13.680  14.046  26.906  1.00  0.00    -0.065 C 
ATOM     13  C   UNL     1      13.294  14.995  25.760  1.00  0.00    -0.008 C 
ATOM     14  C   UNL     1      11.736  15.060  25.633  1.00  0.00     0.014 C 
ATOM     15  C   UNL     1      11.031  13.695  25.706  1.00  0.00     0.033 C 
ATOM     16  C   UNL     1      11.413  12.915  26.971  1.00  0.00     0.118 C 
ATOM     17  C   UNL     1      12.935  12.731  27.070  1.00  0.00     0.063 C 
ATOM     18  C   UNL     1      13.882  14.407  24.445  1.00  0.00     0.016 C 
ATOM     19  C   UNL     1      15.612  20.361  26.516  1.00  0.00     0.012 C 
ENDROOT
BRANCH   1  20
ATOM     20  C   UNL     1      16.614  20.196  23.758  1.00  0.00     0.133 C 
ATOM     21  C   UNL     1      15.422  20.823  23.092  1.00  0.00     0.088 C 
ATOM     22  O   UNL     1      17.699  20.746  23.656  1.00  0.00    -0.300 OA
ENDBRANCH   1  20
BRANCH  16  23
ATOM     23  O   UNL     1      10.875  13.520  28.125  1.00  0.00    -0.393 OA
ATOM     24  H   UNL     1      11.054  12.928  28.901  1.00  0.00     0.210 HD
ENDBRANCH  16  23
TORSDOF 2
ENDMDL
MODEL 5
REMARK VINA RESULT:     9.075      1.571      2.972
REMARK INTER + INTRA:          10.002
REMARK INTER:                  10.165
REMARK INTRA:                  -0.162
REMARK UNBOUND:                 0.132
REMARK SMILES CC(=O)[C@H]1CC[C@@H]2[C@H]3CC=C4C[C@@H](O)CC[C@@]4(C)[C@@H]3CC[C@]12C
REMARK SMILES IDX 4 1 5 2 6 3 7 4 22 5 21 6 20 7 19 8 8 9 9 10 10 11 11 12
REMARK SMILES IDX 17 13 16 14 15 15 13 16 12 17 18 18 23 19 2 20 1 21 3 22
REMARK SMILES IDX 14 23
REMARK H PARENT 14 24
REMARK Flexibility Score: inf
ROOT
ATOM      1  C   UNL     1      12.136  14.912  26.237  1.00  0.00     0.062 C 
ATOM      2  C   UNL     1      12.030  15.369  27.700  1.00  0.00     0.012 C 
ATOM      3  C   UNL     1      13.429  15.833  28.124  1.00  0.00     0.005 C 
ATOM      4  C   UNL     1      14.321  15.827  26.863  1.00  0.00    -0.001 C 
ATOM      5  C   UNL     1      13.658  14.755  25.945  1.00  0.00    -0.020 C 
ATOM      6  C   UNL     1      13.995  14.939  24.438  1.00  0.00     0.008 C 
ATOM      7  C   UNL     1      13.899  16.382  23.952  1.00  0.00     0.005 C 
ATOM      8  C   UNL     1      14.829  17.304  24.765  1.00  0.00     0.003 C 
ATOM      9  C   UNL     1      14.425  17.277  26.263  1.00  0.00     0.000 C 
ATOM     10  C   UNL     1      15.455  18.093  27.079  1.00  0.00     0.031 C 
ATOM     11  C   UNL     1      15.870  19.393  26.445  1.00  0.00    -0.027 C 
ATOM     12  C   UNL     1      15.773  19.650  25.124  1.00  0.00    -0.065 C 
ATOM     13  C   UNL     1      14.910  18.782  24.196  1.00  0.00    -0.008 C 
ATOM     14  C   UNL     1      15.549  18.742  22.768  1.00  0.00     0.014 C 
ATOM     15  C   UNL     1      16.024  20.108  22.242  1.00  0.00     0.033 C 
ATOM     16  C   UNL     1      16.985  20.800  23.218  1.00  0.00     0.118 C 
ATOM     17  C   UNL     1      16.344  20.960  24.605  1.00  0.00     0.063 C 
ATOM     18  C   UNL     1      13.507  19.447  24.101  1.00  0.00     0.016 C 
ATOM     19  C   UNL     1      14.175  13.353  26.369  1.00  0.00     0.012 C 
ENDROOT
BRANCH   1  20
ATOM     20  C   UNL     1      11.289  13.685  25.923  1.00  0.00     0.133 C 
ATOM     21  C   UNL     1      10.876  12.739  27.015  1.00  0.00     0.088 C 
ATOM     22  O   UNL     1      10.911  13.464  24.782  1.00  0.00    -0.300 OA
ENDBRANCH   1  20
BRANCH  16  23
ATOM     23  O   UNL     1      18.222  20.127  23.278  1.00  0.00    -0.393 OA
ATOM     24  H   UNL     1      18.056  19.155  23.172  1.00  0.00     0.210 HD
ENDBRANCH  16  23
TORSDOF 2
ENDMDL
