MODEL 1
REMARK VINA RESULT:    -4.658      0.000      0.000
REMARK INTER + INTRA:          -5.057
REMARK INTER:                  -4.931
REMARK INTRA:                  -0.126
REMARK UNBOUND:                -0.126
REMARK SMILES C=C(C)[C@@H]1CC=C(C)CC1
REMARK SMILES IDX 8 1 7 2 6 3 5 4 4 5 10 6 9 7 2 8 1 9 3 10
REMARK H PARENT
REMARK Flexibility Score: inf
ROOT
ATOM      1  C   UNL     1      59.413  43.502  41.154  1.00  0.00     0.039 C 
ATOM      2  C   UNL     1      58.078  44.042  41.585  1.00  0.00    -0.077 C 
ATOM      3  C   UNL     1      57.857  45.372  41.523  1.00  0.00    -0.027 C 
ATOM      4  C   UNL     1      56.535  46.004  41.883  1.00  0.00     0.035 C 
ATOM      5  C   UNL     1      55.698  45.111  42.816  1.00  0.00     0.018 C 
ATOM      6  C   UNL     1      55.653  43.677  42.265  1.00  0.00     0.013 C 
ATOM      7  C   UNL     1      57.068  43.090  42.201  1.00  0.00     0.031 C 
ENDROOT
BRANCH   5   8
ATOM      8  C   UNL     1      54.304  45.677  43.034  1.00  0.00    -0.077 C 
ATOM      9  C   UNL     1      54.036  46.513  44.054  1.00  0.00     0.008 C 
ATOM     10  C   UNL     1      53.212  45.294  42.069  1.00  0.00     0.039 C 
ENDBRANCH   5   8
TORSDOF 1
ENDMDL
MODEL 2
REMARK VINA RESULT:    -4.536      1.135      4.276
REMARK INTER + INTRA:          -4.927
REMARK INTER:                  -4.802
REMARK INTRA:                  -0.125
REMARK UNBOUND:                -0.126
REMARK SMILES C=C(C)[C@@H]1CC=C(C)CC1
REMARK SMILES IDX 8 1 7 2 6 3 5 4 4 5 10 6 9 7 2 8 1 9 3 10
REMARK H PARENT
REMARK Flexibility Score: inf
ROOT
ATOM      1  C   UNL     1      53.099  45.577  42.288  1.00  0.00     0.039 C 
ATOM      2  C   UNL     1      54.467  44.956  42.354  1.00  0.00    -0.077 C 
ATOM      3  C   UNL     1      55.553  45.746  42.217  1.00  0.00    -0.027 C 
ATOM      4  C   UNL     1      56.966  45.227  42.321  1.00  0.00     0.035 C 
ATOM      5  C   UNL     1      57.052  43.716  42.042  1.00  0.00     0.018 C 
ATOM      6  C   UNL     1      55.981  42.972  42.854  1.00  0.00     0.013 C 
ATOM      7  C   UNL     1      54.581  43.445  42.441  1.00  0.00     0.031 C 
ENDROOT
BRANCH   5   8
ATOM      8  C   UNL     1      58.446  43.173  42.315  1.00  0.00    -0.077 C 
ATOM      9  C   UNL     1      58.929  43.073  43.566  1.00  0.00     0.008 C 
ATOM     10  C   UNL     1      59.287  42.728  41.147  1.00  0.00     0.039 C 
ENDBRANCH   5   8
TORSDOF 1
ENDMDL
MODEL 3
REMARK VINA RESULT:    -4.500      0.904      4.642
REMARK INTER + INTRA:          -4.889
REMARK INTER:                  -4.760
REMARK INTRA:                  -0.129
REMARK UNBOUND:                -0.126
REMARK SMILES C=C(C)[C@@H]1CC=C(C)CC1
REMARK SMILES IDX 8 1 7 2 6 3 5 4 4 5 10 6 9 7 2 8 1 9 3 10
REMARK H PARENT
REMARK Flexibility Score: inf
ROOT
ATOM      1  C   UNL     1      53.866  46.072  43.399  1.00  0.00     0.039 C 
ATOM      2  C   UNL     1      55.122  45.554  42.755  1.00  0.00    -0.077 C 
ATOM      3  C   UNL     1      55.261  44.225  42.566  1.00  0.00    -0.027 C 
ATOM      4  C   UNL     1      56.459  43.613  41.882  1.00  0.00     0.035 C 
ATOM      5  C   UNL     1      57.692  44.534  41.933  1.00  0.00     0.018 C 
ATOM      6  C   UNL     1      57.300  45.955  41.502  1.00  0.00     0.013 C 
ATOM      7  C   UNL     1      56.248  46.528  42.460  1.00  0.00     0.031 C 
ENDROOT
BRANCH   5   8
ATOM      8  C   UNL     1      58.838  43.985  41.098  1.00  0.00    -0.077 C 
ATOM      9  C   UNL     1      59.452  44.737  40.167  1.00  0.00     0.008 C 
ATOM     10  C   UNL     1      59.293  42.570  41.341  1.00  0.00     0.039 C 
ENDBRANCH   5   8
TORSDOF 1
ENDMDL
MODEL 4
REMARK VINA RESULT:    -4.478      0.519      1.664
REMARK INTER + INTRA:          -4.866
REMARK INTER:                  -4.740
REMARK INTRA:                  -0.125
REMARK UNBOUND:                -0.126
REMARK SMILES C=C(C)[C@@H]1CC=C(C)CC1
REMARK SMILES IDX 8 1 7 2 6 3 5 4 4 5 10 6 9 7 2 8 1 9 3 10
REMARK H PARENT
REMARK Flexibility Score: inf
ROOT
ATOM      1  C   UNL     1      59.058  42.955  41.468  1.00  0.00     0.039 C 
ATOM      2  C   UNL     1      57.815  43.692  41.883  1.00  0.00    -0.077 C 
ATOM      3  C   UNL     1      56.819  43.008  42.486  1.00  0.00    -0.027 C 
ATOM      4  C   UNL     1      55.556  43.666  42.986  1.00  0.00     0.035 C 
ATOM      5  C   UNL     1      55.276  45.002  42.276  1.00  0.00     0.018 C 
ATOM      6  C   UNL     1      56.547  45.865  42.264  1.00  0.00     0.013 C 
ATOM      7  C   UNL     1      57.664  45.150  41.493  1.00  0.00     0.031 C 
ENDROOT
BRANCH   5   8
ATOM      8  C   UNL     1      54.101  45.736  42.903  1.00  0.00    -0.077 C 
ATOM      9  C   UNL     1      54.239  46.444  44.037  1.00  0.00     0.008 C 
ATOM     10  C   UNL     1      52.761  45.669  42.216  1.00  0.00     0.039 C 
ENDBRANCH   5   8
TORSDOF 1
ENDMDL
MODEL 5
REMARK VINA RESULT:    -4.162      1.472      2.609
REMARK INTER + INTRA:          -4.532
REMARK INTER:                  -4.404
REMARK INTRA:                  -0.128
REMARK UNBOUND:                -0.126
REMARK SMILES C=C(C)[C@@H]1CC=C(C)CC1
REMARK SMILES IDX 8 1 7 2 6 3 5 4 4 5 10 6 9 7 2 8 1 9 3 10
REMARK H PARENT
REMARK Flexibility Score: inf
ROOT
ATOM      1  C   UNL     1      60.848  44.196  42.865  1.00  0.00     0.039 C 
ATOM      2  C   UNL     1      59.349  44.108  42.775  1.00  0.00    -0.077 C 
ATOM      3  C   UNL     1      58.694  43.252  43.588  1.00  0.00    -0.027 C 
ATOM      4  C   UNL     1      57.190  43.130  43.611  1.00  0.00     0.035 C 
ATOM      5  C   UNL     1      56.546  43.622  42.302  1.00  0.00     0.018 C 
ATOM      6  C   UNL     1      57.123  44.993  41.920  1.00  0.00     0.013 C 
ATOM      7  C   UNL     1      58.634  44.885  41.686  1.00  0.00     0.031 C 
ENDROOT
BRANCH   5   8
ATOM      8  C   UNL     1      55.029  43.653  42.400  1.00  0.00    -0.077 C 
ATOM      9  C   UNL     1      54.301  42.522  42.407  1.00  0.00     0.008 C 
ATOM     10  C   UNL     1      54.342  44.990  42.504  1.00  0.00     0.039 C 
ENDBRANCH   5   8
TORSDOF 1
ENDMDL
MODEL 6
REMARK VINA RESULT:    -4.048      1.518      2.675
REMARK INTER + INTRA:          -4.411
REMARK INTER:                  -4.285
REMARK INTRA:                  -0.126
REMARK UNBOUND:                -0.126
REMARK SMILES C=C(C)[C@@H]1CC=C(C)CC1
REMARK SMILES IDX 8 1 7 2 6 3 5 4 4 5 10 6 9 7 2 8 1 9 3 10
REMARK H PARENT
REMARK Flexibility Score: inf
ROOT
ATOM      1  C   UNL     1      61.067  42.762  43.024  1.00  0.00     0.039 C 
ATOM      2  C   UNL     1      59.602  43.064  42.876  1.00  0.00    -0.077 C 
ATOM      3  C   UNL     1      58.763  42.753  43.886  1.00  0.00    -0.027 C 
ATOM      4  C   UNL     1      57.286  43.065  43.855  1.00  0.00     0.035 C 
ATOM      5  C   UNL     1      56.759  43.237  42.419  1.00  0.00     0.018 C 
ATOM      6  C   UNL     1      57.682  44.181  41.633  1.00  0.00     0.013 C 
ATOM      7  C   UNL     1      59.094  43.587  41.545  1.00  0.00     0.031 C 
ENDROOT
BRANCH   5   8
ATOM      8  C   UNL     1      55.316  43.716  42.405  1.00  0.00    -0.077 C 
ATOM      9  C   UNL     1      55.010  45.026  42.389  1.00  0.00     0.008 C 
ATOM     10  C   UNL     1      54.216  42.687  42.393  1.00  0.00     0.039 C 
ENDBRANCH   5   8
TORSDOF 1
ENDMDL
MODEL 7
REMARK VINA RESULT:    -3.626     20.900     22.127
REMARK INTER + INTRA:          -3.964
REMARK INTER:                  -3.831
REMARK INTRA:                  -0.133
REMARK UNBOUND:                -0.126
REMARK SMILES C=C(C)[C@@H]1CC=C(C)CC1
REMARK SMILES IDX 8 1 7 2 6 3 5 4 4 5 10 6 9 7 2 8 1 9 3 10
REMARK H PARENT
REMARK Flexibility Score: inf
ROOT
ATOM      1  C   UNL     1      57.596  27.213  26.480  1.00  0.00     0.039 C 
ATOM      2  C   UNL     1      56.412  28.139  26.535  1.00  0.00    -0.077 C 
ATOM      3  C   UNL     1      55.232  27.666  26.989  1.00  0.00    -0.027 C 
ATOM      4  C   UNL     1      54.002  28.529  27.132  1.00  0.00     0.035 C 
ATOM      5  C   UNL     1      54.056  29.774  26.229  1.00  0.00     0.018 C 
ATOM      6  C   UNL     1      55.415  30.475  26.387  1.00  0.00     0.013 C 
ATOM      7  C   UNL     1      56.548  29.535  25.957  1.00  0.00     0.031 C 
ENDROOT
BRANCH   5   8
ATOM      8  C   UNL     1      52.897  30.719  26.505  1.00  0.00    -0.077 C 
ATOM      9  C   UNL     1      51.708  30.265  26.940  1.00  0.00     0.008 C 
ATOM     10  C   UNL     1      53.107  32.196  26.296  1.00  0.00     0.039 C 
ENDBRANCH   5   8
TORSDOF 1
ENDMDL
MODEL 8
REMARK VINA RESULT:    -3.620     21.031     22.252
REMARK INTER + INTRA:          -3.958
REMARK INTER:                  -3.825
REMARK INTRA:                  -0.132
REMARK UNBOUND:                -0.126
REMARK SMILES C=C(C)[C@@H]1CC=C(C)CC1
REMARK SMILES IDX 8 1 7 2 6 3 5 4 4 5 10 6 9 7 2 8 1 9 3 10
REMARK H PARENT
REMARK Flexibility Score: inf
ROOT
ATOM      1  C   UNL     1      57.603  27.259  26.494  1.00  0.00     0.039 C 
ATOM      2  C   UNL     1      56.569  28.319  26.230  1.00  0.00    -0.077 C 
ATOM      3  C   UNL     1      56.762  29.183  25.211  1.00  0.00    -0.027 C 
ATOM      4  C   UNL     1      55.759  30.246  24.835  1.00  0.00     0.035 C 
ATOM      5  C   UNL     1      54.823  30.603  26.003  1.00  0.00     0.018 C 
ATOM      6  C   UNL     1      54.266  29.320  26.637  1.00  0.00     0.013 C 
ATOM      7  C   UNL     1      55.410  28.467  27.198  1.00  0.00     0.031 C 
ENDROOT
BRANCH   5   8
ATOM      8  C   UNL     1      53.713  31.546  25.566  1.00  0.00    -0.077 C 
ATOM      9  C   UNL     1      52.962  32.212  26.461  1.00  0.00     0.008 C 
ATOM     10  C   UNL     1      53.472  31.739  24.091  1.00  0.00     0.039 C 
ENDBRANCH   5   8
TORSDOF 1
ENDMDL
