MODEL 1
REMARK VINA RESULT:    -5.221      0.000      0.000
REMARK INTER + INTRA:          -5.221
REMARK INTER:                  -5.221
REMARK INTRA:                   0.000
REMARK UNBOUND:                 0.000
REMARK SMILES CC(C)=C1CC[C@@H](C)CC1=O
REMARK SMILES IDX 8 1 7 2 6 3 5 4 4 5 2 6 1 7 3 8 10 9 11 10 9 11
REMARK H PARENT
REMARK Flexibility Score: inf
ROOT
ATOM      1  C   UNL     1      27.509  11.628  25.022  1.00  0.00     0.008 C 
ATOM      2  C   UNL     1      27.892  11.187  26.443  1.00  0.00    -0.006 C 
ATOM      3  C   UNL     1      29.311  10.589  26.506  1.00  0.00     0.008 C 
ATOM      4  C   UNL     1      29.436   9.258  25.750  1.00  0.00     0.039 C 
ATOM      5  C   UNL     1      28.339   8.264  26.110  1.00  0.00    -0.006 C 
ATOM      6  C   UNL     1      28.563   6.918  26.062  1.00  0.00    -0.070 C 
ATOM      7  C   UNL     1      29.901   6.361  25.633  1.00  0.00     0.039 C 
ATOM      8  C   UNL     1      27.504   5.920  26.470  1.00  0.00     0.039 C 
ATOM      9  C   UNL     1      26.993   8.841  26.397  1.00  0.00     0.159 C 
ATOM     10  O   UNL     1      25.938   8.214  26.108  1.00  0.00    -0.295 OA
ATOM     11  C   UNL     1      26.873  10.197  27.028  1.00  0.00     0.084 C 
ENDROOT
TORSDOF 0
ENDMDL
MODEL 2
REMARK VINA RESULT:    -5.157      7.974      9.536
REMARK INTER + INTRA:          -5.157
REMARK INTER:                  -5.157
REMARK INTRA:                   0.000
REMARK UNBOUND:                 0.000
REMARK SMILES CC(C)=C1CC[C@@H](C)CC1=O
REMARK SMILES IDX 8 1 7 2 6 3 5 4 4 5 2 6 1 7 3 8 10 9 11 10 9 11
REMARK H PARENT
REMARK Flexibility Score: inf
ROOT
ATOM      1  C   UNL     1      38.569   9.865  25.848  1.00  0.00     0.008 C 
ATOM      2  C   UNL     1      38.271   9.165  27.184  1.00  0.00    -0.006 C 
ATOM      3  C   UNL     1      36.919   8.427  27.167  1.00  0.00     0.008 C 
ATOM      4  C   UNL     1      35.716   9.378  27.068  1.00  0.00     0.039 C 
ATOM      5  C   UNL     1      35.776  10.518  28.075  1.00  0.00    -0.006 C 
ATOM      6  C   UNL     1      34.635  11.081  28.573  1.00  0.00    -0.070 C 
ATOM      7  C   UNL     1      33.270  10.605  28.131  1.00  0.00     0.039 C 
ATOM      8  C   UNL     1      34.676  12.175  29.615  1.00  0.00     0.039 C 
ATOM      9  C   UNL     1      37.133  11.055  28.387  1.00  0.00     0.159 C 
ATOM     10  O   UNL     1      37.308  12.273  28.661  1.00  0.00    -0.295 OA
ATOM     11  C   UNL     1      38.326  10.145  28.366  1.00  0.00     0.084 C 
ENDROOT
TORSDOF 0
ENDMDL
MODEL 3
REMARK VINA RESULT:    -5.070      1.646      3.298
REMARK INTER + INTRA:          -5.070
REMARK INTER:                  -5.070
REMARK INTRA:                   0.000
REMARK UNBOUND:                 0.000
REMARK SMILES CC(C)=C1CC[C@@H](C)CC1=O
REMARK SMILES IDX 8 1 7 2 6 3 5 4 4 5 2 6 1 7 3 8 10 9 11 10 9 11
REMARK H PARENT
REMARK Flexibility Score: inf
ROOT
ATOM      1  C   UNL     1      31.516   9.870  27.153  1.00  0.00     0.008 C 
ATOM      2  C   UNL     1      30.919   9.681  25.749  1.00  0.00    -0.006 C 
ATOM      3  C   UNL     1      29.867  10.754  25.412  1.00  0.00     0.008 C 
ATOM      4  C   UNL     1      28.602  10.648  26.278  1.00  0.00     0.039 C 
ATOM      5  C   UNL     1      28.036   9.235  26.332  1.00  0.00    -0.006 C 
ATOM      6  C   UNL     1      26.698   9.016  26.495  1.00  0.00    -0.070 C 
ATOM      7  C   UNL     1      25.728  10.166  26.645  1.00  0.00     0.039 C 
ATOM      8  C   UNL     1      26.113   7.622  26.494  1.00  0.00     0.039 C 
ATOM      9  C   UNL     1      29.031   8.123  26.318  1.00  0.00     0.159 C 
ATOM     10  O   UNL     1      28.818   7.046  26.938  1.00  0.00    -0.295 OA
ATOM     11  C   UNL     1      30.322   8.277  25.568  1.00  0.00     0.084 C 
ENDROOT
TORSDOF 0
ENDMDL
MODEL 4
REMARK VINA RESULT:    -4.982      1.593      2.621
REMARK INTER + INTRA:          -4.982
REMARK INTER:                  -4.982
REMARK INTRA:                   0.000
REMARK UNBOUND:                 0.000
REMARK SMILES CC(C)=C1CC[C@@H](C)CC1=O
REMARK SMILES IDX 8 1 7 2 6 3 5 4 4 5 2 6 1 7 3 8 10 9 11 10 9 11
REMARK H PARENT
REMARK Flexibility Score: inf
ROOT
ATOM      1  C   UNL     1      26.361  11.387  27.984  1.00  0.00     0.008 C 
ATOM      2  C   UNL     1      26.377  11.109  26.472  1.00  0.00    -0.006 C 
ATOM      3  C   UNL     1      25.643   9.805  26.110  1.00  0.00     0.008 C 
ATOM      4  C   UNL     1      26.352   8.549  26.639  1.00  0.00     0.039 C 
ATOM      5  C   UNL     1      27.839   8.523  26.310  1.00  0.00    -0.006 C 
ATOM      6  C   UNL     1      28.501   7.343  26.129  1.00  0.00    -0.070 C 
ATOM      7  C   UNL     1      27.790   6.016  26.266  1.00  0.00     0.039 C 
ATOM      8  C   UNL     1      29.963   7.300  25.747  1.00  0.00     0.039 C 
ATOM      9  C   UNL     1      28.541   9.840  26.316  1.00  0.00     0.159 C 
ATOM     10  O   UNL     1      29.747   9.937  26.668  1.00  0.00    -0.295 OA
ATOM     11  C   UNL     1      27.808  11.086  25.912  1.00  0.00     0.084 C 
ENDROOT
TORSDOF 0
ENDMDL
MODEL 5
REMARK VINA RESULT:    -4.880      6.640      8.379
REMARK INTER + INTRA:          -4.880
REMARK INTER:                  -4.880
REMARK INTRA:                   0.000
REMARK UNBOUND:                 0.000
REMARK SMILES CC(C)=C1CC[C@@H](C)CC1=O
REMARK SMILES IDX 8 1 7 2 6 3 5 4 4 5 2 6 1 7 3 8 10 9 11 10 9 11
REMARK H PARENT
REMARK Flexibility Score: inf
ROOT
ATOM      1  C   UNL     1      35.372   7.458  26.568  1.00  0.00     0.008 C 
ATOM      2  C   UNL     1      35.001   8.752  25.825  1.00  0.00    -0.006 C 
ATOM      3  C   UNL     1      36.208   9.692  25.651  1.00  0.00     0.008 C 
ATOM      4  C   UNL     1      36.722  10.263  26.981  1.00  0.00     0.039 C 
ATOM      5  C   UNL     1      35.612  10.850  27.844  1.00  0.00    -0.006 C 
ATOM      6  C   UNL     1      35.856  11.884  28.701  1.00  0.00    -0.070 C 
ATOM      7  C   UNL     1      37.241  12.477  28.840  1.00  0.00     0.039 C 
ATOM      8  C   UNL     1      34.756  12.515  29.523  1.00  0.00     0.039 C 
ATOM      9  C   UNL     1      34.292  10.156  27.785  1.00  0.00     0.159 C 
ATOM     10  O   UNL     1      33.537  10.101  28.792  1.00  0.00    -0.295 OA
ATOM     11  C   UNL     1      33.845   9.494  26.514  1.00  0.00     0.084 C 
ENDROOT
TORSDOF 0
ENDMDL
MODEL 6
REMARK VINA RESULT:    -4.772      1.259      3.934
REMARK INTER + INTRA:          -4.772
REMARK INTER:                  -4.772
REMARK INTRA:                   0.000
REMARK UNBOUND:                 0.000
REMARK SMILES CC(C)=C1CC[C@@H](C)CC1=O
REMARK SMILES IDX 8 1 7 2 6 3 5 4 4 5 2 6 1 7 3 8 10 9 11 10 9 11
REMARK H PARENT
REMARK Flexibility Score: inf
ROOT
ATOM      1  C   UNL     1      27.990   5.349  27.626  1.00  0.00     0.008 C 
ATOM      2  C   UNL     1      27.898   5.645  26.121  1.00  0.00    -0.006 C 
ATOM      3  C   UNL     1      29.284   5.858  25.482  1.00  0.00     0.008 C 
ATOM      4  C   UNL     1      29.987   7.129  25.982  1.00  0.00     0.039 C 
ATOM      5  C   UNL     1      29.095   8.363  25.928  1.00  0.00    -0.006 C 
ATOM      6  C   UNL     1      29.622   9.607  25.735  1.00  0.00    -0.070 C 
ATOM      7  C   UNL     1      31.113   9.812  25.585  1.00  0.00     0.039 C 
ATOM      8  C   UNL     1      28.747  10.834  25.622  1.00  0.00     0.039 C 
ATOM      9  C   UNL     1      27.647   8.144  26.215  1.00  0.00     0.159 C 
ATOM     10  O   UNL     1      26.953   9.026  26.789  1.00  0.00    -0.295 OA
ATOM     11  C   UNL     1      26.990   6.850  25.831  1.00  0.00     0.084 C 
ENDROOT
TORSDOF 0
ENDMDL
MODEL 7
REMARK VINA RESULT:    -4.753      7.958      9.515
REMARK INTER + INTRA:          -4.753
REMARK INTER:                  -4.753
REMARK INTRA:                   0.000
REMARK UNBOUND:                 0.000
REMARK SMILES CC(C)=C1CC[C@@H](C)CC1=O
REMARK SMILES IDX 8 1 7 2 6 3 5 4 4 5 2 6 1 7 3 8 10 9 11 10 9 11
REMARK H PARENT
REMARK Flexibility Score: inf
ROOT
ATOM      1  C   UNL     1      39.189   8.556  28.474  1.00  0.00     0.008 C 
ATOM      2  C   UNL     1      38.829   9.484  27.301  1.00  0.00    -0.006 C 
ATOM      3  C   UNL     1      38.588  10.935  27.758  1.00  0.00     0.008 C 
ATOM      4  C   UNL     1      37.338  11.088  28.638  1.00  0.00     0.039 C 
ATOM      5  C   UNL     1      36.105  10.424  28.040  1.00  0.00    -0.006 C 
ATOM      6  C   UNL     1      34.853  10.909  28.287  1.00  0.00    -0.070 C 
ATOM      7  C   UNL     1      34.639  12.113  29.177  1.00  0.00     0.039 C 
ATOM      8  C   UNL     1      33.623  10.297  27.656  1.00  0.00     0.039 C 
ATOM      9  C   UNL     1      36.337   9.161  27.280  1.00  0.00     0.159 C 
ATOM     10  O   UNL     1      35.481   8.236  27.271  1.00  0.00    -0.295 OA
ATOM     11  C   UNL     1      37.615   8.965  26.517  1.00  0.00     0.084 C 
ENDROOT
TORSDOF 0
ENDMDL
MODEL 8
REMARK VINA RESULT:    -4.654      1.451      4.065
REMARK INTER + INTRA:          -4.654
REMARK INTER:                  -4.654
REMARK INTRA:                   0.000
REMARK UNBOUND:                 0.000
REMARK SMILES CC(C)=C1CC[C@@H](C)CC1=O
REMARK SMILES IDX 8 1 7 2 6 3 5 4 4 5 2 6 1 7 3 8 10 9 11 10 9 11
REMARK H PARENT
REMARK Flexibility Score: inf
ROOT
ATOM      1  C   UNL     1      29.359   7.996  27.348  1.00  0.00     0.008 C 
ATOM      2  C   UNL     1      28.664   8.227  25.996  1.00  0.00    -0.006 C 
ATOM      3  C   UNL     1      29.091   9.552  25.339  1.00  0.00     0.008 C 
ATOM      4  C   UNL     1      28.620  10.790  26.118  1.00  0.00     0.039 C 
ATOM      5  C   UNL     1      27.141  10.737  26.478  1.00  0.00    -0.006 C 
ATOM      6  C   UNL     1      26.404  11.880  26.601  1.00  0.00    -0.070 C 
ATOM      7  C   UNL     1      27.029  13.242  26.400  1.00  0.00     0.039 C 
ATOM      8  C   UNL     1      24.923  11.844  26.902  1.00  0.00     0.039 C 
ATOM      9  C   UNL     1      26.587   9.390  26.803  1.00  0.00     0.159 C 
ATOM     10  O   UNL     1      25.666   9.249  27.652  1.00  0.00    -0.295 OA
ATOM     11  C   UNL     1      27.134   8.168  26.125  1.00  0.00     0.084 C 
ENDROOT
TORSDOF 0
ENDMDL
MODEL 9
REMARK VINA RESULT:    -4.423      8.986     10.348
REMARK INTER + INTRA:          -4.423
REMARK INTER:                  -4.423
REMARK INTRA:                   0.000
REMARK UNBOUND:                 0.000
REMARK SMILES CC(C)=C1CC[C@@H](C)CC1=O
REMARK SMILES IDX 8 1 7 2 6 3 5 4 4 5 2 6 1 7 3 8 10 9 11 10 9 11
REMARK H PARENT
REMARK Flexibility Score: inf
ROOT
ATOM      1  C   UNL     1      40.196   8.999  28.396  1.00  0.00     0.008 C 
ATOM      2  C   UNL     1      39.929  10.174  27.441  1.00  0.00    -0.006 C 
ATOM      3  C   UNL     1      38.825  11.112  27.964  1.00  0.00     0.008 C 
ATOM      4  C   UNL     1      37.439  10.450  27.996  1.00  0.00     0.039 C 
ATOM      5  C   UNL     1      37.081   9.756  26.688  1.00  0.00    -0.006 C 
ATOM      6  C   UNL     1      35.784   9.649  26.278  1.00  0.00    -0.070 C 
ATOM      7  C   UNL     1      34.650  10.199  27.114  1.00  0.00     0.039 C 
ATOM      8  C   UNL     1      35.415   9.014  24.956  1.00  0.00     0.039 C 
ATOM      9  C   UNL     1      38.207   9.106  25.955  1.00  0.00     0.159 C 
ATOM     10  O   UNL     1      38.029   8.058  25.279  1.00  0.00    -0.295 OA
ATOM     11  C   UNL     1      39.588   9.691  26.023  1.00  0.00     0.084 C 
ENDROOT
TORSDOF 0
ENDMDL
