MODEL 1
REMARK VINA RESULT:    -4.158      0.000      0.000
REMARK INTER + INTRA:          -6.550
REMARK INTER:                  -6.346
REMARK INTRA:                  -0.203
REMARK UNBOUND:                -0.203
REMARK SMILES CC1=CCC[C@@H](C)C(=O)C[C@H](C(C)C)C(=O)C1
REMARK SMILES IDX 8 1 9 2 6 3 7 4 5 5 4 6 3 7 2 8 1 9 10 11 11 12 15 13 16 14
REMARK SMILES IDX 17 15 12 17 13 18 14 19
REMARK H PARENT
REMARK Flexibility Score: 70.00
ROOT
ATOM      1  C   UNL     1      20.375 -10.220  64.481  1.00  0.00     0.136 C 
ATOM      2  O   UNL     1      20.448 -10.382  63.270  1.00  0.00    -0.299 OA
ENDROOT
BRANCH   1   3
ATOM      3  C   UNL     1      21.423 -10.833  65.382  1.00  0.00     0.053 C 
ATOM      4  C   UNL     1      22.811 -10.786  64.733  1.00  0.00     0.016 C 
BRANCH   3   5
ATOM      5  C   UNL     1      21.004 -12.284  65.725  1.00  0.00     0.015 C 
BRANCH   5   6
ATOM      6  C   UNL     1      20.938 -12.631  67.226  1.00  0.00     0.028 C 
BRANCH   6   7
ATOM      7  C   UNL     1      20.598 -11.503  68.179  1.00  0.00    -0.028 C 
ATOM      8  C   UNL     1      19.362 -11.048  68.494  1.00  0.00    -0.070 CG0
ATOM      9  C   UNL     1      19.260  -9.988  69.562  1.00  0.00     0.039 C 
ATOM     10  G   UNL     1      18.089 -11.473  67.784  1.00  0.00     0.000 G0
ENDBRANCH   6   7
ENDBRANCH   5   6
ENDBRANCH   3   5
ENDBRANCH   1   3
BRANCH   1  11
ATOM     11  C   UNL     1      19.194  -9.472  65.055  1.00  0.00     0.087 C 
BRANCH  11  12
ATOM     12  C   UNL     1      17.980 -10.403  65.344  1.00  0.00     0.066 C 
BRANCH  12  13
ATOM     13  C   UNL     1      17.618 -10.391  66.824  1.00  0.00     0.140 C 
ATOM     14  O   UNL     1      16.904  -9.496  67.254  1.00  0.00    -0.299 OA
BRANCH  13  15
ATOM     15  C   UNL     1      18.087 -11.469  67.779  1.00  0.00     0.106 CG0
ATOM     16  G   UNL     1      19.361 -11.047  68.490  1.00  0.00     0.000 G0
ENDBRANCH  13  15
ENDBRANCH  12  13
BRANCH  12  17
ATOM     17  C   UNL     1      16.724 -10.081  64.473  1.00  0.00    -0.006 C 
ATOM     18  C   UNL     1      17.038  -9.817  62.989  1.00  0.00     0.008 C 
ATOM     19  C   UNL     1      15.653 -11.179  64.595  1.00  0.00     0.008 C 
ENDBRANCH  12  17
ENDBRANCH  11  12
ENDBRANCH   1  11
TORSDOF 1
ENDMDL
MODEL 2
REMARK VINA RESULT:    -4.112      1.562      2.286
REMARK INTER + INTRA:          -6.478
REMARK INTER:                  -6.194
REMARK INTRA:                  -0.285
REMARK UNBOUND:                -0.203
REMARK SMILES CC1=CCC[C@@H](C)C(=O)C[C@H](C(C)C)C(=O)C1
REMARK SMILES IDX 8 1 9 2 6 3 7 4 5 5 4 6 3 7 2 8 1 9 10 11 11 12 15 13 16 14
REMARK SMILES IDX 17 15 12 17 13 18 14 19
REMARK H PARENT
REMARK Flexibility Score: 70.00
ROOT
ATOM      1  C   UNL     1      19.545 -10.131  64.386  1.00  0.00     0.136 C 
ATOM      2  O   UNL     1      18.918 -10.298  63.349  1.00  0.00    -0.299 OA
ENDROOT
BRANCH   1   3
ATOM      3  C   UNL     1      21.049  -9.979  64.334  1.00  0.00     0.053 C 
ATOM      4  C   UNL     1      21.519  -9.577  62.931  1.00  0.00     0.016 C 
BRANCH   3   5
ATOM      5  C   UNL     1      21.705 -11.303  64.796  1.00  0.00     0.015 C 
BRANCH   5   6
ATOM      6  C   UNL     1      22.389 -11.271  66.177  1.00  0.00     0.028 C 
BRANCH   6   7
ATOM      7  C   UNL     1      22.124 -12.440  67.104  1.00  0.00    -0.028 C 
ATOM      8  C   UNL     1      21.103 -12.565  67.986  1.00  0.00    -0.070 CG0
ATOM      9  C   UNL     1      20.974 -13.875  68.723  1.00  0.00     0.039 C 
ATOM     10  G   UNL     1      20.139 -11.447  68.340  1.00  0.00     0.000 G0
ENDBRANCH   6   7
ENDBRANCH   5   6
ENDBRANCH   3   5
ENDBRANCH   1   3
BRANCH   1  11
ATOM     11  C   UNL     1      18.809 -10.155  65.705  1.00  0.00     0.087 C 
BRANCH  11  12
ATOM     12  C   UNL     1      18.537 -11.603  66.211  1.00  0.00     0.066 C 
BRANCH  12  13
ATOM     13  C   UNL     1      18.756 -11.710  67.715  1.00  0.00     0.140 C 
ATOM     14  O   UNL     1      17.822 -12.042  68.430  1.00  0.00    -0.299 OA
BRANCH  13  15
ATOM     15  C   UNL     1      20.105 -11.452  68.354  1.00  0.00     0.106 CG0
ATOM     16  G   UNL     1      21.090 -12.553  68.004  1.00  0.00     0.000 G0
ENDBRANCH  13  15
ENDBRANCH  12  13
BRANCH  12  17
ATOM     17  C   UNL     1      17.121 -12.142  65.827  1.00  0.00    -0.006 C 
ATOM     18  C   UNL     1      16.084 -11.040  65.542  1.00  0.00     0.008 C 
ATOM     19  C   UNL     1      17.190 -13.116  64.638  1.00  0.00     0.008 C 
ENDBRANCH  12  17
ENDBRANCH  11  12
ENDBRANCH   1  11
TORSDOF 1
ENDMDL
MODEL 3
REMARK VINA RESULT:    -4.074      1.958      4.028
REMARK INTER + INTRA:          -6.421
REMARK INTER:                  -6.305
REMARK INTRA:                  -0.116
REMARK UNBOUND:                -0.203
REMARK SMILES CC1=CCC[C@@H](C)C(=O)C[C@H](C(C)C)C(=O)C1
REMARK SMILES IDX 8 1 9 2 6 3 7 4 5 5 4 6 3 7 2 8 1 9 10 11 11 12 15 13 16 14
REMARK SMILES IDX 17 15 12 17 13 18 14 19
REMARK H PARENT
REMARK Flexibility Score: 70.00
ROOT
ATOM      1  C   UNL     1      16.563 -11.822  66.851  1.00  0.00     0.136 C 
ATOM      2  O   UNL     1      15.533 -11.691  67.497  1.00  0.00    -0.299 OA
ENDROOT
BRANCH   1   3
ATOM      3  C   UNL     1      17.884 -11.977  67.572  1.00  0.00     0.053 C 
ATOM      4  C   UNL     1      17.845 -13.153  68.556  1.00  0.00     0.016 C 
BRANCH   3   5
ATOM      5  C   UNL     1      18.225 -10.647  68.288  1.00  0.00     0.015 C 
BRANCH   5   6
ATOM      6  C   UNL     1      19.086  -9.651  67.486  1.00  0.00     0.028 C 
BRANCH   6   7
ATOM      7  C   UNL     1      20.078 -10.235  66.501  1.00  0.00    -0.028 C 
ATOM      8  C   UNL     1      20.137 -10.001  65.168  1.00  0.00    -0.070 CG0
ATOM      9  C   UNL     1      21.288 -10.604  64.403  1.00  0.00     0.039 C 
ATOM     10  G   UNL     1      19.075  -9.247  64.386  1.00  0.00     0.000 G0
ENDBRANCH   6   7
ENDBRANCH   5   6
ENDBRANCH   3   5
ENDBRANCH   1   3
BRANCH   1  11
ATOM     11  C   UNL     1      16.503 -11.750  65.343  1.00  0.00     0.087 C 
BRANCH  11  12
ATOM     12  C   UNL     1      16.664 -10.296  64.807  1.00  0.00     0.066 C 
BRANCH  12  13
ATOM     13  C   UNL     1      17.927 -10.158  63.965  1.00  0.00     0.140 C 
ATOM     14  O   UNL     1      18.013 -10.782  62.917  1.00  0.00    -0.299 OA
BRANCH  13  15
ATOM     15  C   UNL     1      19.068  -9.246  64.365  1.00  0.00     0.106 CG0
ATOM     16  G   UNL     1      20.110 -10.004  65.170  1.00  0.00     0.000 G0
ENDBRANCH  13  15
ENDBRANCH  12  13
BRANCH  12  17
ATOM     17  C   UNL     1      15.420  -9.781  64.014  1.00  0.00    -0.006 C 
ATOM     18  C   UNL     1      15.710  -8.572  63.106  1.00  0.00     0.008 C 
ATOM     19  C   UNL     1      14.766 -10.906  63.194  1.00  0.00     0.008 C 
ENDBRANCH  12  17
ENDBRANCH  11  12
ENDBRANCH   1  11
TORSDOF 1
ENDMDL
MODEL 4
REMARK VINA RESULT:    -3.901     15.592     17.697
REMARK INTER + INTRA:          -6.157
REMARK INTER:                  -6.037
REMARK INTRA:                  -0.120
REMARK UNBOUND:                -0.203
REMARK SMILES CC1=CCC[C@@H](C)C(=O)C[C@H](C(C)C)C(=O)C1
REMARK SMILES IDX 8 1 9 2 6 3 7 4 5 5 4 6 3 7 2 8 1 9 10 11 11 12 15 13 16 14
REMARK SMILES IDX 17 15 12 17 13 18 14 19
REMARK H PARENT
REMARK Flexibility Score: 70.00
ROOT
ATOM      1  C   UNL     1       8.801   4.179  63.245  1.00  0.00     0.136 C 
ATOM      2  O   UNL     1       9.851   4.772  63.453  1.00  0.00    -0.299 OA
ENDROOT
BRANCH   1   3
ATOM      3  C   UNL     1       7.792   4.762  62.282  1.00  0.00     0.053 C 
ATOM      4  C   UNL     1       6.384   4.769  62.889  1.00  0.00     0.016 C 
BRANCH   3   5
ATOM      5  C   UNL     1       7.837   3.957  60.959  1.00  0.00     0.015 C 
BRANCH   5   6
ATOM      6  C   UNL     1       9.223   3.821  60.299  1.00  0.00     0.028 C 
BRANCH   6   7
ATOM      7  C   UNL     1       9.571   2.475  59.699  1.00  0.00    -0.028 C 
ATOM      8  C   UNL     1      10.006   1.376  60.362  1.00  0.00    -0.070 CG0
ATOM      9  C   UNL     1      10.179   0.105  59.569  1.00  0.00     0.039 C 
ATOM     10  G   UNL     1      10.411   1.366  61.825  1.00  0.00     0.000 G0
ENDBRANCH   6   7
ENDBRANCH   5   6
ENDBRANCH   3   5
ENDBRANCH   1   3
BRANCH   1  11
ATOM     11  C   UNL     1       8.504   2.913  64.014  1.00  0.00     0.087 C 
BRANCH  11  12
ATOM     12  C   UNL     1       8.094   1.732  63.085  1.00  0.00     0.066 C 
BRANCH  12  13
ATOM     13  C   UNL     1       9.296   0.861  62.740  1.00  0.00     0.140 C 
ATOM     14  O   UNL     1       9.346  -0.282  63.172  1.00  0.00    -0.299 OA
BRANCH  13  15
ATOM     15  C   UNL     1      10.420   1.352  61.850  1.00  0.00     0.106 CG0
ATOM     16  G   UNL     1       9.986   1.377  60.395  1.00  0.00     0.000 G0
ENDBRANCH  13  15
ENDBRANCH  12  13
BRANCH  12  17
ATOM     17  C   UNL     1       6.935   0.857  63.661  1.00  0.00    -0.006 C 
ATOM     18  C   UNL     1       6.235   1.470  64.888  1.00  0.00     0.008 C 
ATOM     19  C   UNL     1       5.894   0.513  62.582  1.00  0.00     0.008 C 
ENDBRANCH  12  17
ENDBRANCH  11  12
ENDBRANCH   1  11
TORSDOF 1
ENDMDL
MODEL 5
REMARK VINA RESULT:    -3.887      1.959      3.752
REMARK INTER + INTRA:          -6.136
REMARK INTER:                  -6.124
REMARK INTRA:                  -0.012
REMARK UNBOUND:                -0.203
REMARK SMILES CC1=CCC[C@@H](C)C(=O)C[C@H](C(C)C)C(=O)C1
REMARK SMILES IDX 8 1 9 2 6 3 7 4 5 5 4 6 3 7 2 8 1 9 10 11 11 12 15 13 16 14
REMARK SMILES IDX 17 15 12 17 13 18 14 19
REMARK H PARENT
REMARK Flexibility Score: 70.00
ROOT
ATOM      1  C   UNL     1      18.170 -12.704  67.126  1.00  0.00     0.136 C 
ATOM      2  O   UNL     1      17.532 -11.931  67.827  1.00  0.00    -0.299 OA
ENDROOT
BRANCH   1   3
ATOM      3  C   UNL     1      19.319 -13.484  67.726  1.00  0.00     0.053 C 
ATOM      4  C   UNL     1      19.425 -13.242  69.236  1.00  0.00     0.016 C 
BRANCH   3   5
ATOM      5  C   UNL     1      20.627 -13.096  66.994  1.00  0.00     0.015 C 
BRANCH   5   6
ATOM      6  C   UNL     1      20.956 -11.590  66.954  1.00  0.00     0.028 C 
BRANCH   6   7
ATOM      7  C   UNL     1      21.328 -11.002  65.608  1.00  0.00    -0.028 C 
ATOM      8  C   UNL     1      20.595 -10.139  64.865  1.00  0.00    -0.070 CG0
ATOM      9  C   UNL     1      21.221  -9.593  63.606  1.00  0.00     0.039 C 
ATOM     10  G   UNL     1      19.157  -9.756  65.173  1.00  0.00     0.000 G0
ENDBRANCH   6   7
ENDBRANCH   5   6
ENDBRANCH   3   5
ENDBRANCH   1   3
BRANCH   1  11
ATOM     11  C   UNL     1      17.843 -12.807  65.654  1.00  0.00     0.087 C 
BRANCH  11  12
ATOM     12  C   UNL     1      17.169 -11.516  65.101  1.00  0.00     0.066 C 
BRANCH  12  13
ATOM     13  C   UNL     1      18.185 -10.623  64.401  1.00  0.00     0.140 C 
ATOM     14  O   UNL     1      18.204 -10.588  63.178  1.00  0.00    -0.299 OA
BRANCH  13  15
ATOM     15  C   UNL     1      19.154  -9.746  65.168  1.00  0.00     0.106 CG0
ATOM     16  G   UNL     1      20.591 -10.132  64.863  1.00  0.00     0.000 G0
ENDBRANCH  13  15
ENDBRANCH  12  13
BRANCH  12  17
ATOM     17  C   UNL     1      15.953 -11.801  64.161  1.00  0.00    -0.006 C 
ATOM     18  C   UNL     1      15.811 -13.277  63.746  1.00  0.00     0.008 C 
ATOM     19  C   UNL     1      14.634 -11.299  64.773  1.00  0.00     0.008 C 
ENDBRANCH  12  17
ENDBRANCH  11  12
ENDBRANCH   1  11
TORSDOF 1
ENDMDL
MODEL 6
REMARK VINA RESULT:    -3.833      2.933      4.500
REMARK INTER + INTRA:          -6.054
REMARK INTER:                  -5.964
REMARK INTRA:                  -0.090
REMARK UNBOUND:                -0.203
REMARK SMILES CC1=CCC[C@@H](C)C(=O)C[C@H](C(C)C)C(=O)C1
REMARK SMILES IDX 8 1 9 2 6 3 7 4 5 5 4 6 3 7 2 8 1 9 10 11 11 12 15 13 16 14
REMARK SMILES IDX 17 15 12 17 13 18 14 19
REMARK H PARENT
REMARK Flexibility Score: 70.00
ROOT
ATOM      1  C   UNL     1      18.122  -9.747  63.965  1.00  0.00     0.136 C 
ATOM      2  O   UNL     1      18.651 -10.029  62.899  1.00  0.00    -0.299 OA
ENDROOT
BRANCH   1   3
ATOM      3  C   UNL     1      18.810 -10.111  65.261  1.00  0.00     0.053 C 
ATOM      4  C   UNL     1      20.195  -9.461  65.357  1.00  0.00     0.016 C 
BRANCH   3   5
ATOM      5  C   UNL     1      18.896 -11.653  65.368  1.00  0.00     0.015 C 
BRANCH   5   6
ATOM      6  C   UNL     1      17.605 -12.373  65.805  1.00  0.00     0.028 C 
BRANCH   6   7
ATOM      7  C   UNL     1      16.859 -13.155  64.743  1.00  0.00    -0.028 C 
ATOM      8  C   UNL     1      15.790 -12.736  64.025  1.00  0.00    -0.070 CG0
ATOM      9  C   UNL     1      15.282 -13.645  62.934  1.00  0.00     0.039 C 
ATOM     10  G   UNL     1      15.022 -11.455  64.303  1.00  0.00     0.000 G0
ENDBRANCH   6   7
ENDBRANCH   5   6
ENDBRANCH   3   5
ENDBRANCH   1   3
BRANCH   1  11
ATOM     11  C   UNL     1      16.753  -9.105  63.962  1.00  0.00     0.087 C 
BRANCH  11  12
ATOM     12  C   UNL     1      15.909  -9.505  62.716  1.00  0.00     0.066 C 
BRANCH  12  13
ATOM     13  C   UNL     1      14.895 -10.589  63.064  1.00  0.00     0.140 C 
ATOM     14  O   UNL     1      13.964 -10.799  62.300  1.00  0.00    -0.299 OA
BRANCH  13  15
ATOM     15  C   UNL     1      15.020 -11.441  64.310  1.00  0.00     0.106 CG0
ATOM     16  G   UNL     1      15.769 -12.728  64.013  1.00  0.00     0.000 G0
ENDBRANCH  13  15
ENDBRANCH  12  13
BRANCH  12  17
ATOM     17  C   UNL     1      15.199  -8.295  62.029  1.00  0.00    -0.006 C 
ATOM     18  C   UNL     1      14.832  -7.151  62.992  1.00  0.00     0.008 C 
ATOM     19  C   UNL     1      16.027  -7.745  60.854  1.00  0.00     0.008 C 
ENDBRANCH  12  17
ENDBRANCH  11  12
ENDBRANCH   1  11
TORSDOF 1
ENDMDL
MODEL 7
REMARK VINA RESULT:    -3.765      1.985      4.122
REMARK INTER + INTRA:          -5.949
REMARK INTER:                  -5.969
REMARK INTRA:                   0.020
REMARK UNBOUND:                -0.203
REMARK SMILES CC1=CCC[C@@H](C)C(=O)C[C@H](C(C)C)C(=O)C1
REMARK SMILES IDX 8 1 9 2 6 3 7 4 5 5 4 6 3 7 2 8 1 9 10 11 11 12 15 13 16 14
REMARK SMILES IDX 17 15 12 17 13 18 14 19
REMARK H PARENT
REMARK Flexibility Score: 70.00
ROOT
ATOM      1  C   UNL     1      21.234 -10.971  65.641  1.00  0.00     0.136 C 
ATOM      2  O   UNL     1      22.186 -10.366  66.115  1.00  0.00    -0.299 OA
ENDROOT
BRANCH   1   3
ATOM      3  C   UNL     1      20.589 -10.472  64.367  1.00  0.00     0.053 C 
ATOM      4  C   UNL     1      21.597  -9.714  63.494  1.00  0.00     0.016 C 
BRANCH   3   5
ATOM      5  C   UNL     1      19.373  -9.586  64.732  1.00  0.00     0.015 C 
BRANCH   5   6
ATOM      6  C   UNL     1      18.055  -9.915  64.002  1.00  0.00     0.028 C 
BRANCH   6   7
ATOM      7  C   UNL     1      16.845 -10.210  64.864  1.00  0.00    -0.028 C 
ATOM      8  C   UNL     1      16.582 -11.357  65.535  1.00  0.00    -0.070 CG0
ATOM      9  C   UNL     1      15.367 -11.381  66.428  1.00  0.00     0.039 C 
ATOM     10  G   UNL     1      17.380 -12.639  65.378  1.00  0.00     0.000 G0
ENDBRANCH   6   7
ENDBRANCH   5   6
ENDBRANCH   3   5
ENDBRANCH   1   3
BRANCH   1  11
ATOM     11  C   UNL     1      20.675 -12.163  66.382  1.00  0.00     0.087 C 
BRANCH  11  12
ATOM     12  C   UNL     1      19.294 -11.865  67.038  1.00  0.00     0.066 C 
BRANCH  12  13
ATOM     13  C   UNL     1      18.246 -12.880  66.598  1.00  0.00     0.140 C 
ATOM     14  O   UNL     1      18.098 -13.903  67.251  1.00  0.00    -0.299 OA
BRANCH  13  15
ATOM     15  C   UNL     1      17.355 -12.651  65.394  1.00  0.00     0.106 CG0
ATOM     16  G   UNL     1      16.585 -11.349  65.531  1.00  0.00     0.000 G0
ENDBRANCH  13  15
ENDBRANCH  12  13
BRANCH  12  17
ATOM     17  C   UNL     1      19.348 -11.779  68.597  1.00  0.00    -0.006 C 
ATOM     18  C   UNL     1      20.602 -12.421  69.219  1.00  0.00     0.008 C 
ATOM     19  C   UNL     1      19.204 -10.328  69.089  1.00  0.00     0.008 C 
ENDBRANCH  12  17
ENDBRANCH  11  12
ENDBRANCH   1  11
TORSDOF 1
ENDMDL
MODEL 8
REMARK VINA RESULT:    -3.682      7.411     10.125
REMARK INTER + INTRA:          -5.822
REMARK INTER:                  -5.422
REMARK INTRA:                  -0.400
REMARK UNBOUND:                -0.203
REMARK SMILES CC1=CCC[C@@H](C)C(=O)C[C@H](C(C)C)C(=O)C1
REMARK SMILES IDX 8 1 9 2 6 3 7 4 5 5 4 6 3 7 2 8 1 9 10 11 11 12 15 13 16 14
REMARK SMILES IDX 17 15 12 17 13 18 14 19
REMARK H PARENT
REMARK Flexibility Score: 70.00
ROOT
ATOM      1  C   UNL     1      12.223  -6.352  63.021  1.00  0.00     0.136 C 
ATOM      2  O   UNL     1      11.363  -6.998  63.603  1.00  0.00    -0.299 OA
ENDROOT
BRANCH   1   3
ATOM      3  C   UNL     1      11.881  -4.994  62.451  1.00  0.00     0.053 C 
ATOM      4  C   UNL     1      11.300  -4.069  63.528  1.00  0.00     0.016 C 
BRANCH   3   5
ATOM      5  C   UNL     1      10.898  -5.178  61.269  1.00  0.00     0.015 C 
BRANCH   5   6
ATOM      6  C   UNL     1      11.536  -5.269  59.868  1.00  0.00     0.028 C 
BRANCH   6   7
ATOM      7  C   UNL     1      12.885  -4.606  59.682  1.00  0.00    -0.028 C 
ATOM      8  C   UNL     1      14.041  -5.203  59.303  1.00  0.00    -0.070 CG0
ATOM      9  C   UNL     1      15.240  -4.319  59.068  1.00  0.00     0.039 C 
ATOM     10  G   UNL     1      14.226  -6.706  59.185  1.00  0.00     0.000 G0
ENDBRANCH   6   7
ENDBRANCH   5   6
ENDBRANCH   3   5
ENDBRANCH   1   3
BRANCH   1  11
ATOM     11  C   UNL     1      13.592  -6.959  62.820  1.00  0.00     0.087 C 
BRANCH  11  12
ATOM     12  C   UNL     1      13.669  -7.851  61.545  1.00  0.00     0.066 C 
BRANCH  12  13
ATOM     13  C   UNL     1      14.671  -7.292  60.543  1.00  0.00     0.140 C 
ATOM     14  O   UNL     1      15.864  -7.334  60.808  1.00  0.00    -0.299 OA
BRANCH  13  15
ATOM     15  C   UNL     1      14.242  -6.714  59.209  1.00  0.00     0.106 CG0
ATOM     16  G   UNL     1      14.052  -5.210  59.307  1.00  0.00     0.000 G0
ENDBRANCH  13  15
ENDBRANCH  12  13
BRANCH  12  17
ATOM     17  C   UNL     1      13.982  -9.351  61.850  1.00  0.00    -0.006 C 
ATOM     18  C   UNL     1      13.602  -9.795  63.275  1.00  0.00     0.008 C 
ATOM     19  C   UNL     1      13.329 -10.287  60.819  1.00  0.00     0.008 C 
ENDBRANCH  12  17
ENDBRANCH  11  12
ENDBRANCH   1  11
TORSDOF 1
ENDMDL
MODEL 9
REMARK VINA RESULT:    -3.560     15.091     17.425
REMARK INTER + INTRA:          -5.637
REMARK INTER:                  -5.598
REMARK INTRA:                  -0.040
REMARK UNBOUND:                -0.203
REMARK SMILES CC1=CCC[C@@H](C)C(=O)C[C@H](C(C)C)C(=O)C1
REMARK SMILES IDX 8 1 9 2 6 3 7 4 5 5 4 6 3 7 2 8 1 9 10 11 11 12 15 13 16 14
REMARK SMILES IDX 17 15 12 17 13 18 14 19
REMARK H PARENT
REMARK Flexibility Score: 70.00
ROOT
ATOM      1  C   UNL     1       9.159  -0.713  62.115  1.00  0.00     0.136 C 
ATOM      2  O   UNL     1       9.671  -1.410  62.981  1.00  0.00    -0.299 OA
ENDROOT
BRANCH   1   3
ATOM      3  C   UNL     1      10.033  -0.048  61.076  1.00  0.00     0.053 C 
ATOM      4  C   UNL     1      11.031  -1.042  60.469  1.00  0.00     0.016 C 
BRANCH   3   5
ATOM      5  C   UNL     1      10.755   1.159  61.724  1.00  0.00     0.015 C 
BRANCH   5   6
ATOM      6  C   UNL     1      10.180   2.549  61.388  1.00  0.00     0.028 C 
BRANCH   6   7
ATOM      7  C   UNL     1       9.369   2.670  60.114  1.00  0.00    -0.028 C 
ATOM      8  C   UNL     1       8.061   3.005  60.009  1.00  0.00    -0.070 CG0
ATOM      9  C   UNL     1       7.493   3.178  58.623  1.00  0.00     0.039 C 
ATOM     10  G   UNL     1       7.115   3.130  61.191  1.00  0.00     0.000 G0
ENDBRANCH   6   7
ENDBRANCH   5   6
ENDBRANCH   3   5
ENDBRANCH   1   3
BRANCH   1  11
ATOM     11  C   UNL     1       7.668  -0.473  62.149  1.00  0.00     0.087 C 
BRANCH  11  12
ATOM     12  C   UNL     1       7.303   0.941  62.690  1.00  0.00     0.066 C 
BRANCH  12  13
ATOM     13  C   UNL     1       6.594   1.770  61.627  1.00  0.00     0.140 C 
ATOM     14  O   UNL     1       5.566   1.338  61.123  1.00  0.00    -0.299 OA
BRANCH  13  15
ATOM     15  C   UNL     1       7.099   3.131  61.194  1.00  0.00     0.106 CG0
ATOM     16  G   UNL     1       8.053   3.005  60.019  1.00  0.00     0.000 G0
ENDBRANCH  13  15
ENDBRANCH  12  13
BRANCH  12  17
ATOM     17  C   UNL     1       6.461   0.908  64.007  1.00  0.00    -0.006 C 
ATOM     18  C   UNL     1       5.873   2.272  64.412  1.00  0.00     0.008 C 
ATOM     19  C   UNL     1       5.341  -0.145  63.936  1.00  0.00     0.008 C 
ENDBRANCH  12  17
ENDBRANCH  11  12
ENDBRANCH   1  11
TORSDOF 1
ENDMDL
