MODEL 1
REMARK VINA RESULT:    -7.468      0.000      0.000
REMARK INTER + INTRA:          -9.057
REMARK INTER:                  -8.778
REMARK INTRA:                  -0.278
REMARK UNBOUND:                -0.278
REMARK SMILES O=c1c(O)c(-c2ccc(O)cc2)oc2cc(O)cc(O)c12
REMARK SMILES IDX 5 1 3 2 2 3 1 4 21 5 19 6 18 7 16 8 15 9 14 10 13 11 6 12
REMARK SMILES IDX 7 13 8 14 9 15 12 16 11 17 10 18 4 20 20 22 17 24
REMARK H PARENT 10 19 4 21 20 23 17 25
REMARK Flexibility Score: inf
ROOT
ATOM      1  C   UNL     1      18.235 -11.309  19.131  1.00  0.00     0.180 A 
ATOM      2  C   UNL     1      17.652 -10.112  18.680  1.00  0.00     0.208 A 
ATOM      3  C   UNL     1      17.797  -8.949  19.453  1.00  0.00     0.238 A 
ATOM      4  O   UNL     1      17.227  -7.894  19.071  1.00  0.00    -0.285 OA
ATOM      5  C   UNL     1      18.536  -8.993  20.660  1.00  0.00     0.111 A 
ATOM      6  C   UNL     1      18.781  -7.867  21.501  1.00  0.00     0.134 A 
ATOM      7  C   UNL     1      19.414  -8.052  22.736  1.00  0.00     0.093 A 
ATOM      8  C   UNL     1      19.868  -9.312  23.131  1.00  0.00     0.123 A 
ATOM      9  C   UNL     1      19.687 -10.407  22.290  1.00  0.00     0.094 A 
ATOM     10  C   UNL     1      19.027 -10.261  21.067  1.00  0.00     0.146 A 
ATOM     11  O   UNL     1      18.866 -11.332  20.300  1.00  0.00    -0.452 OA
ENDROOT
BRANCH   1  12
ATOM     12  C   UNL     1      18.147 -12.569  18.360  1.00  0.00     0.021 A 
ATOM     13  C   UNL     1      17.027 -13.414  18.464  1.00  0.00     0.016 A 
ATOM     14  C   UNL     1      16.954 -14.588  17.706  1.00  0.00     0.047 A 
ATOM     15  C   UNL     1      17.991 -14.923  16.827  1.00  0.00     0.115 A 
ATOM     16  C   UNL     1      19.173 -12.904  17.460  1.00  0.00     0.016 A 
ATOM     17  C   UNL     1      19.097 -14.078  16.705  1.00  0.00     0.047 A 
BRANCH  15  18
ATOM     18  O   UNL     1      17.930 -16.091  16.069  1.00  0.00    -0.508 OA
ATOM     19  H   UNL     1      17.047 -16.458  15.733  1.00  0.00     0.293 HD
ENDBRANCH  15  18
ENDBRANCH   1  12
BRANCH   2  20
ATOM     20  O   UNL     1      16.908 -10.097  17.497  1.00  0.00    -0.502 OA
ATOM     21  H   UNL     1      17.341 -10.102  16.582  1.00  0.00     0.293 HD
ENDBRANCH   2  20
BRANCH   6  22
ATOM     22  O   UNL     1      18.450  -6.551  21.161  1.00  0.00    -0.507 OA
ATOM     23  H   UNL     1      17.632  -6.283  20.632  1.00  0.00     0.293 HD
ENDBRANCH   6  22
BRANCH   8  24
ATOM     24  O   UNL     1      20.511  -9.485  24.355  1.00  0.00    -0.508 OA
ATOM     25  H   UNL     1      20.461  -8.783  25.084  1.00  0.00     0.293 HD
ENDBRANCH   8  24
TORSDOF 5
ENDMDL
MODEL 2
REMARK VINA RESULT:    -7.007      3.319      5.948
REMARK INTER + INTRA:          -8.515
REMARK INTER:                  -8.403
REMARK INTRA:                  -0.112
REMARK UNBOUND:                -0.278
REMARK SMILES O=c1c(O)c(-c2ccc(O)cc2)oc2cc(O)cc(O)c12
REMARK SMILES IDX 5 1 3 2 2 3 1 4 21 5 19 6 18 7 16 8 15 9 14 10 13 11 6 12
REMARK SMILES IDX 7 13 8 14 9 15 12 16 11 17 10 18 4 20 20 22 17 24
REMARK H PARENT 10 19 4 21 20 23 17 25
REMARK Flexibility Score: inf
ROOT
ATOM      1  C   UNL     1      20.034 -15.191  16.577  1.00  0.00     0.180 A 
ATOM      2  C   UNL     1      20.055 -14.748  15.243  1.00  0.00     0.208 A 
ATOM      3  C   UNL     1      19.587 -13.458  14.945  1.00  0.00     0.238 A 
ATOM      4  O   UNL     1      19.559 -13.088  13.743  1.00  0.00    -0.285 OA
ATOM      5  C   UNL     1      19.120 -12.621  15.986  1.00  0.00     0.111 A 
ATOM      6  C   UNL     1      18.662 -11.282  15.805  1.00  0.00     0.134 A 
ATOM      7  C   UNL     1      18.100 -10.591  16.886  1.00  0.00     0.093 A 
ATOM      8  C   UNL     1      18.040 -11.169  18.156  1.00  0.00     0.123 A 
ATOM      9  C   UNL     1      18.539 -12.453  18.356  1.00  0.00     0.094 A 
ATOM     10  C   UNL     1      19.073 -13.181  17.289  1.00  0.00     0.146 A 
ATOM     11  O   UNL     1      19.527 -14.406  17.521  1.00  0.00    -0.452 OA
ENDROOT
BRANCH   1  12
ATOM     12  C   UNL     1      20.532 -16.528  16.972  1.00  0.00     0.021 A 
ATOM     13  C   UNL     1      21.626 -16.674  17.843  1.00  0.00     0.016 A 
ATOM     14  C   UNL     1      22.063 -17.948  18.222  1.00  0.00     0.047 A 
ATOM     15  C   UNL     1      21.404 -19.088  17.747  1.00  0.00     0.115 A 
ATOM     16  C   UNL     1      19.864 -17.678  16.517  1.00  0.00     0.016 A 
ATOM     17  C   UNL     1      20.304 -18.949  16.897  1.00  0.00     0.047 A 
BRANCH  15  18
ATOM     18  O   UNL     1      21.832 -20.361  18.117  1.00  0.00    -0.508 OA
ATOM     19  H   UNL     1      21.255 -21.180  17.963  1.00  0.00     0.293 HD
ENDBRANCH  15  18
ENDBRANCH   1  12
BRANCH   2  20
ATOM     20  O   UNL     1      20.500 -15.600  14.227  1.00  0.00    -0.502 OA
ATOM     21  H   UNL     1      21.106 -15.284  13.480  1.00  0.00     0.293 HD
ENDBRANCH   2  20
BRANCH   6  22
ATOM     22  O   UNL     1      18.760 -10.579  14.600  1.00  0.00    -0.507 OA
ATOM     23  H   UNL     1      17.978 -10.345  14.005  1.00  0.00     0.293 HD
ENDBRANCH   6  22
BRANCH   8  24
ATOM     24  O   UNL     1      17.493 -10.469  19.230  1.00  0.00    -0.508 OA
ATOM     25  H   UNL     1      17.266  -9.484  19.160  1.00  0.00     0.293 HD
ENDBRANCH   8  24
TORSDOF 5
ENDMDL
MODEL 3
REMARK VINA RESULT:    -6.977      1.964      7.309
REMARK INTER + INTRA:          -8.479
REMARK INTER:                  -8.193
REMARK INTRA:                  -0.287
REMARK UNBOUND:                -0.278
REMARK SMILES O=c1c(O)c(-c2ccc(O)cc2)oc2cc(O)cc(O)c12
REMARK SMILES IDX 5 1 3 2 2 3 1 4 21 5 19 6 18 7 16 8 15 9 14 10 13 11 6 12
REMARK SMILES IDX 7 13 8 14 9 15 12 16 11 17 10 18 4 20 20 22 17 24
REMARK H PARENT 10 19 4 21 20 23 17 25
REMARK Flexibility Score: inf
ROOT
ATOM      1  C   UNL     1      18.288 -11.626  17.873  1.00  0.00     0.180 A 
ATOM      2  C   UNL     1      17.645 -12.788  18.335  1.00  0.00     0.208 A 
ATOM      3  C   UNL     1      17.761 -13.973  17.590  1.00  0.00     0.238 A 
ATOM      4  O   UNL     1      17.139 -14.995  17.980  1.00  0.00    -0.285 OA
ATOM      5  C   UNL     1      18.532 -13.985  16.403  1.00  0.00     0.111 A 
ATOM      6  C   UNL     1      18.751 -15.139  15.592  1.00  0.00     0.134 A 
ATOM      7  C   UNL     1      19.422 -15.007  14.370  1.00  0.00     0.093 A 
ATOM      8  C   UNL     1      19.938 -13.775  13.961  1.00  0.00     0.123 A 
ATOM      9  C   UNL     1      19.780 -12.656  14.774  1.00  0.00     0.094 A 
ATOM     10  C   UNL     1      19.084 -12.748  15.982  1.00  0.00     0.146 A 
ATOM     11  O   UNL     1      18.948 -11.654  16.721  1.00  0.00    -0.452 OA
ENDROOT
BRANCH   1  12
ATOM     12  C   UNL     1      18.231 -10.346  18.616  1.00  0.00     0.021 A 
ATOM     13  C   UNL     1      17.180  -9.433  18.421  1.00  0.00     0.016 A 
ATOM     14  C   UNL     1      17.135  -8.241  19.152  1.00  0.00     0.047 A 
ATOM     15  C   UNL     1      18.131  -7.955  20.094  1.00  0.00     0.115 A 
ATOM     16  C   UNL     1      19.215 -10.060  19.578  1.00  0.00     0.016 A 
ATOM     17  C   UNL     1      19.167  -8.868  20.307  1.00  0.00     0.047 A 
BRANCH  15  18
ATOM     18  O   UNL     1      18.096  -6.770  20.827  1.00  0.00    -0.508 OA
ATOM     19  H   UNL     1      17.450  -6.642  21.596  1.00  0.00     0.293 HD
ENDBRANCH  15  18
ENDBRANCH   1  12
BRANCH   2  20
ATOM     20  O   UNL     1      16.871 -12.747  19.498  1.00  0.00    -0.502 OA
ATOM     21  H   UNL     1      16.933 -11.989  20.166  1.00  0.00     0.293 HD
ENDBRANCH   2  20
BRANCH   6  22
ATOM     22  O   UNL     1      18.357 -16.432  15.951  1.00  0.00    -0.507 OA
ATOM     23  H   UNL     1      18.790 -17.279  15.612  1.00  0.00     0.293 HD
ENDBRANCH   6  22
BRANCH   8  24
ATOM     24  O   UNL     1      20.618 -13.655  12.751  1.00  0.00    -0.508 OA
ATOM     25  H   UNL     1      21.107 -14.441  12.338  1.00  0.00     0.293 HD
ENDBRANCH   8  24
TORSDOF 5
ENDMDL
MODEL 4
REMARK VINA RESULT:    -6.622      2.771      6.898
REMARK INTER + INTRA:          -8.061
REMARK INTER:                  -7.996
REMARK INTRA:                  -0.065
REMARK UNBOUND:                -0.278
REMARK SMILES O=c1c(O)c(-c2ccc(O)cc2)oc2cc(O)cc(O)c12
REMARK SMILES IDX 5 1 3 2 2 3 1 4 21 5 19 6 18 7 16 8 15 9 14 10 13 11 6 12
REMARK SMILES IDX 7 13 8 14 9 15 12 16 11 17 10 18 4 20 20 22 17 24
REMARK H PARENT 10 19 4 21 20 23 17 25
REMARK Flexibility Score: inf
ROOT
ATOM      1  C   UNL     1      19.971  -8.444  20.373  1.00  0.00     0.180 A 
ATOM      2  C   UNL     1      19.919  -8.870  21.711  1.00  0.00     0.208 A 
ATOM      3  C   UNL     1      19.452 -10.163  21.997  1.00  0.00     0.238 A 
ATOM      4  O   UNL     1      19.356 -10.519  23.199  1.00  0.00    -0.285 OA
ATOM      5  C   UNL     1      19.060 -11.020  20.939  1.00  0.00     0.111 A 
ATOM      6  C   UNL     1      18.611 -12.363  21.110  1.00  0.00     0.134 A 
ATOM      7  C   UNL     1      18.126 -13.075  20.006  1.00  0.00     0.093 A 
ATOM      8  C   UNL     1      18.134 -12.513  18.727  1.00  0.00     0.123 A 
ATOM      9  C   UNL     1      18.626 -11.224  18.541  1.00  0.00     0.094 A 
ATOM     10  C   UNL     1      19.084 -10.476  19.629  1.00  0.00     0.146 A 
ATOM     11  O   UNL     1      19.534  -9.247  19.409  1.00  0.00    -0.452 OA
ENDROOT
BRANCH   1  12
ATOM     12  C   UNL     1      20.473  -7.104  19.991  1.00  0.00     0.021 A 
ATOM     13  C   UNL     1      19.869  -5.930  20.476  1.00  0.00     0.016 A 
ATOM     14  C   UNL     1      20.376  -4.675  20.121  1.00  0.00     0.047 A 
ATOM     15  C   UNL     1      21.500  -4.580  19.291  1.00  0.00     0.115 A 
ATOM     16  C   UNL     1      21.613  -6.998  19.176  1.00  0.00     0.016 A 
ATOM     17  C   UNL     1      22.117  -5.742  18.823  1.00  0.00     0.047 A 
BRANCH  15  18
ATOM     18  O   UNL     1      22.012  -3.335  18.930  1.00  0.00    -0.508 OA
ATOM     19  H   UNL     1      21.795  -2.912  18.036  1.00  0.00     0.293 HD
ENDBRANCH  15  18
ENDBRANCH   1  12
BRANCH   2  20
ATOM     20  O   UNL     1      20.289  -7.999  22.740  1.00  0.00    -0.502 OA
ATOM     21  H   UNL     1      20.840  -8.301  23.535  1.00  0.00     0.293 HD
ENDBRANCH   2  20
BRANCH   6  22
ATOM     22  O   UNL     1      18.647 -13.050  22.328  1.00  0.00    -0.507 OA
ATOM     23  H   UNL     1      19.365 -13.706  22.597  1.00  0.00     0.293 HD
ENDBRANCH   6  22
BRANCH   8  24
ATOM     24  O   UNL     1      17.663 -13.234  17.631  1.00  0.00    -0.508 OA
ATOM     25  H   UNL     1      18.120 -14.083  17.320  1.00  0.00     0.293 HD
ENDBRANCH   8  24
TORSDOF 5
ENDMDL
MODEL 5
REMARK VINA RESULT:    -6.534      1.916      3.684
REMARK INTER + INTRA:          -7.958
REMARK INTER:                  -7.981
REMARK INTRA:                   0.023
REMARK UNBOUND:                -0.278
REMARK SMILES O=c1c(O)c(-c2ccc(O)cc2)oc2cc(O)cc(O)c12
REMARK SMILES IDX 5 1 3 2 2 3 1 4 21 5 19 6 18 7 16 8 15 9 14 10 13 11 6 12
REMARK SMILES IDX 7 13 8 14 9 15 12 16 11 17 10 18 4 20 20 22 17 24
REMARK H PARENT 10 19 4 21 20 23 17 25
REMARK Flexibility Score: inf
ROOT
ATOM      1  C   UNL     1      18.795 -12.406  18.545  1.00  0.00     0.180 A 
ATOM      2  C   UNL     1      19.192 -12.086  19.855  1.00  0.00     0.208 A 
ATOM      3  C   UNL     1      18.802 -10.854  20.404  1.00  0.00     0.238 A 
ATOM      4  O   UNL     1      19.206 -10.551  21.557  1.00  0.00    -0.285 OA
ATOM      5  C   UNL     1      18.005  -9.965  19.643  1.00  0.00     0.111 A 
ATOM      6  C   UNL     1      17.519  -8.709  20.114  1.00  0.00     0.134 A 
ATOM      7  C   UNL     1      16.849  -7.853  19.231  1.00  0.00     0.093 A 
ATOM      8  C   UNL     1      16.593  -8.235  17.913  1.00  0.00     0.123 A 
ATOM      9  C   UNL     1      17.012  -9.484  17.461  1.00  0.00     0.094 A 
ATOM     10  C   UNL     1      17.714 -10.346  18.308  1.00  0.00     0.146 A 
ATOM     11  O   UNL     1      18.104 -11.522  17.834  1.00  0.00    -0.452 OA
ENDROOT
BRANCH   1  12
ATOM     12  C   UNL     1      19.147 -13.695  17.907  1.00  0.00     0.021 A 
ATOM     13  C   UNL     1      18.167 -14.509  17.312  1.00  0.00     0.016 A 
ATOM     14  C   UNL     1      18.526 -15.711  16.693  1.00  0.00     0.047 A 
ATOM     15  C   UNL     1      19.870 -16.105  16.648  1.00  0.00     0.115 A 
ATOM     16  C   UNL     1      20.494 -14.088  17.838  1.00  0.00     0.016 A 
ATOM     17  C   UNL     1      20.850 -15.290  17.219  1.00  0.00     0.047 A 
BRANCH  15  18
ATOM     18  O   UNL     1      20.239 -17.301  16.035  1.00  0.00    -0.508 OA
ATOM     19  H   UNL     1      20.239 -17.401  15.027  1.00  0.00     0.293 HD
ENDBRANCH  15  18
ENDBRANCH   1  12
BRANCH   2  20
ATOM     20  O   UNL     1      19.997 -12.970  20.580  1.00  0.00    -0.502 OA
ATOM     21  H   UNL     1      19.648 -13.848  20.944  1.00  0.00     0.293 HD
ENDBRANCH   2  20
BRANCH   6  22
ATOM     22  O   UNL     1      17.641  -8.270  21.436  1.00  0.00    -0.507 OA
ATOM     23  H   UNL     1      16.970  -7.684  21.911  1.00  0.00     0.293 HD
ENDBRANCH   6  22
BRANCH   8  24
ATOM     24  O   UNL     1      15.912  -7.383  17.045  1.00  0.00    -0.508 OA
ATOM     25  H   UNL     1      14.920  -7.488  16.869  1.00  0.00     0.293 HD
ENDBRANCH   8  24
TORSDOF 5
ENDMDL
MODEL 6
REMARK VINA RESULT:    -6.332      2.304      7.027
REMARK INTER + INTRA:          -7.721
REMARK INTER:                  -7.559
REMARK INTRA:                  -0.161
REMARK UNBOUND:                -0.278
REMARK SMILES O=c1c(O)c(-c2ccc(O)cc2)oc2cc(O)cc(O)c12
REMARK SMILES IDX 5 1 3 2 2 3 1 4 21 5 19 6 18 7 16 8 15 9 14 10 13 11 6 12
REMARK SMILES IDX 7 13 8 14 9 15 12 16 11 17 10 18 4 20 20 22 17 24
REMARK H PARENT 10 19 4 21 20 23 17 25
REMARK Flexibility Score: inf
ROOT
ATOM      1  C   UNL     1      19.842 -11.881  18.115  1.00  0.00     0.180 A 
ATOM      2  C   UNL     1      19.464 -11.515  16.812  1.00  0.00     0.208 A 
ATOM      3  C   UNL     1      19.404 -12.503  15.816  1.00  0.00     0.238 A 
ATOM      4  O   UNL     1      19.118 -12.159  14.641  1.00  0.00    -0.285 OA
ATOM      5  C   UNL     1      19.707 -13.848  16.140  1.00  0.00     0.111 A 
ATOM      6  C   UNL     1      19.639 -14.937  15.220  1.00  0.00     0.134 A 
ATOM      7  C   UNL     1      20.086 -16.203  15.616  1.00  0.00     0.093 A 
ATOM      8  C   UNL     1      20.537 -16.434  16.917  1.00  0.00     0.123 A 
ATOM      9  C   UNL     1      20.551 -15.391  17.839  1.00  0.00     0.094 A 
ATOM     10  C   UNL     1      20.145 -14.107  17.464  1.00  0.00     0.146 A 
ATOM     11  O   UNL     1      20.184 -13.139  18.371  1.00  0.00    -0.452 OA
ENDROOT
BRANCH   1  12
ATOM     12  C   UNL     1      19.905 -10.901  19.223  1.00  0.00     0.021 A 
ATOM     13  C   UNL     1      19.014 -10.965  20.310  1.00  0.00     0.016 A 
ATOM     14  C   UNL     1      19.109 -10.043  21.358  1.00  0.00     0.047 A 
ATOM     15  C   UNL     1      20.103  -9.056  21.338  1.00  0.00     0.115 A 
ATOM     16  C   UNL     1      20.912  -9.920  19.223  1.00  0.00     0.016 A 
ATOM     17  C   UNL     1      21.004  -9.000  20.272  1.00  0.00     0.047 A 
BRANCH  15  18
ATOM     18  O   UNL     1      20.205  -8.131  22.376  1.00  0.00    -0.508 OA
ATOM     19  H   UNL     1      20.870  -8.254  23.131  1.00  0.00     0.293 HD
ENDBRANCH  15  18
ENDBRANCH   1  12
BRANCH   2  20
ATOM     20  O   UNL     1      19.191 -10.177  16.510  1.00  0.00    -0.502 OA
ATOM     21  H   UNL     1      18.487  -9.642  17.002  1.00  0.00     0.293 HD
ENDBRANCH   2  20
BRANCH   6  22
ATOM     22  O   UNL     1      19.119 -14.835  13.926  1.00  0.00    -0.507 OA
ATOM     23  H   UNL     1      19.249 -14.041  13.315  1.00  0.00     0.293 HD
ENDBRANCH   6  22
BRANCH   8  24
ATOM     24  O   UNL     1      20.965 -17.701  17.308  1.00  0.00    -0.508 OA
ATOM     25  H   UNL     1      21.736 -17.825  17.954  1.00  0.00     0.293 HD
ENDBRANCH   8  24
TORSDOF 5
ENDMDL
MODEL 7
REMARK VINA RESULT:    -6.287      2.325      6.997
REMARK INTER + INTRA:          -7.669
REMARK INTER:                  -7.378
REMARK INTRA:                  -0.291
REMARK UNBOUND:                -0.278
REMARK SMILES O=c1c(O)c(-c2ccc(O)cc2)oc2cc(O)cc(O)c12
REMARK SMILES IDX 5 1 3 2 2 3 1 4 21 5 19 6 18 7 16 8 15 9 14 10 13 11 6 12
REMARK SMILES IDX 7 13 8 14 9 15 12 16 11 17 10 18 4 20 20 22 17 24
REMARK H PARENT 10 19 4 21 20 23 17 25
REMARK Flexibility Score: inf
ROOT
ATOM      1  C   UNL     1      19.569 -11.033  18.027  1.00  0.00     0.180 A 
ATOM      2  C   UNL     1      20.333 -10.591  16.933  1.00  0.00     0.208 A 
ATOM      3  C   UNL     1      20.486 -11.437  15.823  1.00  0.00     0.238 A 
ATOM      4  O   UNL     1      21.216 -11.058  14.870  1.00  0.00    -0.285 OA
ATOM      5  C   UNL     1      19.858 -12.706  15.812  1.00  0.00     0.111 A 
ATOM      6  C   UNL     1      19.912 -13.627  14.723  1.00  0.00     0.134 A 
ATOM      7  C   UNL     1      19.363 -14.906  14.873  1.00  0.00     0.093 A 
ATOM      8  C   UNL     1      18.706 -15.275  16.050  1.00  0.00     0.123 A 
ATOM      9  C   UNL     1      18.598 -14.362  17.096  1.00  0.00     0.094 A 
ATOM     10  C   UNL     1      19.166 -13.090  16.990  1.00  0.00     0.146 A 
ATOM     11  O   UNL     1      19.049 -12.255  18.014  1.00  0.00    -0.452 OA
ENDROOT
BRANCH   1  12
ATOM     12  C   UNL     1      19.343 -10.190  19.223  1.00  0.00     0.021 A 
ATOM     13  C   UNL     1      18.207  -9.369  19.337  1.00  0.00     0.016 A 
ATOM     14  C   UNL     1      18.002  -8.600  20.487  1.00  0.00     0.047 A 
ATOM     15  C   UNL     1      18.922  -8.653  21.542  1.00  0.00     0.115 A 
ATOM     16  C   UNL     1      20.250 -10.252  20.295  1.00  0.00     0.016 A 
ATOM     17  C   UNL     1      20.042  -9.482  21.444  1.00  0.00     0.047 A 
BRANCH  15  18
ATOM     18  O   UNL     1      18.729  -7.890  22.692  1.00  0.00    -0.508 OA
ATOM     19  H   UNL     1      19.208  -8.106  23.557  1.00  0.00     0.293 HD
ENDBRANCH  15  18
ENDBRANCH   1  12
BRANCH   2  20
ATOM     20  O   UNL     1      20.963  -9.344  16.975  1.00  0.00    -0.502 OA
ATOM     21  H   UNL     1      20.736  -8.599  16.327  1.00  0.00     0.293 HD
ENDBRANCH   2  20
BRANCH   6  22
ATOM     22  O   UNL     1      20.463 -13.327  13.473  1.00  0.00    -0.507 OA
ATOM     23  H   UNL     1      20.525 -13.975  12.702  1.00  0.00     0.293 HD
ENDBRANCH   6  22
BRANCH   8  24
ATOM     24  O   UNL     1      18.149 -16.545  16.185  1.00  0.00    -0.508 OA
ATOM     25  H   UNL     1      17.263 -16.784  15.755  1.00  0.00     0.293 HD
ENDBRANCH   8  24
TORSDOF 5
ENDMDL
MODEL 8
REMARK VINA RESULT:    -6.244      1.728      3.077
REMARK INTER + INTRA:          -7.617
REMARK INTER:                  -7.341
REMARK INTRA:                  -0.276
REMARK UNBOUND:                -0.278
REMARK SMILES O=c1c(O)c(-c2ccc(O)cc2)oc2cc(O)cc(O)c12
REMARK SMILES IDX 5 1 3 2 2 3 1 4 21 5 19 6 18 7 16 8 15 9 14 10 13 11 6 12
REMARK SMILES IDX 7 13 8 14 9 15 12 16 11 17 10 18 4 20 20 22 17 24
REMARK H PARENT 10 19 4 21 20 23 17 25
REMARK Flexibility Score: inf
ROOT
ATOM      1  C   UNL     1      19.215 -11.846  19.462  1.00  0.00     0.180 A 
ATOM      2  C   UNL     1      19.096 -11.934  20.860  1.00  0.00     0.208 A 
ATOM      3  C   UNL     1      19.312 -10.784  21.637  1.00  0.00     0.238 A 
ATOM      4  O   UNL     1      19.257 -10.882  22.890  1.00  0.00    -0.285 OA
ATOM      5  C   UNL     1      19.627  -9.557  21.005  1.00  0.00     0.111 A 
ATOM      6  C   UNL     1      19.826  -8.321  21.690  1.00  0.00     0.134 A 
ATOM      7  C   UNL     1      20.262  -7.198  20.976  1.00  0.00     0.093 A 
ATOM      8  C   UNL     1      20.443  -7.250  19.592  1.00  0.00     0.123 A 
ATOM      9  C   UNL     1      20.194  -8.436  18.906  1.00  0.00     0.094 A 
ATOM     10  C   UNL     1      19.793  -9.584  19.596  1.00  0.00     0.146 A 
ATOM     11  O   UNL     1      19.577 -10.696  18.905  1.00  0.00    -0.452 OA
ENDROOT
BRANCH   1  12
ATOM     12  C   UNL     1      18.979 -13.008  18.576  1.00  0.00     0.021 A 
ATOM     13  C   UNL     1      20.039 -13.820  18.135  1.00  0.00     0.016 A 
ATOM     14  C   UNL     1      19.790 -14.928  17.318  1.00  0.00     0.047 A 
ATOM     15  C   UNL     1      18.477 -15.245  16.945  1.00  0.00     0.115 A 
ATOM     16  C   UNL     1      17.664 -13.347  18.214  1.00  0.00     0.016 A 
ATOM     17  C   UNL     1      17.418 -14.454  17.397  1.00  0.00     0.047 A 
BRANCH  15  18
ATOM     18  O   UNL     1      18.218 -16.345  16.130  1.00  0.00    -0.508 OA
ATOM     19  H   UNL     1      17.699 -17.146  16.471  1.00  0.00     0.293 HD
ENDBRANCH  15  18
ENDBRANCH   1  12
BRANCH   2  20
ATOM     20  O   UNL     1      18.806 -13.161  21.464  1.00  0.00    -0.502 OA
ATOM     21  H   UNL     1      19.093 -13.382  22.410  1.00  0.00     0.293 HD
ENDBRANCH   2  20
BRANCH   6  22
ATOM     22  O   UNL     1      19.585  -8.137  23.055  1.00  0.00    -0.507 OA
ATOM     23  H   UNL     1      19.035  -7.386  23.446  1.00  0.00     0.293 HD
ENDBRANCH   6  22
BRANCH   8  24
ATOM     24  O   UNL     1      20.862  -6.123  18.887  1.00  0.00    -0.508 OA
ATOM     25  H   UNL     1      20.718  -5.188  19.249  1.00  0.00     0.293 HD
ENDBRANCH   8  24
TORSDOF 5
ENDMDL
MODEL 9
REMARK VINA RESULT:    -6.177      1.840      3.491
REMARK INTER + INTRA:          -7.538
REMARK INTER:                  -7.261
REMARK INTRA:                  -0.277
REMARK UNBOUND:                -0.278
REMARK SMILES O=c1c(O)c(-c2ccc(O)cc2)oc2cc(O)cc(O)c12
REMARK SMILES IDX 5 1 3 2 2 3 1 4 21 5 19 6 18 7 16 8 15 9 14 10 13 11 6 12
REMARK SMILES IDX 7 13 8 14 9 15 12 16 11 17 10 18 4 20 20 22 17 24
REMARK H PARENT 10 19 4 21 20 23 17 25
REMARK Flexibility Score: inf
ROOT
ATOM      1  C   UNL     1      19.787 -12.060  18.451  1.00  0.00     0.180 A 
ATOM      2  C   UNL     1      20.693 -12.474  19.442  1.00  0.00     0.208 A 
ATOM      3  C   UNL     1      20.783 -11.737  20.634  1.00  0.00     0.238 A 
ATOM      4  O   UNL     1      21.635 -12.081  21.494  1.00  0.00    -0.285 OA
ATOM      5  C   UNL     1      19.954 -10.606  20.826  1.00  0.00     0.111 A 
ATOM      6  C   UNL     1      19.933  -9.810  22.011  1.00  0.00     0.134 A 
ATOM      7  C   UNL     1      19.167  -8.638  22.041  1.00  0.00     0.093 A 
ATOM      8  C   UNL     1      18.373  -8.268  20.954  1.00  0.00     0.123 A 
ATOM      9  C   UNL     1      18.342  -9.070  19.816  1.00  0.00     0.094 A 
ATOM     10  C   UNL     1      19.122 -10.227  19.741  1.00  0.00     0.146 A 
ATOM     11  O   UNL     1      19.071 -10.957  18.634  1.00  0.00    -0.452 OA
ENDROOT
BRANCH   1  12
ATOM     12  C   UNL     1      19.618 -12.799  17.178  1.00  0.00     0.021 A 
ATOM     13  C   UNL     1      20.321 -12.429  16.018  1.00  0.00     0.016 A 
ATOM     14  C   UNL     1      20.164 -13.157  14.834  1.00  0.00     0.047 A 
ATOM     15  C   UNL     1      19.315 -14.270  14.800  1.00  0.00     0.115 A 
ATOM     16  C   UNL     1      18.784 -13.929  17.140  1.00  0.00     0.016 A 
ATOM     17  C   UNL     1      18.629 -14.655  15.955  1.00  0.00     0.047 A 
BRANCH  15  18
ATOM     18  O   UNL     1      19.150 -15.002  13.625  1.00  0.00    -0.508 OA
ATOM     19  H   UNL     1      18.642 -14.625  12.833  1.00  0.00     0.293 HD
ENDBRANCH  15  18
ENDBRANCH   1  12
BRANCH   2  20
ATOM     20  O   UNL     1      21.518 -13.581  19.221  1.00  0.00    -0.502 OA
ATOM     21  H   UNL     1      21.599 -14.026  18.315  1.00  0.00     0.293 HD
ENDBRANCH   2  20
BRANCH   6  22
ATOM     22  O   UNL     1      20.617 -10.139  23.185  1.00  0.00    -0.507 OA
ATOM     23  H   UNL     1      20.602 -11.048  23.624  1.00  0.00     0.293 HD
ENDBRANCH   6  22
BRANCH   8  24
ATOM     24  O   UNL     1      17.602  -7.108  20.998  1.00  0.00    -0.508 OA
ATOM     25  H   UNL     1      17.892  -6.260  20.523  1.00  0.00     0.293 HD
ENDBRANCH   8  24
TORSDOF 5
ENDMDL
