MODEL 1
REMARK VINA RESULT:    -3.187      0.000      0.000
REMARK INTER + INTRA:          -6.443
REMARK INTER:                  -5.051
REMARK INTRA:                  -1.392
REMARK UNBOUND:                -1.392
REMARK SMILES CCCCCCCCCCCC(=O)[O-]
REMARK SMILES IDX 7 1 8 2 9 3 10 4 11 5 12 6 13 7 14 8 6 9 5 10 4 11 3 12 2 13
REMARK SMILES IDX 1 14
REMARK H PARENT
REMARK Flexibility Score: inf
ROOT
ATOM      1  C   UNL     1      56.720  26.601  51.295  1.00  0.00     0.000 C 
ENDROOT
BRANCH   1   2
ATOM      2  C   UNL     1      57.035  27.609  52.413  1.00  0.00     0.000 C 
BRANCH   2   3
ATOM      3  C   UNL     1      57.336  29.017  51.872  1.00  0.00     0.000 C 
BRANCH   3   4
ATOM      4  C   UNL     1      57.359  29.067  50.336  1.00  0.00     0.006 C 
BRANCH   4   5
ATOM      5  C   UNL     1      58.657  29.669  49.781  1.00  0.00     0.053 C 
BRANCH   5   6
ATOM      6  C   UNL     1      59.787  28.699  49.929  1.00  0.00     0.041 C 
ATOM      7  O   UNL     1      60.881  29.074  50.426  1.00  0.00    -0.550 OA
ATOM      8  O   UNL     1      59.615  27.370  49.566  1.00  0.00    -0.550 OA
ENDBRANCH   5   6
ENDBRANCH   4   5
ENDBRANCH   3   4
ENDBRANCH   2   3
ENDBRANCH   1   2
BRANCH   1   9
ATOM      9  C   UNL     1      55.249  26.150  51.300  1.00  0.00     0.000 C 
BRANCH   9  10
ATOM     10  C   UNL     1      54.586  26.287  49.919  1.00  0.00    -0.000 C 
BRANCH  10  11
ATOM     11  C   UNL     1      53.194  26.936  49.996  1.00  0.00    -0.000 C 
BRANCH  11  12
ATOM     12  C   UNL     1      53.134  28.108  50.993  1.00  0.00    -0.000 C 
BRANCH  12  13
ATOM     13  C   UNL     1      53.706  29.436  50.468  1.00  0.00    -0.003 C 
ATOM     14  C   UNL     1      53.900  30.481  51.568  1.00  0.00     0.004 C 
ENDBRANCH  12  13
ENDBRANCH  11  12
ENDBRANCH  10  11
ENDBRANCH   9  10
ENDBRANCH   1   9
TORSDOF 10
ENDMDL
MODEL 2
REMARK VINA RESULT:    -3.110      1.616      3.150
REMARK INTER + INTRA:          -6.320
REMARK INTER:                  -4.924
REMARK INTRA:                  -1.396
REMARK UNBOUND:                -1.392
REMARK SMILES CCCCCCCCCCCC(=O)[O-]
REMARK SMILES IDX 7 1 8 2 9 3 10 4 11 5 12 6 13 7 14 8 6 9 5 10 4 11 3 12 2 13
REMARK SMILES IDX 1 14
REMARK H PARENT
REMARK Flexibility Score: inf
ROOT
ATOM      1  C   UNL     1      57.678  30.079  52.380  1.00  0.00     0.000 C 
ENDROOT
BRANCH   1   2
ATOM      2  C   UNL     1      58.861  30.054  51.398  1.00  0.00     0.000 C 
BRANCH   2   3
ATOM      3  C   UNL     1      58.448  29.612  49.984  1.00  0.00     0.000 C 
BRANCH   3   4
ATOM      4  C   UNL     1      59.332  28.479  49.438  1.00  0.00     0.006 C 
BRANCH   4   5
ATOM      5  C   UNL     1      58.957  27.106  50.010  1.00  0.00     0.053 C 
BRANCH   5   6
ATOM      6  C   UNL     1      60.067  26.575  50.861  1.00  0.00     0.041 C 
ATOM      7  O   UNL     1      61.218  26.418  50.374  1.00  0.00    -0.550 OA
ATOM      8  O   UNL     1      59.844  26.300  52.204  1.00  0.00    -0.550 OA
ENDBRANCH   5   6
ENDBRANCH   4   5
ENDBRANCH   3   4
ENDBRANCH   2   3
ENDBRANCH   1   2
BRANCH   1   9
ATOM      9  C   UNL     1      57.510  28.752  53.140  1.00  0.00     0.000 C 
BRANCH   9  10
ATOM     10  C   UNL     1      56.342  27.908  52.601  1.00  0.00    -0.000 C 
BRANCH  10  11
ATOM     11  C   UNL     1      55.267  28.762  51.907  1.00  0.00    -0.000 C 
BRANCH  11  12
ATOM     12  C   UNL     1      54.843  28.196  50.540  1.00  0.00    -0.000 C 
BRANCH  12  13
ATOM     13  C   UNL     1      55.212  26.720  50.306  1.00  0.00    -0.003 C 
ATOM     14  C   UNL     1      54.059  25.898  49.731  1.00  0.00     0.004 C 
ENDBRANCH  12  13
ENDBRANCH  11  12
ENDBRANCH  10  11
ENDBRANCH   9  10
ENDBRANCH   1   9
TORSDOF 10
ENDMDL
MODEL 3
REMARK VINA RESULT:    -3.105      2.560      5.345
REMARK INTER + INTRA:          -6.313
REMARK INTER:                  -5.153
REMARK INTRA:                  -1.160
REMARK UNBOUND:                -1.392
REMARK SMILES CCCCCCCCCCCC(=O)[O-]
REMARK SMILES IDX 7 1 8 2 9 3 10 4 11 5 12 6 13 7 14 8 6 9 5 10 4 11 3 12 2 13
REMARK SMILES IDX 1 14
REMARK H PARENT
REMARK Flexibility Score: inf
ROOT
ATOM      1  C   UNL     1      58.382  29.630  51.495  1.00  0.00     0.000 C 
ENDROOT
BRANCH   1   2
ATOM      2  C   UNL     1      56.906  29.432  51.876  1.00  0.00     0.000 C 
BRANCH   2   3
ATOM      3  C   UNL     1      56.048  28.955  50.692  1.00  0.00     0.000 C 
BRANCH   3   4
ATOM      4  C   UNL     1      54.550  29.231  50.900  1.00  0.00     0.006 C 
BRANCH   4   5
ATOM      5  C   UNL     1      53.654  28.172  50.245  1.00  0.00     0.053 C 
BRANCH   5   6
ATOM      6  C   UNL     1      54.164  26.798  50.549  1.00  0.00     0.041 C 
ATOM      7  O   UNL     1      54.622  26.074  49.627  1.00  0.00    -0.550 OA
ATOM      8  O   UNL     1      54.180  26.336  51.859  1.00  0.00    -0.550 OA
ENDBRANCH   5   6
ENDBRANCH   4   5
ENDBRANCH   3   4
ENDBRANCH   2   3
ENDBRANCH   1   2
BRANCH   1   9
ATOM      9  C   UNL     1      58.618  29.552  49.976  1.00  0.00     0.000 C 
BRANCH   9  10
ATOM     10  C   UNL     1      59.678  28.503  49.597  1.00  0.00    -0.000 C 
BRANCH  10  11
ATOM     11  C   UNL     1      59.168  27.062  49.767  1.00  0.00    -0.000 C 
BRANCH  11  12
ATOM     12  C   UNL     1      60.003  26.247  50.772  1.00  0.00    -0.000 C 
BRANCH  12  13
ATOM     13  C   UNL     1      59.198  25.609  51.917  1.00  0.00    -0.003 C 
ATOM     14  C   UNL     1      57.688  25.798  51.767  1.00  0.00     0.004 C 
ENDBRANCH  12  13
ENDBRANCH  11  12
ENDBRANCH  10  11
ENDBRANCH   9  10
ENDBRANCH   1   9
TORSDOF 10
ENDMDL
MODEL 4
REMARK VINA RESULT:    -3.059     11.730     13.703
REMARK INTER + INTRA:          -6.239
REMARK INTER:                  -5.822
REMARK INTRA:                  -0.417
REMARK UNBOUND:                -1.392
REMARK SMILES CCCCCCCCCCCC(=O)[O-]
REMARK SMILES IDX 7 1 8 2 9 3 10 4 11 5 12 6 13 7 14 8 6 9 5 10 4 11 3 12 2 13
REMARK SMILES IDX 1 14
REMARK H PARENT
REMARK Flexibility Score: inf
ROOT
ATOM      1  C   UNL     1      62.848  31.435  59.691  1.00  0.00     0.000 C 
ENDROOT
BRANCH   1   2
ATOM      2  C   UNL     1      63.683  30.963  60.892  1.00  0.00     0.000 C 
BRANCH   2   3
ATOM      3  C   UNL     1      63.317  29.539  61.344  1.00  0.00     0.000 C 
BRANCH   3   4
ATOM      4  C   UNL     1      61.800  29.290  61.340  1.00  0.00     0.006 C 
BRANCH   4   5
ATOM      5  C   UNL     1      61.442  27.805  61.483  1.00  0.00     0.053 C 
BRANCH   5   6
ATOM      6  C   UNL     1      62.363  26.965  60.654  1.00  0.00     0.041 C 
ATOM      7  O   UNL     1      63.171  26.176  61.210  1.00  0.00    -0.550 OA
ATOM      8  O   UNL     1      62.293  27.016  59.268  1.00  0.00    -0.550 OA
ENDBRANCH   5   6
ENDBRANCH   4   5
ENDBRANCH   3   4
ENDBRANCH   2   3
ENDBRANCH   1   2
BRANCH   1   9
ATOM      9  C   UNL     1      62.753  32.968  59.601  1.00  0.00     0.000 C 
BRANCH   9  10
ATOM     10  C   UNL     1      63.607  33.675  60.668  1.00  0.00    -0.000 C 
BRANCH  10  11
ATOM     11  C   UNL     1      62.983  34.999  61.141  1.00  0.00    -0.000 C 
BRANCH  11  12
ATOM     12  C   UNL     1      63.767  35.651  62.294  1.00  0.00    -0.000 C 
BRANCH  12  13
ATOM     13  C   UNL     1      62.993  36.726  63.079  1.00  0.00    -0.003 C 
ATOM     14  C   UNL     1      63.239  36.660  64.586  1.00  0.00     0.004 C 
ENDBRANCH  12  13
ENDBRANCH  11  12
ENDBRANCH  10  11
ENDBRANCH   9  10
ENDBRANCH   1   9
TORSDOF 10
ENDMDL
MODEL 5
REMARK VINA RESULT:    -3.046      2.323      3.891
REMARK INTER + INTRA:          -6.218
REMARK INTER:                  -5.105
REMARK INTRA:                  -1.113
REMARK UNBOUND:                -1.392
REMARK SMILES CCCCCCCCCCCC(=O)[O-]
REMARK SMILES IDX 7 1 8 2 9 3 10 4 11 5 12 6 13 7 14 8 6 9 5 10 4 11 3 12 2 13
REMARK SMILES IDX 1 14
REMARK H PARENT
REMARK Flexibility Score: inf
ROOT
ATOM      1  C   UNL     1      59.262  29.497  49.843  1.00  0.00     0.000 C 
ENDROOT
BRANCH   1   2
ATOM      2  C   UNL     1      59.996  28.204  50.237  1.00  0.00     0.000 C 
BRANCH   2   3
ATOM      3  C   UNL     1      59.309  26.943  49.687  1.00  0.00     0.000 C 
BRANCH   3   4
ATOM      4  C   UNL     1      58.879  25.973  50.800  1.00  0.00     0.006 C 
BRANCH   4   5
ATOM      5  C   UNL     1      60.067  25.425  51.601  1.00  0.00     0.053 C 
BRANCH   5   6
ATOM      6  C   UNL     1      61.017  24.702  50.698  1.00  0.00     0.041 C 
ATOM      7  O   UNL     1      62.194  25.122  50.551  1.00  0.00    -0.550 OA
ATOM      8  O   UNL     1      60.617  23.536  50.058  1.00  0.00    -0.550 OA
ENDBRANCH   5   6
ENDBRANCH   4   5
ENDBRANCH   3   4
ENDBRANCH   2   3
ENDBRANCH   1   2
BRANCH   1   9
ATOM      9  C   UNL     1      57.748  29.424  50.109  1.00  0.00     0.000 C 
BRANCH   9  10
ATOM     10  C   UNL     1      57.410  29.474  51.609  1.00  0.00    -0.000 C 
BRANCH  10  11
ATOM     11  C   UNL     1      56.060  28.812  51.932  1.00  0.00    -0.000 C 
BRANCH  11  12
ATOM     12  C   UNL     1      55.008  29.031  50.829  1.00  0.00    -0.000 C 
BRANCH  12  13
ATOM     13  C   UNL     1      54.292  27.755  50.354  1.00  0.00    -0.003 C 
ATOM     14  C   UNL     1      55.226  26.550  50.242  1.00  0.00     0.004 C 
ENDBRANCH  12  13
ENDBRANCH  11  12
ENDBRANCH  10  11
ENDBRANCH   9  10
ENDBRANCH   1   9
TORSDOF 10
ENDMDL
MODEL 6
REMARK VINA RESULT:    -3.039      1.142      2.605
REMARK INTER + INTRA:          -6.207
REMARK INTER:                  -5.037
REMARK INTRA:                  -1.170
REMARK UNBOUND:                -1.392
REMARK SMILES CCCCCCCCCCCC(=O)[O-]
REMARK SMILES IDX 7 1 8 2 9 3 10 4 11 5 12 6 13 7 14 8 6 9 5 10 4 11 3 12 2 13
REMARK SMILES IDX 1 14
REMARK H PARENT
REMARK Flexibility Score: inf
ROOT
ATOM      1  C   UNL     1      55.427  29.721  52.022  1.00  0.00     0.000 C 
ENDROOT
BRANCH   1   2
ATOM      2  C   UNL     1      56.936  29.461  51.881  1.00  0.00     0.000 C 
BRANCH   2   3
ATOM      3  C   UNL     1      57.316  28.917  50.494  1.00  0.00     0.000 C 
BRANCH   3   4
ATOM      4  C   UNL     1      58.646  29.492  49.979  1.00  0.00     0.006 C 
BRANCH   4   5
ATOM      5  C   UNL     1      59.577  28.414  49.410  1.00  0.00     0.053 C 
BRANCH   5   6
ATOM      6  C   UNL     1      59.809  27.337  50.422  1.00  0.00     0.041 C 
ATOM      7  O   UNL     1      60.374  27.607  51.515  1.00  0.00    -0.550 OA
ATOM      8  O   UNL     1      59.357  26.046  50.181  1.00  0.00    -0.550 OA
ENDBRANCH   5   6
ENDBRANCH   4   5
ENDBRANCH   3   4
ENDBRANCH   2   3
ENDBRANCH   1   2
BRANCH   1   9
ATOM      9  C   UNL     1      54.675  29.584  50.686  1.00  0.00     0.000 C 
BRANCH   9  10
ATOM     10  C   UNL     1      53.229  29.092  50.871  1.00  0.00    -0.000 C 
BRANCH  10  11
ATOM     11  C   UNL     1      52.977  27.735  50.193  1.00  0.00    -0.000 C 
BRANCH  11  12
ATOM     12  C   UNL     1      54.232  26.844  50.151  1.00  0.00    -0.000 C 
BRANCH  12  13
ATOM     13  C   UNL     1      54.336  25.815  51.290  1.00  0.00    -0.003 C 
ATOM     14  C   UNL     1      55.604  25.975  52.128  1.00  0.00     0.004 C 
ENDBRANCH  12  13
ENDBRANCH  11  12
ENDBRANCH  10  11
ENDBRANCH   9  10
ENDBRANCH   1   9
TORSDOF 10
ENDMDL
MODEL 7
REMARK VINA RESULT:    -2.990      0.876      1.908
REMARK INTER + INTRA:          -6.130
REMARK INTER:                  -4.783
REMARK INTRA:                  -1.347
REMARK UNBOUND:                -1.392
REMARK SMILES CCCCCCCCCCCC(=O)[O-]
REMARK SMILES IDX 7 1 8 2 9 3 10 4 11 5 12 6 13 7 14 8 6 9 5 10 4 11 3 12 2 13
REMARK SMILES IDX 1 14
REMARK H PARENT
REMARK Flexibility Score: inf
ROOT
ATOM      1  C   UNL     1      57.099  28.384  52.716  1.00  0.00     0.000 C 
ENDROOT
BRANCH   1   2
ATOM      2  C   UNL     1      57.719  29.504  51.864  1.00  0.00     0.000 C 
BRANCH   2   3
ATOM      3  C   UNL     1      57.478  29.304  50.358  1.00  0.00     0.000 C 
BRANCH   3   4
ATOM      4  C   UNL     1      58.780  29.354  49.541  1.00  0.00     0.006 C 
BRANCH   4   5
ATOM      5  C   UNL     1      60.033  29.195  50.411  1.00  0.00     0.053 C 
BRANCH   5   6
ATOM      6  C   UNL     1      60.829  28.008  49.967  1.00  0.00     0.041 C 
ATOM      7  O   UNL     1      60.311  26.861  49.968  1.00  0.00    -0.550 OA
ATOM      8  O   UNL     1      62.128  28.177  49.503  1.00  0.00    -0.550 OA
ENDBRANCH   5   6
ENDBRANCH   4   5
ENDBRANCH   3   4
ENDBRANCH   2   3
ENDBRANCH   1   2
BRANCH   1   9
ATOM      9  C   UNL     1      57.063  27.032  51.982  1.00  0.00     0.000 C 
BRANCH   9  10
ATOM     10  C   UNL     1      55.646  26.439  51.906  1.00  0.00    -0.000 C 
BRANCH  10  11
ATOM     11  C   UNL     1      55.156  26.263  50.459  1.00  0.00    -0.000 C 
BRANCH  11  12
ATOM     12  C   UNL     1      54.071  27.282  50.066  1.00  0.00    -0.000 C 
BRANCH  12  13
ATOM     13  C   UNL     1      53.701  28.293  51.166  1.00  0.00    -0.003 C 
ATOM     14  C   UNL     1      53.834  29.746  50.713  1.00  0.00     0.004 C 
ENDBRANCH  12  13
ENDBRANCH  11  12
ENDBRANCH  10  11
ENDBRANCH   9  10
ENDBRANCH   1   9
TORSDOF 10
ENDMDL
MODEL 8
REMARK VINA RESULT:    -2.960      1.169      2.890
REMARK INTER + INTRA:          -6.082
REMARK INTER:                  -4.976
REMARK INTRA:                  -1.106
REMARK UNBOUND:                -1.392
REMARK SMILES CCCCCCCCCCCC(=O)[O-]
REMARK SMILES IDX 7 1 8 2 9 3 10 4 11 5 12 6 13 7 14 8 6 9 5 10 4 11 3 12 2 13
REMARK SMILES IDX 1 14
REMARK H PARENT
REMARK Flexibility Score: inf
ROOT
ATOM      1  C   UNL     1      54.916  29.264  50.785  1.00  0.00     0.000 C 
ENDROOT
BRANCH   1   2
ATOM      2  C   UNL     1      56.405  28.893  50.691  1.00  0.00     0.000 C 
BRANCH   2   3
ATOM      3  C   UNL     1      57.298  29.804  51.551  1.00  0.00     0.000 C 
BRANCH   3   4
ATOM      4  C   UNL     1      58.744  29.871  51.033  1.00  0.00     0.006 C 
BRANCH   4   5
ATOM      5  C   UNL     1      58.896  29.288  49.622  1.00  0.00     0.053 C 
BRANCH   5   6
ATOM      6  C   UNL     1      59.782  28.082  49.648  1.00  0.00     0.041 C 
ATOM      7  O   UNL     1      59.279  26.928  49.638  1.00  0.00    -0.550 OA
ATOM      8  O   UNL     1      61.162  28.232  49.633  1.00  0.00    -0.550 OA
ENDBRANCH   5   6
ENDBRANCH   4   5
ENDBRANCH   3   4
ENDBRANCH   2   3
ENDBRANCH   1   2
BRANCH   1   9
ATOM      9  C   UNL     1      53.990  28.109  50.367  1.00  0.00     0.000 C 
BRANCH   9  10
ATOM     10  C   UNL     1      54.711  26.750  50.353  1.00  0.00    -0.000 C 
BRANCH  10  11
ATOM     11  C   UNL     1      54.318  25.862  51.546  1.00  0.00    -0.000 C 
BRANCH  11  12
ATOM     12  C   UNL     1      55.225  26.072  52.772  1.00  0.00    -0.000 C 
BRANCH  12  13
ATOM     13  C   UNL     1      56.618  25.426  52.668  1.00  0.00    -0.003 C 
ATOM     14  C   UNL     1      57.756  26.409  52.940  1.00  0.00     0.004 C 
ENDBRANCH  12  13
ENDBRANCH  11  12
ENDBRANCH  10  11
ENDBRANCH   9  10
ENDBRANCH   1   9
TORSDOF 10
ENDMDL
MODEL 9
REMARK VINA RESULT:    -2.952      1.783      3.246
REMARK INTER + INTRA:          -6.070
REMARK INTER:                  -5.100
REMARK INTRA:                  -0.970
REMARK UNBOUND:                -1.392
REMARK SMILES CCCCCCCCCCCC(=O)[O-]
REMARK SMILES IDX 7 1 8 2 9 3 10 4 11 5 12 6 13 7 14 8 6 9 5 10 4 11 3 12 2 13
REMARK SMILES IDX 1 14
REMARK H PARENT
REMARK Flexibility Score: inf
ROOT
ATOM      1  C   UNL     1      57.937  29.529  51.509  1.00  0.00     0.000 C 
ENDROOT
BRANCH   1   2
ATOM      2  C   UNL     1      58.159  29.558  49.988  1.00  0.00     0.000 C 
BRANCH   2   3
ATOM      3  C   UNL     1      59.528  28.989  49.578  1.00  0.00     0.000 C 
BRANCH   3   4
ATOM      4  C   UNL     1      60.047  27.932  50.567  1.00  0.00     0.006 C 
BRANCH   4   5
ATOM      5  C   UNL     1      59.842  26.498  50.063  1.00  0.00     0.053 C 
BRANCH   5   6
ATOM      6  C   UNL     1      58.694  25.854  50.776  1.00  0.00     0.041 C 
ATOM      7  O   UNL     1      58.905  25.081  51.747  1.00  0.00    -0.550 OA
ATOM      8  O   UNL     1      57.389  26.148  50.401  1.00  0.00    -0.550 OA
ENDBRANCH   5   6
ENDBRANCH   4   5
ENDBRANCH   3   4
ENDBRANCH   2   3
ENDBRANCH   1   2
BRANCH   1   9
ATOM      9  C   UNL     1      56.496  29.147  51.891  1.00  0.00     0.000 C 
BRANCH   9  10
ATOM     10  C   UNL     1      55.533  29.205  50.692  1.00  0.00    -0.000 C 
BRANCH  10  11
ATOM     11  C   UNL     1      54.060  29.069  51.112  1.00  0.00    -0.000 C 
BRANCH  11  12
ATOM     12  C   UNL     1      53.275  28.084  50.227  1.00  0.00    -0.000 C 
BRANCH  12  13
ATOM     13  C   UNL     1      53.959  26.723  50.005  1.00  0.00    -0.003 C 
ATOM     14  C   UNL     1      53.901  25.817  51.234  1.00  0.00     0.004 C 
ENDBRANCH  12  13
ENDBRANCH  11  12
ENDBRANCH  10  11
ENDBRANCH   9  10
ENDBRANCH   1   9
TORSDOF 10
ENDMDL
