MODEL 1
REMARK VINA RESULT:    -4.648      0.000      0.000
REMARK INTER + INTRA:          -7.530
REMARK INTER:                  -7.093
REMARK INTRA:                  -0.437
REMARK UNBOUND:                -0.437
REMARK SMILES CCCCCCCCCCC(=O)[O-]
REMARK SMILES IDX 7 1 8 2 9 3 10 4 11 5 12 6 13 7 6 8 5 9 4 10 3 11 2 12 1 13
REMARK H PARENT
REMARK Flexibility Score: inf
ROOT
ATOM      1  C   UNL     1      20.683  -7.995  40.377  1.00  0.00     0.000 C 
ENDROOT
BRANCH   1   2
ATOM      2  C   UNL     1      19.931  -6.813  39.741  1.00  0.00     0.000 C 
BRANCH   2   3
ATOM      3  C   UNL     1      18.510  -6.638  40.307  1.00  0.00     0.006 C 
BRANCH   3   4
ATOM      4  C   UNL     1      18.448  -6.495  41.837  1.00  0.00     0.053 C 
BRANCH   4   5
ATOM      5  C   UNL     1      17.091  -6.071  42.305  1.00  0.00     0.041 C 
ATOM      6  O   UNL     1      16.611  -4.965  41.940  1.00  0.00    -0.550 OA
ATOM      7  O   UNL     1      16.367  -6.883  43.169  1.00  0.00    -0.550 OA
ENDBRANCH   4   5
ENDBRANCH   3   4
ENDBRANCH   2   3
ENDBRANCH   1   2
BRANCH   1   8
ATOM      8  C   UNL     1      21.996  -8.334  39.647  1.00  0.00     0.000 C 
BRANCH   8   9
ATOM      9  C   UNL     1      22.354  -7.420  38.455  1.00  0.00    -0.000 C 
BRANCH   9  10
ATOM     10  C   UNL     1      23.589  -6.521  38.664  1.00  0.00    -0.000 C 
BRANCH  10  11
ATOM     11  C   UNL     1      24.348  -6.795  39.982  1.00  0.00    -0.000 C 
BRANCH  11  12
ATOM     12  C   UNL     1      25.228  -5.620  40.438  1.00  0.00    -0.003 C 
ATOM     13  C   UNL     1      26.713  -5.975  40.490  1.00  0.00     0.004 C 
ENDBRANCH  11  12
ENDBRANCH  10  11
ENDBRANCH   9  10
ENDBRANCH   8   9
ENDBRANCH   1   8
TORSDOF 9
ENDMDL
MODEL 2
REMARK VINA RESULT:    -4.603     11.809     13.514
REMARK INTER + INTRA:          -7.462
REMARK INTER:                  -6.605
REMARK INTRA:                  -0.857
REMARK UNBOUND:                -0.437
REMARK SMILES CCCCCCCCCCC(=O)[O-]
REMARK SMILES IDX 7 1 8 2 9 3 10 4 11 5 12 6 13 7 6 8 5 9 4 10 3 11 2 12 1 13
REMARK H PARENT
REMARK Flexibility Score: inf
ROOT
ATOM      1  C   UNL     1      12.644   2.021  39.317  1.00  0.00     0.000 C 
ENDROOT
BRANCH   1   2
ATOM      2  C   UNL     1      11.612   3.081  39.739  1.00  0.00     0.000 C 
BRANCH   2   3
ATOM      3  C   UNL     1      12.267   4.376  40.256  1.00  0.00     0.006 C 
BRANCH   3   4
ATOM      4  C   UNL     1      12.392   5.489  39.203  1.00  0.00     0.053 C 
BRANCH   4   5
ATOM      5  C   UNL     1      11.194   6.387  39.193  1.00  0.00     0.041 C 
ATOM      6  O   UNL     1      10.281   6.218  38.342  1.00  0.00    -0.550 OA
ATOM      7  O   UNL     1      11.098   7.430  40.106  1.00  0.00    -0.550 OA
ENDBRANCH   4   5
ENDBRANCH   3   4
ENDBRANCH   2   3
ENDBRANCH   1   2
BRANCH   1   8
ATOM      8  C   UNL     1      12.158   0.580  39.563  1.00  0.00     0.000 C 
BRANCH   8   9
ATOM      9  C   UNL     1      11.695   0.267  41.002  1.00  0.00    -0.000 C 
BRANCH   9  10
ATOM     10  C   UNL     1      12.826   0.002  42.015  1.00  0.00    -0.000 C 
BRANCH  10  11
ATOM     11  C   UNL     1      13.351   1.277  42.715  1.00  0.00    -0.000 C 
BRANCH  11  12
ATOM     12  C   UNL     1      14.885   1.368  42.752  1.00  0.00    -0.003 C 
ATOM     13  C   UNL     1      15.461   2.160  41.580  1.00  0.00     0.004 C 
ENDBRANCH  11  12
ENDBRANCH  10  11
ENDBRANCH   9  10
ENDBRANCH   8   9
ENDBRANCH   1   8
TORSDOF 9
ENDMDL
MODEL 3
REMARK VINA RESULT:    -4.599     10.435     12.819
REMARK INTER + INTRA:          -7.455
REMARK INTER:                  -7.235
REMARK INTRA:                  -0.220
REMARK UNBOUND:                -0.437
REMARK SMILES CCCCCCCCCCC(=O)[O-]
REMARK SMILES IDX 7 1 8 2 9 3 10 4 11 5 12 6 13 7 6 8 5 9 4 10 3 11 2 12 1 13
REMARK H PARENT
REMARK Flexibility Score: inf
ROOT
ATOM      1  C   UNL     1      14.062   2.453  40.816  1.00  0.00     0.000 C 
ENDROOT
BRANCH   1   2
ATOM      2  C   UNL     1      13.258   3.060  39.655  1.00  0.00     0.000 C 
BRANCH   2   3
ATOM      3  C   UNL     1      12.383   4.250  40.093  1.00  0.00     0.006 C 
BRANCH   3   4
ATOM      4  C   UNL     1      11.818   5.084  38.932  1.00  0.00     0.053 C 
BRANCH   4   5
ATOM      5  C   UNL     1      11.353   6.433  39.387  1.00  0.00     0.041 C 
ATOM      6  O   UNL     1      12.189   7.345  39.625  1.00  0.00    -0.550 OA
ATOM      7  O   UNL     1       9.999   6.676  39.576  1.00  0.00    -0.550 OA
ENDBRANCH   4   5
ENDBRANCH   3   4
ENDBRANCH   2   3
ENDBRANCH   1   2
BRANCH   1   8
ATOM      8  C   UNL     1      13.173   1.749  41.858  1.00  0.00     0.000 C 
BRANCH   8   9
ATOM      9  C   UNL     1      13.833   0.578  42.619  1.00  0.00    -0.000 C 
BRANCH   9  10
ATOM     10  C   UNL     1      14.992   0.971  43.556  1.00  0.00    -0.000 C 
BRANCH  10  11
ATOM     11  C   UNL     1      15.905  -0.211  43.952  1.00  0.00    -0.000 C 
BRANCH  11  12
ATOM     12  C   UNL     1      16.437  -0.119  45.392  1.00  0.00    -0.003 C 
ATOM     13  C   UNL     1      17.892  -0.566  45.517  1.00  0.00     0.004 C 
ENDBRANCH  11  12
ENDBRANCH  10  11
ENDBRANCH   9  10
ENDBRANCH   8   9
ENDBRANCH   1   8
TORSDOF 9
ENDMDL
MODEL 4
REMARK VINA RESULT:    -4.546      5.456      7.222
REMARK INTER + INTRA:          -7.375
REMARK INTER:                  -6.704
REMARK INTRA:                  -0.672
REMARK UNBOUND:                -0.437
REMARK SMILES CCCCCCCCCCC(=O)[O-]
REMARK SMILES IDX 7 1 8 2 9 3 10 4 11 5 12 6 13 7 6 8 5 9 4 10 3 11 2 12 1 13
REMARK H PARENT
REMARK Flexibility Score: inf
ROOT
ATOM      1  C   UNL     1      22.399  -5.319  38.272  1.00  0.00     0.000 C 
ENDROOT
BRANCH   1   2
ATOM      2  C   UNL     1      23.588  -5.178  39.238  1.00  0.00     0.000 C 
BRANCH   2   3
ATOM      3  C   UNL     1      24.940  -5.485  38.567  1.00  0.00     0.006 C 
BRANCH   3   4
ATOM      4  C   UNL     1      26.097  -5.726  39.550  1.00  0.00     0.053 C 
BRANCH   4   5
ATOM      5  C   UNL     1      26.466  -7.174  39.636  1.00  0.00     0.041 C 
ATOM      6  O   UNL     1      25.626  -8.020  40.045  1.00  0.00    -0.550 OA
ATOM      7  O   UNL     1      27.747  -7.589  39.293  1.00  0.00    -0.550 OA
ENDBRANCH   4   5
ENDBRANCH   3   4
ENDBRANCH   2   3
ENDBRANCH   1   2
BRANCH   1   8
ATOM      8  C   UNL     1      22.832  -5.407  36.797  1.00  0.00     0.000 C 
BRANCH   8   9
ATOM      9  C   UNL     1      21.847  -4.803  35.773  1.00  0.00    -0.000 C 
BRANCH   9  10
ATOM     10  C   UNL     1      22.300  -3.479  35.126  1.00  0.00    -0.000 C 
BRANCH  10  11
ATOM     11  C   UNL     1      23.451  -2.776  35.881  1.00  0.00    -0.000 C 
BRANCH  11  12
ATOM     12  C   UNL     1      23.062  -1.400  36.446  1.00  0.00    -0.003 C 
ATOM     13  C   UNL     1      22.174  -0.597  35.498  1.00  0.00     0.004 C 
ENDBRANCH  11  12
ENDBRANCH  10  11
ENDBRANCH   9  10
ENDBRANCH   8   9
ENDBRANCH   1   8
TORSDOF 9
ENDMDL
MODEL 5
REMARK VINA RESULT:    -4.536      7.731      9.031
REMARK INTER + INTRA:          -7.359
REMARK INTER:                  -5.916
REMARK INTRA:                  -1.444
REMARK UNBOUND:                -0.437
REMARK SMILES CCCCCCCCCCC(=O)[O-]
REMARK SMILES IDX 7 1 8 2 9 3 10 4 11 5 12 6 13 7 6 8 5 9 4 10 3 11 2 12 1 13
REMARK H PARENT
REMARK Flexibility Score: inf
ROOT
ATOM      1  C   UNL     1      19.414  -2.939  33.010  1.00  0.00     0.000 C 
ENDROOT
BRANCH   1   2
ATOM      2  C   UNL     1      19.480  -3.131  31.486  1.00  0.00     0.000 C 
BRANCH   2   3
ATOM      3  C   UNL     1      18.829  -4.448  31.023  1.00  0.00     0.006 C 
BRANCH   3   4
ATOM      4  C   UNL     1      17.986  -5.153  32.098  1.00  0.00     0.053 C 
BRANCH   4   5
ATOM      5  C   UNL     1      18.379  -6.588  32.266  1.00  0.00     0.041 C 
ATOM      6  O   UNL     1      18.761  -7.261  31.272  1.00  0.00    -0.550 OA
ATOM      7  O   UNL     1      18.296  -7.191  33.514  1.00  0.00    -0.550 OA
ENDBRANCH   4   5
ENDBRANCH   3   4
ENDBRANCH   2   3
ENDBRANCH   1   2
BRANCH   1   8
ATOM      8  C   UNL     1      20.743  -3.272  33.714  1.00  0.00     0.000 C 
BRANCH   8   9
ATOM      9  C   UNL     1      20.737  -4.542  34.592  1.00  0.00    -0.000 C 
BRANCH   9  10
ATOM     10  C   UNL     1      21.527  -5.738  34.024  1.00  0.00    -0.000 C 
BRANCH  10  11
ATOM     11  C   UNL     1      22.335  -5.406  32.748  1.00  0.00    -0.000 C 
BRANCH  11  12
ATOM     12  C   UNL     1      22.215  -6.475  31.651  1.00  0.00    -0.003 C 
ATOM     13  C   UNL     1      22.166  -5.880  30.245  1.00  0.00     0.004 C 
ENDBRANCH  11  12
ENDBRANCH  10  11
ENDBRANCH   9  10
ENDBRANCH   8   9
ENDBRANCH   1   8
TORSDOF 9
ENDMDL
MODEL 6
REMARK VINA RESULT:    -4.516      7.798      8.949
REMARK INTER + INTRA:          -7.329
REMARK INTER:                  -6.015
REMARK INTRA:                  -1.314
REMARK UNBOUND:                -0.437
REMARK SMILES CCCCCCCCCCC(=O)[O-]
REMARK SMILES IDX 7 1 8 2 9 3 10 4 11 5 12 6 13 7 6 8 5 9 4 10 3 11 2 12 1 13
REMARK H PARENT
REMARK Flexibility Score: inf
ROOT
ATOM      1  C   UNL     1      18.529  -3.911  31.962  1.00  0.00     0.000 C 
ENDROOT
BRANCH   1   2
ATOM      2  C   UNL     1      17.870  -5.237  32.376  1.00  0.00     0.000 C 
BRANCH   2   3
ATOM      3  C   UNL     1      18.464  -5.818  33.673  1.00  0.00     0.006 C 
BRANCH   3   4
ATOM      4  C   UNL     1      19.075  -7.221  33.518  1.00  0.00     0.053 C 
BRANCH   4   5
ATOM      5  C   UNL     1      18.046  -8.241  33.139  1.00  0.00     0.041 C 
ATOM      6  O   UNL     1      18.149  -8.872  32.053  1.00  0.00    -0.550 OA
ATOM      7  O   UNL     1      16.957  -8.474  33.969  1.00  0.00    -0.550 OA
ENDBRANCH   4   5
ENDBRANCH   3   4
ENDBRANCH   2   3
ENDBRANCH   1   2
BRANCH   1   8
ATOM      8  C   UNL     1      19.708  -4.106  30.990  1.00  0.00     0.000 C 
BRANCH   8   9
ATOM      9  C   UNL     1      19.692  -5.414  30.170  1.00  0.00    -0.000 C 
BRANCH   9  10
ATOM     10  C   UNL     1      20.830  -6.404  30.488  1.00  0.00    -0.000 C 
BRANCH  10  11
ATOM     11  C   UNL     1      22.120  -5.729  31.005  1.00  0.00    -0.000 C 
BRANCH  11  12
ATOM     12  C   UNL     1      22.545  -6.208  32.403  1.00  0.00    -0.003 C 
ATOM     13  C   UNL     1      22.243  -5.186  33.498  1.00  0.00     0.004 C 
ENDBRANCH  11  12
ENDBRANCH  10  11
ENDBRANCH   9  10
ENDBRANCH   8   9
ENDBRANCH   1   8
TORSDOF 9
ENDMDL
MODEL 7
REMARK VINA RESULT:    -4.491      5.103      6.741
REMARK INTER + INTRA:          -7.291
REMARK INTER:                  -6.373
REMARK INTRA:                  -0.918
REMARK UNBOUND:                -0.437
REMARK SMILES CCCCCCCCCCC(=O)[O-]
REMARK SMILES IDX 7 1 8 2 9 3 10 4 11 5 12 6 13 7 6 8 5 9 4 10 3 11 2 12 1 13
REMARK H PARENT
REMARK Flexibility Score: inf
ROOT
ATOM      1  C   UNL     1      22.626  -7.628  38.106  1.00  0.00     0.000 C 
ENDROOT
BRANCH   1   2
ATOM      2  C   UNL     1      22.896  -7.443  39.609  1.00  0.00     0.000 C 
BRANCH   2   3
ATOM      3  C   UNL     1      24.380  -7.630  39.975  1.00  0.00     0.006 C 
BRANCH   3   4
ATOM      4  C   UNL     1      25.341  -6.685  39.236  1.00  0.00     0.053 C 
BRANCH   4   5
ATOM      5  C   UNL     1      26.741  -6.791  39.756  1.00  0.00     0.041 C 
ATOM      6  O   UNL     1      27.548  -7.610  39.241  1.00  0.00    -0.550 OA
ATOM      7  O   UNL     1      27.147  -6.006  40.827  1.00  0.00    -0.550 OA
ENDBRANCH   4   5
ENDBRANCH   3   4
ENDBRANCH   2   3
ENDBRANCH   1   2
BRANCH   1   8
ATOM      8  C   UNL     1      22.142  -6.336  37.421  1.00  0.00     0.000 C 
BRANCH   8   9
ATOM      9  C   UNL     1      21.798  -5.165  38.366  1.00  0.00    -0.000 C 
BRANCH   9  10
ATOM     10  C   UNL     1      22.758  -3.960  38.298  1.00  0.00    -0.000 C 
BRANCH  10  11
ATOM     11  C   UNL     1      23.678  -3.963  37.056  1.00  0.00    -0.000 C 
BRANCH  11  12
ATOM     12  C   UNL     1      23.294  -2.908  36.006  1.00  0.00    -0.003 C 
ATOM     13  C   UNL     1      22.206  -3.391  35.049  1.00  0.00     0.004 C 
ENDBRANCH  11  12
ENDBRANCH  10  11
ENDBRANCH   9  10
ENDBRANCH   8   9
ENDBRANCH   1   8
TORSDOF 9
ENDMDL
MODEL 8
REMARK VINA RESULT:    -4.457      7.009      8.386
REMARK INTER + INTRA:          -7.239
REMARK INTER:                  -6.010
REMARK INTRA:                  -1.229
REMARK UNBOUND:                -0.437
REMARK SMILES CCCCCCCCCCC(=O)[O-]
REMARK SMILES IDX 7 1 8 2 9 3 10 4 11 5 12 6 13 7 6 8 5 9 4 10 3 11 2 12 1 13
REMARK H PARENT
REMARK Flexibility Score: inf
ROOT
ATOM      1  C   UNL     1      20.452  -6.407  30.307  1.00  0.00     0.000 C 
ENDROOT
BRANCH   1   2
ATOM      2  C   UNL     1      19.306  -6.259  31.322  1.00  0.00     0.000 C 
BRANCH   2   3
ATOM      3  C   UNL     1      18.678  -7.610  31.712  1.00  0.00     0.006 C 
BRANCH   3   4
ATOM      4  C   UNL     1      18.725  -7.922  33.217  1.00  0.00     0.053 C 
BRANCH   4   5
ATOM      5  C   UNL     1      17.432  -7.596  33.897  1.00  0.00     0.041 C 
ATOM      6  O   UNL     1      16.699  -8.519  34.342  1.00  0.00    -0.550 OA
ATOM      7  O   UNL     1      17.019  -6.275  34.013  1.00  0.00    -0.550 OA
ENDBRANCH   4   5
ENDBRANCH   3   4
ENDBRANCH   2   3
ENDBRANCH   1   2
BRANCH   1   8
ATOM      8  C   UNL     1      21.797  -5.878  30.839  1.00  0.00     0.000 C 
BRANCH   8   9
ATOM      9  C   UNL     1      22.197  -6.365  32.249  1.00  0.00    -0.000 C 
BRANCH   9  10
ATOM     10  C   UNL     1      22.260  -5.269  33.331  1.00  0.00    -0.000 C 
BRANCH  10  11
ATOM     11  C   UNL     1      21.212  -5.438  34.454  1.00  0.00    -0.000 C 
BRANCH  11  12
ATOM     12  C   UNL     1      20.158  -4.318  34.483  1.00  0.00    -0.003 C 
ATOM     13  C   UNL     1      20.318  -3.323  33.335  1.00  0.00     0.004 C 
ENDBRANCH  11  12
ENDBRANCH  10  11
ENDBRANCH   9  10
ENDBRANCH   8   9
ENDBRANCH   1   8
TORSDOF 9
ENDMDL
MODEL 9
REMARK VINA RESULT:    -4.443      7.398      8.916
REMARK INTER + INTRA:          -7.218
REMARK INTER:                  -6.312
REMARK INTRA:                  -0.906
REMARK UNBOUND:                -0.437
REMARK SMILES CCCCCCCCCCC(=O)[O-]
REMARK SMILES IDX 7 1 8 2 9 3 10 4 11 5 12 6 13 7 6 8 5 9 4 10 3 11 2 12 1 13
REMARK H PARENT
REMARK Flexibility Score: inf
ROOT
ATOM      1  C   UNL     1      22.627  -6.138  32.158  1.00  0.00     0.000 C 
ENDROOT
BRANCH   1   2
ATOM      2  C   UNL     1      22.030  -6.099  30.741  1.00  0.00     0.000 C 
BRANCH   2   3
ATOM      3  C   UNL     1      20.539  -6.482  30.713  1.00  0.00     0.006 C 
BRANCH   3   4
ATOM      4  C   UNL     1      19.605  -5.361  30.227  1.00  0.00     0.053 C 
BRANCH   4   5
ATOM      5  C   UNL     1      19.280  -4.390  31.319  1.00  0.00     0.041 C 
ATOM      6  O   UNL     1      18.716  -4.786  32.374  1.00  0.00    -0.550 OA
ATOM      7  O   UNL     1      19.573  -3.042  31.161  1.00  0.00    -0.550 OA
ENDBRANCH   4   5
ENDBRANCH   3   4
ENDBRANCH   2   3
ENDBRANCH   1   2
BRANCH   1   8
ATOM      8  C   UNL     1      21.639  -6.677  33.211  1.00  0.00     0.000 C 
BRANCH   8   9
ATOM      9  C   UNL     1      21.474  -5.811  34.478  1.00  0.00    -0.000 C 
BRANCH   9  10
ATOM     10  C   UNL     1      22.126  -4.416  34.412  1.00  0.00    -0.000 C 
BRANCH  10  11
ATOM     11  C   UNL     1      21.114  -3.248  34.463  1.00  0.00    -0.000 C 
BRANCH  11  12
ATOM     12  C   UNL     1      21.647  -2.006  35.196  1.00  0.00    -0.003 C 
ATOM     13  C   UNL     1      23.077  -2.185  35.704  1.00  0.00     0.004 C 
ENDBRANCH  11  12
ENDBRANCH  10  11
ENDBRANCH   9  10
ENDBRANCH   8   9
ENDBRANCH   1   8
TORSDOF 9
ENDMDL
