MODEL 1
REMARK VINA RESULT:    -4.147      0.000      0.000
REMARK INTER + INTRA:          -9.232
REMARK INTER:                  -7.541
REMARK INTRA:                  -1.691
REMARK UNBOUND:                -1.691
REMARK SMILES CCCCCCCCCCCCCC[C@H](C)C(=O)[O-]
REMARK SMILES IDX 9 1 10 2 11 3 12 4 13 5 14 6 15 7 16 8 17 9 18 10 19 11 8 12
REMARK SMILES IDX 7 13 6 14 5 15 4 16 3 17 2 18 1 19
REMARK H PARENT
REMARK Flexibility Score: inf
ROOT
ATOM      1  C   UNL     1      11.765  62.044   7.646  1.00  0.00     0.000 C 
ENDROOT
BRANCH   1   2
ATOM      2  C   UNL     1      11.141  62.829   8.814  1.00  0.00     0.000 C 
BRANCH   2   3
ATOM      3  C   UNL     1       9.874  63.598   8.410  1.00  0.00     0.000 C 
BRANCH   3   4
ATOM      4  C   UNL     1       9.904  65.032   8.956  1.00  0.00     0.000 C 
BRANCH   4   5
ATOM      5  C   UNL     1       8.777  65.877   8.345  1.00  0.00     0.001 C 
BRANCH   5   6
ATOM      6  C   UNL     1       7.495  65.895   9.200  1.00  0.00     0.009 C 
BRANCH   6   7
ATOM      7  C   UNL     1       6.204  65.579   8.407  1.00  0.00     0.032 C 
ATOM      8  C   UNL     1       5.088  66.561   8.782  1.00  0.00     0.014 C 
BRANCH   7   9
ATOM      9  C   UNL     1       5.724  64.175   8.653  1.00  0.00     0.044 C 
ATOM     10  O   UNL     1       6.463  63.196   8.367  1.00  0.00    -0.550 OA
ATOM     11  O   UNL     1       4.449  63.945   9.160  1.00  0.00    -0.550 OA
ENDBRANCH   7   9
ENDBRANCH   6   7
ENDBRANCH   5   6
ENDBRANCH   4   5
ENDBRANCH   3   4
ENDBRANCH   2   3
ENDBRANCH   1   2
BRANCH   1  12
ATOM     12  C   UNL     1      12.963  62.732   6.963  1.00  0.00     0.000 C 
BRANCH  12  13
ATOM     13  C   UNL     1      13.404  64.018   7.683  1.00  0.00    -0.000 C 
BRANCH  13  14
ATOM     14  C   UNL     1      13.682  65.172   6.704  1.00  0.00    -0.000 C 
BRANCH  14  15
ATOM     15  C   UNL     1      12.591  66.255   6.748  1.00  0.00    -0.000 C 
BRANCH  15  16
ATOM     16  C   UNL     1      11.653  66.212   5.527  1.00  0.00    -0.000 C 
BRANCH  16  17
ATOM     17  C   UNL     1      12.094  65.259   4.400  1.00  0.00    -0.000 C 
BRANCH  17  18
ATOM     18  C   UNL     1      11.246  65.402   3.129  1.00  0.00    -0.003 C 
ATOM     19  C   UNL     1      10.029  66.289   3.377  1.00  0.00     0.004 C 
ENDBRANCH  17  18
ENDBRANCH  16  17
ENDBRANCH  15  16
ENDBRANCH  14  15
ENDBRANCH  13  14
ENDBRANCH  12  13
ENDBRANCH   1  12
TORSDOF 14
ENDMDL
MODEL 2
REMARK VINA RESULT:    -4.042      2.413      5.796
REMARK INTER + INTRA:          -9.042
REMARK INTER:                  -7.455
REMARK INTRA:                  -1.588
REMARK UNBOUND:                -1.691
REMARK SMILES CCCCCCCCCCCCCC[C@H](C)C(=O)[O-]
REMARK SMILES IDX 9 1 10 2 11 3 12 4 13 5 14 6 15 7 16 8 17 9 18 10 19 11 8 12
REMARK SMILES IDX 7 13 6 14 5 15 4 16 3 17 2 18 1 19
REMARK H PARENT
REMARK Flexibility Score: inf
ROOT
ATOM      1  C   UNL     1      11.775  62.057   7.605  1.00  0.00     0.000 C 
ENDROOT
BRANCH   1   2
ATOM      2  C   UNL     1      12.922  62.753   6.849  1.00  0.00     0.000 C 
BRANCH   2   3
ATOM      3  C   UNL     1      13.468  63.983   7.589  1.00  0.00     0.000 C 
BRANCH   3   4
ATOM      4  C   UNL     1      13.361  65.241   6.718  1.00  0.00     0.000 C 
BRANCH   4   5
ATOM      5  C   UNL     1      12.494  64.981   5.478  1.00  0.00     0.001 C 
BRANCH   5   6
ATOM      6  C   UNL     1      11.265  65.905   5.387  1.00  0.00     0.009 C 
BRANCH   6   7
ATOM      7  C   UNL     1      10.634  65.977   3.975  1.00  0.00     0.032 C 
ATOM      8  C   UNL     1      11.725  66.047   2.901  1.00  0.00     0.014 C 
BRANCH   7   9
ATOM      9  C   UNL     1       9.723  67.166   3.828  1.00  0.00     0.044 C 
ATOM     10  O   UNL     1       8.539  67.008   3.428  1.00  0.00    -0.550 OA
ATOM     11  O   UNL     1      10.192  68.449   4.091  1.00  0.00    -0.550 OA
ENDBRANCH   7   9
ENDBRANCH   6   7
ENDBRANCH   5   6
ENDBRANCH   4   5
ENDBRANCH   3   4
ENDBRANCH   2   3
ENDBRANCH   1   2
BRANCH   1  12
ATOM     12  C   UNL     1      11.205  62.848   8.797  1.00  0.00     0.000 C 
BRANCH  12  13
ATOM     13  C   UNL     1       9.935  63.640   8.437  1.00  0.00    -0.000 C 
BRANCH  13  14
ATOM     14  C   UNL     1      10.080  65.143   8.728  1.00  0.00    -0.000 C 
BRANCH  14  15
ATOM     15  C   UNL     1       8.827  65.942   8.329  1.00  0.00    -0.000 C 
BRANCH  15  16
ATOM     16  C   UNL     1       7.549  65.441   9.027  1.00  0.00    -0.000 C 
BRANCH  16  17
ATOM     17  C   UNL     1       6.242  66.099   8.546  1.00  0.00    -0.000 C 
BRANCH  17  18
ATOM     18  C   UNL     1       5.232  65.086   7.988  1.00  0.00    -0.003 C 
ATOM     19  C   UNL     1       4.721  64.159   9.087  1.00  0.00     0.004 C 
ENDBRANCH  17  18
ENDBRANCH  16  17
ENDBRANCH  15  16
ENDBRANCH  14  15
ENDBRANCH  13  14
ENDBRANCH  12  13
ENDBRANCH   1  12
TORSDOF 14
ENDMDL
MODEL 3
REMARK VINA RESULT:    -3.988      1.479      2.452
REMARK INTER + INTRA:          -8.943
REMARK INTER:                  -6.844
REMARK INTRA:                  -2.099
REMARK UNBOUND:                -1.691
REMARK SMILES CCCCCCCCCCCCCC[C@H](C)C(=O)[O-]
REMARK SMILES IDX 9 1 10 2 11 3 12 4 13 5 14 6 15 7 16 8 17 9 18 10 19 11 8 12
REMARK SMILES IDX 7 13 6 14 5 15 4 16 3 17 2 18 1 19
REMARK H PARENT
REMARK Flexibility Score: inf
ROOT
ATOM      1  C   UNL     1      10.026  63.120   9.027  1.00  0.00     0.000 C 
ENDROOT
BRANCH   1   2
ATOM      2  C   UNL     1       9.587  64.431   8.350  1.00  0.00     0.000 C 
BRANCH   2   3
ATOM      3  C   UNL     1      10.117  65.683   9.065  1.00  0.00     0.000 C 
BRANCH   3   4
ATOM      4  C   UNL     1       8.978  66.660   9.381  1.00  0.00     0.000 C 
BRANCH   4   5
ATOM      5  C   UNL     1       7.657  66.188   8.756  1.00  0.00     0.001 C 
BRANCH   5   6
ATOM      6  C   UNL     1       6.522  66.017   9.783  1.00  0.00     0.009 C 
BRANCH   6   7
ATOM      7  C   UNL     1       5.251  65.343   9.212  1.00  0.00     0.032 C 
ATOM      8  C   UNL     1       5.610  64.037   8.495  1.00  0.00     0.014 C 
BRANCH   7   9
ATOM      9  C   UNL     1       4.521  66.244   8.254  1.00  0.00     0.044 C 
ATOM     10  O   UNL     1       3.914  67.261   8.682  1.00  0.00    -0.550 OA
ATOM     11  O   UNL     1       4.476  65.941   6.897  1.00  0.00    -0.550 OA
ENDBRANCH   7   9
ENDBRANCH   6   7
ENDBRANCH   5   6
ENDBRANCH   4   5
ENDBRANCH   3   4
ENDBRANCH   2   3
ENDBRANCH   1   2
BRANCH   1  12
ATOM     12  C   UNL     1      11.509  62.751   8.834  1.00  0.00     0.000 C 
BRANCH  12  13
ATOM     13  C   UNL     1      11.785  62.070   7.482  1.00  0.00    -0.000 C 
BRANCH  13  14
ATOM     14  C   UNL     1      12.929  62.746   6.708  1.00  0.00    -0.000 C 
BRANCH  14  15
ATOM     15  C   UNL     1      13.396  64.052   7.372  1.00  0.00    -0.000 C 
BRANCH  15  16
ATOM     16  C   UNL     1      13.202  65.286   6.471  1.00  0.00    -0.000 C 
BRANCH  16  17
ATOM     17  C   UNL     1      12.220  65.091   5.301  1.00  0.00    -0.000 C 
BRANCH  17  18
ATOM     18  C   UNL     1      11.052  66.086   5.328  1.00  0.00    -0.003 C 
ATOM     19  C   UNL     1      11.438  67.366   6.063  1.00  0.00     0.004 C 
ENDBRANCH  17  18
ENDBRANCH  16  17
ENDBRANCH  15  16
ENDBRANCH  14  15
ENDBRANCH  13  14
ENDBRANCH  12  13
ENDBRANCH   1  12
TORSDOF 14
ENDMDL
MODEL 4
REMARK VINA RESULT:    -3.977      2.603      6.270
REMARK INTER + INTRA:          -8.923
REMARK INTER:                  -7.815
REMARK INTRA:                  -1.108
REMARK UNBOUND:                -1.691
REMARK SMILES CCCCCCCCCCCCCC[C@H](C)C(=O)[O-]
REMARK SMILES IDX 9 1 10 2 11 3 12 4 13 5 14 6 15 7 16 8 17 9 18 10 19 11 8 12
REMARK SMILES IDX 7 13 6 14 5 15 4 16 3 17 2 18 1 19
REMARK H PARENT
REMARK Flexibility Score: inf
ROOT
ATOM      1  C   UNL     1      11.547  62.089   7.878  1.00  0.00     0.000 C 
ENDROOT
BRANCH   1   2
ATOM      2  C   UNL     1      12.695  62.597   6.987  1.00  0.00     0.000 C 
BRANCH   2   3
ATOM      3  C   UNL     1      13.420  63.815   7.579  1.00  0.00     0.000 C 
BRANCH   3   4
ATOM      4  C   UNL     1      13.574  64.926   6.532  1.00  0.00     0.000 C 
BRANCH   4   5
ATOM      5  C   UNL     1      12.233  65.230   5.849  1.00  0.00     0.001 C 
BRANCH   5   6
ATOM      6  C   UNL     1      12.264  65.022   4.322  1.00  0.00     0.009 C 
BRANCH   6   7
ATOM      7  C   UNL     1      11.831  66.265   3.508  1.00  0.00     0.032 C 
ATOM      8  C   UNL     1      12.565  67.517   4.005  1.00  0.00     0.014 C 
BRANCH   7   9
ATOM      9  C   UNL     1      10.348  66.502   3.592  1.00  0.00     0.044 C 
ATOM     10  O   UNL     1       9.555  65.780   2.930  1.00  0.00    -0.550 OA
ATOM     11  O   UNL     1       9.843  67.541   4.366  1.00  0.00    -0.550 OA
ENDBRANCH   7   9
ENDBRANCH   6   7
ENDBRANCH   5   6
ENDBRANCH   4   5
ENDBRANCH   3   4
ENDBRANCH   2   3
ENDBRANCH   1   2
BRANCH   1  12
ATOM     12  C   UNL     1      11.015  63.109   8.902  1.00  0.00     0.000 C 
BRANCH  12  13
ATOM     13  C   UNL     1       9.844  63.948   8.359  1.00  0.00    -0.000 C 
BRANCH  13  14
ATOM     14  C   UNL     1       8.476  63.341   8.710  1.00  0.00    -0.000 C 
BRANCH  14  15
ATOM     15  C   UNL     1       7.350  64.391   8.709  1.00  0.00    -0.000 C 
BRANCH  15  16
ATOM     16  C   UNL     1       5.990  63.810   8.280  1.00  0.00    -0.000 C 
BRANCH  16  17
ATOM     17  C   UNL     1       4.786  64.286   9.114  1.00  0.00    -0.000 C 
BRANCH  17  18
ATOM     18  C   UNL     1       4.649  65.814   9.150  1.00  0.00    -0.003 C 
ATOM     19  C   UNL     1       4.349  66.372   7.762  1.00  0.00     0.004 C 
ENDBRANCH  17  18
ENDBRANCH  16  17
ENDBRANCH  15  16
ENDBRANCH  14  15
ENDBRANCH  13  14
ENDBRANCH  12  13
ENDBRANCH   1  12
TORSDOF 14
ENDMDL
MODEL 5
REMARK VINA RESULT:    -3.944      4.354      7.232
REMARK INTER + INTRA:          -8.863
REMARK INTER:                  -6.938
REMARK INTRA:                  -1.924
REMARK UNBOUND:                -1.691
REMARK SMILES CCCCCCCCCCCCCC[C@H](C)C(=O)[O-]
REMARK SMILES IDX 9 1 10 2 11 3 12 4 13 5 14 6 15 7 16 8 17 9 18 10 19 11 8 12
REMARK SMILES IDX 7 13 6 14 5 15 4 16 3 17 2 18 1 19
REMARK H PARENT
REMARK Flexibility Score: inf
ROOT
ATOM      1  C   UNL     1      12.457  64.676   5.389  1.00  0.00     0.000 C 
ENDROOT
BRANCH   1   2
ATOM      2  C   UNL     1      12.229  65.900   4.483  1.00  0.00     0.000 C 
BRANCH   2   3
ATOM      3  C   UNL     1      10.786  66.426   4.537  1.00  0.00     0.000 C 
BRANCH   3   4
ATOM      4  C   UNL     1      10.023  66.071   3.255  1.00  0.00     0.000 C 
BRANCH   4   5
ATOM      5  C   UNL     1       9.626  67.337   2.482  1.00  0.00     0.001 C 
BRANCH   5   6
ATOM      6  C   UNL     1      10.822  68.054   1.827  1.00  0.00     0.009 C 
BRANCH   6   7
ATOM      7  C   UNL     1      11.689  67.140   0.927  1.00  0.00     0.032 C 
ATOM      8  C   UNL     1      13.175  67.305   1.264  1.00  0.00     0.014 C 
BRANCH   7   9
ATOM      9  C   UNL     1      11.482  67.431  -0.534  1.00  0.00     0.044 C 
ATOM     10  O   UNL     1      10.640  68.297  -0.892  1.00  0.00    -0.550 OA
ATOM     11  O   UNL     1      12.186  66.722  -1.500  1.00  0.00    -0.550 OA
ENDBRANCH   7   9
ENDBRANCH   6   7
ENDBRANCH   5   6
ENDBRANCH   4   5
ENDBRANCH   3   4
ENDBRANCH   2   3
ENDBRANCH   1   2
BRANCH   1  12
ATOM     12  C   UNL     1      13.407  64.913   6.578  1.00  0.00     0.000 C 
BRANCH  12  13
ATOM     13  C   UNL     1      13.405  63.750   7.585  1.00  0.00    -0.000 C 
BRANCH  13  14
ATOM     14  C   UNL     1      12.626  62.528   7.070  1.00  0.00    -0.000 C 
BRANCH  14  15
ATOM     15  C   UNL     1      11.525  62.079   8.046  1.00  0.00    -0.000 C 
BRANCH  15  16
ATOM     16  C   UNL     1      11.013  63.224   8.940  1.00  0.00    -0.000 C 
BRANCH  16  17
ATOM     17  C   UNL     1       9.715  63.897   8.457  1.00  0.00    -0.000 C 
BRANCH  17  18
ATOM     18  C   UNL     1       9.915  65.365   8.056  1.00  0.00    -0.003 C 
ATOM     19  C   UNL     1      10.827  66.085   9.046  1.00  0.00     0.004 C 
ENDBRANCH  17  18
ENDBRANCH  16  17
ENDBRANCH  15  16
ENDBRANCH  14  15
ENDBRANCH  13  14
ENDBRANCH  12  13
ENDBRANCH   1  12
TORSDOF 14
ENDMDL
MODEL 6
REMARK VINA RESULT:    -3.920      2.963      5.515
REMARK INTER + INTRA:          -8.820
REMARK INTER:                  -6.287
REMARK INTRA:                  -2.533
REMARK UNBOUND:                -1.691
REMARK SMILES CCCCCCCCCCCCCC[C@H](C)C(=O)[O-]
REMARK SMILES IDX 9 1 10 2 11 3 12 4 13 5 14 6 15 7 16 8 17 9 18 10 19 11 8 12
REMARK SMILES IDX 7 13 6 14 5 15 4 16 3 17 2 18 1 19
REMARK H PARENT
REMARK Flexibility Score: inf
ROOT
ATOM      1  C   UNL     1      11.502  62.017   7.937  1.00  0.00     0.000 C 
ENDROOT
BRANCH   1   2
ATOM      2  C   UNL     1      12.628  62.500   7.005  1.00  0.00     0.000 C 
BRANCH   2   3
ATOM      3  C   UNL     1      13.403  63.698   7.572  1.00  0.00     0.000 C 
BRANCH   3   4
ATOM      4  C   UNL     1      13.558  64.802   6.518  1.00  0.00     0.000 C 
BRANCH   4   5
ATOM      5  C   UNL     1      12.594  64.581   5.343  1.00  0.00     0.001 C 
BRANCH   5   6
ATOM      6  C   UNL     1      12.188  65.887   4.632  1.00  0.00     0.009 C 
BRANCH   6   7
ATOM      7  C   UNL     1      10.659  66.079   4.492  1.00  0.00     0.032 C 
ATOM      8  C   UNL     1      10.216  65.833   3.045  1.00  0.00     0.014 C 
BRANCH   7   9
ATOM      9  C   UNL     1      10.226  67.458   4.909  1.00  0.00     0.044 C 
ATOM     10  O   UNL     1      11.076  68.284   5.336  1.00  0.00    -0.550 OA
ATOM     11  O   UNL     1       8.884  67.819   4.864  1.00  0.00    -0.550 OA
ENDBRANCH   7   9
ENDBRANCH   6   7
ENDBRANCH   5   6
ENDBRANCH   4   5
ENDBRANCH   3   4
ENDBRANCH   2   3
ENDBRANCH   1   2
BRANCH   1  12
ATOM     12  C   UNL     1      11.092  63.013   9.037  1.00  0.00     0.000 C 
BRANCH  12  13
ATOM     13  C   UNL     1       9.766  63.731   8.731  1.00  0.00    -0.000 C 
BRANCH  13  14
ATOM     14  C   UNL     1       9.970  65.015   7.908  1.00  0.00    -0.000 C 
BRANCH  14  15
ATOM     15  C   UNL     1      10.114  66.264   8.795  1.00  0.00    -0.000 C 
BRANCH  15  16
ATOM     16  C   UNL     1      11.467  66.976   8.612  1.00  0.00    -0.000 C 
BRANCH  16  17
ATOM     17  C   UNL     1      12.131  67.458   9.916  1.00  0.00    -0.000 C 
BRANCH  17  18
ATOM     18  C   UNL     1      12.373  66.323  10.920  1.00  0.00    -0.003 C 
ATOM     19  C   UNL     1      13.655  65.563  10.593  1.00  0.00     0.004 C 
ENDBRANCH  17  18
ENDBRANCH  16  17
ENDBRANCH  15  16
ENDBRANCH  14  15
ENDBRANCH  13  14
ENDBRANCH  12  13
ENDBRANCH   1  12
TORSDOF 14
ENDMDL
MODEL 7
REMARK VINA RESULT:    -3.897      3.796      6.060
REMARK INTER + INTRA:          -8.778
REMARK INTER:                  -6.737
REMARK INTRA:                  -2.042
REMARK UNBOUND:                -1.691
REMARK SMILES CCCCCCCCCCCCCC[C@H](C)C(=O)[O-]
REMARK SMILES IDX 9 1 10 2 11 3 12 4 13 5 14 6 15 7 16 8 17 9 18 10 19 11 8 12
REMARK SMILES IDX 7 13 6 14 5 15 4 16 3 17 2 18 1 19
REMARK H PARENT
REMARK Flexibility Score: inf
ROOT
ATOM      1  C   UNL     1       9.087  64.948   8.531  1.00  0.00     0.000 C 
ENDROOT
BRANCH   1   2
ATOM      2  C   UNL     1      10.252  65.889   8.172  1.00  0.00     0.000 C 
BRANCH   2   3
ATOM      3  C   UNL     1      10.424  66.080   6.658  1.00  0.00     0.000 C 
BRANCH   3   4
ATOM      4  C   UNL     1      10.983  67.472   6.340  1.00  0.00     0.000 C 
BRANCH   4   5
ATOM      5  C   UNL     1      11.305  67.609   4.845  1.00  0.00     0.001 C 
BRANCH   5   6
ATOM      6  C   UNL     1      10.242  66.969   3.931  1.00  0.00     0.009 C 
BRANCH   6   7
ATOM      7  C   UNL     1      10.830  66.110   2.786  1.00  0.00     0.032 C 
ATOM      8  C   UNL     1      11.855  65.111   3.334  1.00  0.00     0.014 C 
BRANCH   7   9
ATOM      9  C   UNL     1      11.488  66.957   1.730  1.00  0.00     0.044 C 
ATOM     10  O   UNL     1      12.739  66.930   1.589  1.00  0.00    -0.550 OA
ATOM     11  O   UNL     1      10.727  67.802   0.930  1.00  0.00    -0.550 OA
ENDBRANCH   7   9
ENDBRANCH   6   7
ENDBRANCH   5   6
ENDBRANCH   4   5
ENDBRANCH   3   4
ENDBRANCH   2   3
ENDBRANCH   1   2
BRANCH   1  12
ATOM     12  C   UNL     1       9.478  63.473   8.736  1.00  0.00     0.000 C 
BRANCH  12  13
ATOM     13  C   UNL     1      11.000  63.264   8.822  1.00  0.00    -0.000 C 
BRANCH  13  14
ATOM     14  C   UNL     1      11.483  62.102   7.937  1.00  0.00    -0.000 C 
BRANCH  14  15
ATOM     15  C   UNL     1      12.811  62.418   7.227  1.00  0.00    -0.000 C 
BRANCH  15  16
ATOM     16  C   UNL     1      12.806  63.790   6.528  1.00  0.00    -0.000 C 
BRANCH  16  17
ATOM     17  C   UNL     1      14.021  64.684   6.837  1.00  0.00    -0.000 C 
BRANCH  17  18
ATOM     18  C   UNL     1      14.080  65.126   8.306  1.00  0.00    -0.003 C 
ATOM     19  C   UNL     1      13.919  66.638   8.432  1.00  0.00     0.004 C 
ENDBRANCH  17  18
ENDBRANCH  16  17
ENDBRANCH  15  16
ENDBRANCH  14  15
ENDBRANCH  13  14
ENDBRANCH  12  13
ENDBRANCH   1  12
TORSDOF 14
ENDMDL
MODEL 8
REMARK VINA RESULT:    -3.897      3.888      6.318
REMARK INTER + INTRA:          -8.778
REMARK INTER:                  -6.604
REMARK INTRA:                  -2.174
REMARK UNBOUND:                -1.691
REMARK SMILES CCCCCCCCCCCCCC[C@H](C)C(=O)[O-]
REMARK SMILES IDX 9 1 10 2 11 3 12 4 13 5 14 6 15 7 16 8 17 9 18 10 19 11 8 12
REMARK SMILES IDX 7 13 6 14 5 15 4 16 3 17 2 18 1 19
REMARK H PARENT
REMARK Flexibility Score: inf
ROOT
ATOM      1  C   UNL     1      12.628  62.665   7.013  1.00  0.00     0.000 C 
ENDROOT
BRANCH   1   2
ATOM      2  C   UNL     1      13.442  63.859   7.545  1.00  0.00     0.000 C 
BRANCH   2   3
ATOM      3  C   UNL     1      13.488  65.039   6.562  1.00  0.00     0.000 C 
BRANCH   3   4
ATOM      4  C   UNL     1      12.547  64.801   5.374  1.00  0.00     0.000 C 
BRANCH   4   5
ATOM      5  C   UNL     1      11.330  65.735   5.439  1.00  0.00     0.001 C 
BRANCH   5   6
ATOM      6  C   UNL     1      11.526  67.048   4.657  1.00  0.00     0.009 C 
BRANCH   6   7
ATOM      7  C   UNL     1      10.867  67.051   3.256  1.00  0.00     0.032 C 
ATOM      8  C   UNL     1      10.003  65.800   3.064  1.00  0.00     0.014 C 
BRANCH   7   9
ATOM      9  C   UNL     1      11.891  67.113   2.155  1.00  0.00     0.044 C 
ATOM     10  O   UNL     1      13.118  67.165   2.436  1.00  0.00    -0.550 OA
ATOM     11  O   UNL     1      11.492  67.153   0.824  1.00  0.00    -0.550 OA
ENDBRANCH   7   9
ENDBRANCH   6   7
ENDBRANCH   5   6
ENDBRANCH   4   5
ENDBRANCH   3   4
ENDBRANCH   2   3
ENDBRANCH   1   2
BRANCH   1  12
ATOM     12  C   UNL     1      11.573  62.108   7.987  1.00  0.00     0.000 C 
BRANCH  12  13
ATOM     13  C   UNL     1      10.998  63.184   8.925  1.00  0.00    -0.000 C 
BRANCH  13  14
ATOM     14  C   UNL     1       9.742  63.857   8.345  1.00  0.00    -0.000 C 
BRANCH  14  15
ATOM     15  C   UNL     1       9.584  65.313   8.818  1.00  0.00    -0.000 C 
BRANCH  15  16
ATOM     16  C   UNL     1      10.929  65.981   9.160  1.00  0.00    -0.000 C 
BRANCH  16  17
ATOM     17  C   UNL     1      11.043  66.517  10.599  1.00  0.00    -0.000 C 
BRANCH  17  18
ATOM     18  C   UNL     1      12.095  65.774  11.433  1.00  0.00    -0.003 C 
ATOM     19  C   UNL     1      13.440  65.735  10.713  1.00  0.00     0.004 C 
ENDBRANCH  17  18
ENDBRANCH  16  17
ENDBRANCH  15  16
ENDBRANCH  14  15
ENDBRANCH  13  14
ENDBRANCH  12  13
ENDBRANCH   1  12
TORSDOF 14
ENDMDL
MODEL 9
REMARK VINA RESULT:    -3.790      1.766      2.964
REMARK INTER + INTRA:          -8.584
REMARK INTER:                  -6.292
REMARK INTRA:                  -2.292
REMARK UNBOUND:                -1.691
REMARK SMILES CCCCCCCCCCCCCC[C@H](C)C(=O)[O-]
REMARK SMILES IDX 9 1 10 2 11 3 12 4 13 5 14 6 15 7 16 8 17 9 18 10 19 11 8 12
REMARK SMILES IDX 7 13 6 14 5 15 4 16 3 17 2 18 1 19
REMARK H PARENT
REMARK Flexibility Score: inf
ROOT
ATOM      1  C   UNL     1      13.425  63.823   7.855  1.00  0.00     0.000 C 
ENDROOT
BRANCH   1   2
ATOM      2  C   UNL     1      12.751  62.601   7.205  1.00  0.00     0.000 C 
BRANCH   2   3
ATOM      3  C   UNL     1      11.506  62.126   7.970  1.00  0.00     0.000 C 
BRANCH   3   4
ATOM      4  C   UNL     1      11.117  63.130   9.063  1.00  0.00     0.000 C 
BRANCH   4   5
ATOM      5  C   UNL     1       9.778  63.808   8.737  1.00  0.00     0.001 C 
BRANCH   5   6
ATOM      6  C   UNL     1       9.914  64.986   7.752  1.00  0.00     0.009 C 
BRANCH   6   7
ATOM      7  C   UNL     1       9.671  66.374   8.392  1.00  0.00     0.032 C 
ATOM      8  C   UNL     1      10.617  66.593   9.578  1.00  0.00     0.014 C 
BRANCH   7   9
ATOM      9  C   UNL     1       8.251  66.534   8.862  1.00  0.00     0.044 C 
ATOM     10  O   UNL     1       8.012  66.811  10.068  1.00  0.00    -0.550 OA
ATOM     11  O   UNL     1       7.191  66.340   7.983  1.00  0.00    -0.550 OA
ENDBRANCH   7   9
ENDBRANCH   6   7
ENDBRANCH   5   6
ENDBRANCH   4   5
ENDBRANCH   3   4
ENDBRANCH   2   3
ENDBRANCH   1   2
BRANCH   1  12
ATOM     12  C   UNL     1      13.991  64.859   6.865  1.00  0.00     0.000 C 
BRANCH  12  13
ATOM     13  C   UNL     1      13.178  66.165   6.836  1.00  0.00    -0.000 C 
BRANCH  13  14
ATOM     14  C   UNL     1      12.573  66.449   5.451  1.00  0.00    -0.000 C 
BRANCH  14  15
ATOM     15  C   UNL     1      12.276  65.160   4.664  1.00  0.00    -0.000 C 
BRANCH  15  16
ATOM     16  C   UNL     1      11.439  65.412   3.396  1.00  0.00    -0.000 C 
BRANCH  16  17
ATOM     17  C   UNL     1      10.813  66.815   3.295  1.00  0.00    -0.000 C 
BRANCH  17  18
ATOM     18  C   UNL     1       9.304  66.818   3.574  1.00  0.00    -0.003 C 
ATOM     19  C   UNL     1       8.980  67.612   4.836  1.00  0.00     0.004 C 
ENDBRANCH  17  18
ENDBRANCH  16  17
ENDBRANCH  15  16
ENDBRANCH  14  15
ENDBRANCH  13  14
ENDBRANCH  12  13
ENDBRANCH   1  12
TORSDOF 14
ENDMDL
