MODEL 1
REMARK VINA RESULT:   106.454      0.000      0.000
REMARK INTER + INTRA:         122.398
REMARK INTER:                 122.013
REMARK INTRA:                   0.386
REMARK UNBOUND:                 0.386
REMARK SMILES C=C(C)[C@H]1CC[C@@]2(C(=O)[O-])CC[C@]3(C)[C@@H](CC[C@@H]4[C@]5(C)CC[C@@H](O)C(C)(C)[C@@H]5CC[C@@]43C)[C@@H]12
REMARK SMILES IDX 7 1 6 2 33 3 11 4 5 5 15 6 4 7 12 8 16 9 13 10 17 11 31 12
REMARK SMILES IDX 14 13 18 14 30 15 32 16 19 17 29 18 21 19 20 20 28 21 22 22
REMARK SMILES IDX 25 23 23 24 26 25 27 26 8 27 9 28 10 29 2 30 3 31 1 32 24 33
REMARK H PARENT 24 34
REMARK Flexibility Score: inf
ROOT
ATOM      1  C   UNL     1       9.225  39.181  14.623  1.00  0.00     0.014 C 
ATOM      2  C   UNL     1       8.508  37.875  15.063  1.00  0.00     0.014 C 
ATOM      3  C   UNL     1       8.286  40.355  15.069  1.00  0.00     0.012 C 
ATOM      4  C   UNL     1       9.426  39.167  13.082  1.00  0.00     0.014 C 
ATOM      5  C   UNL     1       7.076  38.243  15.415  1.00  0.00     0.009 C 
ATOM      6  C   UNL     1       7.883  41.351  13.908  1.00  0.00     0.000 C 
ATOM      7  C   UNL     1       7.148  39.695  15.891  1.00  0.00     0.018 C 
ATOM      8  C   UNL     1       9.840  40.526  12.472  1.00  0.00     0.008 C 
ATOM      9  C   UNL     1       6.704  40.854  13.023  1.00  0.00     0.005 C 
ATOM     10  C   UNL     1       9.135  41.809  13.072  1.00  0.00    -0.024 C 
ATOM     11  C   UNL     1       6.867  41.071  11.515  1.00  0.00     0.005 C 
ATOM     12  C   UNL     1       8.702  42.904  11.941  1.00  0.00    -0.024 C 
ATOM     13  C   UNL     1      10.169  42.465  14.054  1.00  0.00     0.012 C 
ATOM     14  C   UNL     1       7.358  42.496  11.164  1.00  0.00     0.002 C 
ATOM     15  C   UNL     1       9.901  43.159  10.967  1.00  0.00     0.008 C 
ATOM     16  C   UNL     1       8.418  44.283  12.640  1.00  0.00     0.012 C 
ATOM     17  C   UNL     1       7.171  42.940   9.610  1.00  0.00    -0.026 C 
ATOM     18  C   UNL     1       9.551  43.968   9.731  1.00  0.00     0.005 C 
ATOM     19  C   UNL     1       6.352  41.881   8.783  1.00  0.00     0.010 C 
ATOM     20  C   UNL     1       6.293  44.239   9.607  1.00  0.00     0.012 C 
ATOM     21  C   UNL     1       8.511  43.284   8.828  1.00  0.00     0.003 C 
ATOM     22  C   UNL     1       6.460  42.071   7.272  1.00  0.00     0.033 C 
ATOM     23  C   UNL     1       9.037  42.190   7.802  1.00  0.00    -0.006 C 
ATOM     24  C   UNL     1       7.899  41.882   6.742  1.00  0.00     0.120 C 
ATOM     25  C   UNL     1      10.291  42.708   7.037  1.00  0.00     0.014 C 
ATOM     26  C   UNL     1       9.480  40.867   8.488  1.00  0.00     0.014 C 
ENDROOT
BRANCH   1  27
ATOM     27  C   UNL     1      10.573  39.241  15.336  1.00  0.00     0.048 C 
ATOM     28  O   UNL     1      10.833  40.196  16.116  1.00  0.00    -0.550 OA
ATOM     29  O   UNL     1      11.511  38.223  15.191  1.00  0.00    -0.550 OA
ENDBRANCH   1  27
BRANCH   7  30
ATOM     30  C   UNL     1       5.837  40.475  15.987  1.00  0.00    -0.077 C 
ATOM     31  C   UNL     1       4.547  39.709  16.125  1.00  0.00     0.039 C 
ATOM     32  C   UNL     1       5.764  41.814  15.870  1.00  0.00     0.008 C 
ENDBRANCH   7  30
BRANCH  24  33
ATOM     33  O   UNL     1       8.043  42.696   5.599  1.00  0.00    -0.393 OA
ATOM     34  H   UNL     1       7.596  43.560   5.794  1.00  0.00     0.210 HD
ENDBRANCH  24  33
TORSDOF 3
ENDMDL
