MODEL 1
REMARK VINA RESULT:    -4.721      0.000      0.000
REMARK INTER + INTRA:          -7.141
REMARK INTER:                  -7.204
REMARK INTRA:                   0.064
REMARK UNBOUND:                 0.064
REMARK SMILES CC1=CCC[C@@H](C)C(=O)C[C@H](C(C)C)C(=O)C1
REMARK SMILES IDX 8 1 9 2 6 3 7 4 5 5 4 6 3 7 2 8 1 9 10 11 11 12 15 13 16 14
REMARK SMILES IDX 17 15 12 17 13 18 14 19
REMARK H PARENT
REMARK Flexibility Score: 70.00
ROOT
ATOM      1  C   UNL     1      13.028 -16.207 -28.889  1.00  0.00     0.136 C 
ATOM      2  O   UNL     1      13.923 -15.757 -29.590  1.00  0.00    -0.299 OA
ENDROOT
BRANCH   1   3
ATOM      3  C   UNL     1      13.396 -17.199 -27.799  1.00  0.00     0.053 C 
ATOM      4  C   UNL     1      14.133 -16.504 -26.647  1.00  0.00     0.016 C 
BRANCH   3   5
ATOM      5  C   UNL     1      14.213 -18.393 -28.335  1.00  0.00     0.015 C 
BRANCH   5   6
ATOM      6  C   UNL     1      13.328 -19.599 -28.732  1.00  0.00     0.028 C 
BRANCH   6   7
ATOM      7  C   UNL     1      13.218 -19.716 -30.234  1.00  0.00    -0.028 C 
ATOM      8  C   UNL     1      12.080 -19.546 -30.952  1.00  0.00    -0.070 CG0
ATOM      9  C   UNL     1      12.182 -19.574 -32.455  1.00  0.00     0.039 C 
ATOM     10  G   UNL     1      10.715 -19.339 -30.314  1.00  0.00     0.000 G0
ENDBRANCH   6   7
ENDBRANCH   5   6
ENDBRANCH   3   5
ENDBRANCH   1   3
BRANCH   1  11
ATOM     11  C   UNL     1      11.607 -15.747 -29.154  1.00  0.00     0.087 C 
BRANCH  11  12
ATOM     12  C   UNL     1      10.845 -16.655 -30.158  1.00  0.00     0.066 C 
BRANCH  12  13
ATOM     13  C   UNL     1      10.532 -18.027 -29.568  1.00  0.00     0.140 C 
ATOM     14  O   UNL     1      10.105 -18.091 -28.425  1.00  0.00    -0.299 OA
BRANCH  13  15
ATOM     15  C   UNL     1      10.719 -19.334 -30.318  1.00  0.00     0.106 CG0
ATOM     16  G   UNL     1      12.089 -19.545 -30.945  1.00  0.00     0.000 G0
ENDBRANCH  13  15
ENDBRANCH  12  13
BRANCH  12  17
ATOM     17  C   UNL     1       9.562 -15.998 -30.761  1.00  0.00    -0.006 C 
ATOM     18  C   UNL     1       9.126 -14.695 -30.070  1.00  0.00     0.008 C 
ATOM     19  C   UNL     1       9.702 -15.764 -32.274  1.00  0.00     0.008 C 
ENDBRANCH  12  17
ENDBRANCH  11  12
ENDBRANCH   1  11
TORSDOF 1
ENDMDL
MODEL 2
REMARK VINA RESULT:    -4.621      2.307      3.939
REMARK INTER + INTRA:          -6.989
REMARK INTER:                  -7.102
REMARK INTRA:                   0.114
REMARK UNBOUND:                 0.064
REMARK SMILES CC1=CCC[C@@H](C)C(=O)C[C@H](C(C)C)C(=O)C1
REMARK SMILES IDX 8 1 9 2 6 3 7 4 5 5 4 6 3 7 2 8 1 9 10 11 11 12 15 13 16 14
REMARK SMILES IDX 17 15 12 17 13 18 14 19
REMARK H PARENT
REMARK Flexibility Score: 70.00
ROOT
ATOM      1  C   UNL     1       9.819 -16.244 -31.704  1.00  0.00     0.136 C 
ATOM      2  O   UNL     1       9.506 -15.294 -32.407  1.00  0.00    -0.299 OA
ENDROOT
BRANCH   1   3
ATOM      3  C   UNL     1       9.581 -16.141 -30.206  1.00  0.00     0.053 C 
ATOM      4  C   UNL     1       8.882 -14.824 -29.848  1.00  0.00     0.016 C 
BRANCH   3   5
ATOM      5  C   UNL     1      10.876 -16.319 -29.387  1.00  0.00     0.015 C 
BRANCH   5   6
ATOM      6  C   UNL     1      10.752 -17.403 -28.291  1.00  0.00     0.028 C 
BRANCH   6   7
ATOM      7  C   UNL     1      12.052 -18.154 -28.124  1.00  0.00    -0.028 C 
ATOM      8  C   UNL     1      12.515 -19.115 -28.962  1.00  0.00    -0.070 CG0
ATOM      9  C   UNL     1      13.895 -19.667 -28.710  1.00  0.00     0.039 C 
ATOM     10  G   UNL     1      11.709 -19.662 -30.130  1.00  0.00     0.000 G0
ENDBRANCH   6   7
ENDBRANCH   5   6
ENDBRANCH   3   5
ENDBRANCH   1   3
BRANCH   1  11
ATOM     11  C   UNL     1      10.426 -17.464 -32.370  1.00  0.00     0.087 C 
BRANCH  11  12
ATOM     12  C   UNL     1      11.911 -17.700 -31.982  1.00  0.00     0.066 C 
BRANCH  12  13
ATOM     13  C   UNL     1      12.161 -19.131 -31.512  1.00  0.00     0.140 C 
ATOM     14  O   UNL     1      12.737 -19.903 -32.264  1.00  0.00    -0.299 OA
BRANCH  13  15
ATOM     15  C   UNL     1      11.734 -19.664 -30.157  1.00  0.00     0.106 CG0
ATOM     16  G   UNL     1      12.519 -19.141 -28.964  1.00  0.00     0.000 G0
ENDBRANCH  13  15
ENDBRANCH  12  13
BRANCH  12  17
ATOM     17  C   UNL     1      12.931 -17.289 -33.090  1.00  0.00    -0.006 C 
ATOM     18  C   UNL     1      12.319 -16.504 -34.263  1.00  0.00     0.008 C 
ATOM     19  C   UNL     1      14.120 -16.508 -32.506  1.00  0.00     0.008 C 
ENDBRANCH  12  17
ENDBRANCH  11  12
ENDBRANCH   1  11
TORSDOF 1
ENDMDL
MODEL 3
REMARK VINA RESULT:    -4.546      1.838      4.086
REMARK INTER + INTRA:          -6.874
REMARK INTER:                  -7.082
REMARK INTRA:                   0.208
REMARK UNBOUND:                 0.064
REMARK SMILES CC1=CCC[C@@H](C)C(=O)C[C@H](C(C)C)C(=O)C1
REMARK SMILES IDX 8 1 9 2 6 3 7 4 5 5 4 6 3 7 2 8 1 9 10 11 11 12 15 13 16 14
REMARK SMILES IDX 17 15 12 17 13 18 14 19
REMARK H PARENT
REMARK Flexibility Score: 70.00
ROOT
ATOM      1  C   UNL     1      13.242 -17.191 -28.151  1.00  0.00     0.136 C 
ATOM      2  O   UNL     1      14.080 -17.455 -27.301  1.00  0.00    -0.299 OA
ENDROOT
BRANCH   1   3
ATOM      3  C   UNL     1      11.860 -16.758 -27.690  1.00  0.00     0.053 C 
ATOM      4  C   UNL     1      11.008 -17.968 -27.290  1.00  0.00     0.016 C 
BRANCH   3   5
ATOM      5  C   UNL     1      11.131 -15.892 -28.738  1.00  0.00     0.015 C 
BRANCH   5   6
ATOM      6  C   UNL     1      10.064 -16.680 -29.535  1.00  0.00     0.028 C 
BRANCH   6   7
ATOM      7  C   UNL     1       9.830 -16.054 -30.889  1.00  0.00    -0.028 C 
ATOM      8  C   UNL     1      10.163 -16.613 -32.079  1.00  0.00    -0.070 CG0
ATOM      9  C   UNL     1       9.738 -15.901 -33.338  1.00  0.00     0.039 C 
ATOM     10  G   UNL     1      10.946 -17.911 -32.201  1.00  0.00     0.000 G0
ENDBRANCH   6   7
ENDBRANCH   5   6
ENDBRANCH   3   5
ENDBRANCH   1   3
BRANCH   1  11
ATOM     11  C   UNL     1      13.634 -17.312 -29.612  1.00  0.00     0.087 C 
BRANCH  11  12
ATOM     12  C   UNL     1      12.830 -18.401 -30.374  1.00  0.00     0.066 C 
BRANCH  12  13
ATOM     13  C   UNL     1      12.380 -17.922 -31.752  1.00  0.00     0.140 C 
ATOM     14  O   UNL     1      13.222 -17.504 -32.532  1.00  0.00    -0.299 OA
BRANCH  13  15
ATOM     15  C   UNL     1      10.936 -17.930 -32.221  1.00  0.00     0.106 CG0
ATOM     16  G   UNL     1      10.187 -16.615 -32.074  1.00  0.00     0.000 G0
ENDBRANCH  13  15
ENDBRANCH  12  13
BRANCH  12  17
ATOM     17  C   UNL     1      13.560 -19.778 -30.471  1.00  0.00    -0.006 C 
ATOM     18  C   UNL     1      14.192 -20.262 -29.154  1.00  0.00     0.008 C 
ATOM     19  C   UNL     1      12.638 -20.870 -31.038  1.00  0.00     0.008 C 
ENDBRANCH  12  17
ENDBRANCH  11  12
ENDBRANCH   1  11
TORSDOF 1
ENDMDL
MODEL 4
REMARK VINA RESULT:    -4.494      1.680      2.010
REMARK INTER + INTRA:          -6.794
REMARK INTER:                  -6.896
REMARK INTRA:                   0.102
REMARK UNBOUND:                 0.064
REMARK SMILES CC1=CCC[C@@H](C)C(=O)C[C@H](C(C)C)C(=O)C1
REMARK SMILES IDX 8 1 9 2 6 3 7 4 5 5 4 6 3 7 2 8 1 9 10 11 11 12 15 13 16 14
REMARK SMILES IDX 17 15 12 17 13 18 14 19
REMARK H PARENT
REMARK Flexibility Score: 70.00
ROOT
ATOM      1  C   UNL     1      11.994 -17.148 -28.472  1.00  0.00     0.136 C 
ATOM      2  O   UNL     1      11.901 -18.231 -27.912  1.00  0.00    -0.299 OA
ENDROOT
BRANCH   1   3
ATOM      3  C   UNL     1      13.382 -16.623 -28.800  1.00  0.00     0.053 C 
ATOM      4  C   UNL     1      13.708 -15.373 -27.975  1.00  0.00     0.016 C 
BRANCH   3   5
ATOM      5  C   UNL     1      13.573 -16.355 -30.307  1.00  0.00     0.015 C 
BRANCH   5   6
ATOM      6  C   UNL     1      13.728 -17.653 -31.136  1.00  0.00     0.028 C 
BRANCH   6   7
ATOM      7  C   UNL     1      12.945 -17.567 -32.425  1.00  0.00    -0.028 C 
ATOM      8  C   UNL     1      11.687 -18.035 -32.610  1.00  0.00    -0.070 CG0
ATOM      9  C   UNL     1      11.013 -17.748 -33.927  1.00  0.00     0.039 C 
ATOM     10  G   UNL     1      10.933 -18.839 -31.562  1.00  0.00     0.000 G0
ENDBRANCH   6   7
ENDBRANCH   5   6
ENDBRANCH   3   5
ENDBRANCH   1   3
BRANCH   1  11
ATOM     11  C   UNL     1      10.718 -16.397 -28.804  1.00  0.00     0.087 C 
BRANCH  11  12
ATOM     12  C   UNL     1      10.256 -16.593 -30.274  1.00  0.00     0.066 C 
BRANCH  12  13
ATOM     13  C   UNL     1      10.045 -18.064 -30.618  1.00  0.00     0.140 C 
ATOM     14  O   UNL     1       9.113 -18.661 -30.100  1.00  0.00    -0.299 OA
BRANCH  13  15
ATOM     15  C   UNL     1      10.929 -18.846 -31.573  1.00  0.00     0.106 CG0
ATOM     16  G   UNL     1      11.683 -18.018 -32.603  1.00  0.00     0.000 G0
ENDBRANCH  13  15
ENDBRANCH  12  13
BRANCH  12  17
ATOM     17  C   UNL     1       9.006 -15.741 -30.665  1.00  0.00    -0.006 C 
ATOM     18  C   UNL     1       8.877 -14.409 -29.907  1.00  0.00     0.008 C 
ATOM     19  C   UNL     1       8.945 -15.487 -32.180  1.00  0.00     0.008 C 
ENDBRANCH  12  17
ENDBRANCH  11  12
ENDBRANCH   1  11
TORSDOF 1
ENDMDL
MODEL 5
REMARK VINA RESULT:    -4.386      2.150      4.732
REMARK INTER + INTRA:          -6.629
REMARK INTER:                  -6.476
REMARK INTRA:                  -0.153
REMARK UNBOUND:                 0.064
REMARK SMILES CC1=CCC[C@@H](C)C(=O)C[C@H](C(C)C)C(=O)C1
REMARK SMILES IDX 8 1 9 2 6 3 7 4 5 5 4 6 3 7 2 8 1 9 10 11 11 12 15 13 16 14
REMARK SMILES IDX 17 15 12 17 13 18 14 19
REMARK H PARENT
REMARK Flexibility Score: 70.00
ROOT
ATOM      1  C   UNL     1      11.114 -16.636 -29.059  1.00  0.00     0.136 C 
ATOM      2  O   UNL     1      11.295 -16.726 -27.853  1.00  0.00    -0.299 OA
ENDROOT
BRANCH   1   3
ATOM      3  C   UNL     1       9.689 -16.480 -29.564  1.00  0.00     0.053 C 
ATOM      4  C   UNL     1       9.066 -17.843 -29.889  1.00  0.00     0.016 C 
BRANCH   3   5
ATOM      5  C   UNL     1       9.591 -15.526 -30.773  1.00  0.00     0.015 C 
BRANCH   5   6
ATOM      6  C   UNL     1       9.117 -16.235 -32.064  1.00  0.00     0.028 C 
BRANCH   6   7
ATOM      7  C   UNL     1       9.784 -15.642 -33.282  1.00  0.00    -0.028 C 
ATOM      8  C   UNL     1      10.797 -16.216 -33.978  1.00  0.00    -0.070 CG0
ATOM      9  C   UNL     1      11.255 -15.540 -35.245  1.00  0.00     0.039 C 
ATOM     10  G   UNL     1      11.491 -17.496 -33.538  1.00  0.00     0.000 G0
ENDBRANCH   6   7
ENDBRANCH   5   6
ENDBRANCH   3   5
ENDBRANCH   1   3
BRANCH   1  11
ATOM     11  C   UNL     1      12.323 -16.686 -29.974  1.00  0.00     0.087 C 
BRANCH  11  12
ATOM     12  C   UNL     1      12.267 -17.850 -31.001  1.00  0.00     0.066 C 
BRANCH  12  13
ATOM     13  C   UNL     1      12.515 -17.369 -32.428  1.00  0.00     0.140 C 
ATOM     14  O   UNL     1      13.584 -16.837 -32.690  1.00  0.00    -0.299 OA
BRANCH  13  15
ATOM     15  C   UNL     1      11.509 -17.507 -33.556  1.00  0.00     0.106 CG0
ATOM     16  G   UNL     1      10.800 -16.227 -33.970  1.00  0.00     0.000 G0
ENDBRANCH  13  15
ENDBRANCH  12  13
BRANCH  12  17
ATOM     17  C   UNL     1      13.195 -19.055 -30.647  1.00  0.00    -0.006 C 
ATOM     18  C   UNL     1      13.458 -19.240 -29.143  1.00  0.00     0.008 C 
ATOM     19  C   UNL     1      12.672 -20.370 -31.250  1.00  0.00     0.008 C 
ENDBRANCH  12  17
ENDBRANCH  11  12
ENDBRANCH   1  11
TORSDOF 1
ENDMDL
MODEL 6
REMARK VINA RESULT:    -4.280      1.885      3.255
REMARK INTER + INTRA:          -6.468
REMARK INTER:                  -6.480
REMARK INTRA:                   0.012
REMARK UNBOUND:                 0.064
REMARK SMILES CC1=CCC[C@@H](C)C(=O)C[C@H](C(C)C)C(=O)C1
REMARK SMILES IDX 8 1 9 2 6 3 7 4 5 5 4 6 3 7 2 8 1 9 10 11 11 12 15 13 16 14
REMARK SMILES IDX 17 15 12 17 13 18 14 19
REMARK H PARENT
REMARK Flexibility Score: 70.00
ROOT
ATOM      1  C   UNL     1      13.046 -17.539 -31.514  1.00  0.00     0.136 C 
ATOM      2  O   UNL     1      13.810 -16.873 -30.831  1.00  0.00    -0.299 OA
ENDROOT
BRANCH   1   3
ATOM      3  C   UNL     1      13.380 -19.002 -31.752  1.00  0.00     0.053 C 
ATOM      4  C   UNL     1      12.242 -19.716 -32.492  1.00  0.00     0.016 C 
BRANCH   3   5
ATOM      5  C   UNL     1      13.744 -19.746 -30.450  1.00  0.00     0.015 C 
BRANCH   5   6
ATOM      6  C   UNL     1      12.529 -19.955 -29.516  1.00  0.00     0.028 C 
BRANCH   6   7
ATOM      7  C   UNL     1      12.525 -18.938 -28.400  1.00  0.00    -0.028 C 
ATOM      8  C   UNL     1      11.489 -18.119 -28.090  1.00  0.00    -0.070 CG0
ATOM      9  C   UNL     1      11.615 -17.255 -26.862  1.00  0.00     0.039 C 
ATOM     10  G   UNL     1      10.220 -18.027 -28.923  1.00  0.00     0.000 G0
ENDBRANCH   6   7
ENDBRANCH   5   6
ENDBRANCH   3   5
ENDBRANCH   1   3
BRANCH   1  11
ATOM     11  C   UNL     1      11.811 -16.863 -32.081  1.00  0.00     0.087 C 
BRANCH  11  12
ATOM     12  C   UNL     1      10.483 -17.444 -31.525  1.00  0.00     0.066 C 
BRANCH  12  13
ATOM     13  C   UNL     1      10.243 -17.041 -30.073  1.00  0.00     0.140 C 
ATOM     14  O   UNL     1      10.074 -15.859 -29.813  1.00  0.00    -0.299 OA
BRANCH  13  15
ATOM     15  C   UNL     1      10.203 -18.023 -28.917  1.00  0.00     0.106 CG0
ATOM     16  G   UNL     1      11.470 -18.112 -28.080  1.00  0.00     0.000 G0
ENDBRANCH  13  15
ENDBRANCH  12  13
BRANCH  12  17
ATOM     17  C   UNL     1       9.233 -17.130 -32.407  1.00  0.00    -0.006 C 
ATOM     18  C   UNL     1       9.344 -15.838 -33.235  1.00  0.00     0.008 C 
ATOM     19  C   UNL     1       8.877 -18.309 -33.327  1.00  0.00     0.008 C 
ENDBRANCH  12  17
ENDBRANCH  11  12
ENDBRANCH   1  11
TORSDOF 1
ENDMDL
MODEL 7
REMARK VINA RESULT:    -4.247      1.894      4.329
REMARK INTER + INTRA:          -6.418
REMARK INTER:                  -6.507
REMARK INTRA:                   0.090
REMARK UNBOUND:                 0.064
REMARK SMILES CC1=CCC[C@@H](C)C(=O)C[C@H](C(C)C)C(=O)C1
REMARK SMILES IDX 8 1 9 2 6 3 7 4 5 5 4 6 3 7 2 8 1 9 10 11 11 12 15 13 16 14
REMARK SMILES IDX 17 15 12 17 13 18 14 19
REMARK H PARENT
REMARK Flexibility Score: 70.00
ROOT
ATOM      1  C   UNL     1       9.970 -16.370 -30.149  1.00  0.00     0.136 C 
ATOM      2  O   UNL     1       8.914 -16.552 -29.559  1.00  0.00    -0.299 OA
ENDROOT
BRANCH   1   3
ATOM      3  C   UNL     1       9.933 -16.207 -31.659  1.00  0.00     0.053 C 
ATOM      4  C   UNL     1       9.094 -14.989 -32.062  1.00  0.00     0.016 C 
BRANCH   3   5
ATOM      5  C   UNL     1       9.441 -17.479 -32.381  1.00  0.00     0.015 C 
BRANCH   5   6
ATOM      6  C   UNL     1      10.574 -18.228 -33.122  1.00  0.00     0.028 C 
BRANCH   6   7
ATOM      7  C   UNL     1      11.854 -17.429 -33.100  1.00  0.00    -0.028 C 
ATOM      8  C   UNL     1      12.912 -17.664 -32.284  1.00  0.00    -0.070 CG0
ATOM      9  C   UNL     1      14.159 -16.844 -32.489  1.00  0.00     0.039 C 
ATOM     10  G   UNL     1      12.893 -18.705 -31.175  1.00  0.00     0.000 G0
ENDBRANCH   6   7
ENDBRANCH   5   6
ENDBRANCH   3   5
ENDBRANCH   1   3
BRANCH   1  11
ATOM     11  C   UNL     1      11.249 -16.320 -29.336  1.00  0.00     0.087 C 
BRANCH  11  12
ATOM     12  C   UNL     1      11.775 -17.725 -28.931  1.00  0.00     0.066 C 
BRANCH  12  13
ATOM     13  C   UNL     1      12.989 -18.143 -29.756  1.00  0.00     0.140 C 
ATOM     14  O   UNL     1      14.101 -18.027 -29.264  1.00  0.00    -0.299 OA
BRANCH  13  15
ATOM     15  C   UNL     1      12.903 -18.700 -31.165  1.00  0.00     0.106 CG0
ATOM     16  G   UNL     1      12.896 -17.670 -32.284  1.00  0.00     0.000 G0
ENDBRANCH  13  15
ENDBRANCH  12  13
BRANCH  12  17
ATOM     17  C   UNL     1      12.055 -17.882 -27.403  1.00  0.00    -0.006 C 
ATOM     18  C   UNL     1      12.842 -16.719 -26.774  1.00  0.00     0.008 C 
ATOM     19  C   UNL     1      10.760 -18.123 -26.610  1.00  0.00     0.008 C 
ENDBRANCH  12  17
ENDBRANCH  11  12
ENDBRANCH   1  11
TORSDOF 1
ENDMDL
MODEL 8
REMARK VINA RESULT:    -4.219      1.783      2.442
REMARK INTER + INTRA:          -6.375
REMARK INTER:                  -6.793
REMARK INTRA:                   0.418
REMARK UNBOUND:                 0.064
REMARK SMILES CC1=CCC[C@@H](C)C(=O)C[C@H](C(C)C)C(=O)C1
REMARK SMILES IDX 8 1 9 2 6 3 7 4 5 5 4 6 3 7 2 8 1 9 10 11 11 12 15 13 16 14
REMARK SMILES IDX 17 15 12 17 13 18 14 19
REMARK H PARENT
REMARK Flexibility Score: 70.00
ROOT
ATOM      1  C   UNL     1      13.094 -16.057 -29.788  1.00  0.00     0.136 C 
ATOM      2  O   UNL     1      14.125 -16.140 -30.441  1.00  0.00    -0.299 OA
ENDROOT
BRANCH   1   3
ATOM      3  C   UNL     1      13.172 -15.467 -28.390  1.00  0.00     0.053 C 
ATOM      4  C   UNL     1      14.432 -14.609 -28.223  1.00  0.00     0.016 C 
BRANCH   3   5
ATOM      5  C   UNL     1      13.086 -16.542 -27.288  1.00  0.00     0.015 C 
BRANCH   5   6
ATOM      6  C   UNL     1      12.088 -17.675 -27.627  1.00  0.00     0.028 C 
BRANCH   6   7
ATOM      7  C   UNL     1      12.816 -18.966 -27.918  1.00  0.00    -0.028 C 
ATOM      8  C   UNL     1      12.621 -19.747 -29.010  1.00  0.00    -0.070 CG0
ATOM      9  C   UNL     1      13.529 -20.935 -29.200  1.00  0.00     0.039 C 
ATOM     10  G   UNL     1      11.532 -19.484 -30.038  1.00  0.00     0.000 G0
ENDBRANCH   6   7
ENDBRANCH   5   6
ENDBRANCH   3   5
ENDBRANCH   1   3
BRANCH   1  11
ATOM     11  C   UNL     1      11.803 -16.549 -30.415  1.00  0.00     0.087 C 
BRANCH  11  12
ATOM     12  C   UNL     1      12.029 -17.415 -31.685  1.00  0.00     0.066 C 
BRANCH  12  13
ATOM     13  C   UNL     1      12.005 -18.909 -31.373  1.00  0.00     0.140 C 
ATOM     14  O   UNL     1      12.383 -19.693 -32.230  1.00  0.00    -0.299 OA
BRANCH  13  15
ATOM     15  C   UNL     1      11.534 -19.490 -30.052  1.00  0.00     0.106 CG0
ATOM     16  G   UNL     1      12.620 -19.747 -29.019  1.00  0.00     0.000 G0
ENDBRANCH  13  15
ENDBRANCH  12  13
BRANCH  12  17
ATOM     17  C   UNL     1      11.065 -17.074 -32.866  1.00  0.00    -0.006 C 
ATOM     18  C   UNL     1       9.905 -16.135 -32.494  1.00  0.00     0.008 C 
ATOM     19  C   UNL     1      11.827 -16.506 -34.074  1.00  0.00     0.008 C 
ENDBRANCH  12  17
ENDBRANCH  11  12
ENDBRANCH   1  11
TORSDOF 1
ENDMDL
MODEL 9
REMARK VINA RESULT:    -4.142      1.954      2.994
REMARK INTER + INTRA:          -6.257
REMARK INTER:                  -6.051
REMARK INTRA:                  -0.207
REMARK UNBOUND:                 0.064
REMARK SMILES CC1=CCC[C@@H](C)C(=O)C[C@H](C(C)C)C(=O)C1
REMARK SMILES IDX 8 1 9 2 6 3 7 4 5 5 4 6 3 7 2 8 1 9 10 11 11 12 15 13 16 14
REMARK SMILES IDX 17 15 12 17 13 18 14 19
REMARK H PARENT
REMARK Flexibility Score: 70.00
ROOT
ATOM      1  C   UNL     1      10.134 -16.493 -29.858  1.00  0.00     0.136 C 
ATOM      2  O   UNL     1       9.514 -15.505 -29.493  1.00  0.00    -0.299 OA
ENDROOT
BRANCH   1   3
ATOM      3  C   UNL     1      11.220 -17.041 -28.946  1.00  0.00     0.053 C 
ATOM      4  C   UNL     1      10.708 -17.194 -27.509  1.00  0.00     0.016 C 
BRANCH   3   5
ATOM      5  C   UNL     1      12.509 -16.194 -28.985  1.00  0.00     0.015 C 
BRANCH   5   6
ATOM      6  C   UNL     1      13.737 -16.988 -29.489  1.00  0.00     0.028 C 
BRANCH   6   7
ATOM      7  C   UNL     1      13.423 -18.461 -29.591  1.00  0.00    -0.028 C 
ATOM      8  C   UNL     1      13.171 -19.131 -30.743  1.00  0.00    -0.070 CG0
ATOM      9  C   UNL     1      13.003 -20.627 -30.669  1.00  0.00     0.039 C 
ATOM     10  G   UNL     1      13.043 -18.446 -32.095  1.00  0.00     0.000 G0
ENDBRANCH   6   7
ENDBRANCH   5   6
ENDBRANCH   3   5
ENDBRANCH   1   3
BRANCH   1  11
ATOM     11  C   UNL     1       9.781 -17.111 -31.198  1.00  0.00     0.087 C 
BRANCH  11  12
ATOM     12  C   UNL     1      10.874 -16.893 -32.281  1.00  0.00     0.066 C 
BRANCH  12  13
ATOM     13  C   UNL     1      11.640 -18.176 -32.589  1.00  0.00     0.140 C 
ATOM     14  O   UNL     1      11.096 -19.037 -33.264  1.00  0.00    -0.299 OA
BRANCH  13  15
ATOM     15  C   UNL     1      13.051 -18.457 -32.104  1.00  0.00     0.106 CG0
ATOM     16  G   UNL     1      13.162 -19.118 -30.739  1.00  0.00     0.000 G0
ENDBRANCH  13  15
ENDBRANCH  12  13
BRANCH  12  17
ATOM     17  C   UNL     1      10.346 -16.228 -33.591  1.00  0.00    -0.006 C 
ATOM     18  C   UNL     1       9.552 -14.928 -33.374  1.00  0.00     0.008 C 
ATOM     19  C   UNL     1      11.480 -15.982 -34.599  1.00  0.00     0.008 C 
ENDBRANCH  12  17
ENDBRANCH  11  12
ENDBRANCH   1  11
TORSDOF 1
ENDMDL
