MODEL 1
REMARK VINA RESULT:    -8.935      0.000      0.000
REMARK INTER + INTRA:         -13.360
REMARK INTER:                 -12.331
REMARK INTRA:                  -1.029
REMARK UNBOUND:                -1.029
REMARK SMILES O=C([O-])[C@@H]1O[C@@H](Oc2cc3oc(-c4ccccc4)cc(=O)c3c(O)c2O)[C@H](O)[C@H](O)[C@@H]1O
REMARK SMILES IDX 7 1 6 2 4 3 31 4 5 5 29 6 27 7 2 8 1 9 3 10 32 11 30 13
REMARK SMILES IDX 28 15 8 17 25 18 9 19 23 20 10 21 22 22 11 23 20 24 12 25
REMARK SMILES IDX 19 26 21 27 26 28 24 30 13 32 14 33 18 34 15 35 17 36 16 37
REMARK H PARENT 32 12 30 14 28 16 26 29 24 31
REMARK Flexibility Score: inf
ROOT
ATOM      1  O   UNL     1      47.835  41.567  46.680  1.00  0.00    -0.458 OA
ENDROOT
BRANCH   1   2
ATOM      2  C   UNL     1      48.553  40.859  45.660  1.00  0.00     0.339 C 
ATOM      3  C   UNL     1      48.916  39.015  47.077  1.00  0.00     0.199 C 
ATOM      4  C   UNL     1      50.445  39.223  47.133  1.00  0.00     0.180 C 
ATOM      5  O   UNL     1      48.389  39.457  45.833  1.00  0.00    -0.328 OA
ATOM      6  C   UNL     1      50.748  40.717  46.908  1.00  0.00     0.181 C 
ATOM      7  C   UNL     1      50.052  41.241  45.634  1.00  0.00     0.214 C 
BRANCH   3   8
ATOM      8  C   UNL     1      48.575  37.567  47.267  1.00  0.00     0.073 C 
ATOM      9  O   UNL     1      48.593  36.778  46.284  1.00  0.00    -0.547 OA
ATOM     10  O   UNL     1      48.185  37.096  48.516  1.00  0.00    -0.547 OA
ENDBRANCH   3   8
BRANCH   4  11
ATOM     11  O   UNL     1      51.080  38.446  46.145  1.00  0.00    -0.387 OA
ATOM     12  H   UNL     1      50.535  37.626  46.024  1.00  0.00     0.211 HD
ENDBRANCH   4  11
BRANCH   6  13
ATOM     13  O   UNL     1      52.131  40.978  46.896  1.00  0.00    -0.387 OA
ATOM     14  H   UNL     1      52.263  41.959  46.855  1.00  0.00     0.211 HD
ENDBRANCH   6  13
BRANCH   7  15
ATOM     15  O   UNL     1      50.639  40.690  44.481  1.00  0.00    -0.384 OA
ATOM     16  H   UNL     1      50.443  39.717  44.489  1.00  0.00     0.211 HD
ENDBRANCH   7  15
ENDBRANCH   1   2
BRANCH   1  17
ATOM     17  C   UNL     1      47.105  42.763  46.546  1.00  0.00     0.172 A 
ATOM     18  C   UNL     1      47.060  43.782  47.530  1.00  0.00     0.201 A 
ATOM     19  C   UNL     1      46.412  42.936  45.349  1.00  0.00     0.098 A 
ATOM     20  C   UNL     1      46.246  44.927  47.321  1.00  0.00     0.176 A 
ATOM     21  C   UNL     1      45.644  44.073  45.114  1.00  0.00     0.146 A 
ATOM     22  C   UNL     1      45.548  45.080  46.099  1.00  0.00     0.111 A 
ATOM     23  O   UNL     1      45.002  44.190  43.956  1.00  0.00    -0.456 OA
ATOM     24  C   UNL     1      44.738  46.198  45.805  1.00  0.00     0.197 A 
ATOM     25  C   UNL     1      44.241  45.236  43.644  1.00  0.00     0.138 A 
ATOM     26  C   UNL     1      44.083  46.274  44.575  1.00  0.00     0.100 A 
ATOM     27  O   UNL     1      44.587  47.138  46.632  1.00  0.00    -0.289 OA
BRANCH  18  28
ATOM     28  O   UNL     1      47.849  43.657  48.675  1.00  0.00    -0.502 OA
ATOM     29  H   UNL     1      48.489  42.897  48.851  1.00  0.00     0.293 HD
ENDBRANCH  18  28
BRANCH  20  30
ATOM     30  O   UNL     1      46.109  45.909  48.309  1.00  0.00    -0.504 OA
ATOM     31  H   UNL     1      45.226  46.245  48.664  1.00  0.00     0.293 HD
ENDBRANCH  20  30
BRANCH  25  32
ATOM     32  C   UNL     1      43.570  45.260  42.320  1.00  0.00     0.017 A 
ATOM     33  C   UNL     1      42.168  45.362  42.256  1.00  0.00     0.012 A 
ATOM     34  C   UNL     1      44.300  45.151  41.118  1.00  0.00     0.012 A 
ATOM     35  C   UNL     1      41.514  45.378  41.021  1.00  0.00     0.001 A 
ATOM     36  C   UNL     1      43.637  45.167  39.885  1.00  0.00     0.001 A 
ATOM     37  C   UNL     1      42.247  45.283  39.836  1.00  0.00     0.000 A 
ENDBRANCH  25  32
ENDBRANCH   1  17
TORSDOF 9
ENDMDL
MODEL 2
REMARK VINA RESULT:    -8.537      2.665      8.778
REMARK INTER + INTRA:         -12.810
REMARK INTER:                 -11.760
REMARK INTRA:                  -1.050
REMARK UNBOUND:                -1.029
REMARK SMILES O=C([O-])[C@@H]1O[C@@H](Oc2cc3oc(-c4ccccc4)cc(=O)c3c(O)c2O)[C@H](O)[C@H](O)[C@@H]1O
REMARK SMILES IDX 7 1 6 2 4 3 31 4 5 5 29 6 27 7 2 8 1 9 3 10 32 11 30 13
REMARK SMILES IDX 28 15 8 17 25 18 9 19 23 20 10 21 22 22 11 23 20 24 12 25
REMARK SMILES IDX 19 26 21 27 26 28 24 30 13 32 14 33 18 34 15 35 17 36 16 37
REMARK H PARENT 32 12 30 14 28 16 26 29 24 31
REMARK Flexibility Score: inf
ROOT
ATOM      1  O   UNL     1      47.283  43.709  46.599  1.00  0.00    -0.458 OA
ENDROOT
BRANCH   1   2
ATOM      2  C   UNL     1      46.010  43.642  47.256  1.00  0.00     0.339 C 
ATOM      3  C   UNL     1      45.401  45.778  46.480  1.00  0.00     0.199 C 
ATOM      4  C   UNL     1      45.395  46.407  47.890  1.00  0.00     0.180 C 
ATOM      5  O   UNL     1      45.049  44.403  46.535  1.00  0.00    -0.328 OA
ATOM      6  C   UNL     1      46.378  45.624  48.782  1.00  0.00     0.181 C 
ATOM      7  C   UNL     1      46.093  44.109  48.729  1.00  0.00     0.214 C 
BRANCH   3   8
ATOM      8  C   UNL     1      44.438  46.495  45.580  1.00  0.00     0.073 C 
ATOM      9  O   UNL     1      44.103  47.683  45.830  1.00  0.00    -0.547 OA
ATOM     10  O   UNL     1      43.869  45.837  44.495  1.00  0.00    -0.547 OA
ENDBRANCH   3   8
BRANCH   4  11
ATOM     11  O   UNL     1      44.099  46.362  48.439  1.00  0.00    -0.387 OA
ATOM     12  H   UNL     1      43.807  47.300  48.575  1.00  0.00     0.211 HD
ENDBRANCH   4  11
BRANCH   6  13
ATOM     13  O   UNL     1      46.390  46.110  50.103  1.00  0.00    -0.387 OA
ATOM     14  H   UNL     1      47.059  45.593  50.620  1.00  0.00     0.211 HD
ENDBRANCH   6  13
BRANCH   7  15
ATOM     15  O   UNL     1      44.877  43.805  49.367  1.00  0.00    -0.384 OA
ATOM     16  H   UNL     1      45.074  43.683  50.333  1.00  0.00     0.211 HD
ENDBRANCH   7  15
ENDBRANCH   1   2
BRANCH   1  17
ATOM     17  C   UNL     1      48.293  42.728  46.576  1.00  0.00     0.172 A 
ATOM     18  C   UNL     1      49.675  43.012  46.448  1.00  0.00     0.201 A 
ATOM     19  C   UNL     1      47.875  41.405  46.714  1.00  0.00     0.098 A 
ATOM     20  C   UNL     1      50.610  41.946  46.379  1.00  0.00     0.176 A 
ATOM     21  C   UNL     1      48.786  40.353  46.690  1.00  0.00     0.146 A 
ATOM     22  C   UNL     1      50.163  40.609  46.517  1.00  0.00     0.111 A 
ATOM     23  O   UNL     1      48.337  39.108  46.824  1.00  0.00    -0.456 OA
ATOM     24  C   UNL     1      51.031  39.496  46.483  1.00  0.00     0.197 A 
ATOM     25  C   UNL     1      49.130  38.040  46.809  1.00  0.00     0.138 A 
ATOM     26  C   UNL     1      50.511  38.209  46.628  1.00  0.00     0.100 A 
ATOM     27  O   UNL     1      52.274  39.633  46.322  1.00  0.00    -0.289 OA
BRANCH  18  28
ATOM     28  O   UNL     1      50.097  44.343  46.429  1.00  0.00    -0.502 OA
ATOM     29  H   UNL     1      49.522  45.131  46.689  1.00  0.00     0.293 HD
ENDBRANCH  18  28
BRANCH  20  30
ATOM     30  O   UNL     1      51.972  42.188  46.164  1.00  0.00    -0.504 OA
ATOM     31  H   UNL     1      52.574  42.681  46.806  1.00  0.00     0.293 HD
ENDBRANCH  20  30
BRANCH  25  32
ATOM     32  C   UNL     1      48.518  36.696  46.969  1.00  0.00     0.017 A 
ATOM     33  C   UNL     1      47.862  36.372  48.171  1.00  0.00     0.012 A 
ATOM     34  C   UNL     1      48.602  35.718  45.956  1.00  0.00     0.012 A 
ATOM     35  C   UNL     1      47.285  35.111  48.347  1.00  0.00     0.001 A 
ATOM     36  C   UNL     1      48.024  34.458  46.140  1.00  0.00     0.001 A 
ATOM     37  C   UNL     1      47.364  34.155  47.332  1.00  0.00     0.000 A 
ENDBRANCH  25  32
ENDBRANCH   1  17
TORSDOF 9
ENDMDL
MODEL 3
REMARK VINA RESULT:    -8.249      2.619      8.731
REMARK INTER + INTRA:         -12.413
REMARK INTER:                 -11.869
REMARK INTRA:                  -0.545
REMARK UNBOUND:                -1.029
REMARK SMILES O=C([O-])[C@@H]1O[C@@H](Oc2cc3oc(-c4ccccc4)cc(=O)c3c(O)c2O)[C@H](O)[C@H](O)[C@@H]1O
REMARK SMILES IDX 7 1 6 2 4 3 31 4 5 5 29 6 27 7 2 8 1 9 3 10 32 11 30 13
REMARK SMILES IDX 28 15 8 17 25 18 9 19 23 20 10 21 22 22 11 23 20 24 12 25
REMARK SMILES IDX 19 26 21 27 26 28 24 30 13 32 14 33 18 34 15 35 17 36 16 37
REMARK H PARENT 32 12 30 14 28 16 26 29 24 31
REMARK Flexibility Score: inf
ROOT
ATOM      1  O   UNL     1      47.073  43.587  46.466  1.00  0.00    -0.458 OA
ENDROOT
BRANCH   1   2
ATOM      2  C   UNL     1      47.154  44.975  46.820  1.00  0.00     0.339 C 
ATOM      3  C   UNL     1      44.924  45.002  47.570  1.00  0.00     0.199 C 
ATOM      4  C   UNL     1      44.447  45.958  46.455  1.00  0.00     0.180 C 
ATOM      5  O   UNL     1      46.281  45.252  47.908  1.00  0.00    -0.328 OA
ATOM      6  C   UNL     1      45.361  45.777  45.227  1.00  0.00     0.181 C 
ATOM      7  C   UNL     1      46.849  45.899  45.617  1.00  0.00     0.214 C 
BRANCH   3   8
ATOM      8  C   UNL     1      44.076  45.161  48.797  1.00  0.00     0.073 C 
ATOM      9  O   UNL     1      42.877  45.534  48.693  1.00  0.00    -0.547 OA
ATOM     10  O   UNL     1      44.620  44.951  50.059  1.00  0.00    -0.547 OA
ENDBRANCH   3   8
BRANCH   4  11
ATOM     11  O   UNL     1      44.495  47.292  46.902  1.00  0.00    -0.387 OA
ATOM     12  H   UNL     1      44.513  47.870  46.095  1.00  0.00     0.211 HD
ENDBRANCH   4  11
BRANCH   6  13
ATOM     13  O   UNL     1      45.018  46.654  44.182  1.00  0.00    -0.387 OA
ATOM     14  H   UNL     1      45.854  46.983  43.763  1.00  0.00     0.211 HD
ENDBRANCH   6  13
BRANCH   7  15
ATOM     15  O   UNL     1      47.166  47.222  45.973  1.00  0.00    -0.384 OA
ATOM     16  H   UNL     1      47.550  47.659  45.168  1.00  0.00     0.211 HD
ENDBRANCH   7  15
ENDBRANCH   1   2
BRANCH   1  17
ATOM     17  C   UNL     1      48.106  42.631  46.486  1.00  0.00     0.172 A 
ATOM     18  C   UNL     1      49.483  42.946  46.376  1.00  0.00     0.201 A 
ATOM     19  C   UNL     1      47.717  41.302  46.650  1.00  0.00     0.098 A 
ATOM     20  C   UNL     1      50.444  41.901  46.351  1.00  0.00     0.176 A 
ATOM     21  C   UNL     1      48.653  40.272  46.669  1.00  0.00     0.146 A 
ATOM     22  C   UNL     1      50.027  40.558  46.515  1.00  0.00     0.111 A 
ATOM     23  O   UNL     1      48.232  39.021  46.827  1.00  0.00    -0.456 OA
ATOM     24  C   UNL     1      50.921  39.465  46.525  1.00  0.00     0.197 A 
ATOM     25  C   UNL     1      49.050  37.972  46.854  1.00  0.00     0.138 A 
ATOM     26  C   UNL     1      50.430  38.170  46.693  1.00  0.00     0.100 A 
ATOM     27  O   UNL     1      52.164  39.629  46.383  1.00  0.00    -0.289 OA
BRANCH  18  28
ATOM     28  O   UNL     1      49.873  44.286  46.331  1.00  0.00    -0.502 OA
ATOM     29  H   UNL     1      49.363  45.016  45.856  1.00  0.00     0.293 HD
ENDBRANCH  18  28
BRANCH  20  30
ATOM     30  O   UNL     1      51.803  42.170  46.154  1.00  0.00    -0.504 OA
ATOM     31  H   UNL     1      52.430  41.591  45.615  1.00  0.00     0.293 HD
ENDBRANCH  20  30
BRANCH  25  32
ATOM     32  C   UNL     1      48.468  36.618  47.036  1.00  0.00     0.017 A 
ATOM     33  C   UNL     1      48.516  35.694  45.976  1.00  0.00     0.012 A 
ATOM     34  C   UNL     1      47.836  36.239  48.239  1.00  0.00     0.012 A 
ATOM     35  C   UNL     1      47.967  34.417  46.122  1.00  0.00     0.001 A 
ATOM     36  C   UNL     1      47.288  34.960  48.377  1.00  0.00     0.001 A 
ATOM     37  C   UNL     1      47.355  34.048  47.322  1.00  0.00     0.000 A 
ENDBRANCH  25  32
ENDBRANCH   1  17
TORSDOF 9
ENDMDL
MODEL 4
REMARK VINA RESULT:    -8.099      2.736      9.558
REMARK INTER + INTRA:         -12.206
REMARK INTER:                 -11.344
REMARK INTRA:                  -0.862
REMARK UNBOUND:                -1.029
REMARK SMILES O=C([O-])[C@@H]1O[C@@H](Oc2cc3oc(-c4ccccc4)cc(=O)c3c(O)c2O)[C@H](O)[C@H](O)[C@@H]1O
REMARK SMILES IDX 7 1 6 2 4 3 31 4 5 5 29 6 27 7 2 8 1 9 3 10 32 11 30 13
REMARK SMILES IDX 28 15 8 17 25 18 9 19 23 20 10 21 22 22 11 23 20 24 12 25
REMARK SMILES IDX 19 26 21 27 26 28 24 30 13 32 14 33 18 34 15 35 17 36 16 37
REMARK H PARENT 32 12 30 14 28 16 26 29 24 31
REMARK Flexibility Score: inf
ROOT
ATOM      1  O   UNL     1      47.104  44.230  47.143  1.00  0.00    -0.458 OA
ENDROOT
BRANCH   1   2
ATOM      2  C   UNL     1      45.861  44.363  47.848  1.00  0.00     0.339 C 
ATOM      3  C   UNL     1      45.211  46.199  46.528  1.00  0.00     0.199 C 
ATOM      4  C   UNL     1      45.265  47.200  47.702  1.00  0.00     0.180 C 
ATOM      5  O   UNL     1      44.866  44.898  46.985  1.00  0.00    -0.328 OA
ATOM      6  C   UNL     1      46.290  46.691  48.735  1.00  0.00     0.181 C 
ATOM      7  C   UNL     1      46.009  45.225  49.124  1.00  0.00     0.214 C 
BRANCH   3   8
ATOM      8  C   UNL     1      44.206  46.642  45.506  1.00  0.00     0.073 C 
ATOM      9  O   UNL     1      43.663  47.775  45.602  1.00  0.00    -0.547 OA
ATOM     10  O   UNL     1      43.827  45.786  44.478  1.00  0.00    -0.547 OA
ENDBRANCH   3   8
BRANCH   4  11
ATOM     11  O   UNL     1      43.996  47.323  48.299  1.00  0.00    -0.387 OA
ATOM     12  H   UNL     1      44.025  48.126  48.882  1.00  0.00     0.211 HD
ENDBRANCH   4  11
BRANCH   6  13
ATOM     13  O   UNL     1      46.360  47.530  49.863  1.00  0.00    -0.387 OA
ATOM     14  H   UNL     1      45.839  48.352  49.674  1.00  0.00     0.211 HD
ENDBRANCH   6  13
BRANCH   7  15
ATOM     15  O   UNL     1      44.824  45.125  49.875  1.00  0.00    -0.384 OA
ATOM     16  H   UNL     1      44.981  44.447  50.583  1.00  0.00     0.211 HD
ENDBRANCH   7  15
ENDBRANCH   1   2
BRANCH   1  17
ATOM     17  C   UNL     1      47.931  43.093  47.063  1.00  0.00     0.172 A 
ATOM     18  C   UNL     1      47.486  41.813  46.653  1.00  0.00     0.201 A 
ATOM     19  C   UNL     1      49.273  43.279  47.393  1.00  0.00     0.098 A 
ATOM     20  C   UNL     1      48.389  40.717  46.660  1.00  0.00     0.176 A 
ATOM     21  C   UNL     1      50.178  42.223  47.365  1.00  0.00     0.146 A 
ATOM     22  C   UNL     1      49.747  40.928  47.002  1.00  0.00     0.111 A 
ATOM     23  O   UNL     1      51.447  42.451  47.689  1.00  0.00    -0.456 OA
ATOM     24  C   UNL     1      50.712  39.897  47.012  1.00  0.00     0.197 A 
ATOM     25  C   UNL     1      52.382  41.504  47.696  1.00  0.00     0.138 A 
ATOM     26  C   UNL     1      52.031  40.188  47.361  1.00  0.00     0.100 A 
ATOM     27  O   UNL     1      50.410  38.709  46.713  1.00  0.00    -0.289 OA
BRANCH  18  28
ATOM     28  O   UNL     1      46.170  41.660  46.210  1.00  0.00    -0.502 OA
ATOM     29  H   UNL     1      45.585  40.864  46.417  1.00  0.00     0.293 HD
ENDBRANCH  18  28
BRANCH  20  30
ATOM     30  O   UNL     1      47.961  39.422  46.346  1.00  0.00    -0.504 OA
ATOM     31  H   UNL     1      47.737  39.104  45.415  1.00  0.00     0.293 HD
ENDBRANCH  20  30
BRANCH  25  32
ATOM     32  C   UNL     1      53.769  41.875  48.075  1.00  0.00     0.017 A 
ATOM     33  C   UNL     1      54.849  41.386  47.317  1.00  0.00     0.012 A 
ATOM     34  C   UNL     1      54.039  42.682  49.200  1.00  0.00     0.012 A 
ATOM     35  C   UNL     1      56.163  41.715  47.660  1.00  0.00     0.001 A 
ATOM     36  C   UNL     1      55.357  43.006  49.537  1.00  0.00     0.001 A 
ATOM     37  C   UNL     1      56.418  42.526  48.768  1.00  0.00     0.000 A 
ENDBRANCH  25  32
ENDBRANCH   1  17
TORSDOF 9
ENDMDL
MODEL 5
REMARK VINA RESULT:    -7.838      7.357      9.282
REMARK INTER + INTRA:         -11.846
REMARK INTER:                 -10.803
REMARK INTRA:                  -1.043
REMARK UNBOUND:                -1.029
REMARK SMILES O=C([O-])[C@@H]1O[C@@H](Oc2cc3oc(-c4ccccc4)cc(=O)c3c(O)c2O)[C@H](O)[C@H](O)[C@@H]1O
REMARK SMILES IDX 7 1 6 2 4 3 31 4 5 5 29 6 27 7 2 8 1 9 3 10 32 11 30 13
REMARK SMILES IDX 28 15 8 17 25 18 9 19 23 20 10 21 22 22 11 23 20 24 12 25
REMARK SMILES IDX 19 26 21 27 26 28 24 30 13 32 14 33 18 34 15 35 17 36 16 37
REMARK H PARENT 32 12 30 14 28 16 26 29 24 31
REMARK Flexibility Score: inf
ROOT
ATOM      1  O   UNL     1      52.011  45.501  40.420  1.00  0.00    -0.458 OA
ENDROOT
BRANCH   1   2
ATOM      2  C   UNL     1      53.333  45.084  40.791  1.00  0.00     0.339 C 
ATOM      3  C   UNL     1      52.502  43.277  42.048  1.00  0.00     0.199 C 
ATOM      4  C   UNL     1      52.982  43.855  43.397  1.00  0.00     0.180 C 
ATOM      5  O   UNL     1      53.363  43.677  40.990  1.00  0.00    -0.328 OA
ATOM      6  C   UNL     1      53.034  45.392  43.283  1.00  0.00     0.181 C 
ATOM      7  C   UNL     1      53.845  45.831  42.046  1.00  0.00     0.214 C 
BRANCH   3   8
ATOM      8  C   UNL     1      52.459  41.778  42.105  1.00  0.00     0.073 C 
ATOM      9  O   UNL     1      53.515  41.109  41.956  1.00  0.00    -0.547 OA
ATOM     10  O   UNL     1      51.246  41.117  42.268  1.00  0.00    -0.547 OA
ENDBRANCH   3   8
BRANCH   4  11
ATOM     11  O   UNL     1      54.255  43.350  43.721  1.00  0.00    -0.387 OA
ATOM     12  H   UNL     1      54.114  42.544  44.284  1.00  0.00     0.211 HD
ENDBRANCH   4  11
BRANCH   6  13
ATOM     13  O   UNL     1      53.511  45.990  44.464  1.00  0.00    -0.387 OA
ATOM     14  H   UNL     1      54.415  46.357  44.285  1.00  0.00     0.211 HD
ENDBRANCH   6  13
BRANCH   7  15
ATOM     15  O   UNL     1      55.211  45.545  42.215  1.00  0.00    -0.384 OA
ATOM     16  H   UNL     1      55.633  46.351  42.612  1.00  0.00     0.211 HD
ENDBRANCH   7  15
ENDBRANCH   1   2
BRANCH   1  17
ATOM     17  C   UNL     1      51.601  46.079  39.203  1.00  0.00     0.172 A 
ATOM     18  C   UNL     1      51.857  47.422  38.835  1.00  0.00     0.201 A 
ATOM     19  C   UNL     1      50.921  45.242  38.318  1.00  0.00     0.098 A 
ATOM     20  C   UNL     1      51.349  47.925  37.607  1.00  0.00     0.176 A 
ATOM     21  C   UNL     1      50.455  45.711  37.094  1.00  0.00     0.146 A 
ATOM     22  C   UNL     1      50.659  47.058  36.725  1.00  0.00     0.111 A 
ATOM     23  O   UNL     1      49.812  44.875  36.285  1.00  0.00    -0.456 OA
ATOM     24  C   UNL     1      50.144  47.474  35.477  1.00  0.00     0.197 A 
ATOM     25  C   UNL     1      49.326  45.232  35.099  1.00  0.00     0.138 A 
ATOM     26  C   UNL     1      49.476  46.558  34.665  1.00  0.00     0.100 A 
ATOM     27  O   UNL     1      50.272  48.663  35.075  1.00  0.00    -0.289 OA
BRANCH  18  28
ATOM     28  O   UNL     1      52.639  48.220  39.672  1.00  0.00    -0.502 OA
ATOM     29  H   UNL     1      52.291  48.722  40.476  1.00  0.00     0.293 HD
ENDBRANCH  18  28
BRANCH  20  30
ATOM     30  O   UNL     1      51.508  49.269  37.253  1.00  0.00    -0.504 OA
ATOM     31  H   UNL     1      51.299  50.049  37.858  1.00  0.00     0.293 HD
ENDBRANCH  20  30
BRANCH  25  32
ATOM     32  C   UNL     1      48.625  44.212  34.279  1.00  0.00     0.017 A 
ATOM     33  C   UNL     1      48.889  44.131  32.899  1.00  0.00     0.012 A 
ATOM     34  C   UNL     1      47.672  43.336  34.841  1.00  0.00     0.012 A 
ATOM     35  C   UNL     1      48.235  43.184  32.105  1.00  0.00     0.001 A 
ATOM     36  C   UNL     1      47.021  42.392  34.040  1.00  0.00     0.001 A 
ATOM     37  C   UNL     1      47.303  42.314  32.675  1.00  0.00     0.000 A 
ENDBRANCH  25  32
ENDBRANCH   1  17
TORSDOF 9
ENDMDL
MODEL 6
REMARK VINA RESULT:    -7.770      8.699     12.288
REMARK INTER + INTRA:         -11.751
REMARK INTER:                 -11.017
REMARK INTRA:                  -0.735
REMARK UNBOUND:                -1.029
REMARK SMILES O=C([O-])[C@@H]1O[C@@H](Oc2cc3oc(-c4ccccc4)cc(=O)c3c(O)c2O)[C@H](O)[C@H](O)[C@@H]1O
REMARK SMILES IDX 7 1 6 2 4 3 31 4 5 5 29 6 27 7 2 8 1 9 3 10 32 11 30 13
REMARK SMILES IDX 28 15 8 17 25 18 9 19 23 20 10 21 22 22 11 23 20 24 12 25
REMARK SMILES IDX 19 26 21 27 26 28 24 30 13 32 14 33 18 34 15 35 17 36 16 37
REMARK H PARENT 32 12 30 14 28 16 26 29 24 31
REMARK Flexibility Score: inf
ROOT
ATOM      1  O   UNL     1      49.755  45.111  33.493  1.00  0.00    -0.458 OA
ENDROOT
BRANCH   1   2
ATOM      2  C   UNL     1      48.586  44.782  32.728  1.00  0.00     0.339 C 
ATOM      3  C   UNL     1      48.038  43.006  34.172  1.00  0.00     0.199 C 
ATOM      4  C   UNL     1      48.280  41.920  33.102  1.00  0.00     0.180 C 
ATOM      5  O   UNL     1      47.593  44.217  33.575  1.00  0.00    -0.328 OA
ATOM      6  C   UNL     1      49.317  42.447  32.091  1.00  0.00     0.181 C 
ATOM      7  C   UNL     1      48.913  43.834  31.550  1.00  0.00     0.214 C 
BRANCH   3   8
ATOM      8  C   UNL     1      47.014  42.546  35.167  1.00  0.00     0.073 C 
ATOM      9  O   UNL     1      47.310  42.466  36.389  1.00  0.00    -0.547 OA
ATOM     10  O   UNL     1      45.749  42.153  34.742  1.00  0.00    -0.547 OA
ENDBRANCH   3   8
BRANCH   4  11
ATOM     11  O   UNL     1      47.076  41.607  32.442  1.00  0.00    -0.387 OA
ATOM     12  H   UNL     1      47.014  42.202  31.650  1.00  0.00     0.211 HD
ENDBRANCH   4  11
BRANCH   6  13
ATOM     13  O   UNL     1      49.554  41.527  31.053  1.00  0.00    -0.387 OA
ATOM     14  H   UNL     1      49.107  41.859  30.232  1.00  0.00     0.211 HD
ENDBRANCH   6  13
BRANCH   7  15
ATOM     15  O   UNL     1      47.782  43.738  30.721  1.00  0.00    -0.384 OA
ATOM     16  H   UNL     1      47.909  44.379  29.974  1.00  0.00     0.211 HD
ENDBRANCH   7  15
ENDBRANCH   1   2
BRANCH   1  17
ATOM     17  C   UNL     1      49.812  45.591  34.816  1.00  0.00     0.172 A 
ATOM     18  C   UNL     1      49.059  46.691  35.295  1.00  0.00     0.201 A 
ATOM     19  C   UNL     1      50.654  44.904  35.689  1.00  0.00     0.098 A 
ATOM     20  C   UNL     1      49.231  47.133  36.634  1.00  0.00     0.176 A 
ATOM     21  C   UNL     1      50.800  45.300  37.015  1.00  0.00     0.146 A 
ATOM     22  C   UNL     1      50.094  46.421  37.503  1.00  0.00     0.111 A 
ATOM     23  O   UNL     1      51.615  44.612  37.808  1.00  0.00    -0.456 OA
ATOM     24  C   UNL     1      50.302  46.781  38.852  1.00  0.00     0.197 A 
ATOM     25  C   UNL     1      51.823  44.918  39.086  1.00  0.00     0.138 A 
ATOM     26  C   UNL     1      51.169  46.028  39.643  1.00  0.00     0.100 A 
ATOM     27  O   UNL     1      49.721  47.776  39.366  1.00  0.00    -0.289 OA
BRANCH  18  28
ATOM     28  O   UNL     1      48.130  47.301  34.449  1.00  0.00    -0.502 OA
ATOM     29  H   UNL     1      48.369  47.883  33.660  1.00  0.00     0.293 HD
ENDBRANCH  18  28
BRANCH  20  30
ATOM     30  O   UNL     1      48.570  48.269  37.114  1.00  0.00    -0.504 OA
ATOM     31  H   UNL     1      48.958  49.200  37.112  1.00  0.00     0.293 HD
ENDBRANCH  20  30
BRANCH  25  32
ATOM     32  C   UNL     1      52.757  44.078  39.877  1.00  0.00     0.017 A 
ATOM     33  C   UNL     1      54.030  43.780  39.357  1.00  0.00     0.012 A 
ATOM     34  C   UNL     1      52.392  43.542  41.130  1.00  0.00     0.012 A 
ATOM     35  C   UNL     1      54.924  42.984  40.080  1.00  0.00     0.001 A 
ATOM     36  C   UNL     1      53.292  42.746  41.847  1.00  0.00     0.001 A 
ATOM     37  C   UNL     1      54.557  42.469  41.325  1.00  0.00     0.000 A 
ENDBRANCH  25  32
ENDBRANCH   1  17
TORSDOF 9
ENDMDL
MODEL 7
REMARK VINA RESULT:    -7.731      7.652      9.725
REMARK INTER + INTRA:         -11.698
REMARK INTER:                 -10.590
REMARK INTRA:                  -1.108
REMARK UNBOUND:                -1.029
REMARK SMILES O=C([O-])[C@@H]1O[C@@H](Oc2cc3oc(-c4ccccc4)cc(=O)c3c(O)c2O)[C@H](O)[C@H](O)[C@@H]1O
REMARK SMILES IDX 7 1 6 2 4 3 31 4 5 5 29 6 27 7 2 8 1 9 3 10 32 11 30 13
REMARK SMILES IDX 28 15 8 17 25 18 9 19 23 20 10 21 22 22 11 23 20 24 12 25
REMARK SMILES IDX 19 26 21 27 26 28 24 30 13 32 14 33 18 34 15 35 17 36 16 37
REMARK H PARENT 32 12 30 14 28 16 26 29 24 31
REMARK Flexibility Score: inf
ROOT
ATOM      1  O   UNL     1      51.646  45.738  40.055  1.00  0.00    -0.458 OA
ENDROOT
BRANCH   1   2
ATOM      2  C   UNL     1      52.192  44.422  40.224  1.00  0.00     0.339 C 
ATOM      3  C   UNL     1      53.365  45.065  42.160  1.00  0.00     0.199 C 
ATOM      4  C   UNL     1      54.753  44.879  41.511  1.00  0.00     0.180 C 
ATOM      5  O   UNL     1      52.419  44.162  41.603  1.00  0.00    -0.328 OA
ATOM      6  C   UNL     1      54.619  45.094  39.991  1.00  0.00     0.181 C 
ATOM      7  C   UNL     1      53.489  44.224  39.403  1.00  0.00     0.214 C 
BRANCH   3   8
ATOM      8  C   UNL     1      53.442  44.840  43.642  1.00  0.00     0.073 C 
ATOM      9  O   UNL     1      52.388  44.675  44.312  1.00  0.00    -0.547 OA
ATOM     10  O   UNL     1      54.670  44.867  44.292  1.00  0.00    -0.547 OA
ENDBRANCH   3   8
BRANCH   4  11
ATOM     11  O   UNL     1      55.248  43.588  41.776  1.00  0.00    -0.387 OA
ATOM     12  H   UNL     1      55.447  43.546  42.748  1.00  0.00     0.211 HD
ENDBRANCH   4  11
BRANCH   6  13
ATOM     13  O   UNL     1      55.840  44.893  39.322  1.00  0.00    -0.387 OA
ATOM     14  H   UNL     1      56.168  43.982  39.537  1.00  0.00     0.211 HD
ENDBRANCH   6  13
BRANCH   7  15
ATOM     15  O   UNL     1      53.838  42.862  39.434  1.00  0.00    -0.384 OA
ATOM     16  H   UNL     1      53.765  42.562  40.378  1.00  0.00     0.211 HD
ENDBRANCH   7  15
ENDBRANCH   1   2
BRANCH   1  17
ATOM     17  C   UNL     1      51.199  46.339  38.863  1.00  0.00     0.172 A 
ATOM     18  C   UNL     1      51.454  47.686  38.508  1.00  0.00     0.201 A 
ATOM     19  C   UNL     1      50.483  45.523  37.988  1.00  0.00     0.098 A 
ATOM     20  C   UNL     1      50.910  48.213  37.306  1.00  0.00     0.176 A 
ATOM     21  C   UNL     1      49.980  46.015  36.788  1.00  0.00     0.146 A 
ATOM     22  C   UNL     1      50.183  47.367  36.434  1.00  0.00     0.111 A 
ATOM     23  O   UNL     1      49.303  45.197  35.988  1.00  0.00    -0.456 OA
ATOM     24  C   UNL     1      49.630  47.807  35.211  1.00  0.00     0.197 A 
ATOM     25  C   UNL     1      48.781  45.578  34.825  1.00  0.00     0.138 A 
ATOM     26  C   UNL     1      48.927  46.909  34.407  1.00  0.00     0.100 A 
ATOM     27  O   UNL     1      49.754  49.001  34.823  1.00  0.00    -0.289 OA
BRANCH  18  28
ATOM     28  O   UNL     1      52.271  48.464  39.331  1.00  0.00    -0.502 OA
ATOM     29  H   UNL     1      52.510  48.234  40.284  1.00  0.00     0.293 HD
ENDBRANCH  18  28
BRANCH  20  30
ATOM     30  O   UNL     1      51.068  49.562  36.968  1.00  0.00    -0.504 OA
ATOM     31  H   UNL     1      51.534  50.245  37.546  1.00  0.00     0.293 HD
ENDBRANCH  20  30
BRANCH  25  32
ATOM     32  C   UNL     1      48.044  44.577  34.013  1.00  0.00     0.017 A 
ATOM     33  C   UNL     1      47.701  43.338  34.585  1.00  0.00     0.012 A 
ATOM     34  C   UNL     1      47.702  44.821  32.666  1.00  0.00     0.012 A 
ATOM     35  C   UNL     1      47.014  42.377  33.838  1.00  0.00     0.001 A 
ATOM     36  C   UNL     1      47.015  43.854  31.924  1.00  0.00     0.001 A 
ATOM     37  C   UNL     1      46.669  42.635  32.509  1.00  0.00     0.000 A 
ENDBRANCH  25  32
ENDBRANCH   1  17
TORSDOF 9
ENDMDL
MODEL 8
REMARK VINA RESULT:    -7.645      3.105      5.588
REMARK INTER + INTRA:         -11.580
REMARK INTER:                 -10.271
REMARK INTRA:                  -1.309
REMARK UNBOUND:                -1.029
REMARK SMILES O=C([O-])[C@@H]1O[C@@H](Oc2cc3oc(-c4ccccc4)cc(=O)c3c(O)c2O)[C@H](O)[C@H](O)[C@@H]1O
REMARK SMILES IDX 7 1 6 2 4 3 31 4 5 5 29 6 27 7 2 8 1 9 3 10 32 11 30 13
REMARK SMILES IDX 28 15 8 17 25 18 9 19 23 20 10 21 22 22 11 23 20 24 12 25
REMARK SMILES IDX 19 26 21 27 26 28 24 30 13 32 14 33 18 34 15 35 17 36 16 37
REMARK H PARENT 32 12 30 14 28 16 26 29 24 31
REMARK Flexibility Score: inf
ROOT
ATOM      1  O   UNL     1      48.626  38.052  46.633  1.00  0.00    -0.458 OA
ENDROOT
BRANCH   1   2
ATOM      2  C   UNL     1      48.732  37.200  47.783  1.00  0.00     0.339 C 
ATOM      3  C   UNL     1      50.535  36.015  46.844  1.00  0.00     0.199 C 
ATOM      4  C   UNL     1      49.741  34.696  46.718  1.00  0.00     0.180 C 
ATOM      5  O   UNL     1      50.079  36.778  47.953  1.00  0.00    -0.328 OA
ATOM      6  C   UNL     1      48.245  35.034  46.573  1.00  0.00     0.181 C 
ATOM      7  C   UNL     1      47.777  35.986  47.694  1.00  0.00     0.214 C 
BRANCH   3   8
ATOM      8  C   UNL     1      51.999  35.734  47.012  1.00  0.00     0.073 C 
ATOM      9  O   UNL     1      52.778  36.646  47.397  1.00  0.00    -0.547 OA
ATOM     10  O   UNL     1      52.515  34.483  46.693  1.00  0.00    -0.547 OA
ENDBRANCH   3   8
BRANCH   4  11
ATOM     11  O   UNL     1      49.949  33.890  47.853  1.00  0.00    -0.387 OA
ATOM     12  H   UNL     1      49.155  34.000  48.438  1.00  0.00     0.211 HD
ENDBRANCH   4  11
BRANCH   6  13
ATOM     13  O   UNL     1      47.449  33.876  46.502  1.00  0.00    -0.387 OA
ATOM     14  H   UNL     1      47.708  33.272  47.245  1.00  0.00     0.211 HD
ENDBRANCH   6  13
BRANCH   7  15
ATOM     15  O   UNL     1      47.768  35.328  48.937  1.00  0.00    -0.384 OA
ATOM     16  H   UNL     1      47.643  36.022  49.636  1.00  0.00     0.211 HD
ENDBRANCH   7  15
ENDBRANCH   1   2
BRANCH   1  17
ATOM     17  C   UNL     1      48.922  39.426  46.549  1.00  0.00     0.172 A 
ATOM     18  C   UNL     1      50.202  39.945  46.232  1.00  0.00     0.201 A 
ATOM     19  C   UNL     1      47.863  40.304  46.774  1.00  0.00     0.098 A 
ATOM     20  C   UNL     1      50.411  41.350  46.228  1.00  0.00     0.176 A 
ATOM     21  C   UNL     1      48.045  41.683  46.731  1.00  0.00     0.146 A 
ATOM     22  C   UNL     1      49.321  42.223  46.462  1.00  0.00     0.111 A 
ATOM     23  O   UNL     1      47.002  42.478  46.953  1.00  0.00    -0.456 OA
ATOM     24  C   UNL     1      49.440  43.630  46.452  1.00  0.00     0.197 A 
ATOM     25  C   UNL     1      47.080  43.806  46.939  1.00  0.00     0.138 A 
ATOM     26  C   UNL     1      48.317  44.421  46.693  1.00  0.00     0.100 A 
ATOM     27  O   UNL     1      50.546  44.196  46.232  1.00  0.00    -0.289 OA
BRANCH  18  28
ATOM     28  O   UNL     1      51.229  39.062  45.892  1.00  0.00    -0.502 OA
ATOM     29  H   UNL     1      51.861  38.636  46.553  1.00  0.00     0.293 HD
ENDBRANCH  18  28
BRANCH  20  30
ATOM     30  O   UNL     1      51.681  41.893  46.006  1.00  0.00    -0.504 OA
ATOM     31  H   UNL     1      51.917  42.500  45.235  1.00  0.00     0.293 HD
ENDBRANCH  20  30
BRANCH  25  32
ATOM     32  C   UNL     1      45.849  44.595  47.201  1.00  0.00     0.017 A 
ATOM     33  C   UNL     1      45.146  44.401  48.404  1.00  0.00     0.012 A 
ATOM     34  C   UNL     1      45.344  45.516  46.260  1.00  0.00     0.012 A 
ATOM     35  C   UNL     1      43.981  45.126  48.670  1.00  0.00     0.001 A 
ATOM     36  C   UNL     1      44.177  46.237  46.532  1.00  0.00     0.001 A 
ATOM     37  C   UNL     1      43.497  46.045  47.736  1.00  0.00     0.000 A 
ENDBRANCH  25  32
ENDBRANCH   1  17
TORSDOF 9
ENDMDL
MODEL 9
REMARK VINA RESULT:    -7.596      8.546      9.890
REMARK INTER + INTRA:         -11.512
REMARK INTER:                 -10.563
REMARK INTRA:                  -0.949
REMARK UNBOUND:                -1.029
REMARK SMILES O=C([O-])[C@@H]1O[C@@H](Oc2cc3oc(-c4ccccc4)cc(=O)c3c(O)c2O)[C@H](O)[C@H](O)[C@@H]1O
REMARK SMILES IDX 7 1 6 2 4 3 31 4 5 5 29 6 27 7 2 8 1 9 3 10 32 11 30 13
REMARK SMILES IDX 28 15 8 17 25 18 9 19 23 20 10 21 22 22 11 23 20 24 12 25
REMARK SMILES IDX 19 26 21 27 26 28 24 30 13 32 14 33 18 34 15 35 17 36 16 37
REMARK H PARENT 32 12 30 14 28 16 26 29 24 31
REMARK Flexibility Score: inf
ROOT
ATOM      1  O   UNL     1      53.552  45.602  39.708  1.00  0.00    -0.458 OA
ENDROOT
BRANCH   1   2
ATOM      2  C   UNL     1      53.650  44.545  40.673  1.00  0.00     0.339 C 
ATOM      3  C   UNL     1      55.996  44.715  40.747  1.00  0.00     0.199 C 
ATOM      4  C   UNL     1      56.224  43.321  40.123  1.00  0.00     0.180 C 
ATOM      5  O   UNL     1      54.790  44.744  41.499  1.00  0.00    -0.328 OA
ATOM      6  C   UNL     1      55.013  42.976  39.234  1.00  0.00     0.181 C 
ATOM      7  C   UNL     1      53.688  43.151  40.004  1.00  0.00     0.214 C 
BRANCH   3   8
ATOM      8  C   UNL     1      57.141  45.084  41.644  1.00  0.00     0.073 C 
ATOM      9  O   UNL     1      56.995  45.975  42.522  1.00  0.00    -0.547 OA
ATOM     10  O   UNL     1      58.384  44.484  41.477  1.00  0.00    -0.547 OA
ENDBRANCH   3   8
BRANCH   4  11
ATOM     11  O   UNL     1      56.374  42.352  41.134  1.00  0.00    -0.387 OA
ATOM     12  H   UNL     1      56.986  41.655  40.780  1.00  0.00     0.211 HD
ENDBRANCH   4  11
BRANCH   6  13
ATOM     13  O   UNL     1      55.126  41.693  38.667  1.00  0.00    -0.387 OA
ATOM     14  H   UNL     1      55.968  41.281  38.990  1.00  0.00     0.211 HD
ENDBRANCH   6  13
BRANCH   7  15
ATOM     15  O   UNL     1      53.555  42.168  41.001  1.00  0.00    -0.384 OA
ATOM     16  H   UNL     1      53.449  41.295  40.541  1.00  0.00     0.211 HD
ENDBRANCH   7  15
ENDBRANCH   1   2
BRANCH   1  17
ATOM     17  C   UNL     1      52.397  46.059  39.045  1.00  0.00     0.172 A 
ATOM     18  C   UNL     1      51.753  47.289  39.325  1.00  0.00     0.201 A 
ATOM     19  C   UNL     1      51.894  45.235  38.039  1.00  0.00     0.098 A 
ATOM     20  C   UNL     1      50.559  47.632  38.637  1.00  0.00     0.176 A 
ATOM     21  C   UNL     1      50.748  45.579  37.328  1.00  0.00     0.146 A 
ATOM     22  C   UNL     1      50.064  46.779  37.621  1.00  0.00     0.111 A 
ATOM     23  O   UNL     1      50.307  44.760  36.378  1.00  0.00    -0.456 OA
ATOM     24  C   UNL     1      48.897  47.059  36.876  1.00  0.00     0.197 A 
ATOM     25  C   UNL     1      49.220  45.001  35.650  1.00  0.00     0.138 A 
ATOM     26  C   UNL     1      48.476  46.167  35.890  1.00  0.00     0.100 A 
ATOM     27  O   UNL     1      48.219  48.102  37.081  1.00  0.00    -0.289 OA
BRANCH  18  28
ATOM     28  O   UNL     1      52.328  48.163  40.250  1.00  0.00    -0.502 OA
ATOM     29  H   UNL     1      52.280  49.169  40.195  1.00  0.00     0.293 HD
ENDBRANCH  18  28
BRANCH  20  30
ATOM     30  O   UNL     1      49.849  48.797  38.952  1.00  0.00    -0.504 OA
ATOM     31  H   UNL     1      48.852  48.905  38.847  1.00  0.00     0.293 HD
ENDBRANCH  20  30
BRANCH  25  32
ATOM     32  C   UNL     1      48.821  44.014  34.615  1.00  0.00     0.017 A 
ATOM     33  C   UNL     1      48.468  42.709  35.003  1.00  0.00     0.012 A 
ATOM     34  C   UNL     1      48.817  44.340  33.243  1.00  0.00     0.012 A 
ATOM     35  C   UNL     1      48.097  41.760  34.046  1.00  0.00     0.001 A 
ATOM     36  C   UNL     1      48.445  43.385  32.291  1.00  0.00     0.001 A 
ATOM     37  C   UNL     1      48.084  42.098  32.690  1.00  0.00     0.000 A 
ENDBRANCH  25  32
ENDBRANCH   1  17
TORSDOF 9
ENDMDL
