MODEL 1
REMARK VINA RESULT:    -3.665      0.000      0.000
REMARK INTER + INTRA:          -8.056
REMARK INTER:                  -6.451
REMARK INTRA:                  -1.605
REMARK UNBOUND:                -1.605
REMARK SMILES CCCCCCC=CCCCCCCCC(=O)[O-]
REMARK SMILES IDX 10 1 11 2 12 3 13 4 14 5 15 6 16 7 17 8 18 9 9 10 8 11 7 12
REMARK SMILES IDX 6 13 5 14 4 15 3 16 2 17 1 18
REMARK H PARENT
REMARK Flexibility Score: inf
ROOT
ATOM      1  C   UNL     1      -8.277  28.365 -21.634  1.00  0.00     0.004 C 
ENDROOT
BRANCH   1   2
ATOM      2  C   UNL     1      -9.240  27.181 -21.420  1.00  0.00     0.000 C 
BRANCH   2   3
ATOM      3  C   UNL     1      -9.112  26.100 -22.504  1.00  0.00     0.000 C 
BRANCH   3   4
ATOM      4  C   UNL     1      -8.711  24.751 -21.889  1.00  0.00     0.000 C 
BRANCH   4   5
ATOM      5  C   UNL     1      -8.610  24.805 -20.356  1.00  0.00     0.006 C 
BRANCH   5   6
ATOM      6  C   UNL     1      -7.733  23.684 -19.783  1.00  0.00     0.053 C 
BRANCH   6   7
ATOM      7  C   UNL     1      -8.198  23.308 -18.411  1.00  0.00     0.041 C 
ATOM      8  O   UNL     1      -8.399  22.100 -18.119  1.00  0.00    -0.550 OA
ATOM      9  O   UNL     1      -8.457  24.296 -17.469  1.00  0.00    -0.550 OA
ENDBRANCH   6   7
ENDBRANCH   5   6
ENDBRANCH   4   5
ENDBRANCH   3   4
ENDBRANCH   2   3
ENDBRANCH   1   2
BRANCH   1  10
ATOM     10  C   UNL     1      -7.354  28.237 -22.859  1.00  0.00     0.027 C 
BRANCH  10  11
ATOM     11  C   UNL     1      -5.901  28.454 -22.501  1.00  0.00    -0.031 C 
ATOM     12  C   UNL     1      -5.004  27.481 -22.250  1.00  0.00    -0.031 C 
BRANCH  12  13
ATOM     13  C   UNL     1      -5.290  26.001 -22.301  1.00  0.00     0.027 C 
BRANCH  13  14
ATOM     14  C   UNL     1      -4.634  25.261 -21.126  1.00  0.00     0.004 C 
BRANCH  14  15
ATOM     15  C   UNL     1      -3.317  24.566 -21.517  1.00  0.00     0.000 C 
BRANCH  15  16
ATOM     16  C   UNL     1      -2.575  23.881 -20.356  1.00  0.00    -0.000 C 
BRANCH  16  17
ATOM     17  C   UNL     1      -2.397  22.370 -20.569  1.00  0.00    -0.003 C 
ATOM     18  C   UNL     1      -3.300  21.862 -21.688  1.00  0.00     0.004 C 
ENDBRANCH  16  17
ENDBRANCH  15  16
ENDBRANCH  14  15
ENDBRANCH  13  14
ENDBRANCH  12  13
ENDBRANCH  10  11
ENDBRANCH   1  10
TORSDOF 13
ENDMDL
MODEL 2
REMARK VINA RESULT:    -3.613      2.475      4.261
REMARK INTER + INTRA:          -7.963
REMARK INTER:                  -5.998
REMARK INTRA:                  -1.965
REMARK UNBOUND:                -1.605
REMARK SMILES CCCCCCC=CCCCCCCCC(=O)[O-]
REMARK SMILES IDX 10 1 11 2 12 3 13 4 14 5 15 6 16 7 17 8 18 9 9 10 8 11 7 12
REMARK SMILES IDX 6 13 5 14 4 15 3 16 2 17 1 18
REMARK H PARENT
REMARK Flexibility Score: inf
ROOT
ATOM      1  C   UNL     1      -9.309  24.998 -24.952  1.00  0.00     0.004 C 
ENDROOT
BRANCH   1   2
ATOM      2  C   UNL     1      -9.073  24.677 -23.463  1.00  0.00     0.000 C 
BRANCH   2   3
ATOM      3  C   UNL     1      -9.340  25.876 -22.541  1.00  0.00     0.000 C 
BRANCH   3   4
ATOM      4  C   UNL     1      -8.575  25.731 -21.217  1.00  0.00     0.000 C 
BRANCH   4   5
ATOM      5  C   UNL     1      -8.953  24.453 -20.451  1.00  0.00     0.006 C 
BRANCH   5   6
ATOM      6  C   UNL     1      -7.758  23.828 -19.720  1.00  0.00     0.053 C 
BRANCH   6   7
ATOM      7  C   UNL     1      -8.133  23.473 -18.316  1.00  0.00     0.041 C 
ATOM      8  O   UNL     1      -8.644  24.339 -17.558  1.00  0.00    -0.550 OA
ATOM      9  O   UNL     1      -7.871  22.199 -17.827  1.00  0.00    -0.550 OA
ENDBRANCH   6   7
ENDBRANCH   5   6
ENDBRANCH   4   5
ENDBRANCH   3   4
ENDBRANCH   2   3
ENDBRANCH   1   2
BRANCH   1  10
ATOM     10  C   UNL     1      -8.924  26.427 -25.377  1.00  0.00     0.027 C 
BRANCH  10  11
ATOM     11  C   UNL     1      -7.643  26.456 -26.178  1.00  0.00    -0.031 C 
ATOM     12  C   UNL     1      -6.934  27.561 -26.478  1.00  0.00    -0.031 C 
BRANCH  12  13
ATOM     13  C   UNL     1      -7.287  28.964 -26.049  1.00  0.00     0.027 C 
BRANCH  13  14
ATOM     14  C   UNL     1      -6.199  29.565 -25.147  1.00  0.00     0.004 C 
BRANCH  14  15
ATOM     15  C   UNL     1      -6.691  29.832 -23.713  1.00  0.00     0.000 C 
BRANCH  15  16
ATOM     16  C   UNL     1      -6.878  28.574 -22.846  1.00  0.00    -0.000 C 
BRANCH  16  17
ATOM     17  C   UNL     1      -5.557  27.846 -22.556  1.00  0.00    -0.003 C 
ATOM     18  C   UNL     1      -5.577  26.427 -23.116  1.00  0.00     0.004 C 
ENDBRANCH  16  17
ENDBRANCH  15  16
ENDBRANCH  14  15
ENDBRANCH  13  14
ENDBRANCH  12  13
ENDBRANCH  10  11
ENDBRANCH   1  10
TORSDOF 13
ENDMDL
MODEL 3
REMARK VINA RESULT:    -3.610      5.103      7.565
REMARK INTER + INTRA:          -7.959
REMARK INTER:                  -5.665
REMARK INTRA:                  -2.294
REMARK UNBOUND:                -1.605
REMARK SMILES CCCCCCC=CCCCCCCCC(=O)[O-]
REMARK SMILES IDX 10 1 11 2 12 3 13 4 14 5 15 6 16 7 17 8 18 9 9 10 8 11 7 12
REMARK SMILES IDX 6 13 5 14 4 15 3 16 2 17 1 18
REMARK H PARENT
REMARK Flexibility Score: inf
ROOT
ATOM      1  C   UNL     1      -7.644  26.738 -25.858  1.00  0.00     0.004 C 
ENDROOT
BRANCH   1   2
ATOM      2  C   UNL     1      -7.529  28.232 -26.215  1.00  0.00     0.000 C 
BRANCH   2   3
ATOM      3  C   UNL     1      -6.075  28.705 -26.357  1.00  0.00     0.000 C 
BRANCH   3   4
ATOM      4  C   UNL     1      -5.890  30.103 -25.749  1.00  0.00     0.000 C 
BRANCH   4   5
ATOM      5  C   UNL     1      -7.186  30.660 -25.138  1.00  0.00     0.006 C 
BRANCH   5   6
ATOM      6  C   UNL     1      -7.472  32.103 -25.573  1.00  0.00     0.053 C 
BRANCH   6   7
ATOM      7  C   UNL     1      -7.941  32.136 -26.994  1.00  0.00     0.041 C 
ATOM      8  O   UNL     1      -8.927  31.441 -27.353  1.00  0.00    -0.550 OA
ATOM      9  O   UNL     1      -7.256  32.896 -27.934  1.00  0.00    -0.550 OA
ENDBRANCH   6   7
ENDBRANCH   5   6
ENDBRANCH   4   5
ENDBRANCH   3   4
ENDBRANCH   2   3
ENDBRANCH   1   2
BRANCH   1  10
ATOM     10  C   UNL     1      -9.059  26.267 -25.477  1.00  0.00     0.027 C 
BRANCH  10  11
ATOM     11  C   UNL     1      -9.032  25.143 -24.467  1.00  0.00    -0.031 C 
ATOM     12  C   UNL     1      -9.238  25.277 -23.143  1.00  0.00    -0.031 C 
BRANCH  12  13
ATOM     13  C   UNL     1      -9.550  26.574 -22.439  1.00  0.00     0.027 C 
BRANCH  13  14
ATOM     14  C   UNL     1      -8.337  27.091 -21.651  1.00  0.00     0.004 C 
BRANCH  14  15
ATOM     15  C   UNL     1      -7.704  28.344 -22.283  1.00  0.00     0.000 C 
BRANCH  15  16
ATOM     16  C   UNL     1      -6.192  28.241 -22.553  1.00  0.00    -0.000 C 
BRANCH  16  17
ATOM     17  C   UNL     1      -5.708  26.792 -22.704  1.00  0.00    -0.003 C 
ATOM     18  C   UNL     1      -4.508  26.516 -21.805  1.00  0.00     0.004 C 
ENDBRANCH  16  17
ENDBRANCH  15  16
ENDBRANCH  14  15
ENDBRANCH  13  14
ENDBRANCH  12  13
ENDBRANCH  10  11
ENDBRANCH   1  10
TORSDOF 13
ENDMDL
MODEL 4
REMARK VINA RESULT:    -3.600      5.329      7.546
REMARK INTER + INTRA:          -7.940
REMARK INTER:                  -5.813
REMARK INTRA:                  -2.128
REMARK UNBOUND:                -1.605
REMARK SMILES CCCCCCC=CCCCCCCCC(=O)[O-]
REMARK SMILES IDX 10 1 11 2 12 3 13 4 14 5 15 6 16 7 17 8 18 9 9 10 8 11 7 12
REMARK SMILES IDX 6 13 5 14 4 15 3 16 2 17 1 18
REMARK H PARENT
REMARK Flexibility Score: inf
ROOT
ATOM      1  C   UNL     1      -8.119  27.994 -22.001  1.00  0.00     0.004 C 
ENDROOT
BRANCH   1   2
ATOM      2  C   UNL     1      -6.680  27.584 -22.366  1.00  0.00     0.000 C 
BRANCH   2   3
ATOM      3  C   UNL     1      -5.905  28.696 -23.089  1.00  0.00     0.000 C 
BRANCH   3   4
ATOM      4  C   UNL     1      -6.786  29.938 -23.289  1.00  0.00     0.000 C 
BRANCH   4   5
ATOM      5  C   UNL     1      -6.348  30.788 -24.491  1.00  0.00     0.006 C 
BRANCH   5   6
ATOM      6  C   UNL     1      -7.234  30.567 -25.724  1.00  0.00     0.053 C 
BRANCH   6   7
ATOM      7  C   UNL     1      -7.661  31.880 -26.302  1.00  0.00     0.041 C 
ATOM      8  O   UNL     1      -7.055  32.938 -25.988  1.00  0.00    -0.550 OA
ATOM      9  O   UNL     1      -8.760  31.942 -27.150  1.00  0.00    -0.550 OA
ENDBRANCH   6   7
ENDBRANCH   5   6
ENDBRANCH   4   5
ENDBRANCH   3   4
ENDBRANCH   2   3
ENDBRANCH   1   2
BRANCH   1  10
ATOM     10  C   UNL     1      -9.073  26.822 -21.706  1.00  0.00     0.027 C 
BRANCH  10  11
ATOM     11  C   UNL     1      -8.343  25.501 -21.623  1.00  0.00    -0.031 C 
ATOM     12  C   UNL     1      -8.627  24.404 -22.352  1.00  0.00    -0.031 C 
BRANCH  12  13
ATOM     13  C   UNL     1      -9.714  24.310 -23.394  1.00  0.00     0.027 C 
BRANCH  13  14
ATOM     14  C   UNL     1      -9.202  23.647 -24.682  1.00  0.00     0.004 C 
BRANCH  14  15
ATOM     15  C   UNL     1      -8.945  24.657 -25.814  1.00  0.00     0.000 C 
BRANCH  15  16
ATOM     16  C   UNL     1      -9.183  26.130 -25.436  1.00  0.00    -0.000 C 
BRANCH  16  17
ATOM     17  C   UNL     1      -7.994  27.037 -25.785  1.00  0.00    -0.003 C 
ATOM     18  C   UNL     1      -6.686  26.251 -25.790  1.00  0.00     0.004 C 
ENDBRANCH  16  17
ENDBRANCH  15  16
ENDBRANCH  14  15
ENDBRANCH  13  14
ENDBRANCH  12  13
ENDBRANCH  10  11
ENDBRANCH   1  10
TORSDOF 13
ENDMDL
MODEL 5
REMARK VINA RESULT:    -3.578      1.956      3.893
REMARK INTER + INTRA:          -7.902
REMARK INTER:                  -5.538
REMARK INTRA:                  -2.364
REMARK UNBOUND:                -1.605
REMARK SMILES CCCCCCC=CCCCCCCCC(=O)[O-]
REMARK SMILES IDX 10 1 11 2 12 3 13 4 14 5 15 6 16 7 17 8 18 9 9 10 8 11 7 12
REMARK SMILES IDX 6 13 5 14 4 15 3 16 2 17 1 18
REMARK H PARENT
REMARK Flexibility Score: inf
ROOT
ATOM      1  C   UNL     1      -8.672  25.800 -24.497  1.00  0.00     0.004 C 
ENDROOT
BRANCH   1   2
ATOM      2  C   UNL     1      -9.340  25.361 -23.180  1.00  0.00     0.000 C 
BRANCH   2   3
ATOM      3  C   UNL     1      -9.352  26.469 -22.115  1.00  0.00     0.000 C 
BRANCH   3   4
ATOM      4  C   UNL     1      -8.801  25.950 -20.779  1.00  0.00     0.000 C 
BRANCH   4   5
ATOM      5  C   UNL     1      -8.839  24.417 -20.675  1.00  0.00     0.006 C 
BRANCH   5   6
ATOM      6  C   UNL     1      -7.720  23.857 -19.788  1.00  0.00     0.053 C 
BRANCH   6   7
ATOM      7  C   UNL     1      -8.253  23.509 -18.434  1.00  0.00     0.041 C 
ATOM      8  O   UNL     1      -8.966  24.332 -17.802  1.00  0.00    -0.550 OA
ATOM      9  O   UNL     1      -7.921  22.295 -17.847  1.00  0.00    -0.550 OA
ENDBRANCH   6   7
ENDBRANCH   5   6
ENDBRANCH   4   5
ENDBRANCH   3   4
ENDBRANCH   2   3
ENDBRANCH   1   2
BRANCH   1  10
ATOM     10  C   UNL     1      -7.150  26.014 -24.413  1.00  0.00     0.027 C 
BRANCH  10  11
ATOM     11  C   UNL     1      -6.429  24.783 -23.913  1.00  0.00    -0.031 C 
ATOM     12  C   UNL     1      -5.650  24.725 -22.815  1.00  0.00    -0.031 C 
BRANCH  12  13
ATOM     13  C   UNL     1      -5.377  25.878 -21.881  1.00  0.00     0.027 C 
BRANCH  13  14
ATOM     14  C   UNL     1      -4.245  26.773 -22.409  1.00  0.00     0.004 C 
BRANCH  14  15
ATOM     15  C   UNL     1      -4.559  28.274 -22.277  1.00  0.00     0.000 C 
BRANCH  15  16
ATOM     16  C   UNL     1      -4.892  28.987 -23.600  1.00  0.00    -0.000 C 
BRANCH  16  17
ATOM     17  C   UNL     1      -6.336  29.508 -23.651  1.00  0.00    -0.003 C 
ATOM     18  C   UNL     1      -7.074  29.212 -22.350  1.00  0.00     0.004 C 
ENDBRANCH  16  17
ENDBRANCH  15  16
ENDBRANCH  14  15
ENDBRANCH  13  14
ENDBRANCH  12  13
ENDBRANCH  10  11
ENDBRANCH   1  10
TORSDOF 13
ENDMDL
MODEL 6
REMARK VINA RESULT:    -3.573      2.379      4.915
REMARK INTER + INTRA:          -7.894
REMARK INTER:                  -5.500
REMARK INTRA:                  -2.393
REMARK UNBOUND:                -1.605
REMARK SMILES CCCCCCC=CCCCCCCCC(=O)[O-]
REMARK SMILES IDX 10 1 11 2 12 3 13 4 14 5 15 6 16 7 17 8 18 9 9 10 8 11 7 12
REMARK SMILES IDX 6 13 5 14 4 15 3 16 2 17 1 18
REMARK H PARENT
REMARK Flexibility Score: inf
ROOT
ATOM      1  C   UNL     1      -5.641  27.559 -23.670  1.00  0.00     0.004 C 
ENDROOT
BRANCH   1   2
ATOM      2  C   UNL     1      -4.870  27.637 -22.339  1.00  0.00     0.000 C 
BRANCH   2   3
ATOM      3  C   UNL     1      -4.745  26.277 -21.637  1.00  0.00     0.000 C 
BRANCH   3   4
ATOM      4  C   UNL     1      -5.087  25.130 -22.599  1.00  0.00     0.000 C 
BRANCH   4   5
ATOM      5  C   UNL     1      -5.071  23.755 -21.912  1.00  0.00     0.006 C 
BRANCH   5   6
ATOM      6  C   UNL     1      -5.170  23.857 -20.385  1.00  0.00     0.053 C 
BRANCH   6   7
ATOM      7  C   UNL     1      -3.953  23.266 -19.743  1.00  0.00     0.041 C 
ATOM      8  O   UNL     1      -3.282  23.939 -18.918  1.00  0.00    -0.550 OA
ATOM      9  O   UNL     1      -3.532  21.990 -20.094  1.00  0.00    -0.550 OA
ENDBRANCH   6   7
ENDBRANCH   5   6
ENDBRANCH   4   5
ENDBRANCH   3   4
ENDBRANCH   2   3
ENDBRANCH   1   2
BRANCH   1  10
ATOM     10  C   UNL     1      -6.986  28.308 -23.687  1.00  0.00     0.027 C 
BRANCH  10  11
ATOM     11  C   UNL     1      -7.379  28.802 -22.313  1.00  0.00    -0.031 C 
ATOM     12  C   UNL     1      -8.321  28.250 -21.524  1.00  0.00    -0.031 C 
BRANCH  12  13
ATOM     13  C   UNL     1      -9.136  27.028 -21.868  1.00  0.00     0.027 C 
BRANCH  13  14
ATOM     14  C   UNL     1      -8.426  25.738 -21.430  1.00  0.00     0.004 C 
BRANCH  14  15
ATOM     15  C   UNL     1      -8.919  24.496 -22.193  1.00  0.00     0.000 C 
BRANCH  15  16
ATOM     16  C   UNL     1      -9.475  24.777 -23.601  1.00  0.00    -0.000 C 
BRANCH  16  17
ATOM     17  C   UNL     1      -8.372  24.989 -24.648  1.00  0.00    -0.003 C 
ATOM     18  C   UNL     1      -8.853  25.893 -25.778  1.00  0.00     0.004 C 
ENDBRANCH  16  17
ENDBRANCH  15  16
ENDBRANCH  14  15
ENDBRANCH  13  14
ENDBRANCH  12  13
ENDBRANCH  10  11
ENDBRANCH   1  10
TORSDOF 13
ENDMDL
MODEL 7
REMARK VINA RESULT:    -3.548      1.790      3.108
REMARK INTER + INTRA:          -7.849
REMARK INTER:                  -5.799
REMARK INTRA:                  -2.050
REMARK UNBOUND:                -1.605
REMARK SMILES CCCCCCC=CCCCCCCCC(=O)[O-]
REMARK SMILES IDX 10 1 11 2 12 3 13 4 14 5 15 6 16 7 17 8 18 9 9 10 8 11 7 12
REMARK SMILES IDX 6 13 5 14 4 15 3 16 2 17 1 18
REMARK H PARENT
REMARK Flexibility Score: inf
ROOT
ATOM      1  C   UNL     1      -9.374  25.560 -23.072  1.00  0.00     0.004 C 
ENDROOT
BRANCH   1   2
ATOM      2  C   UNL     1      -9.600  24.058 -23.332  1.00  0.00     0.000 C 
BRANCH   2   3
ATOM      3  C   UNL     1      -8.974  23.162 -22.253  1.00  0.00     0.000 C 
BRANCH   3   4
ATOM      4  C   UNL     1     -10.017  22.198 -21.668  1.00  0.00     0.000 C 
BRANCH   4   5
ATOM      5  C   UNL     1      -9.761  21.874 -20.188  1.00  0.00     0.006 C 
BRANCH   5   6
ATOM      6  C   UNL     1      -9.409  23.119 -19.363  1.00  0.00     0.053 C 
BRANCH   6   7
ATOM      7  C   UNL     1      -8.080  22.946 -18.698  1.00  0.00     0.041 C 
ATOM      8  O   UNL     1      -7.070  23.560 -19.131  1.00  0.00    -0.550 OA
ATOM      9  O   UNL     1      -7.946  22.068 -17.630  1.00  0.00    -0.550 OA
ENDBRANCH   6   7
ENDBRANCH   5   6
ENDBRANCH   4   5
ENDBRANCH   3   4
ENDBRANCH   2   3
ENDBRANCH   1   2
BRANCH   1  10
ATOM     10  C   UNL     1      -8.715  25.893 -21.722  1.00  0.00     0.027 C 
BRANCH  10  11
ATOM     11  C   UNL     1      -8.936  27.335 -21.321  1.00  0.00    -0.031 C 
ATOM     12  C   UNL     1      -8.286  28.396 -21.835  1.00  0.00    -0.031 C 
BRANCH  12  13
ATOM     13  C   UNL     1      -7.234  28.333 -22.914  1.00  0.00     0.027 C 
BRANCH  13  14
ATOM     14  C   UNL     1      -5.821  28.250 -22.318  1.00  0.00     0.004 C 
BRANCH  14  15
ATOM     15  C   UNL     1      -5.080  26.960 -22.714  1.00  0.00     0.000 C 
BRANCH  15  16
ATOM     16  C   UNL     1      -5.070  25.860 -21.639  1.00  0.00    -0.000 C 
BRANCH  16  17
ATOM     17  C   UNL     1      -5.331  24.459 -22.213  1.00  0.00    -0.003 C 
ATOM     18  C   UNL     1      -5.771  24.536 -23.671  1.00  0.00     0.004 C 
ENDBRANCH  16  17
ENDBRANCH  15  16
ENDBRANCH  14  15
ENDBRANCH  13  14
ENDBRANCH  12  13
ENDBRANCH  10  11
ENDBRANCH   1  10
TORSDOF 13
ENDMDL
MODEL 8
REMARK VINA RESULT:    -3.533      2.273      4.257
REMARK INTER + INTRA:          -7.824
REMARK INTER:                  -5.788
REMARK INTRA:                  -2.036
REMARK UNBOUND:                -1.605
REMARK SMILES CCCCCCC=CCCCCCCCC(=O)[O-]
REMARK SMILES IDX 10 1 11 2 12 3 13 4 14 5 15 6 16 7 17 8 18 9 9 10 8 11 7 12
REMARK SMILES IDX 6 13 5 14 4 15 3 16 2 17 1 18
REMARK H PARENT
REMARK Flexibility Score: inf
ROOT
ATOM      1  C   UNL     1      -9.368  26.024 -22.552  1.00  0.00     0.004 C 
ENDROOT
BRANCH   1   2
ATOM      2  C   UNL     1      -8.943  24.546 -22.634  1.00  0.00     0.000 C 
BRANCH   2   3
ATOM      3  C   UNL     1      -7.443  24.367 -22.914  1.00  0.00     0.000 C 
BRANCH   3   4
ATOM      4  C   UNL     1      -6.795  23.448 -21.868  1.00  0.00     0.000 C 
BRANCH   4   5
ATOM      5  C   UNL     1      -7.742  23.116 -20.703  1.00  0.00     0.006 C 
BRANCH   5   6
ATOM      6  C   UNL     1      -7.163  23.516 -19.339  1.00  0.00     0.053 C 
BRANCH   6   7
ATOM      7  C   UNL     1      -8.165  23.271 -18.255  1.00  0.00     0.041 C 
ATOM      8  O   UNL     1      -8.558  24.222 -17.529  1.00  0.00    -0.550 OA
ATOM      9  O   UNL     1      -8.629  21.984 -18.015  1.00  0.00    -0.550 OA
ENDBRANCH   6   7
ENDBRANCH   5   6
ENDBRANCH   4   5
ENDBRANCH   3   4
ENDBRANCH   2   3
ENDBRANCH   1   2
BRANCH   1  10
ATOM     10  C   UNL     1      -8.864  26.776 -21.306  1.00  0.00     0.027 C 
BRANCH  10  11
ATOM     11  C   UNL     1      -8.572  28.231 -21.600  1.00  0.00    -0.031 C 
ATOM     12  C   UNL     1      -7.476  28.695 -22.231  1.00  0.00    -0.031 C 
BRANCH  12  13
ATOM     13  C   UNL     1      -6.357  27.840 -22.773  1.00  0.00     0.027 C 
BRANCH  13  14
ATOM     14  C   UNL     1      -6.113  28.114 -24.264  1.00  0.00     0.004 C 
BRANCH  14  15
ATOM     15  C   UNL     1      -7.329  27.767 -25.142  1.00  0.00     0.000 C 
BRANCH  15  16
ATOM     16  C   UNL     1      -7.231  26.421 -25.882  1.00  0.00    -0.000 C 
BRANCH  16  17
ATOM     17  C   UNL     1      -8.605  25.837 -26.244  1.00  0.00    -0.003 C 
ATOM     18  C   UNL     1      -8.530  24.324 -26.424  1.00  0.00     0.004 C 
ENDBRANCH  16  17
ENDBRANCH  15  16
ENDBRANCH  14  15
ENDBRANCH  13  14
ENDBRANCH  12  13
ENDBRANCH  10  11
ENDBRANCH   1  10
TORSDOF 13
ENDMDL
MODEL 9
REMARK VINA RESULT:    -3.502      2.447      5.036
REMARK INTER + INTRA:          -7.769
REMARK INTER:                  -5.554
REMARK INTRA:                  -2.215
REMARK UNBOUND:                -1.605
REMARK SMILES CCCCCCC=CCCCCCCCC(=O)[O-]
REMARK SMILES IDX 10 1 11 2 12 3 13 4 14 5 15 6 16 7 17 8 18 9 9 10 8 11 7 12
REMARK SMILES IDX 6 13 5 14 4 15 3 16 2 17 1 18
REMARK H PARENT
REMARK Flexibility Score: inf
ROOT
ATOM      1  C   UNL     1      -8.542  22.181 -22.496  1.00  0.00     0.004 C 
ENDROOT
BRANCH   1   2
ATOM      2  C   UNL     1      -9.817  22.154 -21.631  1.00  0.00     0.000 C 
BRANCH   2   3
ATOM      3  C   UNL     1      -9.521  21.995 -20.132  1.00  0.00     0.000 C 
BRANCH   3   4
ATOM      4  C   UNL     1      -9.397  23.364 -19.449  1.00  0.00     0.000 C 
BRANCH   4   5
ATOM      5  C   UNL     1      -7.986  23.630 -18.902  1.00  0.00     0.006 C 
BRANCH   5   6
ATOM      6  C   UNL     1      -7.055  22.420 -19.057  1.00  0.00     0.053 C 
BRANCH   6   7
ATOM      7  C   UNL     1      -5.889  22.767 -19.929  1.00  0.00     0.041 C 
ATOM      8  O   UNL     1      -5.672  23.965 -20.249  1.00  0.00    -0.550 OA
ATOM      9  O   UNL     1      -5.071  21.762 -20.428  1.00  0.00    -0.550 OA
ENDBRANCH   6   7
ENDBRANCH   5   6
ENDBRANCH   4   5
ENDBRANCH   3   4
ENDBRANCH   2   3
ENDBRANCH   1   2
BRANCH   1  10
ATOM     10  C   UNL     1      -8.074  23.585 -22.919  1.00  0.00     0.027 C 
BRANCH  10  11
ATOM     11  C   UNL     1      -9.235  24.516 -23.182  1.00  0.00    -0.031 C 
ATOM     12  C   UNL     1      -9.417  25.720 -22.606  1.00  0.00    -0.031 C 
BRANCH  12  13
ATOM     13  C   UNL     1      -8.480  26.358 -21.610  1.00  0.00     0.027 C 
BRANCH  13  14
ATOM     14  C   UNL     1      -8.750  27.863 -21.469  1.00  0.00     0.004 C 
BRANCH  14  15
ATOM     15  C   UNL     1      -7.633  28.730 -22.078  1.00  0.00     0.000 C 
BRANCH  15  16
ATOM     16  C   UNL     1      -6.640  27.973 -22.977  1.00  0.00    -0.000 C 
BRANCH  16  17
ATOM     17  C   UNL     1      -6.890  28.208 -24.474  1.00  0.00    -0.003 C 
ATOM     18  C   UNL     1      -7.061  26.887 -25.217  1.00  0.00     0.004 C 
ENDBRANCH  16  17
ENDBRANCH  15  16
ENDBRANCH  14  15
ENDBRANCH  13  14
ENDBRANCH  12  13
ENDBRANCH  10  11
ENDBRANCH   1  10
TORSDOF 13
ENDMDL
