MODEL 1
REMARK VINA RESULT:    -4.283      0.000      0.000
REMARK INTER + INTRA:          -4.789
REMARK INTER:                  -4.784
REMARK INTRA:                  -0.006
REMARK UNBOUND:                -0.006
REMARK SMILES CC(C)CC=O
REMARK SMILES IDX 4 1 2 2 1 3 3 4 5 5 6 6
REMARK H PARENT
REMARK Flexibility Score: inf
ROOT
ATOM      1  C   UNL     1      22.598  51.307  -5.028  1.00  0.00     0.075 C 
ENDROOT
BRANCH   1   2
ATOM      2  C   UNL     1      23.149  52.751  -5.047  1.00  0.00    -0.010 C 
ATOM      3  C   UNL     1      22.611  53.593  -3.882  1.00  0.00     0.008 C 
ATOM      4  C   UNL     1      22.907  53.447  -6.392  1.00  0.00     0.008 C 
ENDBRANCH   1   2
BRANCH   1   5
ATOM      5  C   UNL     1      23.619  50.261  -4.670  1.00  0.00     0.224 C 
ATOM      6  O   UNL     1      23.588  49.173  -5.221  1.00  0.00    -0.303 OA
ENDBRANCH   1   5
TORSDOF 2
ENDMDL
MODEL 2
REMARK VINA RESULT:    -4.266      2.536      3.616
REMARK INTER + INTRA:          -4.770
REMARK INTER:                  -4.764
REMARK INTRA:                  -0.006
REMARK UNBOUND:                -0.006
REMARK SMILES CC(C)CC=O
REMARK SMILES IDX 4 1 2 2 1 3 3 4 5 5 6 6
REMARK H PARENT
REMARK Flexibility Score: inf
ROOT
ATOM      1  C   UNL     1      22.777  53.285  -6.411  1.00  0.00     0.075 C 
ENDROOT
BRANCH   1   2
ATOM      2  C   UNL     1      23.178  52.688  -5.042  1.00  0.00    -0.010 C 
ATOM      3  C   UNL     1      22.841  51.195  -4.939  1.00  0.00     0.008 C 
ATOM      4  C   UNL     1      22.578  53.474  -3.869  1.00  0.00     0.008 C 
ENDBRANCH   1   2
BRANCH   1   5
ATOM      5  C   UNL     1      23.587  54.485  -6.821  1.00  0.00     0.224 C 
ATOM      6  O   UNL     1      24.019  54.563  -7.959  1.00  0.00    -0.303 OA
ENDBRANCH   1   5
TORSDOF 2
ENDMDL
MODEL 3
REMARK VINA RESULT:    -4.169      2.130      4.248
REMARK INTER + INTRA:          -4.662
REMARK INTER:                  -4.639
REMARK INTRA:                  -0.023
REMARK UNBOUND:                -0.006
REMARK SMILES CC(C)CC=O
REMARK SMILES IDX 4 1 2 2 1 3 3 4 5 5 6 6
REMARK H PARENT
REMARK Flexibility Score: inf
ROOT
ATOM      1  C   UNL     1      23.311  49.881  -3.918  1.00  0.00     0.075 C 
ENDROOT
BRANCH   1   2
ATOM      2  C   UNL     1      24.393  48.892  -4.408  1.00  0.00    -0.010 C 
ATOM      3  C   UNL     1      23.949  48.117  -5.655  1.00  0.00     0.008 C 
ATOM      4  C   UNL     1      24.852  47.938  -3.297  1.00  0.00     0.008 C 
ENDBRANCH   1   2
BRANCH   1   5
ATOM      5  C   UNL     1      23.266  51.175  -4.685  1.00  0.00     0.224 C 
ATOM      6  O   UNL     1      22.190  51.640  -5.024  1.00  0.00    -0.303 OA
ENDBRANCH   1   5
TORSDOF 2
ENDMDL
MODEL 4
REMARK VINA RESULT:    -3.990      2.534      3.452
REMARK INTER + INTRA:          -4.462
REMARK INTER:                  -4.453
REMARK INTRA:                  -0.009
REMARK UNBOUND:                -0.006
REMARK SMILES CC(C)CC=O
REMARK SMILES IDX 4 1 2 2 1 3 3 4 5 5 6 6
REMARK H PARENT
REMARK Flexibility Score: inf
ROOT
ATOM      1  C   UNL     1      23.642  52.774  -5.393  1.00  0.00     0.075 C 
ENDROOT
BRANCH   1   2
ATOM      2  C   UNL     1      22.707  51.584  -5.081  1.00  0.00    -0.010 C 
ATOM      3  C   UNL     1      21.654  51.935  -4.022  1.00  0.00     0.008 C 
ATOM      4  C   UNL     1      23.487  50.321  -4.690  1.00  0.00     0.008 C 
ENDBRANCH   1   2
BRANCH   1   5
ATOM      5  C   UNL     1      23.002  53.864  -6.211  1.00  0.00     0.224 C 
ATOM      6  O   UNL     1      23.621  54.889  -6.442  1.00  0.00    -0.303 OA
ENDBRANCH   1   5
TORSDOF 2
ENDMDL
MODEL 5
REMARK VINA RESULT:    -3.979      1.066      1.848
REMARK INTER + INTRA:          -4.450
REMARK INTER:                  -4.445
REMARK INTRA:                  -0.005
REMARK UNBOUND:                -0.006
REMARK SMILES CC(C)CC=O
REMARK SMILES IDX 4 1 2 2 1 3 3 4 5 5 6 6
REMARK H PARENT
REMARK Flexibility Score: inf
ROOT
ATOM      1  C   UNL     1      23.774  50.617  -4.721  1.00  0.00     0.075 C 
ENDROOT
BRANCH   1   2
ATOM      2  C   UNL     1      22.629  51.581  -5.107  1.00  0.00    -0.010 C 
ATOM      3  C   UNL     1      23.153  52.898  -5.696  1.00  0.00     0.008 C 
ATOM      4  C   UNL     1      21.670  51.839  -3.938  1.00  0.00     0.008 C 
ENDBRANCH   1   2
BRANCH   1   5
ATOM      5  C   UNL     1      23.512  49.177  -5.072  1.00  0.00     0.224 C 
ATOM      6  O   UNL     1      24.449  48.404  -5.192  1.00  0.00    -0.303 OA
ENDBRANCH   1   5
TORSDOF 2
ENDMDL
MODEL 6
REMARK VINA RESULT:    -3.634      2.814      4.166
REMARK INTER + INTRA:          -4.065
REMARK INTER:                  -4.036
REMARK INTRA:                  -0.029
REMARK UNBOUND:                -0.006
REMARK SMILES CC(C)CC=O
REMARK SMILES IDX 4 1 2 2 1 3 3 4 5 5 6 6
REMARK H PARENT
REMARK Flexibility Score: inf
ROOT
ATOM      1  C   UNL     1      24.295  48.556  -3.154  1.00  0.00     0.075 C 
ENDROOT
BRANCH   1   2
ATOM      2  C   UNL     1      23.542  49.006  -4.427  1.00  0.00    -0.010 C 
ATOM      3  C   UNL     1      24.026  48.265  -5.680  1.00  0.00     0.008 C 
ATOM      4  C   UNL     1      23.597  50.527  -4.626  1.00  0.00     0.008 C 
ENDBRANCH   1   2
BRANCH   1   5
ATOM      5  C   UNL     1      25.185  47.359  -3.356  1.00  0.00     0.224 C 
ATOM      6  O   UNL     1      26.131  47.177  -2.606  1.00  0.00    -0.303 OA
ENDBRANCH   1   5
TORSDOF 2
ENDMDL
MODEL 7
REMARK VINA RESULT:    -3.052      1.402      2.326
REMARK INTER + INTRA:          -3.414
REMARK INTER:                  -3.377
REMARK INTRA:                  -0.037
REMARK UNBOUND:                -0.006
REMARK SMILES CC(C)CC=O
REMARK SMILES IDX 4 1 2 2 1 3 3 4 5 5 6 6
REMARK H PARENT
REMARK Flexibility Score: inf
ROOT
ATOM      1  C   UNL     1      23.379  53.383  -4.848  1.00  0.00     0.075 C 
ENDROOT
BRANCH   1   2
ATOM      2  C   UNL     1      23.095  54.383  -5.992  1.00  0.00    -0.010 C 
ATOM      3  C   UNL     1      22.401  53.716  -7.187  1.00  0.00     0.008 C 
ATOM      4  C   UNL     1      24.360  55.132  -6.434  1.00  0.00     0.008 C 
ENDBRANCH   1   2
BRANCH   1   5
ATOM      5  C   UNL     1      22.660  52.068  -4.987  1.00  0.00     0.224 C 
ATOM      6  O   UNL     1      23.261  51.026  -4.783  1.00  0.00    -0.303 OA
ENDBRANCH   1   5
TORSDOF 2
ENDMDL
MODEL 8
REMARK VINA RESULT:    -3.050     14.093     14.778
REMARK INTER + INTRA:          -3.413
REMARK INTER:                  -3.344
REMARK INTRA:                  -0.068
REMARK UNBOUND:                -0.006
REMARK SMILES CC(C)CC=O
REMARK SMILES IDX 4 1 2 2 1 3 3 4 5 5 6 6
REMARK H PARENT
REMARK Flexibility Score: inf
ROOT
ATOM      1  C   UNL     1      14.609  42.521 -14.407  1.00  0.00     0.075 C 
ENDROOT
BRANCH   1   2
ATOM      2  C   UNL     1      14.147  43.084 -13.044  1.00  0.00    -0.010 C 
ATOM      3  C   UNL     1      14.051  44.616 -13.051  1.00  0.00     0.008 C 
ATOM      4  C   UNL     1      15.022  42.589 -11.885  1.00  0.00     0.008 C 
ENDBRANCH   1   2
BRANCH   1   5
ATOM      5  C   UNL     1      15.643  43.364 -15.104  1.00  0.00     0.224 C 
ATOM      6  O   UNL     1      16.827  43.184 -14.870  1.00  0.00    -0.303 OA
ENDBRANCH   1   5
TORSDOF 2
ENDMDL
MODEL 9
REMARK VINA RESULT:    -2.837     10.311     11.418
REMARK INTER + INTRA:          -3.174
REMARK INTER:                  -3.105
REMARK INTRA:                  -0.068
REMARK UNBOUND:                -0.006
REMARK SMILES CC(C)CC=O
REMARK SMILES IDX 4 1 2 2 1 3 3 4 5 5 6 6
REMARK H PARENT
REMARK Flexibility Score: inf
ROOT
ATOM      1  C   UNL     1      18.075  42.832   0.313  1.00  0.00     0.075 C 
ENDROOT
BRANCH   1   2
ATOM      2  C   UNL     1      19.343  43.653   0.639  1.00  0.00    -0.010 C 
ATOM      3  C   UNL     1      19.656  43.665   2.142  1.00  0.00     0.008 C 
ATOM      4  C   UNL     1      19.271  45.079   0.076  1.00  0.00     0.008 C 
ENDBRANCH   1   2
BRANCH   1   5
ATOM      5  C   UNL     1      17.030  42.856   1.396  1.00  0.00     0.224 C 
ATOM      6  O   UNL     1      16.197  43.748   1.413  1.00  0.00    -0.303 OA
ENDBRANCH   1   5
TORSDOF 2
ENDMDL
