MODEL 1
REMARK VINA RESULT:    -7.326      0.000      0.000
REMARK INTER + INTRA:         -11.595
REMARK INTER:                 -10.753
REMARK INTRA:                  -0.842
REMARK UNBOUND:                -0.842
REMARK SMILES CC(C)COC(=O)c1ccccc1C(=O)OCC(C)C
REMARK SMILES IDX 8 1 9 2 10 3 11 4 12 5 13 6 6 7 7 8 5 9 4 10 2 11 1 12 3 13
REMARK SMILES IDX 14 14 15 15 16 16 17 17 18 18 19 19 20 20
REMARK H PARENT
REMARK Flexibility Score: inf
ROOT
ATOM      1  C   UNL     1     134.007 128.370 131.899  1.00  0.00     0.074 A 
ATOM      2  C   UNL     1     134.950 128.174 132.925  1.00  0.00     0.016 A 
ATOM      3  C   UNL     1     135.522 129.261 133.586  1.00  0.00     0.001 A 
ATOM      4  C   UNL     1     135.162 130.560 133.234  1.00  0.00     0.001 A 
ATOM      5  C   UNL     1     134.213 130.777 132.235  1.00  0.00     0.016 A 
ATOM      6  C   UNL     1     133.607 129.696 131.572  1.00  0.00     0.074 A 
ENDROOT
BRANCH   1   7
ATOM      7  C   UNL     1     133.528 127.176 131.165  1.00  0.00     0.339 C 
ATOM      8  O   UNL     1     134.138 126.775 130.136  1.00  0.00    -0.246 OA
BRANCH   7   9
ATOM      9  O   UNL     1     132.428 126.461 131.658  1.00  0.00    -0.462 OA
BRANCH   9  10
ATOM     10  C   UNL     1     131.447 127.014 132.536  1.00  0.00     0.236 C 
BRANCH  10  11
ATOM     11  C   UNL     1     130.271 127.615 131.745  1.00  0.00     0.021 C 
ATOM     12  C   UNL     1     129.244 126.545 131.350  1.00  0.00     0.011 C 
ATOM     13  C   UNL     1     129.592 128.720 132.565  1.00  0.00     0.011 C 
ENDBRANCH  10  11
ENDBRANCH   9  10
ENDBRANCH   7   9
ENDBRANCH   1   7
BRANCH   6  14
ATOM     14  C   UNL     1     132.528 129.997 130.603  1.00  0.00     0.339 C 
ATOM     15  O   UNL     1     132.514 129.443 129.469  1.00  0.00    -0.246 OA
BRANCH  14  16
ATOM     16  O   UNL     1     131.489 130.854 130.979  1.00  0.00    -0.462 OA
BRANCH  16  17
ATOM     17  C   UNL     1     131.058 131.945 130.170  1.00  0.00     0.236 C 
BRANCH  17  18
ATOM     18  C   UNL     1     132.140 133.034 130.140  1.00  0.00     0.021 C 
ATOM     19  C   UNL     1     131.911 134.070 131.248  1.00  0.00     0.011 C 
ATOM     20  C   UNL     1     132.172 133.720 128.769  1.00  0.00     0.011 C 
ENDBRANCH  17  18
ENDBRANCH  16  17
ENDBRANCH  14  16
ENDBRANCH   6  14
TORSDOF 8
ENDMDL
MODEL 2
REMARK VINA RESULT:    -7.314      0.055      4.700
REMARK INTER + INTRA:         -11.577
REMARK INTER:                 -10.792
REMARK INTRA:                  -0.785
REMARK UNBOUND:                -0.842
REMARK SMILES CC(C)COC(=O)c1ccccc1C(=O)OCC(C)C
REMARK SMILES IDX 8 1 9 2 10 3 11 4 12 5 13 6 6 7 7 8 5 9 4 10 2 11 1 12 3 13
REMARK SMILES IDX 14 14 15 15 16 16 17 17 18 18 19 19 20 20
REMARK H PARENT
REMARK Flexibility Score: inf
ROOT
ATOM      1  C   UNL     1     133.608 129.673 131.551  1.00  0.00     0.074 A 
ATOM      2  C   UNL     1     134.202 130.762 132.216  1.00  0.00     0.016 A 
ATOM      3  C   UNL     1     135.137 130.555 133.230  1.00  0.00     0.001 A 
ATOM      4  C   UNL     1     135.495 129.260 133.597  1.00  0.00     0.001 A 
ATOM      5  C   UNL     1     134.935 128.166 132.937  1.00  0.00     0.016 A 
ATOM      6  C   UNL     1     134.007 128.352 131.896  1.00  0.00     0.074 A 
ENDROOT
BRANCH   1   7
ATOM      7  C   UNL     1     132.541 129.964 130.566  1.00  0.00     0.339 C 
ATOM      8  O   UNL     1     132.528 129.373 129.451  1.00  0.00    -0.246 OA
BRANCH   7   9
ATOM      9  O   UNL     1     131.514 130.854 130.906  1.00  0.00    -0.462 OA
BRANCH   9  10
ATOM     10  C   UNL     1     131.112 131.957 130.092  1.00  0.00     0.236 C 
BRANCH  10  11
ATOM     11  C   UNL     1     132.188 133.059 130.082  1.00  0.00     0.021 C 
ATOM     12  C   UNL     1     132.252 133.779 128.729  1.00  0.00     0.011 C 
ATOM     13  C   UNL     1     131.920 134.069 131.205  1.00  0.00     0.011 C 
ENDBRANCH  10  11
ENDBRANCH   9  10
ENDBRANCH   7   9
ENDBRANCH   1   7
BRANCH   6  14
ATOM     14  C   UNL     1     133.541 127.151 131.166  1.00  0.00     0.339 C 
ATOM     15  O   UNL     1     134.177 126.724 130.164  1.00  0.00    -0.246 OA
BRANCH  14  16
ATOM     16  O   UNL     1     132.421 126.456 131.634  1.00  0.00    -0.462 OA
BRANCH  16  17
ATOM     17  C   UNL     1     131.481 127.027 132.540  1.00  0.00     0.236 C 
BRANCH  17  18
ATOM     18  C   UNL     1     130.305 127.633 131.763  1.00  0.00     0.021 C 
ATOM     19  C   UNL     1     129.611 128.731 132.580  1.00  0.00     0.011 C 
ATOM     20  C   UNL     1     129.300 126.543 131.376  1.00  0.00     0.011 C 
ENDBRANCH  17  18
ENDBRANCH  16  17
ENDBRANCH  14  16
ENDBRANCH   6  14
TORSDOF 8
ENDMDL
MODEL 3
REMARK VINA RESULT:    -7.244      2.274      6.434
REMARK INTER + INTRA:         -11.474
REMARK INTER:                 -10.461
REMARK INTRA:                  -1.013
REMARK UNBOUND:                -0.842
REMARK SMILES CC(C)COC(=O)c1ccccc1C(=O)OCC(C)C
REMARK SMILES IDX 8 1 9 2 10 3 11 4 12 5 13 6 6 7 7 8 5 9 4 10 2 11 1 12 3 13
REMARK SMILES IDX 14 14 15 15 16 16 17 17 18 18 19 19 20 20
REMARK H PARENT
REMARK Flexibility Score: inf
ROOT
ATOM      1  C   UNL     1     132.852 131.850 130.426  1.00  0.00     0.074 A 
ATOM      2  C   UNL     1     131.630 132.449 130.068  1.00  0.00     0.016 A 
ATOM      3  C   UNL     1     130.416 131.877 130.448  1.00  0.00     0.001 A 
ATOM      4  C   UNL     1     130.401 130.699 131.190  1.00  0.00     0.001 A 
ATOM      5  C   UNL     1     131.600 130.099 131.576  1.00  0.00     0.016 A 
ATOM      6  C   UNL     1     132.836 130.671 131.223  1.00  0.00     0.074 A 
ENDROOT
BRANCH   1   7
ATOM      7  C   UNL     1     134.097 132.449 129.894  1.00  0.00     0.339 C 
ATOM      8  O   UNL     1     134.388 132.329 128.672  1.00  0.00    -0.246 OA
BRANCH   7   9
ATOM      9  O   UNL     1     134.917 133.202 130.744  1.00  0.00    -0.462 OA
BRANCH   9  10
ATOM     10  C   UNL     1     135.201 134.589 130.556  1.00  0.00     0.236 C 
BRANCH  10  11
ATOM     11  C   UNL     1     133.904 135.414 130.480  1.00  0.00     0.021 C 
ATOM     12  C   UNL     1     133.139 135.397 131.810  1.00  0.00     0.011 C 
ATOM     13  C   UNL     1     134.220 136.859 130.073  1.00  0.00     0.011 C 
ENDBRANCH  10  11
ENDBRANCH   9  10
ENDBRANCH   7   9
ENDBRANCH   1   7
BRANCH   6  14
ATOM     14  C   UNL     1     134.065 130.044 131.761  1.00  0.00     0.339 C 
ATOM     15  O   UNL     1     134.671 130.561 132.740  1.00  0.00    -0.246 OA
BRANCH  14  16
ATOM     16  O   UNL     1     134.515 128.839 131.215  1.00  0.00    -0.462 OA
BRANCH  16  17
ATOM     17  C   UNL     1     134.431 127.597 131.910  1.00  0.00     0.236 C 
BRANCH  17  18
ATOM     18  C   UNL     1     133.309 126.737 131.313  1.00  0.00     0.021 C 
ATOM     19  C   UNL     1     132.014 126.880 132.123  1.00  0.00     0.011 C 
ATOM     20  C   UNL     1     133.738 125.266 131.250  1.00  0.00     0.011 C 
ENDBRANCH  17  18
ENDBRANCH  16  17
ENDBRANCH  14  16
ENDBRANCH   6  14
TORSDOF 8
ENDMDL
MODEL 4
REMARK VINA RESULT:    -7.184      2.752      6.972
REMARK INTER + INTRA:         -11.386
REMARK INTER:                 -10.118
REMARK INTRA:                  -1.269
REMARK UNBOUND:                -0.842
REMARK SMILES CC(C)COC(=O)c1ccccc1C(=O)OCC(C)C
REMARK SMILES IDX 8 1 9 2 10 3 11 4 12 5 13 6 6 7 7 8 5 9 4 10 2 11 1 12 3 13
REMARK SMILES IDX 14 14 15 15 16 16 17 17 18 18 19 19 20 20
REMARK H PARENT
REMARK Flexibility Score: inf
ROOT
ATOM      1  C   UNL     1     132.718 133.731 130.331  1.00  0.00     0.074 A 
ATOM      2  C   UNL     1     132.347 134.320 129.108  1.00  0.00     0.016 A 
ATOM      3  C   UNL     1     132.691 133.724 127.895  1.00  0.00     0.001 A 
ATOM      4  C   UNL     1     133.410 132.531 127.883  1.00  0.00     0.001 A 
ATOM      5  C   UNL     1     133.769 131.918 129.083  1.00  0.00     0.016 A 
ATOM      6  C   UNL     1     133.413 132.490 130.317  1.00  0.00     0.074 A 
ENDROOT
BRANCH   1   7
ATOM      7  C   UNL     1     132.418 134.477 131.575  1.00  0.00     0.339 C 
ATOM      8  O   UNL     1     131.298 134.345 132.141  1.00  0.00    -0.246 OA
BRANCH   7   9
ATOM      9  O   UNL     1     133.411 135.280 132.152  1.00  0.00    -0.462 OA
BRANCH   9  10
ATOM     10  C   UNL     1     133.725 136.601 131.707  1.00  0.00     0.236 C 
BRANCH  10  11
ATOM     11  C   UNL     1     135.210 136.714 131.314  1.00  0.00     0.021 C 
ATOM     12  C   UNL     1     136.031 137.432 132.394  1.00  0.00     0.011 C 
ATOM     13  C   UNL     1     135.794 135.321 131.047  1.00  0.00     0.011 C 
ENDBRANCH  10  11
ENDBRANCH   9  10
ENDBRANCH   7   9
ENDBRANCH   1   7
BRANCH   6  14
ATOM     14  C   UNL     1     133.729 131.728 131.547  1.00  0.00     0.339 C 
ATOM     15  O   UNL     1     134.882 131.784 132.056  1.00  0.00    -0.246 OA
BRANCH  14  16
ATOM     16  O   UNL     1     132.719 130.995 132.178  1.00  0.00    -0.462 OA
BRANCH  16  17
ATOM     17  C   UNL     1     132.413 129.646 131.831  1.00  0.00     0.236 C 
BRANCH  17  18
ATOM     18  C   UNL     1     130.949 129.540 131.381  1.00  0.00     0.021 C 
ATOM     19  C   UNL     1     130.360 130.927 131.088  1.00  0.00     0.011 C 
ATOM     20  C   UNL     1     130.113 128.821 132.445  1.00  0.00     0.011 C 
ENDBRANCH  17  18
ENDBRANCH  16  17
ENDBRANCH  14  16
ENDBRANCH   6  14
TORSDOF 8
ENDMDL
MODEL 5
REMARK VINA RESULT:    -7.176      2.274      3.883
REMARK INTER + INTRA:         -11.374
REMARK INTER:                 -10.360
REMARK INTRA:                  -1.014
REMARK UNBOUND:                -0.842
REMARK SMILES CC(C)COC(=O)c1ccccc1C(=O)OCC(C)C
REMARK SMILES IDX 8 1 9 2 10 3 11 4 12 5 13 6 6 7 7 8 5 9 4 10 2 11 1 12 3 13
REMARK SMILES IDX 14 14 15 15 16 16 17 17 18 18 19 19 20 20
REMARK H PARENT
REMARK Flexibility Score: inf
ROOT
ATOM      1  C   UNL     1     132.826 130.636 131.217  1.00  0.00     0.074 A 
ATOM      2  C   UNL     1     131.588 130.066 131.570  1.00  0.00     0.016 A 
ATOM      3  C   UNL     1     130.390 130.681 131.207  1.00  0.00     0.001 A 
ATOM      4  C   UNL     1     130.407 131.873 130.486  1.00  0.00     0.001 A 
ATOM      5  C   UNL     1     131.622 132.443 130.106  1.00  0.00     0.016 A 
ATOM      6  C   UNL     1     132.842 131.829 130.442  1.00  0.00     0.074 A 
ENDROOT
BRANCH   1   7
ATOM      7  C   UNL     1     134.055 129.990 131.733  1.00  0.00     0.339 C 
ATOM      8  O   UNL     1     134.647 130.465 132.741  1.00  0.00    -0.246 OA
BRANCH   7   9
ATOM      9  O   UNL     1     134.519 128.814 131.130  1.00  0.00    -0.462 OA
BRANCH   9  10
ATOM     10  C   UNL     1     134.515 127.536 131.769  1.00  0.00     0.236 C 
BRANCH  10  11
ATOM     11  C   UNL     1     133.396 126.640 131.207  1.00  0.00     0.021 C 
ATOM     12  C   UNL     1     133.797 125.159 131.211  1.00  0.00     0.011 C 
ATOM     13  C   UNL     1     132.105 126.838 132.012  1.00  0.00     0.011 C 
ENDBRANCH  10  11
ENDBRANCH   9  10
ENDBRANCH   7   9
ENDBRANCH   1   7
BRANCH   6  14
ATOM     14  C   UNL     1     134.086 132.429 129.910  1.00  0.00     0.339 C 
ATOM     15  O   UNL     1     134.395 132.289 128.695  1.00  0.00    -0.246 OA
BRANCH  14  16
ATOM     16  O   UNL     1     134.887 133.206 130.752  1.00  0.00    -0.462 OA
BRANCH  16  17
ATOM     17  C   UNL     1     135.187 134.574 130.487  1.00  0.00     0.236 C 
BRANCH  17  18
ATOM     18  C   UNL     1     133.888 135.390 130.414  1.00  0.00     0.021 C 
ATOM     19  C   UNL     1     134.166 136.830 129.965  1.00  0.00     0.011 C 
ATOM     20  C   UNL     1     133.176 135.384 131.772  1.00  0.00     0.011 C 
ENDBRANCH  17  18
ENDBRANCH  16  17
ENDBRANCH  14  16
ENDBRANCH   6  14
TORSDOF 8
ENDMDL
MODEL 6
REMARK VINA RESULT:    -7.169      2.761      4.891
REMARK INTER + INTRA:         -11.364
REMARK INTER:                 -10.107
REMARK INTRA:                  -1.257
REMARK UNBOUND:                -0.842
REMARK SMILES CC(C)COC(=O)c1ccccc1C(=O)OCC(C)C
REMARK SMILES IDX 8 1 9 2 10 3 11 4 12 5 13 6 6 7 7 8 5 9 4 10 2 11 1 12 3 13
REMARK SMILES IDX 14 14 15 15 16 16 17 17 18 18 19 19 20 20
REMARK H PARENT
REMARK Flexibility Score: inf
ROOT
ATOM      1  C   UNL     1     133.443 132.499 130.302  1.00  0.00     0.074 A 
ATOM      2  C   UNL     1     133.799 131.921 129.069  1.00  0.00     0.016 A 
ATOM      3  C   UNL     1     133.442 132.529 127.866  1.00  0.00     0.001 A 
ATOM      4  C   UNL     1     132.725 133.724 127.873  1.00  0.00     0.001 A 
ATOM      5  C   UNL     1     132.382 134.327 129.083  1.00  0.00     0.016 A 
ATOM      6  C   UNL     1     132.751 133.743 130.308  1.00  0.00     0.074 A 
ENDROOT
BRANCH   1   7
ATOM      7  C   UNL     1     133.756 131.742 131.536  1.00  0.00     0.339 C 
ATOM      8  O   UNL     1     134.912 131.793 132.037  1.00  0.00    -0.246 OA
BRANCH   7   9
ATOM      9  O   UNL     1     132.740 131.018 132.175  1.00  0.00    -0.462 OA
BRANCH   9  10
ATOM     10  C   UNL     1     132.405 129.666 131.859  1.00  0.00     0.236 C 
BRANCH  10  11
ATOM     11  C   UNL     1     130.945 129.553 131.385  1.00  0.00     0.021 C 
ATOM     12  C   UNL     1     130.061 128.849 132.423  1.00  0.00     0.011 C 
ATOM     13  C   UNL     1     130.382 130.945 131.070  1.00  0.00     0.011 C 
ENDBRANCH  10  11
ENDBRANCH   9  10
ENDBRANCH   7   9
ENDBRANCH   1   7
BRANCH   6  14
ATOM     14  C   UNL     1     132.452 134.493 131.549  1.00  0.00     0.339 C 
ATOM     15  O   UNL     1     131.346 134.343 132.136  1.00  0.00    -0.246 OA
BRANCH  14  16
ATOM     16  O   UNL     1     133.432 135.325 132.100  1.00  0.00    -0.462 OA
BRANCH  16  17
ATOM     17  C   UNL     1     133.742 136.611 131.569  1.00  0.00     0.236 C 
BRANCH  17  18
ATOM     18  C   UNL     1     135.240 136.696 131.244  1.00  0.00     0.021 C 
ATOM     19  C   UNL     1     135.841 135.300 131.042  1.00  0.00     0.011 C 
ATOM     20  C   UNL     1     135.987 137.442 132.356  1.00  0.00     0.011 C 
ENDBRANCH  17  18
ENDBRANCH  16  17
ENDBRANCH  14  16
ENDBRANCH   6  14
TORSDOF 8
ENDMDL
MODEL 7
REMARK VINA RESULT:    -6.895      3.887      7.953
REMARK INTER + INTRA:         -10.962
REMARK INTER:                 -10.050
REMARK INTRA:                  -0.912
REMARK UNBOUND:                -0.842
REMARK SMILES CC(C)COC(=O)c1ccccc1C(=O)OCC(C)C
REMARK SMILES IDX 8 1 9 2 10 3 11 4 12 5 13 6 6 7 7 8 5 9 4 10 2 11 1 12 3 13
REMARK SMILES IDX 14 14 15 15 16 16 17 17 18 18 19 19 20 20
REMARK H PARENT
REMARK Flexibility Score: inf
ROOT
ATOM      1  C   UNL     1     133.445 135.709 131.299  1.00  0.00     0.074 A 
ATOM      2  C   UNL     1     134.688 136.261 131.660  1.00  0.00     0.016 A 
ATOM      3  C   UNL     1     135.880 135.641 131.287  1.00  0.00     0.001 A 
ATOM      4  C   UNL     1     135.851 134.460 130.549  1.00  0.00     0.001 A 
ATOM      5  C   UNL     1     134.631 133.907 130.161  1.00  0.00     0.016 A 
ATOM      6  C   UNL     1     133.417 134.528 130.506  1.00  0.00     0.074 A 
ENDROOT
BRANCH   1   7
ATOM      7  C   UNL     1     132.222 136.358 131.825  1.00  0.00     0.339 C 
ATOM      8  O   UNL     1     131.705 135.960 132.905  1.00  0.00    -0.246 OA
BRANCH   7   9
ATOM      9  O   UNL     1     131.680 137.457 131.146  1.00  0.00    -0.462 OA
BRANCH   9  10
ATOM     10  C   UNL     1     132.462 138.512 130.584  1.00  0.00     0.236 C 
BRANCH  10  11
ATOM     11  C   UNL     1     132.817 139.567 131.648  1.00  0.00     0.021 C 
ATOM     12  C   UNL     1     134.300 139.507 132.037  1.00  0.00     0.011 C 
ATOM     13  C   UNL     1     132.460 140.970 131.141  1.00  0.00     0.011 C 
ENDBRANCH  10  11
ENDBRANCH   9  10
ENDBRANCH   7   9
ENDBRANCH   1   7
BRANCH   6  14
ATOM     14  C   UNL     1     132.167 133.947 129.967  1.00  0.00     0.339 C 
ATOM     15  O   UNL     1     131.861 134.104 128.753  1.00  0.00    -0.246 OA
BRANCH  14  16
ATOM     16  O   UNL     1     131.356 133.169 130.799  1.00  0.00    -0.462 OA
BRANCH  16  17
ATOM     17  C   UNL     1     131.059 131.802 130.527  1.00  0.00     0.236 C 
BRANCH  17  18
ATOM     18  C   UNL     1     132.358 130.989 130.443  1.00  0.00     0.021 C 
ATOM     19  C   UNL     1     132.094 129.583 129.891  1.00  0.00     0.011 C 
ATOM     20  C   UNL     1     133.026 130.903 131.821  1.00  0.00     0.011 C 
ENDBRANCH  17  18
ENDBRANCH  16  17
ENDBRANCH  14  16
ENDBRANCH   6  14
TORSDOF 8
ENDMDL
MODEL 8
REMARK VINA RESULT:    -6.882      3.722      5.988
REMARK INTER + INTRA:         -10.942
REMARK INTER:                  -9.979
REMARK INTRA:                  -0.963
REMARK UNBOUND:                -0.842
REMARK SMILES CC(C)COC(=O)c1ccccc1C(=O)OCC(C)C
REMARK SMILES IDX 8 1 9 2 10 3 11 4 12 5 13 6 6 7 7 8 5 9 4 10 2 11 1 12 3 13
REMARK SMILES IDX 14 14 15 15 16 16 17 17 18 18 19 19 20 20
REMARK H PARENT
REMARK Flexibility Score: inf
ROOT
ATOM      1  C   UNL     1     133.262 134.190 130.448  1.00  0.00     0.074 A 
ATOM      2  C   UNL     1     134.475 133.553 130.126  1.00  0.00     0.016 A 
ATOM      3  C   UNL     1     135.698 134.142 130.447  1.00  0.00     0.001 A 
ATOM      4  C   UNL     1     135.730 135.375 131.094  1.00  0.00     0.001 A 
ATOM      5  C   UNL     1     134.540 136.014 131.443  1.00  0.00     0.016 A 
ATOM      6  C   UNL     1     133.296 135.428 131.150  1.00  0.00     0.074 A 
ENDROOT
BRANCH   1   7
ATOM      7  C   UNL     1     132.006 133.563 129.977  1.00  0.00     0.339 C 
ATOM      8  O   UNL     1     131.623 133.723 128.786  1.00  0.00    -0.246 OA
BRANCH   7   9
ATOM      9  O   UNL     1     131.279 132.739 130.847  1.00  0.00    -0.462 OA
BRANCH   9  10
ATOM     10  C   UNL     1     130.766 131.456 130.489  1.00  0.00     0.236 C 
BRANCH  10  11
ATOM     11  C   UNL     1     131.813 130.353 130.731  1.00  0.00     0.021 C 
ATOM     12  C   UNL     1     132.764 130.714 131.880  1.00  0.00     0.011 C 
ATOM     13  C   UNL     1     131.117 129.017 131.022  1.00  0.00     0.011 C 
ENDBRANCH  10  11
ENDBRANCH   9  10
ENDBRANCH   7   9
ENDBRANCH   1   7
BRANCH   6  14
ATOM     14  C   UNL     1     132.079 136.106 131.648  1.00  0.00     0.339 C 
ATOM     15  O   UNL     1     131.452 135.647 132.643  1.00  0.00    -0.246 OA
BRANCH  14  16
ATOM     16  O   UNL     1     131.662 137.298 131.047  1.00  0.00    -0.462 OA
BRANCH  16  17
ATOM     17  C   UNL     1     131.690 138.554 131.721  1.00  0.00     0.236 C 
BRANCH  17  18
ATOM     18  C   UNL     1     132.827 139.422 131.166  1.00  0.00     0.021 C 
ATOM     19  C   UNL     1     134.084 139.308 132.037  1.00  0.00     0.011 C 
ATOM     20  C   UNL     1     132.382 140.886 131.064  1.00  0.00     0.011 C 
ENDBRANCH  17  18
ENDBRANCH  16  17
ENDBRANCH  14  16
ENDBRANCH   6  14
TORSDOF 8
ENDMDL
MODEL 9
REMARK VINA RESULT:    -6.764      1.354      2.202
REMARK INTER + INTRA:         -10.770
REMARK INTER:                 -10.223
REMARK INTRA:                  -0.547
REMARK UNBOUND:                -0.842
REMARK SMILES CC(C)COC(=O)c1ccccc1C(=O)OCC(C)C
REMARK SMILES IDX 8 1 9 2 10 3 11 4 12 5 13 6 6 7 7 8 5 9 4 10 2 11 1 12 3 13
REMARK SMILES IDX 14 14 15 15 16 16 17 17 18 18 19 19 20 20
REMARK H PARENT
REMARK Flexibility Score: inf
ROOT
ATOM      1  C   UNL     1     133.106 129.273 131.311  1.00  0.00     0.074 A 
ATOM      2  C   UNL     1     133.867 128.175 131.755  1.00  0.00     0.016 A 
ATOM      3  C   UNL     1     134.912 128.351 132.662  1.00  0.00     0.001 A 
ATOM      4  C   UNL     1     135.215 129.623 133.140  1.00  0.00     0.001 A 
ATOM      5  C   UNL     1     134.460 130.723 132.732  1.00  0.00     0.016 A 
ATOM      6  C   UNL     1     133.388 130.566 131.835  1.00  0.00     0.074 A 
ENDROOT
BRANCH   1   7
ATOM      7  C   UNL     1     132.088 129.030 130.263  1.00  0.00     0.339 C 
ATOM      8  O   UNL     1     132.363 129.240 129.050  1.00  0.00    -0.246 OA
BRANCH   7   9
ATOM      9  O   UNL     1     130.840 128.507 130.625  1.00  0.00    -0.462 OA
BRANCH   9  10
ATOM     10  C   UNL     1     130.447 128.240 131.972  1.00  0.00     0.236 C 
BRANCH  10  11
ATOM     11  C   UNL     1     129.971 126.785 132.133  1.00  0.00     0.021 C 
ATOM     12  C   UNL     1     129.139 126.323 130.930  1.00  0.00     0.011 C 
ATOM     13  C   UNL     1     131.173 125.853 132.332  1.00  0.00     0.011 C 
ENDBRANCH  10  11
ENDBRANCH   9  10
ENDBRANCH   7   9
ENDBRANCH   1   7
BRANCH   6  14
ATOM     14  C   UNL     1     132.561 131.756 131.533  1.00  0.00     0.339 C 
ATOM     15  O   UNL     1     131.356 131.626 131.182  1.00  0.00    -0.246 OA
BRANCH  14  16
ATOM     16  O   UNL     1     133.109 133.032 131.700  1.00  0.00    -0.462 OA
BRANCH  16  17
ATOM     17  C   UNL     1     132.523 134.203 131.137  1.00  0.00     0.236 C 
BRANCH  17  18
ATOM     18  C   UNL     1     133.308 134.634 129.890  1.00  0.00     0.021 C 
ATOM     19  C   UNL     1     132.672 134.065 128.615  1.00  0.00     0.011 C 
ATOM     20  C   UNL     1     134.772 134.190 129.999  1.00  0.00     0.011 C 
ENDBRANCH  17  18
ENDBRANCH  16  17
ENDBRANCH  14  16
ENDBRANCH   6  14
TORSDOF 8
ENDMDL
