MODEL 1
REMARK VINA RESULT:    -5.117      0.000      0.000
REMARK INTER + INTRA:         -11.370
REMARK INTER:                  -9.305
REMARK INTRA:                  -2.065
REMARK UNBOUND:                -2.065
REMARK SMILES CCCCCCCCCCCCCC[C@@H](C)C(=O)[O-]
REMARK SMILES IDX 9 1 10 2 11 3 12 4 13 5 14 6 15 7 16 8 17 9 18 10 19 11 8 12
REMARK SMILES IDX 7 13 6 14 5 15 4 16 3 17 2 18 1 19
REMARK H PARENT
REMARK Flexibility Score: inf
ROOT
ATOM      1  C   UNL     1      34.736  57.379  31.584  1.00  0.00     0.000 C 
ENDROOT
BRANCH   1   2
ATOM      2  C   UNL     1      35.335  58.121  30.374  1.00  0.00     0.000 C 
BRANCH   2   3
ATOM      3  C   UNL     1      35.807  57.165  29.255  1.00  0.00     0.000 C 
BRANCH   3   4
ATOM      4  C   UNL     1      35.573  57.717  27.840  1.00  0.00     0.000 C 
BRANCH   4   5
ATOM      5  C   UNL     1      34.471  56.957  27.082  1.00  0.00     0.001 C 
BRANCH   5   6
ATOM      6  C   UNL     1      34.220  55.548  27.659  1.00  0.00     0.009 C 
BRANCH   6   7
ATOM      7  C   UNL     1      32.722  55.213  27.852  1.00  0.00     0.032 C 
ATOM      8  C   UNL     1      31.832  55.894  26.804  1.00  0.00     0.014 C 
BRANCH   7   9
ATOM      9  C   UNL     1      32.515  53.723  27.790  1.00  0.00     0.044 C 
ATOM     10  O   UNL     1      31.521  53.249  27.181  1.00  0.00    -0.550 OA
ATOM     11  O   UNL     1      33.438  52.857  28.367  1.00  0.00    -0.550 OA
ENDBRANCH   7   9
ENDBRANCH   6   7
ENDBRANCH   5   6
ENDBRANCH   4   5
ENDBRANCH   3   4
ENDBRANCH   2   3
ENDBRANCH   1   2
BRANCH   1  12
ATOM     12  C   UNL     1      34.214  55.986  31.203  1.00  0.00     0.000 C 
BRANCH  12  13
ATOM     13  C   UNL     1      32.704  55.874  31.458  1.00  0.00    -0.000 C 
BRANCH  13  14
ATOM     14  C   UNL     1      32.274  56.586  32.751  1.00  0.00    -0.000 C 
BRANCH  14  15
ATOM     15  C   UNL     1      32.463  55.702  33.996  1.00  0.00    -0.000 C 
BRANCH  15  16
ATOM     16  C   UNL     1      33.583  56.217  34.914  1.00  0.00    -0.000 C 
BRANCH  16  17
ATOM     17  C   UNL     1      34.823  55.311  34.894  1.00  0.00    -0.000 C 
BRANCH  17  18
ATOM     18  C   UNL     1      34.498  53.954  34.257  1.00  0.00    -0.003 C 
ATOM     19  C   UNL     1      35.728  53.351  33.585  1.00  0.00     0.004 C 
ENDBRANCH  17  18
ENDBRANCH  16  17
ENDBRANCH  15  16
ENDBRANCH  14  15
ENDBRANCH  13  14
ENDBRANCH  12  13
ENDBRANCH   1  12
TORSDOF 14
ENDMDL
MODEL 2
REMARK VINA RESULT:    -4.971      2.460      5.774
REMARK INTER + INTRA:         -11.106
REMARK INTER:                  -9.399
REMARK INTRA:                  -1.706
REMARK UNBOUND:                -2.065
REMARK SMILES CCCCCCCCCCCCCC[C@@H](C)C(=O)[O-]
REMARK SMILES IDX 9 1 10 2 11 3 12 4 13 5 14 6 15 7 16 8 17 9 18 10 19 11 8 12
REMARK SMILES IDX 7 13 6 14 5 15 4 16 3 17 2 18 1 19
REMARK H PARENT
REMARK Flexibility Score: inf
ROOT
ATOM      1  C   UNL     1      35.693  56.507  27.540  1.00  0.00     0.000 C 
ENDROOT
BRANCH   1   2
ATOM      2  C   UNL     1      35.969  57.365  28.790  1.00  0.00     0.000 C 
BRANCH   2   3
ATOM      3  C   UNL     1      34.982  57.082  29.945  1.00  0.00     0.000 C 
BRANCH   3   4
ATOM      4  C   UNL     1      34.979  58.171  31.028  1.00  0.00     0.000 C 
BRANCH   4   5
ATOM      5  C   UNL     1      35.265  57.613  32.433  1.00  0.00     0.001 C 
BRANCH   5   6
ATOM      6  C   UNL     1      34.680  56.199  32.638  1.00  0.00     0.009 C 
BRANCH   6   7
ATOM      7  C   UNL     1      33.855  56.050  33.938  1.00  0.00     0.032 C 
ATOM      8  C   UNL     1      34.203  57.124  34.976  1.00  0.00     0.014 C 
BRANCH   7   9
ATOM      9  C   UNL     1      32.384  56.117  33.624  1.00  0.00     0.044 C 
ATOM     10  O   UNL     1      31.557  55.498  34.342  1.00  0.00    -0.550 OA
ATOM     11  O   UNL     1      31.921  56.894  32.567  1.00  0.00    -0.550 OA
ENDBRANCH   7   9
ENDBRANCH   6   7
ENDBRANCH   5   6
ENDBRANCH   4   5
ENDBRANCH   3   4
ENDBRANCH   2   3
ENDBRANCH   1   2
BRANCH   1  12
ATOM     12  C   UNL     1      34.639  57.148  26.624  1.00  0.00     0.000 C 
BRANCH  12  13
ATOM     13  C   UNL     1      33.651  56.095  26.100  1.00  0.00    -0.000 C 
BRANCH  13  14
ATOM     14  C   UNL     1      32.254  56.242  26.726  1.00  0.00    -0.000 C 
BRANCH  14  15
ATOM     15  C   UNL     1      31.601  54.882  27.025  1.00  0.00    -0.000 C 
BRANCH  15  16
ATOM     16  C   UNL     1      32.618  53.729  27.009  1.00  0.00    -0.000 C 
BRANCH  16  17
ATOM     17  C   UNL     1      32.812  53.097  28.395  1.00  0.00    -0.000 C 
BRANCH  17  18
ATOM     18  C   UNL     1      33.003  54.177  29.467  1.00  0.00    -0.003 C 
ATOM     19  C   UNL     1      32.980  53.574  30.868  1.00  0.00     0.004 C 
ENDBRANCH  17  18
ENDBRANCH  16  17
ENDBRANCH  15  16
ENDBRANCH  14  15
ENDBRANCH  13  14
ENDBRANCH  12  13
ENDBRANCH   1  12
TORSDOF 14
ENDMDL
MODEL 3
REMARK VINA RESULT:    -4.944      1.183      2.102
REMARK INTER + INTRA:         -11.056
REMARK INTER:                  -9.465
REMARK INTRA:                  -1.591
REMARK UNBOUND:                -2.065
REMARK SMILES CCCCCCCCCCCCCC[C@@H](C)C(=O)[O-]
REMARK SMILES IDX 9 1 10 2 11 3 12 4 13 5 14 6 15 7 16 8 17 9 18 10 19 11 8 12
REMARK SMILES IDX 7 13 6 14 5 15 4 16 3 17 2 18 1 19
REMARK H PARENT
REMARK Flexibility Score: inf
ROOT
ATOM      1  C   UNL     1      34.671  57.825  30.753  1.00  0.00     0.000 C 
ENDROOT
BRANCH   1   2
ATOM      2  C   UNL     1      35.855  58.029  29.788  1.00  0.00     0.000 C 
BRANCH   2   3
ATOM      3  C   UNL     1      35.878  56.997  28.637  1.00  0.00     0.000 C 
BRANCH   3   4
ATOM      4  C   UNL     1      35.165  57.484  27.366  1.00  0.00     0.000 C 
BRANCH   4   5
ATOM      5  C   UNL     1      33.975  56.591  26.975  1.00  0.00     0.001 C 
BRANCH   5   6
ATOM      6  C   UNL     1      33.866  55.330  27.858  1.00  0.00     0.009 C 
BRANCH   6   7
ATOM      7  C   UNL     1      32.414  54.836  28.062  1.00  0.00     0.032 C 
ATOM      8  C   UNL     1      31.396  55.682  27.287  1.00  0.00     0.014 C 
BRANCH   7   9
ATOM      9  C   UNL     1      32.295  53.397  27.637  1.00  0.00     0.044 C 
ATOM     10  O   UNL     1      33.013  52.517  28.180  1.00  0.00    -0.550 OA
ATOM     11  O   UNL     1      31.366  53.019  26.673  1.00  0.00    -0.550 OA
ENDBRANCH   7   9
ENDBRANCH   6   7
ENDBRANCH   5   6
ENDBRANCH   4   5
ENDBRANCH   3   4
ENDBRANCH   2   3
ENDBRANCH   1   2
BRANCH   1  12
ATOM     12  C   UNL     1      34.488  56.349  31.136  1.00  0.00     0.000 C 
BRANCH  12  13
ATOM     13  C   UNL     1      33.041  56.066  31.563  1.00  0.00    -0.000 C 
BRANCH  13  14
ATOM     14  C   UNL     1      32.636  56.857  32.819  1.00  0.00    -0.000 C 
BRANCH  14  15
ATOM     15  C   UNL     1      32.628  55.981  34.084  1.00  0.00    -0.000 C 
BRANCH  15  16
ATOM     16  C   UNL     1      33.927  56.113  34.894  1.00  0.00    -0.000 C 
BRANCH  16  17
ATOM     17  C   UNL     1      34.713  57.385  34.541  1.00  0.00    -0.000 C 
BRANCH  17  18
ATOM     18  C   UNL     1      35.221  58.083  35.809  1.00  0.00    -0.003 C 
ATOM     19  C   UNL     1      34.374  59.308  36.141  1.00  0.00     0.004 C 
ENDBRANCH  17  18
ENDBRANCH  16  17
ENDBRANCH  15  16
ENDBRANCH  14  15
ENDBRANCH  13  14
ENDBRANCH  12  13
ENDBRANCH   1  12
TORSDOF 14
ENDMDL
MODEL 4
REMARK VINA RESULT:    -4.927      2.288      5.536
REMARK INTER + INTRA:         -11.024
REMARK INTER:                  -8.972
REMARK INTRA:                  -2.052
REMARK UNBOUND:                -2.065
REMARK SMILES CCCCCCCCCCCCCC[C@@H](C)C(=O)[O-]
REMARK SMILES IDX 9 1 10 2 11 3 12 4 13 5 14 6 15 7 16 8 17 9 18 10 19 11 8 12
REMARK SMILES IDX 7 13 6 14 5 15 4 16 3 17 2 18 1 19
REMARK H PARENT
REMARK Flexibility Score: inf
ROOT
ATOM      1  C   UNL     1      31.828  55.292  27.601  1.00  0.00     0.000 C 
ENDROOT
BRANCH   1   2
ATOM      2  C   UNL     1      32.886  54.201  27.853  1.00  0.00     0.000 C 
BRANCH   2   3
ATOM      3  C   UNL     1      33.374  54.163  29.319  1.00  0.00     0.000 C 
BRANCH   3   4
ATOM      4  C   UNL     1      32.828  55.315  30.176  1.00  0.00     0.000 C 
BRANCH   4   5
ATOM      5  C   UNL     1      32.781  54.970  31.674  1.00  0.00     0.001 C 
BRANCH   5   6
ATOM      6  C   UNL     1      33.955  54.067  32.110  1.00  0.00     0.009 C 
BRANCH   6   7
ATOM      7  C   UNL     1      33.507  52.729  32.746  1.00  0.00     0.032 C 
ATOM      8  C   UNL     1      32.024  52.430  32.491  1.00  0.00     0.014 C 
BRANCH   7   9
ATOM      9  C   UNL     1      34.344  51.599  32.209  1.00  0.00     0.044 C 
ATOM     10  O   UNL     1      33.809  50.687  31.526  1.00  0.00    -0.550 OA
ATOM     11  O   UNL     1      35.717  51.571  32.427  1.00  0.00    -0.550 OA
ENDBRANCH   7   9
ENDBRANCH   6   7
ENDBRANCH   5   6
ENDBRANCH   4   5
ENDBRANCH   3   4
ENDBRANCH   2   3
ENDBRANCH   1   2
BRANCH   1  12
ATOM     12  C   UNL     1      32.213  56.209  26.429  1.00  0.00     0.000 C 
BRANCH  12  13
ATOM     13  C   UNL     1      33.714  56.109  26.122  1.00  0.00    -0.000 C 
BRANCH  13  14
ATOM     14  C   UNL     1      34.509  57.289  26.705  1.00  0.00    -0.000 C 
BRANCH  14  15
ATOM     15  C   UNL     1      35.824  56.839  27.365  1.00  0.00    -0.000 C 
BRANCH  15  16
ATOM     16  C   UNL     1      36.215  57.728  28.556  1.00  0.00    -0.000 C 
BRANCH  16  17
ATOM     17  C   UNL     1      35.772  57.136  29.902  1.00  0.00    -0.000 C 
BRANCH  17  18
ATOM     18  C   UNL     1      35.215  58.228  30.823  1.00  0.00    -0.003 C 
ATOM     19  C   UNL     1      35.176  57.759  32.275  1.00  0.00     0.004 C 
ENDBRANCH  17  18
ENDBRANCH  16  17
ENDBRANCH  15  16
ENDBRANCH  14  15
ENDBRANCH  13  14
ENDBRANCH  12  13
ENDBRANCH   1  12
TORSDOF 14
ENDMDL
MODEL 5
REMARK VINA RESULT:    -4.900      1.735      5.435
REMARK INTER + INTRA:         -10.976
REMARK INTER:                  -9.454
REMARK INTRA:                  -1.522
REMARK UNBOUND:                -2.065
REMARK SMILES CCCCCCCCCCCCCC[C@@H](C)C(=O)[O-]
REMARK SMILES IDX 9 1 10 2 11 3 12 4 13 5 14 6 15 7 16 8 17 9 18 10 19 11 8 12
REMARK SMILES IDX 7 13 6 14 5 15 4 16 3 17 2 18 1 19
REMARK H PARENT
REMARK Flexibility Score: inf
ROOT
ATOM      1  C   UNL     1      34.844  57.952  31.118  1.00  0.00     0.000 C 
ENDROOT
BRANCH   1   2
ATOM      2  C   UNL     1      34.921  57.378  32.545  1.00  0.00     0.000 C 
BRANCH   2   3
ATOM      3  C   UNL     1      33.544  57.314  33.244  1.00  0.00     0.000 C 
BRANCH   3   4
ATOM      4  C   UNL     1      32.490  56.528  32.449  1.00  0.00     0.000 C 
BRANCH   4   5
ATOM      5  C   UNL     1      32.746  55.011  32.464  1.00  0.00     0.001 C 
BRANCH   5   6
ATOM      6  C   UNL     1      33.009  54.441  31.054  1.00  0.00     0.009 C 
BRANCH   6   7
ATOM      7  C   UNL     1      32.976  52.895  30.991  1.00  0.00     0.032 C 
ATOM      8  C   UNL     1      31.861  52.300  31.861  1.00  0.00     0.014 C 
BRANCH   7   9
ATOM      9  C   UNL     1      32.794  52.441  29.568  1.00  0.00     0.044 C 
ATOM     10  O   UNL     1      31.767  51.793  29.238  1.00  0.00    -0.550 OA
ATOM     11  O   UNL     1      33.735  52.766  28.597  1.00  0.00    -0.550 OA
ENDBRANCH   7   9
ENDBRANCH   6   7
ENDBRANCH   5   6
ENDBRANCH   4   5
ENDBRANCH   3   4
ENDBRANCH   2   3
ENDBRANCH   1   2
BRANCH   1  12
ATOM     12  C   UNL     1      35.519  57.031  30.090  1.00  0.00     0.000 C 
BRANCH  12  13
ATOM     13  C   UNL     1      36.360  57.841  29.093  1.00  0.00    -0.000 C 
BRANCH  13  14
ATOM     14  C   UNL     1      35.664  57.994  27.730  1.00  0.00    -0.000 C 
BRANCH  14  15
ATOM     15  C   UNL     1      35.293  56.637  27.106  1.00  0.00    -0.000 C 
BRANCH  15  16
ATOM     16  C   UNL     1      33.837  56.597  26.618  1.00  0.00    -0.000 C 
BRANCH  16  17
ATOM     17  C   UNL     1      32.918  55.820  27.572  1.00  0.00    -0.000 C 
BRANCH  17  18
ATOM     18  C   UNL     1      31.498  55.716  27.001  1.00  0.00    -0.003 C 
ATOM     19  C   UNL     1      31.278  54.374  26.310  1.00  0.00     0.004 C 
ENDBRANCH  17  18
ENDBRANCH  16  17
ENDBRANCH  15  16
ENDBRANCH  14  15
ENDBRANCH  13  14
ENDBRANCH  12  13
ENDBRANCH   1  12
TORSDOF 14
ENDMDL
MODEL 6
REMARK VINA RESULT:    -4.859      2.344      6.254
REMARK INTER + INTRA:         -10.901
REMARK INTER:                  -9.242
REMARK INTRA:                  -1.659
REMARK UNBOUND:                -2.065
REMARK SMILES CCCCCCCCCCCCCC[C@@H](C)C(=O)[O-]
REMARK SMILES IDX 9 1 10 2 11 3 12 4 13 5 14 6 15 7 16 8 17 9 18 10 19 11 8 12
REMARK SMILES IDX 7 13 6 14 5 15 4 16 3 17 2 18 1 19
REMARK H PARENT
REMARK Flexibility Score: inf
ROOT
ATOM      1  C   UNL     1      34.085  56.147  31.025  1.00  0.00     0.000 C 
ENDROOT
BRANCH   1   2
ATOM      2  C   UNL     1      32.619  55.933  31.445  1.00  0.00     0.000 C 
BRANCH   2   3
ATOM      3  C   UNL     1      32.320  56.446  32.873  1.00  0.00     0.000 C 
BRANCH   3   4
ATOM      4  C   UNL     1      32.315  55.335  33.934  1.00  0.00     0.000 C 
BRANCH   4   5
ATOM      5  C   UNL     1      32.094  53.938  33.330  1.00  0.00     0.001 C 
BRANCH   5   6
ATOM      6  C   UNL     1      33.041  52.877  33.929  1.00  0.00     0.009 C 
BRANCH   6   7
ATOM      7  C   UNL     1      33.767  52.019  32.866  1.00  0.00     0.032 C 
ATOM      8  C   UNL     1      33.252  52.291  31.447  1.00  0.00     0.014 C 
BRANCH   7   9
ATOM      9  C   UNL     1      35.249  52.279  32.918  1.00  0.00     0.044 C 
ATOM     10  O   UNL     1      36.059  51.388  32.553  1.00  0.00    -0.550 OA
ATOM     11  O   UNL     1      35.735  53.515  33.330  1.00  0.00    -0.550 OA
ENDBRANCH   7   9
ENDBRANCH   6   7
ENDBRANCH   5   6
ENDBRANCH   4   5
ENDBRANCH   3   4
ENDBRANCH   2   3
ENDBRANCH   1   2
BRANCH   1  12
ATOM     12  C   UNL     1      34.583  57.559  31.370  1.00  0.00     0.000 C 
BRANCH  12  13
ATOM     13  C   UNL     1      35.565  58.072  30.307  1.00  0.00    -0.000 C 
BRANCH  13  14
ATOM     14  C   UNL     1      35.735  57.083  29.142  1.00  0.00    -0.000 C 
BRANCH  14  15
ATOM     15  C   UNL     1      35.661  57.777  27.771  1.00  0.00    -0.000 C 
BRANCH  15  16
ATOM     16  C   UNL     1      34.797  56.996  26.767  1.00  0.00    -0.000 C 
BRANCH  16  17
ATOM     17  C   UNL     1      33.660  56.221  27.449  1.00  0.00    -0.000 C 
BRANCH  17  18
ATOM     18  C   UNL     1      32.386  56.255  26.595  1.00  0.00    -0.003 C 
ATOM     19  C   UNL     1      31.238  55.527  27.287  1.00  0.00     0.004 C 
ENDBRANCH  17  18
ENDBRANCH  16  17
ENDBRANCH  15  16
ENDBRANCH  14  15
ENDBRANCH  13  14
ENDBRANCH  12  13
ENDBRANCH   1  12
TORSDOF 14
ENDMDL
MODEL 7
REMARK VINA RESULT:    -4.778      1.583      2.117
REMARK INTER + INTRA:         -10.753
REMARK INTER:                  -9.151
REMARK INTRA:                  -1.603
REMARK UNBOUND:                -2.065
REMARK SMILES CCCCCCCCCCCCCC[C@@H](C)C(=O)[O-]
REMARK SMILES IDX 9 1 10 2 11 3 12 4 13 5 14 6 15 7 16 8 17 9 18 10 19 11 8 12
REMARK SMILES IDX 7 13 6 14 5 15 4 16 3 17 2 18 1 19
REMARK H PARENT
REMARK Flexibility Score: inf
ROOT
ATOM      1  C   UNL     1      35.618  58.304  30.478  1.00  0.00     0.000 C 
ENDROOT
BRANCH   1   2
ATOM      2  C   UNL     1      36.359  58.115  29.141  1.00  0.00     0.000 C 
BRANCH   2   3
ATOM      3  C   UNL     1      35.776  56.966  28.286  1.00  0.00     0.000 C 
BRANCH   3   4
ATOM      4  C   UNL     1      35.231  57.432  26.927  1.00  0.00     0.000 C 
BRANCH   4   5
ATOM      5  C   UNL     1      33.967  56.665  26.500  1.00  0.00     0.001 C 
BRANCH   5   6
ATOM      6  C   UNL     1      33.358  55.841  27.654  1.00  0.00     0.009 C 
BRANCH   6   7
ATOM      7  C   UNL     1      32.837  54.451  27.218  1.00  0.00     0.032 C 
ATOM      8  C   UNL     1      33.026  53.389  28.309  1.00  0.00     0.014 C 
BRANCH   7   9
ATOM      9  C   UNL     1      31.379  54.538  26.854  1.00  0.00     0.044 C 
ATOM     10  O   UNL     1      30.858  53.658  26.120  1.00  0.00    -0.550 OA
ATOM     11  O   UNL     1      30.586  55.564  27.355  1.00  0.00    -0.550 OA
ENDBRANCH   7   9
ENDBRANCH   6   7
ENDBRANCH   5   6
ENDBRANCH   4   5
ENDBRANCH   3   4
ENDBRANCH   2   3
ENDBRANCH   1   2
BRANCH   1  12
ATOM     12  C   UNL     1      34.886  57.026  30.916  1.00  0.00     0.000 C 
BRANCH  12  13
ATOM     13  C   UNL     1      34.184  57.228  32.267  1.00  0.00    -0.000 C 
BRANCH  13  14
ATOM     14  C   UNL     1      32.822  56.516  32.330  1.00  0.00    -0.000 C 
BRANCH  14  15
ATOM     15  C   UNL     1      32.731  55.340  31.343  1.00  0.00    -0.000 C 
BRANCH  15  16
ATOM     16  C   UNL     1      32.546  53.991  32.058  1.00  0.00    -0.000 C 
BRANCH  16  17
ATOM     17  C   UNL     1      33.756  53.616  32.926  1.00  0.00    -0.000 C 
BRANCH  17  18
ATOM     18  C   UNL     1      34.143  52.146  32.719  1.00  0.00    -0.003 C 
ATOM     19  C   UNL     1      35.618  51.914  33.034  1.00  0.00     0.004 C 
ENDBRANCH  17  18
ENDBRANCH  16  17
ENDBRANCH  15  16
ENDBRANCH  14  15
ENDBRANCH  13  14
ENDBRANCH  12  13
ENDBRANCH   1  12
TORSDOF 14
ENDMDL
MODEL 8
REMARK VINA RESULT:    -4.752      2.406      6.405
REMARK INTER + INTRA:         -10.706
REMARK INTER:                  -9.104
REMARK INTRA:                  -1.602
REMARK UNBOUND:                -2.065
REMARK SMILES CCCCCCCCCCCCCC[C@@H](C)C(=O)[O-]
REMARK SMILES IDX 9 1 10 2 11 3 12 4 13 5 14 6 15 7 16 8 17 9 18 10 19 11 8 12
REMARK SMILES IDX 7 13 6 14 5 15 4 16 3 17 2 18 1 19
REMARK H PARENT
REMARK Flexibility Score: inf
ROOT
ATOM      1  C   UNL     1      32.322  53.080  28.514  1.00  0.00     0.000 C 
ENDROOT
BRANCH   1   2
ATOM      2  C   UNL     1      33.461  53.300  29.527  1.00  0.00     0.000 C 
BRANCH   2   3
ATOM      3  C   UNL     1      32.991  54.013  30.816  1.00  0.00     0.000 C 
BRANCH   3   4
ATOM      4  C   UNL     1      33.062  55.545  30.728  1.00  0.00     0.000 C 
BRANCH   4   5
ATOM      5  C   UNL     1      32.364  56.241  31.909  1.00  0.00     0.001 C 
BRANCH   5   6
ATOM      6  C   UNL     1      33.362  56.745  32.973  1.00  0.00     0.009 C 
BRANCH   6   7
ATOM      7  C   UNL     1      33.279  55.980  34.315  1.00  0.00     0.032 C 
ATOM      8  C   UNL     1      31.945  55.242  34.484  1.00  0.00     0.014 C 
BRANCH   7   9
ATOM      9  C   UNL     1      34.411  54.993  34.417  1.00  0.00     0.044 C 
ATOM     10  O   UNL     1      34.501  54.236  35.418  1.00  0.00    -0.550 OA
ATOM     11  O   UNL     1      35.343  54.879  33.391  1.00  0.00    -0.550 OA
ENDBRANCH   7   9
ENDBRANCH   6   7
ENDBRANCH   5   6
ENDBRANCH   4   5
ENDBRANCH   3   4
ENDBRANCH   2   3
ENDBRANCH   1   2
BRANCH   1  12
ATOM     12  C   UNL     1      32.611  53.761  27.167  1.00  0.00     0.000 C 
BRANCH  12  13
ATOM     13  C   UNL     1      32.343  55.271  27.244  1.00  0.00    -0.000 C 
BRANCH  13  14
ATOM     14  C   UNL     1      32.753  56.004  25.956  1.00  0.00    -0.000 C 
BRANCH  14  15
ATOM     15  C   UNL     1      34.143  56.654  26.071  1.00  0.00    -0.000 C 
BRANCH  15  16
ATOM     16  C   UNL     1      34.715  56.562  27.494  1.00  0.00    -0.000 C 
BRANCH  16  17
ATOM     17  C   UNL     1      36.221  56.857  27.543  1.00  0.00    -0.000 C 
BRANCH  17  18
ATOM     18  C   UNL     1      36.529  57.968  28.555  1.00  0.00    -0.003 C 
ATOM     19  C   UNL     1      35.604  57.883  29.765  1.00  0.00     0.004 C 
ENDBRANCH  17  18
ENDBRANCH  16  17
ENDBRANCH  15  16
ENDBRANCH  14  15
ENDBRANCH  13  14
ENDBRANCH  12  13
ENDBRANCH   1  12
TORSDOF 14
ENDMDL
MODEL 9
REMARK VINA RESULT:    -4.741      2.697      6.566
REMARK INTER + INTRA:         -10.687
REMARK INTER:                  -8.879
REMARK INTRA:                  -1.808
REMARK UNBOUND:                -2.065
REMARK SMILES CCCCCCCCCCCCCC[C@@H](C)C(=O)[O-]
REMARK SMILES IDX 9 1 10 2 11 3 12 4 13 5 14 6 15 7 16 8 17 9 18 10 19 11 8 12
REMARK SMILES IDX 7 13 6 14 5 15 4 16 3 17 2 18 1 19
REMARK H PARENT
REMARK Flexibility Score: inf
ROOT
ATOM      1  C   UNL     1      32.958  52.310  29.288  1.00  0.00     0.000 C 
ENDROOT
BRANCH   1   2
ATOM      2  C   UNL     1      32.000  51.826  30.393  1.00  0.00     0.000 C 
BRANCH   2   3
ATOM      3  C   UNL     1      32.586  51.992  31.814  1.00  0.00     0.000 C 
BRANCH   3   4
ATOM      4  C   UNL     1      31.791  52.971  32.692  1.00  0.00     0.000 C 
BRANCH   4   5
ATOM      5  C   UNL     1      32.655  54.126  33.226  1.00  0.00     0.001 C 
BRANCH   5   6
ATOM      6  C   UNL     1      33.737  54.569  32.219  1.00  0.00     0.009 C 
BRANCH   6   7
ATOM      7  C   UNL     1      33.630  56.057  31.806  1.00  0.00     0.032 C 
ATOM      8  C   UNL     1      32.307  56.692  32.252  1.00  0.00     0.014 C 
BRANCH   7   9
ATOM      9  C   UNL     1      34.780  56.836  32.386  1.00  0.00     0.044 C 
ATOM     10  O   UNL     1      35.959  56.582  32.028  1.00  0.00    -0.550 OA
ATOM     11  O   UNL     1      34.549  57.869  33.289  1.00  0.00    -0.550 OA
ENDBRANCH   7   9
ENDBRANCH   6   7
ENDBRANCH   5   6
ENDBRANCH   4   5
ENDBRANCH   3   4
ENDBRANCH   2   3
ENDBRANCH   1   2
BRANCH   1  12
ATOM     12  C   UNL     1      32.609  53.725  28.802  1.00  0.00     0.000 C 
BRANCH  12  13
ATOM     13  C   UNL     1      32.537  53.780  27.270  1.00  0.00    -0.000 C 
BRANCH  13  14
ATOM     14  C   UNL     1      31.536  54.834  26.768  1.00  0.00    -0.000 C 
BRANCH  14  15
ATOM     15  C   UNL     1      32.178  56.224  26.616  1.00  0.00    -0.000 C 
BRANCH  15  16
ATOM     16  C   UNL     1      33.540  56.163  25.906  1.00  0.00    -0.000 C 
BRANCH  16  17
ATOM     17  C   UNL     1      34.596  57.048  26.584  1.00  0.00    -0.000 C 
BRANCH  17  18
ATOM     18  C   UNL     1      34.694  56.732  28.082  1.00  0.00    -0.003 C 
ATOM     19  C   UNL     1      35.670  57.673  28.782  1.00  0.00     0.004 C 
ENDBRANCH  17  18
ENDBRANCH  16  17
ENDBRANCH  15  16
ENDBRANCH  14  15
ENDBRANCH  13  14
ENDBRANCH  12  13
ENDBRANCH   1  12
TORSDOF 14
ENDMDL
