MODEL 1
REMARK VINA RESULT:    -2.606      0.000      0.000
REMARK INTER + INTRA:          -2.606
REMARK INTER:                  -2.606
REMARK INTRA:                   0.000
REMARK UNBOUND:                 0.000
REMARK SMILES CC(=O)[O-]
REMARK SMILES IDX 1 1 2 2 3 3 4 4
REMARK H PARENT
REMARK Flexibility Score: inf
ROOT
ATOM      1  C   UNL     1      -3.284  19.875  59.611  1.00  0.00     0.063 C 
ATOM      2  C   UNL     1      -4.323  20.487  58.734  1.00  0.00     0.038 C 
ATOM      3  O   UNL     1      -5.518  20.099  58.805  1.00  0.00    -0.550 OA
ATOM      4  O   UNL     1      -3.986  21.525  57.875  1.00  0.00    -0.550 OA
ENDROOT
TORSDOF 0
ENDMDL
MODEL 2
REMARK VINA RESULT:    -2.600      1.491      2.241
REMARK INTER + INTRA:          -2.600
REMARK INTER:                  -2.600
REMARK INTRA:                   0.000
REMARK UNBOUND:                 0.000
REMARK SMILES CC(=O)[O-]
REMARK SMILES IDX 1 1 2 2 3 3 4 4
REMARK H PARENT
REMARK Flexibility Score: inf
ROOT
ATOM      1  C   UNL     1      -3.909  21.580  58.051  1.00  0.00     0.063 C 
ATOM      2  C   UNL     1      -3.890  20.389  58.948  1.00  0.00     0.038 C 
ATOM      3  O   UNL     1      -2.793  19.875  59.293  1.00  0.00    -0.550 OA
ATOM      4  O   UNL     1      -5.079  19.875  59.450  1.00  0.00    -0.550 OA
ENDROOT
TORSDOF 0
ENDMDL
MODEL 3
REMARK VINA RESULT:    -2.333     10.154     10.727
REMARK INTER + INTRA:          -2.333
REMARK INTER:                  -2.333
REMARK INTRA:                   0.000
REMARK UNBOUND:                 0.000
REMARK SMILES CC(=O)[O-]
REMARK SMILES IDX 1 1 2 2 3 3 4 4
REMARK H PARENT
REMARK Flexibility Score: inf
ROOT
ATOM      1  C   UNL     1      -6.332  31.503  59.541  1.00  0.00     0.063 C 
ATOM      2  C   UNL     1      -4.940  30.979  59.439  1.00  0.00     0.038 C 
ATOM      3  O   UNL     1      -4.019  31.495  60.124  1.00  0.00    -0.550 OA
ATOM      4  O   UNL     1      -4.666  29.886  58.628  1.00  0.00    -0.550 OA
ENDROOT
TORSDOF 0
ENDMDL
MODEL 4
REMARK VINA RESULT:    -2.290     10.328     10.762
REMARK INTER + INTRA:          -2.290
REMARK INTER:                  -2.290
REMARK INTRA:                   0.000
REMARK UNBOUND:                 0.000
REMARK SMILES CC(=O)[O-]
REMARK SMILES IDX 1 1 2 2 3 3 4 4
REMARK H PARENT
REMARK Flexibility Score: inf
ROOT
ATOM      1  C   UNL     1      -3.895  31.500  60.125  1.00  0.00     0.063 C 
ATOM      2  C   UNL     1      -5.199  31.119  59.509  1.00  0.00     0.038 C 
ATOM      3  O   UNL     1      -6.230  31.803  59.741  1.00  0.00    -0.550 OA
ATOM      4  O   UNL     1      -5.268  30.042  58.636  1.00  0.00    -0.550 OA
ENDROOT
TORSDOF 0
ENDMDL
MODEL 5
REMARK VINA RESULT:    -2.176     10.517     10.820
REMARK INTER + INTRA:          -2.176
REMARK INTER:                  -2.176
REMARK INTRA:                   0.000
REMARK UNBOUND:                 0.000
REMARK SMILES CC(=O)[O-]
REMARK SMILES IDX 1 1 2 2 3 3 4 4
REMARK H PARENT
REMARK Flexibility Score: inf
ROOT
ATOM      1  C   UNL     1       2.576  28.301  57.448  1.00  0.00     0.063 C 
ATOM      2  C   UNL     1       3.761  27.443  57.735  1.00  0.00     0.038 C 
ATOM      3  O   UNL     1       3.830  26.801  58.816  1.00  0.00    -0.550 OA
ATOM      4  O   UNL     1       4.768  27.307  56.788  1.00  0.00    -0.550 OA
ENDROOT
TORSDOF 0
ENDMDL
MODEL 6
REMARK VINA RESULT:    -2.129     10.243     10.300
REMARK INTER + INTRA:          -2.129
REMARK INTER:                  -2.129
REMARK INTRA:                   0.000
REMARK UNBOUND:                 0.000
REMARK SMILES CC(=O)[O-]
REMARK SMILES IDX 1 1 2 2 3 3 4 4
REMARK H PARENT
REMARK Flexibility Score: inf
ROOT
ATOM      1  C   UNL     1       0.339  29.265  57.273  1.00  0.00     0.063 C 
ATOM      2  C   UNL     1       1.580  28.557  56.849  1.00  0.00     0.038 C 
ATOM      3  O   UNL     1       2.453  28.246  57.703  1.00  0.00    -0.550 OA
ATOM      4  O   UNL     1       1.754  28.191  55.521  1.00  0.00    -0.550 OA
ENDROOT
TORSDOF 0
ENDMDL
MODEL 7
REMARK VINA RESULT:    -2.081      9.670      9.829
REMARK INTER + INTRA:          -2.081
REMARK INTER:                  -2.081
REMARK INTRA:                   0.000
REMARK UNBOUND:                 0.000
REMARK SMILES CC(=O)[O-]
REMARK SMILES IDX 1 1 2 2 3 3 4 4
REMARK H PARENT
REMARK Flexibility Score: inf
ROOT
ATOM      1  C   UNL     1       2.054  28.488  57.458  1.00  0.00     0.063 C 
ATOM      2  C   UNL     1       0.813  28.513  56.633  1.00  0.00     0.038 C 
ATOM      3  O   UNL     1       0.817  28.030  55.470  1.00  0.00    -0.550 OA
ATOM      4  O   UNL     1      -0.366  29.019  57.164  1.00  0.00    -0.550 OA
ENDROOT
TORSDOF 0
ENDMDL
MODEL 8
REMARK VINA RESULT:    -2.079      9.629      9.953
REMARK INTER + INTRA:          -2.079
REMARK INTER:                  -2.079
REMARK INTRA:                   0.000
REMARK UNBOUND:                 0.000
REMARK SMILES CC(=O)[O-]
REMARK SMILES IDX 1 1 2 2 3 3 4 4
REMARK H PARENT
REMARK Flexibility Score: inf
ROOT
ATOM      1  C   UNL     1       0.948  28.190  55.296  1.00  0.00     0.063 C 
ATOM      2  C   UNL     1       0.894  28.584  56.733  1.00  0.00     0.038 C 
ATOM      3  O   UNL     1      -0.217  28.766  57.297  1.00  0.00    -0.550 OA
ATOM      4  O   UNL     1       2.067  28.701  57.468  1.00  0.00    -0.550 OA
ENDROOT
TORSDOF 0
ENDMDL
MODEL 9
REMARK VINA RESULT:    -2.067     19.654     19.788
REMARK INTER + INTRA:          -2.067
REMARK INTER:                  -2.067
REMARK INTRA:                   0.000
REMARK UNBOUND:                 0.000
REMARK SMILES CC(=O)[O-]
REMARK SMILES IDX 1 1 2 2 3 3 4 4
REMARK H PARENT
REMARK Flexibility Score: inf
ROOT
ATOM      1  C   UNL     1       0.270  26.611  40.916  1.00  0.00     0.063 C 
ATOM      2  C   UNL     1       0.383  28.086  41.109  1.00  0.00     0.038 C 
ATOM      3  O   UNL     1      -0.646  28.810  41.060  1.00  0.00    -0.550 OA
ATOM      4  O   UNL     1       1.615  28.658  41.397  1.00  0.00    -0.550 OA
ENDROOT
TORSDOF 0
ENDMDL
