MODEL 1
REMARK VINA RESULT:    -5.401      0.000      0.000
REMARK INTER + INTRA:          -6.657
REMARK INTER:                  -6.349
REMARK INTRA:                  -0.308
REMARK UNBOUND:                -0.308
REMARK SMILES O=c1cc(-c2ccc(O)c(O)c2)oc2cc(O)cc(O)c12
REMARK SMILES IDX 4 1 3 2 2 3 1 4 21 5 19 6 18 7 16 8 15 9 14 10 13 11 5 12
REMARK SMILES IDX 6 13 7 14 8 15 12 16 10 17 9 18 11 20 20 22 17 24
REMARK H PARENT 9 19 11 21 20 23 17 25
REMARK Flexibility Score: inf
ROOT
ATOM      1  C   UNL     1      52.933   7.491 -48.077  1.00  0.00     0.138 A 
ATOM      2  C   UNL     1      51.888   6.626 -48.430  1.00  0.00     0.100 A 
ATOM      3  C   UNL     1      51.479   6.545 -49.762  1.00  0.00     0.197 A 
ATOM      4  O   UNL     1      50.499   5.806 -50.038  1.00  0.00    -0.289 OA
ATOM      5  C   UNL     1      52.144   7.311 -50.749  1.00  0.00     0.107 A 
ATOM      6  C   UNL     1      51.841   7.277 -52.144  1.00  0.00     0.134 A 
ATOM      7  C   UNL     1      52.486   8.167 -53.012  1.00  0.00     0.093 A 
ATOM      8  C   UNL     1      53.468   9.046 -52.544  1.00  0.00     0.123 A 
ATOM      9  C   UNL     1      53.808   9.047 -51.194  1.00  0.00     0.094 A 
ATOM     10  C   UNL     1      53.158   8.197 -50.298  1.00  0.00     0.146 A 
ATOM     11  O   UNL     1      53.503   8.241 -49.014  1.00  0.00    -0.456 OA
ENDROOT
BRANCH   1  12
ATOM     12  C   UNL     1      53.407   7.617 -46.675  1.00  0.00     0.021 A 
ATOM     13  C   UNL     1      52.524   7.336 -45.619  1.00  0.00     0.016 A 
ATOM     14  C   UNL     1      52.943   7.454 -44.292  1.00  0.00     0.051 A 
ATOM     15  C   UNL     1      54.246   7.864 -43.995  1.00  0.00     0.157 A 
ATOM     16  C   UNL     1      54.716   8.043 -46.372  1.00  0.00     0.062 A 
ATOM     17  C   UNL     1      55.137   8.163 -45.039  1.00  0.00     0.158 A 
BRANCH  15  18
ATOM     18  O   UNL     1      54.637   7.971 -42.661  1.00  0.00    -0.504 OA
ATOM     19  H   UNL     1      54.263   7.366 -41.940  1.00  0.00     0.293 HD
ENDBRANCH  15  18
BRANCH  17  20
ATOM     20  O   UNL     1      56.434   8.583 -44.750  1.00  0.00    -0.504 OA
ATOM     21  H   UNL     1      57.085   7.990 -44.247  1.00  0.00     0.293 HD
ENDBRANCH  17  20
ENDBRANCH   1  12
BRANCH   6  22
ATOM     22  O   UNL     1      50.939   6.381 -52.725  1.00  0.00    -0.507 OA
ATOM     23  H   UNL     1      50.055   6.636 -53.135  1.00  0.00     0.293 HD
ENDBRANCH   6  22
BRANCH   8  24
ATOM     24  O   UNL     1      54.116   9.916 -53.418  1.00  0.00    -0.508 OA
ATOM     25  H   UNL     1      54.227   9.695 -54.400  1.00  0.00     0.293 HD
ENDBRANCH   8  24
TORSDOF 5
ENDMDL
MODEL 2
REMARK VINA RESULT:    -5.206      1.761      1.858
REMARK INTER + INTRA:          -6.427
REMARK INTER:                  -6.161
REMARK INTRA:                  -0.267
REMARK UNBOUND:                -0.308
REMARK SMILES O=c1cc(-c2ccc(O)c(O)c2)oc2cc(O)cc(O)c12
REMARK SMILES IDX 4 1 3 2 2 3 1 4 21 5 19 6 18 7 16 8 15 9 14 10 13 11 5 12
REMARK SMILES IDX 6 13 7 14 8 15 12 16 10 17 9 18 11 20 20 22 17 24
REMARK H PARENT 9 19 11 21 20 23 17 25
REMARK Flexibility Score: inf
ROOT
ATOM      1  C   UNL     1      54.256   7.049 -48.016  1.00  0.00     0.138 A 
ATOM      2  C   UNL     1      54.558   5.799 -48.574  1.00  0.00     0.100 A 
ATOM      3  C   UNL     1      54.523   5.635 -49.959  1.00  0.00     0.197 A 
ATOM      4  O   UNL     1      54.738   4.486 -50.427  1.00  0.00    -0.289 OA
ATOM      5  C   UNL     1      54.215   6.738 -50.790  1.00  0.00     0.107 A 
ATOM      6  C   UNL     1      54.191   6.699 -52.217  1.00  0.00     0.134 A 
ATOM      7  C   UNL     1      53.758   7.823 -52.931  1.00  0.00     0.093 A 
ATOM      8  C   UNL     1      53.407   9.005 -52.271  1.00  0.00     0.123 A 
ATOM      9  C   UNL     1      53.480   9.069 -50.882  1.00  0.00     0.094 A 
ATOM     10  C   UNL     1      53.875   7.954 -50.140  1.00  0.00     0.146 A 
ATOM     11  O   UNL     1      53.916   8.054 -48.815  1.00  0.00    -0.456 OA
ENDROOT
BRANCH   1  12
ATOM     12  C   UNL     1      54.278   7.279 -46.549  1.00  0.00     0.021 A 
ATOM     13  C   UNL     1      53.187   6.865 -45.767  1.00  0.00     0.016 A 
ATOM     14  C   UNL     1      53.180   7.075 -44.387  1.00  0.00     0.051 A 
ATOM     15  C   UNL     1      54.256   7.713 -43.763  1.00  0.00     0.157 A 
ATOM     16  C   UNL     1      55.355   7.933 -45.918  1.00  0.00     0.062 A 
ATOM     17  C   UNL     1      55.348   8.147 -44.531  1.00  0.00     0.158 A 
BRANCH  15  18
ATOM     18  O   UNL     1      54.221   7.909 -42.383  1.00  0.00    -0.504 OA
ATOM     19  H   UNL     1      54.114   7.140 -41.732  1.00  0.00     0.293 HD
ENDBRANCH  15  18
BRANCH  17  20
ATOM     20  O   UNL     1      56.420   8.793 -43.918  1.00  0.00    -0.504 OA
ATOM     21  H   UNL     1      57.339   8.821 -44.344  1.00  0.00     0.293 HD
ENDBRANCH  17  20
ENDBRANCH   1  12
BRANCH   6  22
ATOM     22  O   UNL     1      54.601   5.598 -52.974  1.00  0.00    -0.507 OA
ATOM     23  H   UNL     1      54.300   5.401 -53.916  1.00  0.00     0.293 HD
ENDBRANCH   6  22
BRANCH   8  24
ATOM     24  O   UNL     1      52.993  10.123 -52.991  1.00  0.00    -0.508 OA
ATOM     25  H   UNL     1      52.014  10.292 -53.193  1.00  0.00     0.293 HD
ENDBRANCH   8  24
TORSDOF 5
ENDMDL
MODEL 3
REMARK VINA RESULT:    -5.192      2.333      7.586
REMARK INTER + INTRA:          -6.411
REMARK INTER:                  -6.147
REMARK INTRA:                  -0.263
REMARK UNBOUND:                -0.308
REMARK SMILES O=c1cc(-c2ccc(O)c(O)c2)oc2cc(O)cc(O)c12
REMARK SMILES IDX 4 1 3 2 2 3 1 4 21 5 19 6 18 7 16 8 15 9 14 10 13 11 5 12
REMARK SMILES IDX 6 13 7 14 8 15 12 16 10 17 9 18 11 20 20 22 17 24
REMARK H PARENT 9 19 11 21 20 23 17 25
REMARK Flexibility Score: inf
ROOT
ATOM      1  C   UNL     1      54.116   7.361 -46.042  1.00  0.00     0.138 A 
ATOM      2  C   UNL     1      53.145   6.573 -45.409  1.00  0.00     0.100 A 
ATOM      3  C   UNL     1      53.131   6.481 -44.017  1.00  0.00     0.197 A 
ATOM      4  O   UNL     1      52.286   5.718 -43.480  1.00  0.00    -0.289 OA
ATOM      5  C   UNL     1      54.076   7.209 -43.254  1.00  0.00     0.107 A 
ATOM      6  C   UNL     1      54.130   7.224 -41.828  1.00  0.00     0.134 A 
ATOM      7  C   UNL     1      55.182   7.888 -41.185  1.00  0.00     0.093 A 
ATOM      8  C   UNL     1      56.147   8.588 -41.915  1.00  0.00     0.123 A 
ATOM      9  C   UNL     1      56.071   8.623 -43.305  1.00  0.00     0.094 A 
ATOM     10  C   UNL     1      55.053   7.943 -43.977  1.00  0.00     0.146 A 
ATOM     11  O   UNL     1      55.026   7.990 -45.306  1.00  0.00    -0.456 OA
ENDROOT
BRANCH   1  12
ATOM     12  C   UNL     1      54.177   7.494 -47.520  1.00  0.00     0.021 A 
ATOM     13  C   UNL     1      54.994   6.623 -48.260  1.00  0.00     0.016 A 
ATOM     14  C   UNL     1      55.075   6.732 -49.650  1.00  0.00     0.051 A 
ATOM     15  C   UNL     1      54.350   7.718 -50.325  1.00  0.00     0.157 A 
ATOM     16  C   UNL     1      53.458   8.496 -48.203  1.00  0.00     0.062 A 
ATOM     17  C   UNL     1      53.540   8.607 -49.599  1.00  0.00     0.158 A 
BRANCH  15  18
ATOM     18  O   UNL     1      54.449   7.802 -51.713  1.00  0.00    -0.504 OA
ATOM     19  H   UNL     1      55.335   7.954 -52.182  1.00  0.00     0.293 HD
ENDBRANCH  15  18
BRANCH  17  20
ATOM     20  O   UNL     1      52.823   9.599 -50.265  1.00  0.00    -0.504 OA
ATOM     21  H   UNL     1      52.775  10.549 -49.911  1.00  0.00     0.293 HD
ENDBRANCH  17  20
ENDBRANCH   1  12
BRANCH   6  22
ATOM     22  O   UNL     1      53.170   6.629 -41.004  1.00  0.00    -0.507 OA
ATOM     23  H   UNL     1      53.349   5.871 -40.364  1.00  0.00     0.293 HD
ENDBRANCH   6  22
BRANCH   8  24
ATOM     24  O   UNL     1      57.181   9.258 -41.265  1.00  0.00    -0.508 OA
ATOM     25  H   UNL     1      57.766   8.795 -40.581  1.00  0.00     0.293 HD
ENDBRANCH   8  24
TORSDOF 5
ENDMDL
MODEL 4
REMARK VINA RESULT:    -5.169      2.017      7.020
REMARK INTER + INTRA:          -6.384
REMARK INTER:                  -6.120
REMARK INTRA:                  -0.264
REMARK UNBOUND:                -0.308
REMARK SMILES O=c1cc(-c2ccc(O)c(O)c2)oc2cc(O)cc(O)c12
REMARK SMILES IDX 4 1 3 2 2 3 1 4 21 5 19 6 18 7 16 8 15 9 14 10 13 11 5 12
REMARK SMILES IDX 6 13 7 14 8 15 12 16 10 17 9 18 11 20 20 22 17 24
REMARK H PARENT 9 19 11 21 20 23 17 25
REMARK Flexibility Score: inf
ROOT
ATOM      1  C   UNL     1      53.613   7.530 -47.593  1.00  0.00     0.138 A 
ATOM      2  C   UNL     1      52.554   6.776 -47.069  1.00  0.00     0.100 A 
ATOM      3  C   UNL     1      52.466   6.575 -45.691  1.00  0.00     0.197 A 
ATOM      4  O   UNL     1      51.539   5.842 -45.257  1.00  0.00    -0.289 OA
ATOM      5  C   UNL     1      53.426   7.159 -44.832  1.00  0.00     0.107 A 
ATOM      6  C   UNL     1      53.412   7.056 -43.408  1.00  0.00     0.134 A 
ATOM      7  C   UNL     1      54.481   7.578 -42.668  1.00  0.00     0.093 A 
ATOM      8  C   UNL     1      55.531   8.253 -43.297  1.00  0.00     0.123 A 
ATOM      9  C   UNL     1      55.526   8.406 -44.681  1.00  0.00     0.094 A 
ATOM     10  C   UNL     1      54.492   7.866 -45.449  1.00  0.00     0.146 A 
ATOM     11  O   UNL     1      54.533   8.022 -46.769  1.00  0.00    -0.456 OA
ENDROOT
BRANCH   1  12
ATOM     12  C   UNL     1      53.756   7.775 -49.051  1.00  0.00     0.021 A 
ATOM     13  C   UNL     1      53.479   9.053 -49.567  1.00  0.00     0.016 A 
ATOM     14  C   UNL     1      53.598   9.308 -50.935  1.00  0.00     0.051 A 
ATOM     15  C   UNL     1      53.984   8.291 -51.813  1.00  0.00     0.157 A 
ATOM     16  C   UNL     1      54.131   6.750 -49.941  1.00  0.00     0.062 A 
ATOM     17  C   UNL     1      54.249   7.004 -51.315  1.00  0.00     0.158 A 
BRANCH  15  18
ATOM     18  O   UNL     1      54.095   8.575 -53.174  1.00  0.00    -0.504 OA
ATOM     19  H   UNL     1      53.609   9.353 -53.603  1.00  0.00     0.293 HD
ENDBRANCH  15  18
BRANCH  17  20
ATOM     20  O   UNL     1      54.624   5.983 -52.187  1.00  0.00    -0.504 OA
ATOM     21  H   UNL     1      54.075   5.758 -53.010  1.00  0.00     0.293 HD
ENDBRANCH  17  20
ENDBRANCH   1  12
BRANCH   6  22
ATOM     22  O   UNL     1      52.370   6.477 -42.678  1.00  0.00    -0.507 OA
ATOM     23  H   UNL     1      51.755   5.757 -43.021  1.00  0.00     0.293 HD
ENDBRANCH   6  22
BRANCH   8  24
ATOM     24  O   UNL     1      56.582   8.783 -42.551  1.00  0.00    -0.508 OA
ATOM     25  H   UNL     1      57.513   8.876 -42.937  1.00  0.00     0.293 HD
ENDBRANCH   8  24
TORSDOF 5
ENDMDL
MODEL 5
REMARK VINA RESULT:    -5.147     11.101     13.217
REMARK INTER + INTRA:          -6.358
REMARK INTER:                  -6.095
REMARK INTRA:                  -0.263
REMARK UNBOUND:                -0.308
REMARK SMILES O=c1cc(-c2ccc(O)c(O)c2)oc2cc(O)cc(O)c12
REMARK SMILES IDX 4 1 3 2 2 3 1 4 21 5 19 6 18 7 16 8 15 9 14 10 13 11 5 12
REMARK SMILES IDX 6 13 7 14 8 15 12 16 10 17 9 18 11 20 20 22 17 24
REMARK H PARENT 9 19 11 21 20 23 17 25
REMARK Flexibility Score: inf
ROOT
ATOM      1  C   UNL     1      56.434  -2.198 -52.042  1.00  0.00     0.138 A 
ATOM      2  C   UNL     1      56.333  -1.122 -51.150  1.00  0.00     0.100 A 
ATOM      3  C   UNL     1      57.357  -0.888 -50.231  1.00  0.00     0.197 A 
ATOM      4  O   UNL     1      57.209   0.047 -49.402  1.00  0.00    -0.289 OA
ATOM      5  C   UNL     1      58.503  -1.719 -50.229  1.00  0.00     0.107 A 
ATOM      6  C   UNL     1      59.627  -1.549 -49.366  1.00  0.00     0.134 A 
ATOM      7  C   UNL     1      60.652  -2.504 -49.374  1.00  0.00     0.093 A 
ATOM      8  C   UNL     1      60.623  -3.586 -50.258  1.00  0.00     0.123 A 
ATOM      9  C   UNL     1      59.556  -3.729 -51.141  1.00  0.00     0.094 A 
ATOM     10  C   UNL     1      58.501  -2.814 -51.133  1.00  0.00     0.146 A 
ATOM     11  O   UNL     1      57.495  -2.996 -51.983  1.00  0.00    -0.456 OA
ENDROOT
BRANCH   1  12
ATOM     12  C   UNL     1      55.374  -2.492 -53.040  1.00  0.00     0.021 A 
ATOM     13  C   UNL     1      54.361  -3.411 -52.722  1.00  0.00     0.016 A 
ATOM     14  C   UNL     1      53.356  -3.711 -53.645  1.00  0.00     0.051 A 
ATOM     15  C   UNL     1      53.352  -3.107 -54.905  1.00  0.00     0.157 A 
ATOM     16  C   UNL     1      55.373  -1.895 -54.317  1.00  0.00     0.062 A 
ATOM     17  C   UNL     1      54.366  -2.196 -55.246  1.00  0.00     0.158 A 
BRANCH  15  18
ATOM     18  O   UNL     1      52.336  -3.424 -55.806  1.00  0.00    -0.504 OA
ATOM     19  H   UNL     1      51.592  -2.774 -56.031  1.00  0.00     0.293 HD
ENDBRANCH  15  18
BRANCH  17  20
ATOM     20  O   UNL     1      54.373  -1.599 -56.504  1.00  0.00    -0.504 OA
ATOM     21  H   UNL     1      53.604  -1.719 -57.154  1.00  0.00     0.293 HD
ENDBRANCH  17  20
ENDBRANCH   1  12
BRANCH   6  22
ATOM     22  O   UNL     1      59.795  -0.459 -48.507  1.00  0.00    -0.507 OA
ATOM     23  H   UNL     1      60.136   0.447 -48.785  1.00  0.00     0.293 HD
ENDBRANCH   6  22
BRANCH   8  24
ATOM     24  O   UNL     1      61.656  -4.521 -50.269  1.00  0.00    -0.508 OA
ATOM     25  H   UNL     1      61.540  -5.444 -49.868  1.00  0.00     0.293 HD
ENDBRANCH   8  24
TORSDOF 5
ENDMDL
MODEL 6
REMARK VINA RESULT:    -5.105     12.564     14.562
REMARK INTER + INTRA:          -6.309
REMARK INTER:                  -6.018
REMARK INTRA:                  -0.291
REMARK UNBOUND:                -0.308
REMARK SMILES O=c1cc(-c2ccc(O)c(O)c2)oc2cc(O)cc(O)c12
REMARK SMILES IDX 4 1 3 2 2 3 1 4 21 5 19 6 18 7 16 8 15 9 14 10 13 11 5 12
REMARK SMILES IDX 6 13 7 14 8 15 12 16 10 17 9 18 11 20 20 22 17 24
REMARK H PARENT 9 19 11 21 20 23 17 25
REMARK Flexibility Score: inf
ROOT
ATOM      1  C   UNL     1      59.989  -3.351 -48.725  1.00  0.00     0.138 A 
ATOM      2  C   UNL     1      60.738  -4.365 -48.112  1.00  0.00     0.100 A 
ATOM      3  C   UNL     1      61.072  -4.256 -46.762  1.00  0.00     0.197 A 
ATOM      4  O   UNL     1      61.797  -5.151 -46.255  1.00  0.00    -0.289 OA
ATOM      5  C   UNL     1      60.626  -3.140 -46.015  1.00  0.00     0.107 A 
ATOM      6  C   UNL     1      60.871  -2.943 -44.622  1.00  0.00     0.134 A 
ATOM      7  C   UNL     1      60.480  -1.743 -44.016  1.00  0.00     0.093 A 
ATOM      8  C   UNL     1      59.799  -0.759 -44.738  1.00  0.00     0.123 A 
ATOM      9  C   UNL     1      59.508  -0.965 -46.084  1.00  0.00     0.094 A 
ATOM     10  C   UNL     1      59.915  -2.137 -46.726  1.00  0.00     0.146 A 
ATOM     11  O   UNL     1      59.629  -2.287 -48.015  1.00  0.00    -0.456 OA
ENDROOT
BRANCH   1  12
ATOM     12  C   UNL     1      59.605  -3.417 -50.158  1.00  0.00     0.021 A 
ATOM     13  C   UNL     1      58.507  -2.669 -50.615  1.00  0.00     0.016 A 
ATOM     14  C   UNL     1      58.122  -2.719 -51.957  1.00  0.00     0.051 A 
ATOM     15  C   UNL     1      58.817  -3.524 -52.863  1.00  0.00     0.157 A 
ATOM     16  C   UNL     1      60.295  -4.238 -51.072  1.00  0.00     0.062 A 
ATOM     17  C   UNL     1      59.908  -4.291 -52.420  1.00  0.00     0.158 A 
BRANCH  15  18
ATOM     18  O   UNL     1      58.410  -3.554 -54.196  1.00  0.00    -0.504 OA
ATOM     19  H   UNL     1      58.722  -2.865 -54.870  1.00  0.00     0.293 HD
ENDBRANCH  15  18
BRANCH  17  20
ATOM     20  O   UNL     1      60.598  -5.104 -53.316  1.00  0.00    -0.504 OA
ATOM     21  H   UNL     1      60.735  -4.833 -54.283  1.00  0.00     0.293 HD
ENDBRANCH  17  20
ENDBRANCH   1  12
BRANCH   6  22
ATOM     22  O   UNL     1      61.467  -3.897 -43.792  1.00  0.00    -0.507 OA
ATOM     23  H   UNL     1      61.609  -3.791 -42.800  1.00  0.00     0.293 HD
ENDBRANCH   6  22
BRANCH   8  24
ATOM     24  O   UNL     1      59.400   0.425 -44.121  1.00  0.00    -0.508 OA
ATOM     25  H   UNL     1      58.918   1.154 -44.634  1.00  0.00     0.293 HD
ENDBRANCH   8  24
TORSDOF 5
ENDMDL
MODEL 7
REMARK VINA RESULT:    -5.105     12.157     14.894
REMARK INTER + INTRA:          -6.309
REMARK INTER:                  -6.013
REMARK INTRA:                  -0.296
REMARK UNBOUND:                -0.308
REMARK SMILES O=c1cc(-c2ccc(O)c(O)c2)oc2cc(O)cc(O)c12
REMARK SMILES IDX 4 1 3 2 2 3 1 4 21 5 19 6 18 7 16 8 15 9 14 10 13 11 5 12
REMARK SMILES IDX 6 13 7 14 8 15 12 16 10 17 9 18 11 20 20 22 17 24
REMARK H PARENT 9 19 11 21 20 23 17 25
REMARK Flexibility Score: inf
ROOT
ATOM      1  C   UNL     1      53.503  -4.427 -52.477  1.00  0.00     0.138 A 
ATOM      2  C   UNL     1      53.948  -4.019 -51.211  1.00  0.00     0.100 A 
ATOM      3  C   UNL     1      53.754  -4.854 -50.110  1.00  0.00     0.197 A 
ATOM      4  O   UNL     1      54.108  -4.435 -48.977  1.00  0.00    -0.289 OA
ATOM      5  C   UNL     1      53.140  -6.117 -50.284  1.00  0.00     0.107 A 
ATOM      6  C   UNL     1      52.929  -7.069 -49.242  1.00  0.00     0.134 A 
ATOM      7  C   UNL     1      52.206  -8.238 -49.511  1.00  0.00     0.093 A 
ATOM      8  C   UNL     1      51.740  -8.517 -50.799  1.00  0.00     0.123 A 
ATOM      9  C   UNL     1      51.989  -7.620 -51.834  1.00  0.00     0.094 A 
ATOM     10  C   UNL     1      52.677  -6.429 -51.590  1.00  0.00     0.146 A 
ATOM     11  O   UNL     1      52.880  -5.593 -52.604  1.00  0.00    -0.456 OA
ENDROOT
BRANCH   1  12
ATOM     12  C   UNL     1      53.684  -3.578 -53.682  1.00  0.00     0.021 A 
ATOM     13  C   UNL     1      54.894  -2.889 -53.867  1.00  0.00     0.016 A 
ATOM     14  C   UNL     1      55.086  -2.078 -54.988  1.00  0.00     0.051 A 
ATOM     15  C   UNL     1      54.071  -1.932 -55.938  1.00  0.00     0.157 A 
ATOM     16  C   UNL     1      52.658  -3.417 -54.635  1.00  0.00     0.062 A 
ATOM     17  C   UNL     1      52.849  -2.602 -55.760  1.00  0.00     0.158 A 
BRANCH  15  18
ATOM     18  O   UNL     1      54.292  -1.117 -57.047  1.00  0.00    -0.504 OA
ATOM     19  H   UNL     1      54.119  -1.435 -57.993  1.00  0.00     0.293 HD
ENDBRANCH  15  18
BRANCH  17  20
ATOM     20  O   UNL     1      51.829  -2.452 -56.698  1.00  0.00    -0.504 OA
ATOM     21  H   UNL     1      50.852  -2.530 -56.437  1.00  0.00     0.293 HD
ENDBRANCH  17  20
ENDBRANCH   1  12
BRANCH   6  22
ATOM     22  O   UNL     1      53.425  -6.926 -47.942  1.00  0.00    -0.507 OA
ATOM     23  H   UNL     1      54.333  -7.236 -47.634  1.00  0.00     0.293 HD
ENDBRANCH   6  22
BRANCH   8  24
ATOM     24  O   UNL     1      51.035  -9.690 -51.059  1.00  0.00    -0.508 OA
ATOM     25  H   UNL     1      51.441 -10.602 -50.887  1.00  0.00     0.293 HD
ENDBRANCH   8  24
TORSDOF 5
ENDMDL
MODEL 8
REMARK VINA RESULT:    -5.087      2.238      2.731
REMARK INTER + INTRA:          -6.288
REMARK INTER:                  -6.023
REMARK INTRA:                  -0.265
REMARK UNBOUND:                -0.308
REMARK SMILES O=c1cc(-c2ccc(O)c(O)c2)oc2cc(O)cc(O)c12
REMARK SMILES IDX 4 1 3 2 2 3 1 4 21 5 19 6 18 7 16 8 15 9 14 10 13 11 5 12
REMARK SMILES IDX 6 13 7 14 8 15 12 16 10 17 9 18 11 20 20 22 17 24
REMARK H PARENT 9 19 11 21 20 23 17 25
REMARK Flexibility Score: inf
ROOT
ATOM      1  C   UNL     1      54.098   7.532 -48.203  1.00  0.00     0.138 A 
ATOM      2  C   UNL     1      53.547   8.551 -48.993  1.00  0.00     0.100 A 
ATOM      3  C   UNL     1      53.519   8.410 -50.381  1.00  0.00     0.197 A 
ATOM      4  O   UNL     1      53.074   9.368 -51.066  1.00  0.00    -0.289 OA
ATOM      5  C   UNL     1      54.015   7.227 -50.978  1.00  0.00     0.107 A 
ATOM      6  C   UNL     1      53.999   6.956 -52.379  1.00  0.00     0.134 A 
ATOM      7  C   UNL     1      54.625   5.801 -52.865  1.00  0.00     0.093 A 
ATOM      8  C   UNL     1      55.213   4.879 -51.995  1.00  0.00     0.123 A 
ATOM      9  C   UNL     1      55.186   5.109 -50.622  1.00  0.00     0.094 A 
ATOM     10  C   UNL     1      54.600   6.268 -50.109  1.00  0.00     0.146 A 
ATOM     11  O   UNL     1      54.609   6.456 -48.793  1.00  0.00    -0.456 OA
ENDROOT
BRANCH   1  12
ATOM     12  C   UNL     1      54.154   7.631 -46.723  1.00  0.00     0.021 A 
ATOM     13  C   UNL     1      53.038   7.247 -45.961  1.00  0.00     0.016 A 
ATOM     14  C   UNL     1      53.062   7.337 -44.568  1.00  0.00     0.051 A 
ATOM     15  C   UNL     1      54.196   7.821 -43.910  1.00  0.00     0.157 A 
ATOM     16  C   UNL     1      55.291   8.131 -46.057  1.00  0.00     0.062 A 
ATOM     17  C   UNL     1      55.316   8.223 -44.657  1.00  0.00     0.158 A 
BRANCH  15  18
ATOM     18  O   UNL     1      54.192   7.899 -42.518  1.00  0.00    -0.504 OA
ATOM     19  H   UNL     1      55.042   8.028 -41.983  1.00  0.00     0.293 HD
ENDBRANCH  15  18
BRANCH  17  20
ATOM     20  O   UNL     1      56.446   8.717 -44.008  1.00  0.00    -0.504 OA
ATOM     21  H   UNL     1      56.784   8.309 -43.144  1.00  0.00     0.293 HD
ENDBRANCH  17  20
ENDBRANCH   1  12
BRANCH   6  22
ATOM     22  O   UNL     1      53.366   7.768 -53.324  1.00  0.00    -0.507 OA
ATOM     23  H   UNL     1      52.786   8.563 -53.106  1.00  0.00     0.293 HD
ENDBRANCH   6  22
BRANCH   8  24
ATOM     24  O   UNL     1      55.820   3.725 -52.487  1.00  0.00    -0.508 OA
ATOM     25  H   UNL     1      56.790   3.720 -52.780  1.00  0.00     0.293 HD
ENDBRANCH   8  24
TORSDOF 5
ENDMDL
MODEL 9
REMARK VINA RESULT:    -4.979      2.186      7.832
REMARK INTER + INTRA:          -6.160
REMARK INTER:                  -5.895
REMARK INTRA:                  -0.266
REMARK UNBOUND:                -0.308
REMARK SMILES O=c1cc(-c2ccc(O)c(O)c2)oc2cc(O)cc(O)c12
REMARK SMILES IDX 4 1 3 2 2 3 1 4 21 5 19 6 18 7 16 8 15 9 14 10 13 11 5 12
REMARK SMILES IDX 6 13 7 14 8 15 12 16 10 17 9 18 11 20 20 22 17 24
REMARK H PARENT 9 19 11 21 20 23 17 25
REMARK Flexibility Score: inf
ROOT
ATOM      1  C   UNL     1      54.327   7.539 -46.202  1.00  0.00     0.138 A 
ATOM      2  C   UNL     1      55.282   8.282 -45.496  1.00  0.00     0.100 A 
ATOM      3  C   UNL     1      55.248   8.302 -44.101  1.00  0.00     0.197 A 
ATOM      4  O   UNL     1      56.081   9.027 -43.497  1.00  0.00    -0.289 OA
ATOM      5  C   UNL     1      54.270   7.547 -43.410  1.00  0.00     0.107 A 
ATOM      6  C   UNL     1      54.166   7.459 -41.989  1.00  0.00     0.134 A 
ATOM      7  C   UNL     1      53.086   6.775 -41.418  1.00  0.00     0.093 A 
ATOM      8  C   UNL     1      52.141   6.125 -42.217  1.00  0.00     0.123 A 
ATOM      9  C   UNL     1      52.265   6.160 -43.604  1.00  0.00     0.094 A 
ATOM     10  C   UNL     1      53.312   6.863 -44.204  1.00  0.00     0.146 A 
ATOM     11  O   UNL     1      53.385   6.883 -45.531  1.00  0.00    -0.456 OA
ENDROOT
BRANCH   1  12
ATOM     12  C   UNL     1      54.317   7.483 -47.686  1.00  0.00     0.021 A 
ATOM     13  C   UNL     1      55.169   6.584 -48.349  1.00  0.00     0.016 A 
ATOM     14  C   UNL     1      55.184   6.517 -49.744  1.00  0.00     0.051 A 
ATOM     15  C   UNL     1      54.358   7.352 -50.502  1.00  0.00     0.157 A 
ATOM     16  C   UNL     1      53.495   8.332 -48.453  1.00  0.00     0.062 A 
ATOM     17  C   UNL     1      53.511   8.267 -49.855  1.00  0.00     0.158 A 
BRANCH  15  18
ATOM     18  O   UNL     1      54.395   7.262 -51.893  1.00  0.00    -0.504 OA
ATOM     19  H   UNL     1      54.052   6.448 -52.389  1.00  0.00     0.293 HD
ENDBRANCH  15  18
BRANCH  17  20
ATOM     20  O   UNL     1      52.693   9.110 -50.604  1.00  0.00    -0.504 OA
ATOM     21  H   UNL     1      51.791   9.420 -50.260  1.00  0.00     0.293 HD
ENDBRANCH  17  20
ENDBRANCH   1  12
BRANCH   6  22
ATOM     22  O   UNL     1      55.102   8.000 -41.103  1.00  0.00    -0.507 OA
ATOM     23  H   UNL     1      55.633   7.470 -40.430  1.00  0.00     0.293 HD
ENDBRANCH   6  22
BRANCH   8  24
ATOM     24  O   UNL     1      51.078   5.433 -41.639  1.00  0.00    -0.508 OA
ATOM     25  H   UNL     1      50.600   4.688 -42.131  1.00  0.00     0.293 HD
ENDBRANCH   8  24
TORSDOF 5
ENDMDL
