MODEL 1
REMARK VINA RESULT:    -3.365      0.000      0.000
REMARK INTER + INTRA:          -4.624
REMARK INTER:                  -4.349
REMARK INTRA:                  -0.275
REMARK UNBOUND:                -0.275
REMARK SMILES CCCCCCC(=O)[O-]
REMARK SMILES IDX 5 1 6 2 7 3 8 4 9 5 4 6 3 7 2 8 1 9
REMARK H PARENT
REMARK Flexibility Score: inf
ROOT
ATOM      1  C   UNL     1      37.273  23.182 222.241  1.00  0.00     0.006 C 
ENDROOT
BRANCH   1   2
ATOM      2  C   UNL     1      38.531  23.383 221.390  1.00  0.00     0.053 C 
BRANCH   2   3
ATOM      3  C   UNL     1      39.538  24.205 222.130  1.00  0.00     0.041 C 
ATOM      4  O   UNL     1      40.764  23.935 222.041  1.00  0.00    -0.550 OA
ATOM      5  O   UNL     1      39.119  25.241 222.955  1.00  0.00    -0.550 OA
ENDBRANCH   2   3
ENDBRANCH   1   2
BRANCH   1   6
ATOM      6  C   UNL     1      36.017  23.135 221.363  1.00  0.00     0.000 C 
BRANCH   6   7
ATOM      7  C   UNL     1      35.871  24.420 220.540  1.00  0.00    -0.000 C 
BRANCH   7   8
ATOM      8  C   UNL     1      35.424  24.107 219.107  1.00  0.00    -0.003 C 
ATOM      9  C   UNL     1      36.568  23.517 218.289  1.00  0.00     0.004 C 
ENDBRANCH   7   8
ENDBRANCH   6   7
ENDBRANCH   1   6
TORSDOF 5
ENDMDL
MODEL 2
REMARK VINA RESULT:    -3.311      1.958      2.496
REMARK INTER + INTRA:          -4.553
REMARK INTER:                  -4.342
REMARK INTRA:                  -0.211
REMARK UNBOUND:                -0.275
REMARK SMILES CCCCCCC(=O)[O-]
REMARK SMILES IDX 5 1 6 2 7 3 8 4 9 5 4 6 3 7 2 8 1 9
REMARK H PARENT
REMARK Flexibility Score: inf
ROOT
ATOM      1  C   UNL     1      36.270  22.870 222.360  1.00  0.00     0.006 C 
ENDROOT
BRANCH   1   2
ATOM      2  C   UNL     1      37.143  23.602 223.384  1.00  0.00     0.053 C 
BRANCH   2   3
ATOM      3  C   UNL     1      36.656  25.003 223.580  1.00  0.00     0.041 C 
ATOM      4  O   UNL     1      35.552  25.218 224.145  1.00  0.00    -0.550 OA
ATOM      5  O   UNL     1      37.400  26.072 223.095  1.00  0.00    -0.550 OA
ENDBRANCH   2   3
ENDBRANCH   1   2
BRANCH   1   6
ATOM      6  C   UNL     1      36.586  23.336 220.934  1.00  0.00     0.000 C 
BRANCH   6   7
ATOM      7  C   UNL     1      35.403  24.100 220.330  1.00  0.00    -0.000 C 
BRANCH   7   8
ATOM      8  C   UNL     1      35.458  24.077 218.797  1.00  0.00    -0.003 C 
ATOM      9  C   UNL     1      36.744  23.424 218.302  1.00  0.00     0.004 C 
ENDBRANCH   7   8
ENDBRANCH   6   7
ENDBRANCH   1   6
TORSDOF 5
ENDMDL
MODEL 3
REMARK VINA RESULT:    -3.298      2.858      4.472
REMARK INTER + INTRA:          -4.537
REMARK INTER:                  -4.221
REMARK INTRA:                  -0.316
REMARK UNBOUND:                -0.275
REMARK SMILES CCCCCCC(=O)[O-]
REMARK SMILES IDX 5 1 6 2 7 3 8 4 9 5 4 6 3 7 2 8 1 9
REMARK H PARENT
REMARK Flexibility Score: inf
ROOT
ATOM      1  C   UNL     1      36.078  23.007 221.579  1.00  0.00     0.006 C 
ENDROOT
BRANCH   1   2
ATOM      2  C   UNL     1      35.862  24.314 220.809  1.00  0.00     0.053 C 
BRANCH   2   3
ATOM      3  C   UNL     1      35.770  24.046 219.339  1.00  0.00     0.041 C 
ATOM      4  O   UNL     1      34.659  24.121 218.751  1.00  0.00    -0.550 OA
ATOM      5  O   UNL     1      36.901  23.667 218.629  1.00  0.00    -0.550 OA
ENDBRANCH   2   3
ENDBRANCH   1   2
BRANCH   1   6
ATOM      6  C   UNL     1      37.225  23.145 222.586  1.00  0.00     0.000 C 
BRANCH   6   7
ATOM      7  C   UNL     1      38.436  23.838 221.950  1.00  0.00    -0.000 C 
BRANCH   7   8
ATOM      8  C   UNL     1      39.084  24.824 222.930  1.00  0.00    -0.003 C 
ATOM      9  C   UNL     1      38.145  25.984 223.246  1.00  0.00     0.004 C 
ENDBRANCH   7   8
ENDBRANCH   6   7
ENDBRANCH   1   6
TORSDOF 5
ENDMDL
MODEL 4
REMARK VINA RESULT:    -3.295      2.780      4.259
REMARK INTER + INTRA:          -4.534
REMARK INTER:                  -4.302
REMARK INTRA:                  -0.232
REMARK UNBOUND:                -0.275
REMARK SMILES CCCCCCC(=O)[O-]
REMARK SMILES IDX 5 1 6 2 7 3 8 4 9 5 4 6 3 7 2 8 1 9
REMARK H PARENT
REMARK Flexibility Score: inf
ROOT
ATOM      1  C   UNL     1      35.729  23.103 221.720  1.00  0.00     0.006 C 
ENDROOT
BRANCH   1   2
ATOM      2  C   UNL     1      35.772  24.384 220.883  1.00  0.00     0.053 C 
BRANCH   2   3
ATOM      3  C   UNL     1      35.681  24.061 219.425  1.00  0.00     0.041 C 
ATOM      4  O   UNL     1      36.714  23.734 218.783  1.00  0.00    -0.550 OA
ATOM      5  O   UNL     1      34.465  24.165 218.764  1.00  0.00    -0.550 OA
ENDBRANCH   2   3
ENDBRANCH   1   2
BRANCH   1   6
ATOM      6  C   UNL     1      36.974  22.982 222.607  1.00  0.00     0.000 C 
BRANCH   6   7
ATOM      7  C   UNL     1      38.021  24.036 222.230  1.00  0.00    -0.000 C 
BRANCH   7   8
ATOM      8  C   UNL     1      39.226  23.390 221.536  1.00  0.00    -0.003 C 
ATOM      9  C   UNL     1      40.535  23.813 222.196  1.00  0.00     0.004 C 
ENDBRANCH   7   8
ENDBRANCH   6   7
ENDBRANCH   1   6
TORSDOF 5
ENDMDL
MODEL 5
REMARK VINA RESULT:    -3.172      0.991      1.507
REMARK INTER + INTRA:          -4.374
REMARK INTER:                  -4.106
REMARK INTRA:                  -0.268
REMARK UNBOUND:                -0.275
REMARK SMILES CCCCCCC(=O)[O-]
REMARK SMILES IDX 5 1 6 2 7 3 8 4 9 5 4 6 3 7 2 8 1 9
REMARK H PARENT
REMARK Flexibility Score: inf
ROOT
ATOM      1  C   UNL     1      37.954  23.221 222.127  1.00  0.00     0.006 C 
ENDROOT
BRANCH   1   2
ATOM      2  C   UNL     1      39.256  23.546 221.389  1.00  0.00     0.053 C 
BRANCH   2   3
ATOM      3  C   UNL     1      40.419  23.489 222.330  1.00  0.00     0.041 C 
ATOM      4  O   UNL     1      40.551  24.363 223.226  1.00  0.00    -0.550 OA
ATOM      5  O   UNL     1      41.381  22.498 222.187  1.00  0.00    -0.550 OA
ENDBRANCH   2   3
ENDBRANCH   1   2
BRANCH   1   6
ATOM      6  C   UNL     1      36.851  24.221 221.762  1.00  0.00     0.000 C 
BRANCH   6   7
ATOM      7  C   UNL     1      35.807  23.578 220.842  1.00  0.00    -0.000 C 
BRANCH   7   8
ATOM      8  C   UNL     1      35.820  24.232 219.455  1.00  0.00    -0.003 C 
ATOM      9  C   UNL     1      36.743  23.482 218.500  1.00  0.00     0.004 C 
ENDBRANCH   7   8
ENDBRANCH   6   7
ENDBRANCH   1   6
TORSDOF 5
ENDMDL
MODEL 6
REMARK VINA RESULT:    -3.155      1.692      2.231
REMARK INTER + INTRA:          -4.352
REMARK INTER:                  -4.087
REMARK INTRA:                  -0.265
REMARK UNBOUND:                -0.275
REMARK SMILES CCCCCCC(=O)[O-]
REMARK SMILES IDX 5 1 6 2 7 3 8 4 9 5 4 6 3 7 2 8 1 9
REMARK H PARENT
REMARK Flexibility Score: inf
ROOT
ATOM      1  C   UNL     1      36.924  22.802 222.760  1.00  0.00     0.006 C 
ENDROOT
BRANCH   1   2
ATOM      2  C   UNL     1      38.448  22.806 222.912  1.00  0.00     0.053 C 
BRANCH   2   3
ATOM      3  C   UNL     1      39.093  23.402 221.701  1.00  0.00     0.041 C 
ATOM      4  O   UNL     1      38.595  23.214 220.560  1.00  0.00    -0.550 OA
ATOM      5  O   UNL     1      40.272  24.126 221.826  1.00  0.00    -0.550 OA
ENDBRANCH   2   3
ENDBRANCH   1   2
BRANCH   1   6
ATOM      6  C   UNL     1      36.313  24.099 223.303  1.00  0.00     0.000 C 
BRANCH   6   7
ATOM      7  C   UNL     1      35.018  24.450 222.562  1.00  0.00    -0.000 C 
BRANCH   7   8
ATOM      8  C   UNL     1      34.931  23.704 221.224  1.00  0.00    -0.003 C 
ATOM      9  C   UNL     1      33.527  23.794 220.634  1.00  0.00     0.004 C 
ENDBRANCH   7   8
ENDBRANCH   6   7
ENDBRANCH   1   6
TORSDOF 5
ENDMDL
MODEL 7
REMARK VINA RESULT:    -3.112      2.781      4.318
REMARK INTER + INTRA:          -4.297
REMARK INTER:                  -4.000
REMARK INTRA:                  -0.297
REMARK UNBOUND:                -0.275
REMARK SMILES CCCCCCC(=O)[O-]
REMARK SMILES IDX 5 1 6 2 7 3 8 4 9 5 4 6 3 7 2 8 1 9
REMARK H PARENT
REMARK Flexibility Score: inf
ROOT
ATOM      1  C   UNL     1      36.630  25.050 223.765  1.00  0.00     0.006 C 
ENDROOT
BRANCH   1   2
ATOM      2  C   UNL     1      35.375  24.657 222.981  1.00  0.00     0.053 C 
BRANCH   2   3
ATOM      3  C   UNL     1      35.709  23.642 221.933  1.00  0.00     0.041 C 
ATOM      4  O   UNL     1      35.468  23.880 220.720  1.00  0.00    -0.550 OA
ATOM      5  O   UNL     1      36.245  22.414 222.299  1.00  0.00    -0.550 OA
ENDBRANCH   2   3
ENDBRANCH   1   2
BRANCH   1   6
ATOM      6  C   UNL     1      37.708  25.614 222.832  1.00  0.00     0.000 C 
BRANCH   6   7
ATOM      7  C   UNL     1      39.067  24.956 223.100  1.00  0.00    -0.000 C 
BRANCH   7   8
ATOM      8  C   UNL     1      39.506  24.097 221.908  1.00  0.00    -0.003 C 
ATOM      9  C   UNL     1      40.772  23.310 222.233  1.00  0.00     0.004 C 
ENDBRANCH   7   8
ENDBRANCH   6   7
ENDBRANCH   1   6
TORSDOF 5
ENDMDL
MODEL 8
REMARK VINA RESULT:    -3.018      2.817      4.395
REMARK INTER + INTRA:          -4.176
REMARK INTER:                  -3.828
REMARK INTRA:                  -0.348
REMARK UNBOUND:                -0.275
REMARK SMILES CCCCCCC(=O)[O-]
REMARK SMILES IDX 5 1 6 2 7 3 8 4 9 5 4 6 3 7 2 8 1 9
REMARK H PARENT
REMARK Flexibility Score: inf
ROOT
ATOM      1  C   UNL     1      37.571  22.815 222.687  1.00  0.00     0.006 C 
ENDROOT
BRANCH   1   2
ATOM      2  C   UNL     1      36.164  22.546 222.144  1.00  0.00     0.053 C 
BRANCH   2   3
ATOM      3  C   UNL     1      35.420  23.831 221.959  1.00  0.00     0.041 C 
ATOM      4  O   UNL     1      34.849  24.080 220.865  1.00  0.00    -0.550 OA
ATOM      5  O   UNL     1      35.396  24.774 222.979  1.00  0.00    -0.550 OA
ENDBRANCH   2   3
ENDBRANCH   1   2
BRANCH   1   6
ATOM      6  C   UNL     1      38.460  23.459 221.617  1.00  0.00     0.000 C 
BRANCH   6   7
ATOM      7  C   UNL     1      39.543  24.336 222.257  1.00  0.00    -0.000 C 
BRANCH   7   8
ATOM      8  C   UNL     1      39.161  24.723 223.691  1.00  0.00    -0.003 C 
ATOM      9  C   UNL     1      38.626  26.150 223.752  1.00  0.00     0.004 C 
ENDBRANCH   7   8
ENDBRANCH   6   7
ENDBRANCH   1   6
TORSDOF 5
ENDMDL
MODEL 9
REMARK VINA RESULT:    -2.996      2.969      4.517
REMARK INTER + INTRA:          -4.147
REMARK INTER:                  -3.924
REMARK INTRA:                  -0.223
REMARK UNBOUND:                -0.275
REMARK SMILES CCCCCCC(=O)[O-]
REMARK SMILES IDX 5 1 6 2 7 3 8 4 9 5 4 6 3 7 2 8 1 9
REMARK H PARENT
REMARK Flexibility Score: inf
ROOT
ATOM      1  C   UNL     1      37.742  23.505 221.553  1.00  0.00     0.006 C 
ENDROOT
BRANCH   1   2
ATOM      2  C   UNL     1      36.526  22.983 222.326  1.00  0.00     0.053 C 
BRANCH   2   3
ATOM      3  C   UNL     1      35.375  23.930 222.193  1.00  0.00     0.041 C 
ATOM      4  O   UNL     1      34.727  23.991 221.116  1.00  0.00    -0.550 OA
ATOM      5  O   UNL     1      35.048  24.778 223.243  1.00  0.00    -0.550 OA
ENDBRANCH   2   3
ENDBRANCH   1   2
BRANCH   1   6
ATOM      6  C   UNL     1      38.576  24.457 222.417  1.00  0.00     0.000 C 
BRANCH   6   7
ATOM      7  C   UNL     1      40.068  24.112 222.332  1.00  0.00    -0.000 C 
BRANCH   7   8
ATOM      8  C   UNL     1      40.274  22.694 221.786  1.00  0.00    -0.003 C 
ATOM      9  C   UNL     1      41.587  22.098 222.283  1.00  0.00     0.004 C 
ENDBRANCH   7   8
ENDBRANCH   6   7
ENDBRANCH   1   6
TORSDOF 5
ENDMDL
