MODEL 1
REMARK VINA RESULT:    14.114      0.000      0.000
REMARK INTER + INTRA:          24.167
REMARK INTER:                  19.890
REMARK INTRA:                   4.276
REMARK UNBOUND:                 4.276
REMARK SMILES C=C(CC[C@@H](C(=O)[O-])[C@@H]1[C@H](O)C[C@]2(C)C3=C(CC[C@@]12C)[C@@]1(C)CC[C@@H](O)C(C)(C)[C@@H]1CC3)C(C)C
REMARK SMILES IDX 4 1 5 2 6 3 7 4 8 5 9 6 10 7 19 8 12 9 13 10 18 11 20 12
REMARK SMILES IDX 14 13 15 14 17 15 16 16 32 17 21 18 31 19 30 20 23 21 22 22
REMARK SMILES IDX 27 23 24 24 25 25 28 26 29 27 11 28 26 30 3 32 2 33 1 34
REMARK SMILES IDX 33 35 34 36 35 37
REMARK H PARENT 11 29 26 31
REMARK Flexibility Score: inf
ROOT
ATOM      1  C   UNL     1      10.088 -33.947  11.876  1.00  0.00     0.014 C 
ENDROOT
BRANCH   1   2
ATOM      2  C   UNL     1       8.602 -33.512  11.912  1.00  0.00     0.042 C 
BRANCH   2   3
ATOM      3  C   UNL     1       7.782 -34.504  12.705  1.00  0.00     0.045 C 
ATOM      4  O   UNL     1       6.761 -35.053  12.214  1.00  0.00    -0.550 OA
ATOM      5  O   UNL     1       8.107 -34.753  14.035  1.00  0.00    -0.550 OA
ENDBRANCH   2   3
BRANCH   2   6
ATOM      6  C   UNL     1       8.476 -31.999  12.320  1.00  0.00     0.033 C 
ATOM      7  C   UNL     1       9.650 -31.029  11.990  1.00  0.00     0.119 C 
ATOM      8  C   UNL     1       8.060 -31.615  13.766  1.00  0.00    -0.017 C 
ATOM      9  C   UNL     1       9.606 -29.915  13.069  1.00  0.00     0.043 C 
ATOM     10  C   UNL     1       8.234 -30.066  13.751  1.00  0.00    -0.003 C 
ATOM     11  C   UNL     1       6.604 -31.923  14.152  1.00  0.00     0.012 C 
ATOM     12  C   UNL     1       9.009 -32.307  14.808  1.00  0.00     0.013 C 
ATOM     13  C   UNL     1       7.194 -29.271  12.891  1.00  0.00     0.017 C 
ATOM     14  C   UNL     1       8.077 -29.528  15.166  1.00  0.00    -0.064 C 
ATOM     15  C   UNL     1       6.239 -31.262  15.510  1.00  0.00     0.032 C 
ATOM     16  C   UNL     1       7.079 -30.035  15.959  1.00  0.00    -0.064 C 
ATOM     17  C   UNL     1       8.765 -28.230  15.543  1.00  0.00     0.032 C 
ATOM     18  C   UNL     1       6.777 -29.346  17.314  1.00  0.00    -0.008 C 
ATOM     19  C   UNL     1       9.039 -28.075  17.049  1.00  0.00     0.009 C 
ATOM     20  C   UNL     1       8.162 -28.975  17.964  1.00  0.00     0.007 C 
ATOM     21  C   UNL     1       6.023 -30.317  18.275  1.00  0.00     0.014 C 
ATOM     22  C   UNL     1       5.875 -28.113  17.008  1.00  0.00     0.016 C 
ATOM     23  C   UNL     1       8.127 -28.514  19.478  1.00  0.00    -0.006 C 
ATOM     24  C   UNL     1       5.929 -29.817  19.723  1.00  0.00     0.033 C 
ATOM     25  C   UNL     1       7.317 -29.552  20.320  1.00  0.00     0.120 C 
ATOM     26  C   UNL     1       7.523 -27.099  19.690  1.00  0.00     0.014 C 
ATOM     27  C   UNL     1       9.576 -28.459  20.033  1.00  0.00     0.014 C 
BRANCH   7  28
ATOM     28  O   UNL     1      10.895 -31.671  12.012  1.00  0.00    -0.393 OA
ATOM     29  H   UNL     1      10.719 -32.638  11.870  1.00  0.00     0.210 HD
ENDBRANCH   7  28
BRANCH  25  30
ATOM     30  O   UNL     1       8.007 -30.777  20.405  1.00  0.00    -0.393 OA
ATOM     31  H   UNL     1       8.975 -30.582  20.308  1.00  0.00     0.210 HD
ENDBRANCH  25  30
ENDBRANCH   2   6
ENDBRANCH   1   2
BRANCH   1  32
ATOM     32  C   UNL     1      10.445 -34.924  13.010  1.00  0.00     0.031 C 
BRANCH  32  33
ATOM     33  C   UNL     1      11.438 -34.301  13.971  1.00  0.00    -0.075 C 
ATOM     34  C   UNL     1      11.059 -34.051  15.236  1.00  0.00     0.008 C 
BRANCH  33  35
ATOM     35  C   UNL     1      12.835 -33.908  13.505  1.00  0.00     0.008 C 
ATOM     36  C   UNL     1      13.160 -34.522  12.138  1.00  0.00     0.012 C 
ATOM     37  C   UNL     1      12.998 -32.384  13.481  1.00  0.00     0.012 C 
ENDBRANCH  33  35
ENDBRANCH  32  33
ENDBRANCH   1  32
TORSDOF 8
ENDMDL
