MODEL 1
REMARK VINA RESULT:    -5.413      0.000      0.000
REMARK INTER + INTRA:         -14.687
REMARK INTER:                 -11.741
REMARK INTRA:                  -2.946
REMARK UNBOUND:                -2.946
REMARK SMILES CCCCCCCCCCCCCCCCCCCCCC(=O)[O-]
REMARK SMILES IDX 12 1 11 2 10 3 9 4 8 5 7 6 6 7 5 8 4 9 3 10 2 11 1 12 13 13
REMARK SMILES IDX 14 14 15 15 16 16 17 17 18 18 19 19 20 20 21 21 22 22 23 23
REMARK SMILES IDX 24 24
REMARK H PARENT
REMARK Flexibility Score: inf
ROOT
ATOM      1  C   UNL     1      41.495 -11.635 -43.790  1.00  0.00     0.000 C 
ENDROOT
BRANCH   1   2
ATOM      2  C   UNL     1      41.245 -10.363 -44.617  1.00  0.00     0.000 C 
BRANCH   2   3
ATOM      3  C   UNL     1      40.487  -9.279 -43.832  1.00  0.00     0.000 C 
BRANCH   3   4
ATOM      4  C   UNL     1      41.378  -8.257 -43.097  1.00  0.00    -0.000 C 
BRANCH   4   5
ATOM      5  C   UNL     1      41.079  -8.085 -41.595  1.00  0.00    -0.000 C 
BRANCH   5   6
ATOM      6  C   UNL     1      40.261  -9.223 -40.955  1.00  0.00    -0.000 C 
BRANCH   6   7
ATOM      7  C   UNL     1      41.081 -10.059 -39.958  1.00  0.00    -0.000 C 
BRANCH   7   8
ATOM      8  C   UNL     1      41.895  -9.193 -38.979  1.00  0.00    -0.000 C 
BRANCH   8   9
ATOM      9  C   UNL     1      42.459  -9.939 -37.755  1.00  0.00    -0.000 C 
BRANCH   9  10
ATOM     10  C   UNL     1      41.972 -11.391 -37.590  1.00  0.00    -0.000 C 
BRANCH  10  11
ATOM     11  C   UNL     1      42.816 -12.224 -36.602  1.00  0.00    -0.003 C 
ATOM     12  C   UNL     1      44.001 -11.445 -36.033  1.00  0.00     0.004 C 
ENDBRANCH  10  11
ENDBRANCH   9  10
ENDBRANCH   8   9
ENDBRANCH   7   8
ENDBRANCH   6   7
ENDBRANCH   5   6
ENDBRANCH   4   5
ENDBRANCH   3   4
ENDBRANCH   2   3
ENDBRANCH   1   2
BRANCH   1  13
ATOM     13  C   UNL     1      42.988 -11.890 -43.531  1.00  0.00     0.000 C 
BRANCH  13  14
ATOM     14  C   UNL     1      43.510 -11.243 -42.229  1.00  0.00     0.000 C 
BRANCH  14  15
ATOM     15  C   UNL     1      43.876 -12.293 -41.165  1.00  0.00     0.000 C 
BRANCH  15  16
ATOM     16  C   UNL     1      44.839 -11.730 -40.097  1.00  0.00     0.000 C 
BRANCH  16  17
ATOM     17  C   UNL     1      46.129 -12.552 -39.933  1.00  0.00     0.000 C 
BRANCH  17  18
ATOM     18  C   UNL     1      46.553 -12.710 -38.464  1.00  0.00     0.000 C 
BRANCH  18  19
ATOM     19  C   UNL     1      46.120 -14.058 -37.865  1.00  0.00     0.000 C 
BRANCH  19  20
ATOM     20  C   UNL     1      47.083 -14.563 -36.780  1.00  0.00     0.006 C 
BRANCH  20  21
ATOM     21  C   UNL     1      46.814 -13.865 -35.443  1.00  0.00     0.053 C 
BRANCH  21  22
ATOM     22  C   UNL     1      48.078 -13.286 -34.891  1.00  0.00     0.041 C 
ATOM     23  O   UNL     1      48.923 -12.757 -35.660  1.00  0.00    -0.550 OA
ATOM     24  O   UNL     1      48.346 -13.372 -33.530  1.00  0.00    -0.550 OA
ENDBRANCH  21  22
ENDBRANCH  20  21
ENDBRANCH  19  20
ENDBRANCH  18  19
ENDBRANCH  17  18
ENDBRANCH  16  17
ENDBRANCH  15  16
ENDBRANCH  14  15
ENDBRANCH  13  14
ENDBRANCH   1  13
TORSDOF 20
ENDMDL
MODEL 2
REMARK VINA RESULT:    -5.347      3.025      7.709
REMARK INTER + INTRA:         -14.544
REMARK INTER:                 -11.278
REMARK INTRA:                  -3.266
REMARK UNBOUND:                -2.946
REMARK SMILES CCCCCCCCCCCCCCCCCCCCCC(=O)[O-]
REMARK SMILES IDX 12 1 11 2 10 3 9 4 8 5 7 6 6 7 5 8 4 9 3 10 2 11 1 12 13 13
REMARK SMILES IDX 14 14 15 15 16 16 17 17 18 18 19 19 20 20 21 21 22 22 23 23
REMARK SMILES IDX 24 24
REMARK H PARENT
REMARK Flexibility Score: inf
ROOT
ATOM      1  C   UNL     1      46.082 -15.236 -32.938  1.00  0.00     0.000 C 
ENDROOT
BRANCH   1   2
ATOM      2  C   UNL     1      44.575 -15.234 -33.243  1.00  0.00     0.000 C 
BRANCH   2   3
ATOM      3  C   UNL     1      44.271 -15.215 -34.751  1.00  0.00     0.000 C 
BRANCH   3   4
ATOM      4  C   UNL     1      43.413 -14.027 -35.232  1.00  0.00    -0.000 C 
BRANCH   4   5
ATOM      5  C   UNL     1      43.416 -12.795 -34.305  1.00  0.00    -0.000 C 
BRANCH   5   6
ATOM      6  C   UNL     1      43.914 -11.490 -34.954  1.00  0.00    -0.000 C 
BRANCH   6   7
ATOM      7  C   UNL     1      44.048 -11.597 -36.482  1.00  0.00    -0.000 C 
BRANCH   7   8
ATOM      8  C   UNL     1      43.157 -10.589 -37.233  1.00  0.00    -0.000 C 
BRANCH   8   9
ATOM      9  C   UNL     1      41.753 -11.103 -37.603  1.00  0.00    -0.000 C 
BRANCH   9  10
ATOM     10  C   UNL     1      41.363 -10.936 -39.084  1.00  0.00    -0.000 C 
BRANCH  10  11
ATOM     11  C   UNL     1      40.949  -9.498 -39.462  1.00  0.00    -0.003 C 
ATOM     12  C   UNL     1      40.551  -9.364 -40.932  1.00  0.00     0.004 C 
ENDBRANCH  10  11
ENDBRANCH   9  10
ENDBRANCH   8   9
ENDBRANCH   7   8
ENDBRANCH   6   7
ENDBRANCH   5   6
ENDBRANCH   4   5
ENDBRANCH   3   4
ENDBRANCH   2   3
ENDBRANCH   1   2
BRANCH   1  13
ATOM     13  C   UNL     1      46.607 -13.848 -32.537  1.00  0.00     0.000 C 
BRANCH  13  14
ATOM     14  C   UNL     1      47.277 -13.081 -33.699  1.00  0.00     0.000 C 
BRANCH  14  15
ATOM     15  C   UNL     1      47.647 -14.009 -34.870  1.00  0.00     0.000 C 
BRANCH  15  16
ATOM     16  C   UNL     1      47.645 -13.268 -36.225  1.00  0.00     0.000 C 
BRANCH  16  17
ATOM     17  C   UNL     1      46.883 -14.013 -37.335  1.00  0.00     0.000 C 
BRANCH  17  18
ATOM     18  C   UNL     1      46.772 -13.196 -38.632  1.00  0.00     0.000 C 
BRANCH  18  19
ATOM     19  C   UNL     1      45.386 -13.313 -39.288  1.00  0.00     0.000 C 
BRANCH  19  20
ATOM     20  C   UNL     1      45.015 -12.076 -40.119  1.00  0.00     0.006 C 
BRANCH  20  21
ATOM     21  C   UNL     1      44.140 -12.462 -41.315  1.00  0.00     0.053 C 
BRANCH  21  22
ATOM     22  C   UNL     1      43.575 -11.241 -41.968  1.00  0.00     0.041 C 
ATOM     23  O   UNL     1      42.851 -11.347 -42.993  1.00  0.00    -0.550 OA
ATOM     24  O   UNL     1      43.886  -9.981 -41.473  1.00  0.00    -0.550 OA
ENDBRANCH  21  22
ENDBRANCH  20  21
ENDBRANCH  19  20
ENDBRANCH  18  19
ENDBRANCH  17  18
ENDBRANCH  16  17
ENDBRANCH  15  16
ENDBRANCH  14  15
ENDBRANCH  13  14
ENDBRANCH   1  13
TORSDOF 20
ENDMDL
MODEL 3
REMARK VINA RESULT:    -5.329      2.044      3.573
REMARK INTER + INTRA:         -14.506
REMARK INTER:                 -11.472
REMARK INTRA:                  -3.034
REMARK UNBOUND:                -2.946
REMARK SMILES CCCCCCCCCCCCCCCCCCCCCC(=O)[O-]
REMARK SMILES IDX 12 1 11 2 10 3 9 4 8 5 7 6 6 7 5 8 4 9 3 10 2 11 1 12 13 13
REMARK SMILES IDX 14 14 15 15 16 16 17 17 18 18 19 19 20 20 21 21 22 22 23 23
REMARK SMILES IDX 24 24
REMARK H PARENT
REMARK Flexibility Score: inf
ROOT
ATOM      1  C   UNL     1      43.893 -12.286 -40.576  1.00  0.00     0.000 C 
ENDROOT
BRANCH   1   2
ATOM      2  C   UNL     1      43.524 -11.472 -41.826  1.00  0.00     0.000 C 
BRANCH   2   3
ATOM      3  C   UNL     1      42.896 -10.109 -41.487  1.00  0.00     0.000 C 
BRANCH   3   4
ATOM      4  C   UNL     1      41.379 -10.136 -41.209  1.00  0.00    -0.000 C 
BRANCH   4   5
ATOM      5  C   UNL     1      40.980 -10.012 -39.726  1.00  0.00    -0.000 C 
BRANCH   5   6
ATOM      6  C   UNL     1      42.095  -9.514 -38.787  1.00  0.00    -0.000 C 
BRANCH   6   7
ATOM      7  C   UNL     1      42.353 -10.469 -37.609  1.00  0.00    -0.000 C 
BRANCH   7   8
ATOM      8  C   UNL     1      43.844 -10.569 -37.235  1.00  0.00    -0.000 C 
BRANCH   8   9
ATOM      9  C   UNL     1      44.174 -11.573 -36.115  1.00  0.00    -0.000 C 
BRANCH   9  10
ATOM     10  C   UNL     1      43.186 -12.746 -35.973  1.00  0.00    -0.000 C 
BRANCH  10  11
ATOM     11  C   UNL     1      42.469 -12.797 -34.607  1.00  0.00    -0.003 C 
ATOM     12  C   UNL     1      43.209 -12.016 -33.521  1.00  0.00     0.004 C 
ENDBRANCH  10  11
ENDBRANCH   9  10
ENDBRANCH   8   9
ENDBRANCH   7   8
ENDBRANCH   6   7
ENDBRANCH   5   6
ENDBRANCH   4   5
ENDBRANCH   3   4
ENDBRANCH   2   3
ENDBRANCH   1   2
BRANCH   1  13
ATOM     13  C   UNL     1      45.392 -12.622 -40.507  1.00  0.00     0.000 C 
BRANCH  13  14
ATOM     14  C   UNL     1      46.132 -11.915 -39.351  1.00  0.00     0.000 C 
BRANCH  14  15
ATOM     15  C   UNL     1      47.122 -12.853 -38.636  1.00  0.00     0.000 C 
BRANCH  15  16
ATOM     16  C   UNL     1      46.402 -13.941 -37.809  1.00  0.00     0.000 C 
BRANCH  16  17
ATOM     17  C   UNL     1      47.195 -14.404 -36.575  1.00  0.00     0.000 C 
BRANCH  17  18
ATOM     18  C   UNL     1      47.848 -13.238 -35.815  1.00  0.00     0.000 C 
BRANCH  18  19
ATOM     19  C   UNL     1      48.029 -13.536 -34.317  1.00  0.00     0.000 C 
BRANCH  19  20
ATOM     20  C   UNL     1      46.707 -13.479 -33.536  1.00  0.00     0.006 C 
BRANCH  20  21
ATOM     21  C   UNL     1      46.414 -14.820 -32.858  1.00  0.00     0.053 C 
BRANCH  21  22
ATOM     22  C   UNL     1      45.002 -15.241 -33.116  1.00  0.00     0.041 C 
ATOM     23  O   UNL     1      44.196 -15.380 -32.159  1.00  0.00    -0.550 OA
ATOM     24  O   UNL     1      44.588 -15.527 -34.411  1.00  0.00    -0.550 OA
ENDBRANCH  21  22
ENDBRANCH  20  21
ENDBRANCH  19  20
ENDBRANCH  18  19
ENDBRANCH  17  18
ENDBRANCH  16  17
ENDBRANCH  15  16
ENDBRANCH  14  15
ENDBRANCH  13  14
ENDBRANCH   1  13
TORSDOF 20
ENDMDL
MODEL 4
REMARK VINA RESULT:    -5.311      2.029      3.807
REMARK INTER + INTRA:         -14.466
REMARK INTER:                 -11.314
REMARK INTRA:                  -3.152
REMARK UNBOUND:                -2.946
REMARK SMILES CCCCCCCCCCCCCCCCCCCCCC(=O)[O-]
REMARK SMILES IDX 12 1 11 2 10 3 9 4 8 5 7 6 6 7 5 8 4 9 3 10 2 11 1 12 13 13
REMARK SMILES IDX 14 14 15 15 16 16 17 17 18 18 19 19 20 20 21 21 22 22 23 23
REMARK SMILES IDX 24 24
REMARK H PARENT
REMARK Flexibility Score: inf
ROOT
ATOM      1  C   UNL     1      43.109 -11.249 -41.631  1.00  0.00     0.000 C 
ENDROOT
BRANCH   1   2
ATOM      2  C   UNL     1      43.266  -9.957 -40.813  1.00  0.00     0.000 C 
BRANCH   2   3
ATOM      3  C   UNL     1      42.081  -9.703 -39.864  1.00  0.00     0.000 C 
BRANCH   3   4
ATOM      4  C   UNL     1      41.618 -10.928 -39.051  1.00  0.00    -0.000 C 
BRANCH   4   5
ATOM      5  C   UNL     1      41.860 -10.839 -37.531  1.00  0.00    -0.000 C 
BRANCH   5   6
ATOM      6  C   UNL     1      43.313 -10.541 -37.116  1.00  0.00    -0.000 C 
BRANCH   6   7
ATOM      7  C   UNL     1      43.982 -11.726 -36.399  1.00  0.00    -0.000 C 
BRANCH   7   8
ATOM      8  C   UNL     1      43.836 -11.658 -34.867  1.00  0.00    -0.000 C 
BRANCH   8   9
ATOM      9  C   UNL     1      43.507 -12.996 -34.179  1.00  0.00    -0.000 C 
BRANCH   9  10
ATOM     10  C   UNL     1      42.917 -14.080 -35.100  1.00  0.00    -0.000 C 
BRANCH  10  11
ATOM     11  C   UNL     1      43.789 -15.349 -35.209  1.00  0.00    -0.003 C 
ATOM     12  C   UNL     1      43.842 -16.145 -33.905  1.00  0.00     0.004 C 
ENDBRANCH  10  11
ENDBRANCH   9  10
ENDBRANCH   8   9
ENDBRANCH   7   8
ENDBRANCH   6   7
ENDBRANCH   5   6
ENDBRANCH   4   5
ENDBRANCH   3   4
ENDBRANCH   2   3
ENDBRANCH   1   2
BRANCH   1  13
ATOM     13  C   UNL     1      44.193 -12.290 -41.308  1.00  0.00     0.000 C 
BRANCH  13  14
ATOM     14  C   UNL     1      44.922 -12.031 -39.972  1.00  0.00     0.000 C 
BRANCH  14  15
ATOM     15  C   UNL     1      46.224 -12.843 -39.853  1.00  0.00     0.000 C 
BRANCH  15  16
ATOM     16  C   UNL     1      46.728 -12.928 -38.395  1.00  0.00     0.000 C 
BRANCH  16  17
ATOM     17  C   UNL     1      46.395 -14.261 -37.703  1.00  0.00     0.000 C 
BRANCH  17  18
ATOM     18  C   UNL     1      47.306 -14.552 -36.500  1.00  0.00     0.000 C 
BRANCH  18  19
ATOM     19  C   UNL     1      47.933 -13.277 -35.911  1.00  0.00     0.000 C 
BRANCH  19  20
ATOM     20  C   UNL     1      47.412 -12.954 -34.503  1.00  0.00     0.006 C 
BRANCH  20  21
ATOM     21  C   UNL     1      47.064 -14.236 -33.741  1.00  0.00     0.053 C 
BRANCH  21  22
ATOM     22  C   UNL     1      47.111 -13.998 -32.265  1.00  0.00     0.041 C 
ATOM     23  O   UNL     1      47.998 -14.550 -31.562  1.00  0.00    -0.550 OA
ATOM     24  O   UNL     1      46.146 -13.205 -31.657  1.00  0.00    -0.550 OA
ENDBRANCH  21  22
ENDBRANCH  20  21
ENDBRANCH  19  20
ENDBRANCH  18  19
ENDBRANCH  17  18
ENDBRANCH  16  17
ENDBRANCH  15  16
ENDBRANCH  14  15
ENDBRANCH  13  14
ENDBRANCH   1  13
TORSDOF 20
ENDMDL
MODEL 5
REMARK VINA RESULT:    -5.299      2.657      6.649
REMARK INTER + INTRA:         -14.440
REMARK INTER:                 -11.816
REMARK INTRA:                  -2.624
REMARK UNBOUND:                -2.946
REMARK SMILES CCCCCCCCCCCCCCCCCCCCCC(=O)[O-]
REMARK SMILES IDX 12 1 11 2 10 3 9 4 8 5 7 6 6 7 5 8 4 9 3 10 2 11 1 12 13 13
REMARK SMILES IDX 14 14 15 15 16 16 17 17 18 18 19 19 20 20 21 21 22 22 23 23
REMARK SMILES IDX 24 24
REMARK H PARENT
REMARK Flexibility Score: inf
ROOT
ATOM      1  C   UNL     1      43.495 -11.615 -42.528  1.00  0.00     0.000 C 
ENDROOT
BRANCH   1   2
ATOM      2  C   UNL     1      44.270 -12.440 -41.488  1.00  0.00     0.000 C 
BRANCH   2   3
ATOM      3  C   UNL     1      44.246 -11.809 -40.085  1.00  0.00     0.000 C 
BRANCH   3   4
ATOM      4  C   UNL     1      45.630 -11.501 -39.480  1.00  0.00    -0.000 C 
BRANCH   4   5
ATOM      5  C   UNL     1      46.538 -12.727 -39.256  1.00  0.00    -0.000 C 
BRANCH   5   6
ATOM      6  C   UNL     1      45.827 -13.975 -38.701  1.00  0.00    -0.000 C 
BRANCH   6   7
ATOM      7  C   UNL     1      46.526 -14.557 -37.461  1.00  0.00    -0.000 C 
BRANCH   7   8
ATOM      8  C   UNL     1      47.318 -13.499 -36.670  1.00  0.00    -0.000 C 
BRANCH   8   9
ATOM      9  C   UNL     1      46.667 -13.041 -35.351  1.00  0.00    -0.000 C 
BRANCH   9  10
ATOM     10  C   UNL     1      45.175 -13.391 -35.200  1.00  0.00    -0.000 C 
BRANCH  10  11
ATOM     11  C   UNL     1      44.268 -12.165 -34.959  1.00  0.00    -0.003 C 
ATOM     12  C   UNL     1      44.038 -11.340 -36.224  1.00  0.00     0.004 C 
ENDBRANCH  10  11
ENDBRANCH   9  10
ENDBRANCH   8   9
ENDBRANCH   7   8
ENDBRANCH   6   7
ENDBRANCH   5   6
ENDBRANCH   4   5
ENDBRANCH   3   4
ENDBRANCH   2   3
ENDBRANCH   1   2
BRANCH   1  13
ATOM     13  C   UNL     1      43.363 -12.336 -43.879  1.00  0.00     0.000 C 
BRANCH  13  14
ATOM     14  C   UNL     1      42.331 -11.689 -44.828  1.00  0.00     0.000 C 
BRANCH  14  15
ATOM     15  C   UNL     1      40.884 -11.918 -44.355  1.00  0.00     0.000 C 
BRANCH  15  16
ATOM     16  C   UNL     1      40.082 -10.601 -44.267  1.00  0.00     0.000 C 
BRANCH  16  17
ATOM     17  C   UNL     1      40.911  -9.350 -44.604  1.00  0.00     0.000 C 
BRANCH  17  18
ATOM     18  C   UNL     1      40.750  -8.230 -43.563  1.00  0.00     0.000 C 
BRANCH  18  19
ATOM     19  C   UNL     1      41.601  -8.466 -42.304  1.00  0.00     0.000 C 
BRANCH  19  20
ATOM     20  C   UNL     1      40.752  -8.632 -41.035  1.00  0.00     0.006 C 
BRANCH  20  21
ATOM     21  C   UNL     1      40.929 -10.031 -40.438  1.00  0.00     0.053 C 
BRANCH  21  22
ATOM     22  C   UNL     1      41.479  -9.943 -39.050  1.00  0.00     0.041 C 
ATOM     23  O   UNL     1      41.261 -10.865 -38.221  1.00  0.00    -0.550 OA
ATOM     24  O   UNL     1      42.194  -8.819 -38.655  1.00  0.00    -0.550 OA
ENDBRANCH  21  22
ENDBRANCH  20  21
ENDBRANCH  19  20
ENDBRANCH  18  19
ENDBRANCH  17  18
ENDBRANCH  16  17
ENDBRANCH  15  16
ENDBRANCH  14  15
ENDBRANCH  13  14
ENDBRANCH   1  13
TORSDOF 20
ENDMDL
MODEL 6
REMARK VINA RESULT:    -5.290      1.950      4.117
REMARK INTER + INTRA:         -14.422
REMARK INTER:                 -11.769
REMARK INTRA:                  -2.652
REMARK UNBOUND:                -2.946
REMARK SMILES CCCCCCCCCCCCCCCCCCCCCC(=O)[O-]
REMARK SMILES IDX 12 1 11 2 10 3 9 4 8 5 7 6 6 7 5 8 4 9 3 10 2 11 1 12 13 13
REMARK SMILES IDX 14 14 15 15 16 16 17 17 18 18 19 19 20 20 21 21 22 22 23 23
REMARK SMILES IDX 24 24
REMARK H PARENT
REMARK Flexibility Score: inf
ROOT
ATOM      1  C   UNL     1      40.482  -9.467 -41.173  1.00  0.00     0.000 C 
ENDROOT
BRANCH   1   2
ATOM      2  C   UNL     1      41.026  -8.663 -42.364  1.00  0.00     0.000 C 
BRANCH   2   3
ATOM      3  C   UNL     1      41.017  -9.462 -43.679  1.00  0.00     0.000 C 
BRANCH   3   4
ATOM      4  C   UNL     1      41.072 -10.995 -43.515  1.00  0.00    -0.000 C 
BRANCH   4   5
ATOM      5  C   UNL     1      42.215 -11.697 -44.275  1.00  0.00    -0.000 C 
BRANCH   5   6
ATOM      6  C   UNL     1      43.480 -11.977 -43.442  1.00  0.00    -0.000 C 
BRANCH   6   7
ATOM      7  C   UNL     1      43.401 -11.389 -42.023  1.00  0.00    -0.000 C 
BRANCH   7   8
ATOM      8  C   UNL     1      43.917 -12.360 -40.944  1.00  0.00    -0.000 C 
BRANCH   8   9
ATOM      9  C   UNL     1      45.104 -11.843 -40.109  1.00  0.00    -0.000 C 
BRANCH   9  10
ATOM     10  C   UNL     1      46.104 -12.922 -39.652  1.00  0.00    -0.000 C 
BRANCH  10  11
ATOM     11  C   UNL     1      46.174 -13.099 -38.121  1.00  0.00    -0.003 C 
ATOM     12  C   UNL     1      46.092 -14.562 -37.689  1.00  0.00     0.004 C 
ENDBRANCH  10  11
ENDBRANCH   9  10
ENDBRANCH   8   9
ENDBRANCH   7   8
ENDBRANCH   6   7
ENDBRANCH   5   6
ENDBRANCH   4   5
ENDBRANCH   3   4
ENDBRANCH   2   3
ENDBRANCH   1   2
BRANCH   1  13
ATOM     13  C   UNL     1      41.173  -9.106 -39.848  1.00  0.00     0.000 C 
BRANCH  13  14
ATOM     14  C   UNL     1      41.336 -10.305 -38.888  1.00  0.00     0.000 C 
BRANCH  14  15
ATOM     15  C   UNL     1      42.520 -10.118 -37.921  1.00  0.00     0.000 C 
BRANCH  15  16
ATOM     16  C   UNL     1      42.937 -11.443 -37.246  1.00  0.00     0.000 C 
BRANCH  16  17
ATOM     17  C   UNL     1      43.923 -11.257 -36.080  1.00  0.00     0.000 C 
BRANCH  17  18
ATOM     18  C   UNL     1      43.900 -12.432 -35.089  1.00  0.00     0.000 C 
BRANCH  18  19
ATOM     19  C   UNL     1      43.087 -13.629 -35.608  1.00  0.00     0.000 C 
BRANCH  19  20
ATOM     20  C   UNL     1      43.459 -14.947 -34.913  1.00  0.00     0.006 C 
BRANCH  20  21
ATOM     21  C   UNL     1      44.760 -14.799 -34.119  1.00  0.00     0.053 C 
BRANCH  21  22
ATOM     22  C   UNL     1      44.534 -15.128 -32.677  1.00  0.00     0.041 C 
ATOM     23  O   UNL     1      44.196 -14.227 -31.866  1.00  0.00    -0.550 OA
ATOM     24  O   UNL     1      44.744 -16.423 -32.219  1.00  0.00    -0.550 OA
ENDBRANCH  21  22
ENDBRANCH  20  21
ENDBRANCH  19  20
ENDBRANCH  18  19
ENDBRANCH  17  18
ENDBRANCH  16  17
ENDBRANCH  15  16
ENDBRANCH  14  15
ENDBRANCH  13  14
ENDBRANCH   1  13
TORSDOF 20
ENDMDL
MODEL 7
REMARK VINA RESULT:    -5.254      4.041      8.861
REMARK INTER + INTRA:         -14.342
REMARK INTER:                 -11.770
REMARK INTRA:                  -2.572
REMARK UNBOUND:                -2.946
REMARK SMILES CCCCCCCCCCCCCCCCCCCCCC(=O)[O-]
REMARK SMILES IDX 12 1 11 2 10 3 9 4 8 5 7 6 6 7 5 8 4 9 3 10 2 11 1 12 13 13
REMARK SMILES IDX 14 14 15 15 16 16 17 17 18 18 19 19 20 20 21 21 22 22 23 23
REMARK SMILES IDX 24 24
REMARK H PARENT
REMARK Flexibility Score: inf
ROOT
ATOM      1  C   UNL     1      47.621 -13.684 -36.303  1.00  0.00     0.000 C 
ENDROOT
BRANCH   1   2
ATOM      2  C   UNL     1      47.606 -12.947 -34.954  1.00  0.00     0.000 C 
BRANCH   2   3
ATOM      3  C   UNL     1      48.687 -13.455 -33.983  1.00  0.00     0.000 C 
BRANCH   3   4
ATOM      4  C   UNL     1      48.189 -14.436 -32.903  1.00  0.00    -0.000 C 
BRANCH   4   5
ATOM      5  C   UNL     1      46.754 -14.186 -32.398  1.00  0.00    -0.000 C 
BRANCH   5   6
ATOM      6  C   UNL     1      45.703 -15.204 -32.881  1.00  0.00    -0.000 C 
BRANCH   6   7
ATOM      7  C   UNL     1      44.265 -14.791 -32.524  1.00  0.00    -0.000 C 
BRANCH   7   8
ATOM      8  C   UNL     1      44.024 -13.277 -32.671  1.00  0.00    -0.000 C 
BRANCH   8   9
ATOM      9  C   UNL     1      44.086 -12.739 -34.113  1.00  0.00    -0.000 C 
BRANCH   9  10
ATOM     10  C   UNL     1      42.955 -13.219 -35.042  1.00  0.00    -0.000 C 
BRANCH  10  11
ATOM     11  C   UNL     1      42.808 -12.381 -36.330  1.00  0.00    -0.003 C 
ATOM     12  C   UNL     1      43.830 -11.249 -36.420  1.00  0.00     0.004 C 
ENDBRANCH  10  11
ENDBRANCH   9  10
ENDBRANCH   8   9
ENDBRANCH   7   8
ENDBRANCH   6   7
ENDBRANCH   5   6
ENDBRANCH   4   5
ENDBRANCH   3   4
ENDBRANCH   2   3
ENDBRANCH   1   2
BRANCH   1  13
ATOM     13  C   UNL     1      46.248 -14.262 -36.679  1.00  0.00     0.000 C 
BRANCH  13  14
ATOM     14  C   UNL     1      45.790 -13.892 -38.107  1.00  0.00     0.000 C 
BRANCH  14  15
ATOM     15  C   UNL     1      46.760 -12.912 -38.792  1.00  0.00     0.000 C 
BRANCH  15  16
ATOM     16  C   UNL     1      46.038 -11.973 -39.783  1.00  0.00     0.000 C 
BRANCH  16  17
ATOM     17  C   UNL     1      44.670 -12.501 -40.248  1.00  0.00     0.000 C 
BRANCH  17  18
ATOM     18  C   UNL     1      43.562 -11.439 -40.161  1.00  0.00     0.000 C 
BRANCH  18  19
ATOM     19  C   UNL     1      43.544 -10.501 -41.380  1.00  0.00     0.000 C 
BRANCH  19  20
ATOM     20  C   UNL     1      42.587 -10.978 -42.483  1.00  0.00     0.006 C 
BRANCH  20  21
ATOM     21  C   UNL     1      41.217 -10.308 -42.346  1.00  0.00     0.053 C 
BRANCH  21  22
ATOM     22  C   UNL     1      40.475 -10.362 -43.643  1.00  0.00     0.041 C 
ATOM     23  O   UNL     1      39.988 -11.449 -44.051  1.00  0.00    -0.550 OA
ATOM     24  O   UNL     1      40.360  -9.220 -44.427  1.00  0.00    -0.550 OA
ENDBRANCH  21  22
ENDBRANCH  20  21
ENDBRANCH  19  20
ENDBRANCH  18  19
ENDBRANCH  17  18
ENDBRANCH  16  17
ENDBRANCH  15  16
ENDBRANCH  14  15
ENDBRANCH  13  14
ENDBRANCH   1  13
TORSDOF 20
ENDMDL
MODEL 8
REMARK VINA RESULT:    -5.199      4.130      9.443
REMARK INTER + INTRA:         -14.224
REMARK INTER:                 -11.702
REMARK INTRA:                  -2.522
REMARK UNBOUND:                -2.946
REMARK SMILES CCCCCCCCCCCCCCCCCCCCCC(=O)[O-]
REMARK SMILES IDX 12 1 11 2 10 3 9 4 8 5 7 6 6 7 5 8 4 9 3 10 2 11 1 12 13 13
REMARK SMILES IDX 14 14 15 15 16 16 17 17 18 18 19 19 20 20 21 21 22 22 23 23
REMARK SMILES IDX 24 24
REMARK H PARENT
REMARK Flexibility Score: inf
ROOT
ATOM      1  C   UNL     1      43.565 -13.522 -33.875  1.00  0.00     0.000 C 
ENDROOT
BRANCH   1   2
ATOM      2  C   UNL     1      44.480 -13.758 -32.663  1.00  0.00     0.000 C 
BRANCH   2   3
ATOM      3  C   UNL     1      45.290 -15.062 -32.771  1.00  0.00     0.000 C 
BRANCH   3   4
ATOM      4  C   UNL     1      46.815 -14.903 -32.602  1.00  0.00    -0.000 C 
BRANCH   4   5
ATOM      5  C   UNL     1      47.400 -13.579 -33.131  1.00  0.00    -0.000 C 
BRANCH   5   6
ATOM      6  C   UNL     1      48.712 -13.715 -33.928  1.00  0.00    -0.000 C 
BRANCH   6   7
ATOM      7  C   UNL     1      48.476 -13.927 -35.432  1.00  0.00    -0.000 C 
BRANCH   7   8
ATOM      8  C   UNL     1      47.116 -13.382 -35.907  1.00  0.00    -0.000 C 
BRANCH   8   9
ATOM      9  C   UNL     1      46.174 -14.425 -36.537  1.00  0.00    -0.000 C 
BRANCH   9  10
ATOM     10  C   UNL     1      45.798 -14.166 -38.009  1.00  0.00    -0.000 C 
BRANCH  10  11
ATOM     11  C   UNL     1      46.305 -12.814 -38.553  1.00  0.00    -0.003 C 
ATOM     12  C   UNL     1      45.594 -12.390 -39.838  1.00  0.00     0.004 C 
ENDBRANCH  10  11
ENDBRANCH   9  10
ENDBRANCH   8   9
ENDBRANCH   7   8
ENDBRANCH   6   7
ENDBRANCH   5   6
ENDBRANCH   4   5
ENDBRANCH   3   4
ENDBRANCH   2   3
ENDBRANCH   1   2
BRANCH   1  13
ATOM     13  C   UNL     1      43.356 -12.030 -34.180  1.00  0.00     0.000 C 
BRANCH  13  14
ATOM     14  C   UNL     1      43.925 -11.592 -35.547  1.00  0.00     0.000 C 
BRANCH  14  15
ATOM     15  C   UNL     1      43.031 -12.039 -36.718  1.00  0.00     0.000 C 
BRANCH  15  16
ATOM     16  C   UNL     1      42.490 -10.841 -37.529  1.00  0.00     0.000 C 
BRANCH  16  17
ATOM     17  C   UNL     1      42.122 -11.194 -38.980  1.00  0.00     0.000 C 
BRANCH  17  18
ATOM     18  C   UNL     1      42.176  -9.979 -39.921  1.00  0.00     0.000 C 
BRANCH  18  19
ATOM     19  C   UNL     1      40.781  -9.421 -40.246  1.00  0.00     0.000 C 
BRANCH  19  20
ATOM     20  C   UNL     1      40.585  -9.148 -41.745  1.00  0.00     0.006 C 
BRANCH  20  21
ATOM     21  C   UNL     1      40.763 -10.430 -42.563  1.00  0.00     0.053 C 
BRANCH  21  22
ATOM     22  C   UNL     1      40.216 -10.252 -43.944  1.00  0.00     0.041 C 
ATOM     23  O   UNL     1      40.147  -9.104 -44.456  1.00  0.00    -0.550 OA
ATOM     24  O   UNL     1      39.736 -11.349 -44.648  1.00  0.00    -0.550 OA
ENDBRANCH  21  22
ENDBRANCH  20  21
ENDBRANCH  19  20
ENDBRANCH  18  19
ENDBRANCH  17  18
ENDBRANCH  16  17
ENDBRANCH  15  16
ENDBRANCH  14  15
ENDBRANCH  13  14
ENDBRANCH   1  13
TORSDOF 20
ENDMDL
MODEL 9
REMARK VINA RESULT:    -5.161      3.812      8.745
REMARK INTER + INTRA:         -14.140
REMARK INTER:                 -11.663
REMARK INTRA:                  -2.477
REMARK UNBOUND:                -2.946
REMARK SMILES CCCCCCCCCCCCCCCCCCCCCC(=O)[O-]
REMARK SMILES IDX 12 1 11 2 10 3 9 4 8 5 7 6 6 7 5 8 4 9 3 10 2 11 1 12 13 13
REMARK SMILES IDX 14 14 15 15 16 16 17 17 18 18 19 19 20 20 21 21 22 22 23 23
REMARK SMILES IDX 24 24
REMARK H PARENT
REMARK Flexibility Score: inf
ROOT
ATOM      1  C   UNL     1      44.038 -11.586 -35.903  1.00  0.00     0.000 C 
ENDROOT
BRANCH   1   2
ATOM      2  C   UNL     1      43.632 -12.732 -34.963  1.00  0.00     0.000 C 
BRANCH   2   3
ATOM      3  C   UNL     1      43.489 -12.282 -33.498  1.00  0.00     0.000 C 
BRANCH   3   4
ATOM      4  C   UNL     1      44.103 -13.237 -32.455  1.00  0.00    -0.000 C 
BRANCH   4   5
ATOM      5  C   UNL     1      44.522 -14.619 -32.995  1.00  0.00    -0.000 C 
BRANCH   5   6
ATOM      6  C   UNL     1      46.035 -14.907 -32.953  1.00  0.00    -0.000 C 
BRANCH   6   7
ATOM      7  C   UNL     1      46.885 -13.689 -33.356  1.00  0.00    -0.000 C 
BRANCH   7   8
ATOM      8  C   UNL     1      47.901 -14.010 -34.468  1.00  0.00    -0.000 C 
BRANCH   8   9
ATOM      9  C   UNL     1      47.714 -13.220 -35.776  1.00  0.00    -0.000 C 
BRANCH   9  10
ATOM     10  C   UNL     1      46.801 -13.888 -36.822  1.00  0.00    -0.000 C 
BRANCH  10  11
ATOM     11  C   UNL     1      46.833 -13.204 -38.205  1.00  0.00    -0.003 C 
ATOM     12  C   UNL     1      45.691 -13.655 -39.115  1.00  0.00     0.004 C 
ENDBRANCH  10  11
ENDBRANCH   9  10
ENDBRANCH   8   9
ENDBRANCH   7   8
ENDBRANCH   6   7
ENDBRANCH   5   6
ENDBRANCH   4   5
ENDBRANCH   3   4
ENDBRANCH   2   3
ENDBRANCH   1   2
BRANCH   1  13
ATOM     13  C   UNL     1      43.319 -11.650 -37.261  1.00  0.00     0.000 C 
BRANCH  13  14
ATOM     14  C   UNL     1      42.467 -10.400 -37.569  1.00  0.00     0.000 C 
BRANCH  14  15
ATOM     15  C   UNL     1      43.138  -9.481 -38.605  1.00  0.00     0.000 C 
BRANCH  15  16
ATOM     16  C   UNL     1      44.157 -10.238 -39.484  1.00  0.00     0.000 C 
BRANCH  16  17
ATOM     17  C   UNL     1      43.574 -10.734 -40.818  1.00  0.00     0.000 C 
BRANCH  17  18
ATOM     18  C   UNL     1      42.507  -9.787 -41.391  1.00  0.00     0.000 C 
BRANCH  18  19
ATOM     19  C   UNL     1      41.202 -10.515 -41.753  1.00  0.00     0.000 C 
BRANCH  19  20
ATOM     20  C   UNL     1      40.491  -9.894 -42.964  1.00  0.00     0.006 C 
BRANCH  20  21
ATOM     21  C   UNL     1      41.297 -10.118 -44.246  1.00  0.00     0.053 C 
BRANCH  21  22
ATOM     22  C   UNL     1      41.444 -11.581 -44.525  1.00  0.00     0.041 C 
ATOM     23  O   UNL     1      42.587 -12.105 -44.573  1.00  0.00    -0.550 OA
ATOM     24  O   UNL     1      40.319 -12.356 -44.779  1.00  0.00    -0.550 OA
ENDBRANCH  21  22
ENDBRANCH  20  21
ENDBRANCH  19  20
ENDBRANCH  18  19
ENDBRANCH  17  18
ENDBRANCH  16  17
ENDBRANCH  15  16
ENDBRANCH  14  15
ENDBRANCH  13  14
ENDBRANCH   1  13
TORSDOF 20
ENDMDL
