MODEL 1
REMARK VINA RESULT:    -2.524      0.000      0.000
REMARK INTER + INTRA:          -2.524
REMARK INTER:                  -2.524
REMARK INTRA:                   0.000
REMARK UNBOUND:                 0.000
REMARK SMILES CC(=O)[O-]
REMARK SMILES IDX 1 1 2 2 3 3 4 4
REMARK H PARENT
REMARK Flexibility Score: inf
ROOT
ATOM      1  C   UNL     1       1.115 -21.819  -7.780  1.00  0.00     0.063 C 
ATOM      2  C   UNL     1       0.502 -22.476  -6.591  1.00  0.00     0.038 C 
ATOM      3  O   UNL     1       0.190 -23.696  -6.634  1.00  0.00    -0.550 OA
ATOM      4  O   UNL     1       0.224 -21.734  -5.451  1.00  0.00    -0.550 OA
ENDROOT
TORSDOF 0
ENDMDL
MODEL 2
REMARK VINA RESULT:    -2.486      0.120      1.622
REMARK INTER + INTRA:          -2.486
REMARK INTER:                  -2.486
REMARK INTRA:                   0.000
REMARK UNBOUND:                 0.000
REMARK SMILES CC(=O)[O-]
REMARK SMILES IDX 1 1 2 2 3 3 4 4
REMARK H PARENT
REMARK Flexibility Score: inf
ROOT
ATOM      1  C   UNL     1       1.150 -21.725  -7.808  1.00  0.00     0.063 C 
ATOM      2  C   UNL     1       0.530 -22.356  -6.607  1.00  0.00     0.038 C 
ATOM      3  O   UNL     1       0.356 -21.681  -5.558  1.00  0.00    -0.550 OA
ATOM      4  O   UNL     1       0.194 -23.703  -6.624  1.00  0.00    -0.550 OA
ENDROOT
TORSDOF 0
ENDMDL
MODEL 3
REMARK VINA RESULT:    -2.302     15.522     16.053
REMARK INTER + INTRA:          -2.302
REMARK INTER:                  -2.302
REMARK INTRA:                   0.000
REMARK UNBOUND:                 0.000
REMARK SMILES CC(=O)[O-]
REMARK SMILES IDX 1 1 2 2 3 3 4 4
REMARK H PARENT
REMARK Flexibility Score: inf
ROOT
ATOM      1  C   UNL     1      -0.563 -18.824   9.705  1.00  0.00     0.063 C 
ATOM      2  C   UNL     1      -1.511 -18.428   8.625  1.00  0.00     0.038 C 
ATOM      3  O   UNL     1      -1.749 -17.210   8.409  1.00  0.00    -0.550 OA
ATOM      4  O   UNL     1      -2.175 -19.400   7.890  1.00  0.00    -0.550 OA
ENDROOT
TORSDOF 0
ENDMDL
MODEL 4
REMARK VINA RESULT:    -2.281      9.476     10.032
REMARK INTER + INTRA:          -2.281
REMARK INTER:                  -2.281
REMARK INTRA:                   0.000
REMARK UNBOUND:                 0.000
REMARK SMILES CC(=O)[O-]
REMARK SMILES IDX 1 1 2 2 3 3 4 4
REMARK H PARENT
REMARK Flexibility Score: inf
ROOT
ATOM      1  C   UNL     1      -5.114 -28.414  -3.402  1.00  0.00     0.063 C 
ATOM      2  C   UNL     1      -6.338 -29.042  -3.977  1.00  0.00     0.038 C 
ATOM      3  O   UNL     1      -7.225 -28.325  -4.512  1.00  0.00    -0.550 OA
ATOM      4  O   UNL     1      -6.530 -30.413  -3.875  1.00  0.00    -0.550 OA
ENDROOT
TORSDOF 0
ENDMDL
MODEL 5
REMARK VINA RESULT:    -2.252     15.780     16.099
REMARK INTER + INTRA:          -2.252
REMARK INTER:                  -2.252
REMARK INTRA:                   0.000
REMARK UNBOUND:                 0.000
REMARK SMILES CC(=O)[O-]
REMARK SMILES IDX 1 1 2 2 3 3 4 4
REMARK H PARENT
REMARK Flexibility Score: inf
ROOT
ATOM      1  C   UNL     1      -2.210 -19.544   7.927  1.00  0.00     0.063 C 
ATOM      2  C   UNL     1      -1.508 -18.568   8.809  1.00  0.00     0.038 C 
ATOM      3  O   UNL     1      -1.802 -17.344   8.757  1.00  0.00    -0.550 OA
ATOM      4  O   UNL     1      -0.492 -18.997   9.652  1.00  0.00    -0.550 OA
ENDROOT
TORSDOF 0
ENDMDL
MODEL 6
REMARK VINA RESULT:    -2.243      9.298      9.880
REMARK INTER + INTRA:          -2.243
REMARK INTER:                  -2.243
REMARK INTRA:                   0.000
REMARK UNBOUND:                 0.000
REMARK SMILES CC(=O)[O-]
REMARK SMILES IDX 1 1 2 2 3 3 4 4
REMARK H PARENT
REMARK Flexibility Score: inf
ROOT
ATOM      1  C   UNL     1      -6.627 -30.244  -3.651  1.00  0.00     0.063 C 
ATOM      2  C   UNL     1      -6.130 -28.857  -3.882  1.00  0.00     0.038 C 
ATOM      3  O   UNL     1      -4.966 -28.535  -3.526  1.00  0.00    -0.550 OA
ATOM      4  O   UNL     1      -6.969 -27.902  -4.441  1.00  0.00    -0.550 OA
ENDROOT
TORSDOF 0
ENDMDL
MODEL 7
REMARK VINA RESULT:    -2.242      2.559      2.773
REMARK INTER + INTRA:          -2.242
REMARK INTER:                  -2.242
REMARK INTRA:                   0.000
REMARK UNBOUND:                 0.000
REMARK SMILES CC(=O)[O-]
REMARK SMILES IDX 1 1 2 2 3 3 4 4
REMARK H PARENT
REMARK Flexibility Score: inf
ROOT
ATOM      1  C   UNL     1       0.658 -22.251  -7.063  1.00  0.00     0.063 C 
ATOM      2  C   UNL     1       1.635 -21.451  -7.857  1.00  0.00     0.038 C 
ATOM      3  O   UNL     1       1.271 -20.890  -8.924  1.00  0.00    -0.550 OA
ATOM      4  O   UNL     1       2.960 -21.369  -7.453  1.00  0.00    -0.550 OA
ENDROOT
TORSDOF 0
ENDMDL
MODEL 8
REMARK VINA RESULT:    -2.198     15.145     15.598
REMARK INTER + INTRA:          -2.198
REMARK INTER:                  -2.198
REMARK INTRA:                   0.000
REMARK UNBOUND:                 0.000
REMARK SMILES CC(=O)[O-]
REMARK SMILES IDX 1 1 2 2 3 3 4 4
REMARK H PARENT
REMARK Flexibility Score: inf
ROOT
ATOM      1  C   UNL     1      -1.586 -17.993   8.588  1.00  0.00     0.063 C 
ATOM      2  C   UNL     1      -2.031 -19.405   8.409  1.00  0.00     0.038 C 
ATOM      3  O   UNL     1      -1.598 -20.305   9.177  1.00  0.00    -0.550 OA
ATOM      4  O   UNL     1      -2.880 -19.741   7.364  1.00  0.00    -0.550 OA
ENDROOT
TORSDOF 0
ENDMDL
MODEL 9
REMARK VINA RESULT:    -2.176      9.423      9.968
REMARK INTER + INTRA:          -2.176
REMARK INTER:                  -2.176
REMARK INTRA:                   0.000
REMARK UNBOUND:                 0.000
REMARK SMILES CC(=O)[O-]
REMARK SMILES IDX 1 1 2 2 3 3 4 4
REMARK H PARENT
REMARK Flexibility Score: inf
ROOT
ATOM      1  C   UNL     1      -5.161 -28.270  -3.428  1.00  0.00     0.063 C 
ATOM      2  C   UNL     1      -5.721 -28.584  -2.082  1.00  0.00     0.038 C 
ATOM      3  O   UNL     1      -5.349 -27.926  -1.074  1.00  0.00    -0.550 OA
ATOM      4  O   UNL     1      -6.612 -29.637  -1.927  1.00  0.00    -0.550 OA
ENDROOT
TORSDOF 0
ENDMDL
