MODEL 1
REMARK VINA RESULT:    -4.390      0.000      0.000
REMARK INTER + INTRA:          -9.691
REMARK INTER:                  -7.726
REMARK INTRA:                  -1.965
REMARK UNBOUND:                -1.965
REMARK SMILES CCCCCCCCCCCCCCC(=O)[O-]
REMARK SMILES IDX 9 1 10 2 11 3 12 4 13 5 14 6 15 7 16 8 17 9 8 10 7 11 6 12
REMARK SMILES IDX 5 13 4 14 3 15 2 16 1 17
REMARK H PARENT
REMARK Flexibility Score: inf
ROOT
ATOM      1  C   UNL     1     -36.411  22.203 -27.023  1.00  0.00     0.000 C 
ENDROOT
BRANCH   1   2
ATOM      2  C   UNL     1     -36.953  20.849 -27.504  1.00  0.00     0.000 C 
BRANCH   2   3
ATOM      3  C   UNL     1     -38.267  20.458 -26.810  1.00  0.00     0.000 C 
BRANCH   3   4
ATOM      4  C   UNL     1     -39.066  19.466 -27.663  1.00  0.00     0.000 C 
BRANCH   4   5
ATOM      5  C   UNL     1     -38.588  19.487 -29.123  1.00  0.00     0.006 C 
BRANCH   5   6
ATOM      6  C   UNL     1     -39.295  18.429 -29.980  1.00  0.00     0.053 C 
BRANCH   6   7
ATOM      7  C   UNL     1     -40.409  19.022 -30.788  1.00  0.00     0.041 C 
ATOM      8  O   UNL     1     -41.423  18.332 -31.071  1.00  0.00    -0.550 OA
ATOM      9  O   UNL     1     -40.343  20.348 -31.200  1.00  0.00    -0.550 OA
ENDBRANCH   6   7
ENDBRANCH   5   6
ENDBRANCH   4   5
ENDBRANCH   3   4
ENDBRANCH   2   3
ENDBRANCH   1   2
BRANCH   1  10
ATOM     10  C   UNL     1     -36.174  23.191 -28.178  1.00  0.00     0.000 C 
BRANCH  10  11
ATOM     11  C   UNL     1     -36.729  22.681 -29.518  1.00  0.00    -0.000 C 
BRANCH  11  12
ATOM     12  C   UNL     1     -38.013  23.416 -29.942  1.00  0.00    -0.000 C 
BRANCH  12  13
ATOM     13  C   UNL     1     -38.579  24.305 -28.822  1.00  0.00    -0.000 C 
BRANCH  13  14
ATOM     14  C   UNL     1     -40.097  24.126 -28.634  1.00  0.00    -0.000 C 
BRANCH  14  15
ATOM     15  C   UNL     1     -40.564  22.693 -28.929  1.00  0.00    -0.000 C 
BRANCH  15  16
ATOM     16  C   UNL     1     -42.055  22.483 -28.627  1.00  0.00    -0.003 C 
ATOM     17  C   UNL     1     -42.318  21.075 -28.100  1.00  0.00     0.004 C 
ENDBRANCH  15  16
ENDBRANCH  14  15
ENDBRANCH  13  14
ENDBRANCH  12  13
ENDBRANCH  11  12
ENDBRANCH  10  11
ENDBRANCH   1  10
TORSDOF 13
ENDMDL
MODEL 2
REMARK VINA RESULT:    -4.300      3.213      5.615
REMARK INTER + INTRA:          -9.533
REMARK INTER:                  -7.136
REMARK INTRA:                  -2.397
REMARK UNBOUND:                -1.965
REMARK SMILES CCCCCCCCCCCCCCC(=O)[O-]
REMARK SMILES IDX 9 1 10 2 11 3 12 4 13 5 14 6 15 7 16 8 17 9 8 10 7 11 6 12
REMARK SMILES IDX 5 13 4 14 3 15 2 16 1 17
REMARK H PARENT
REMARK Flexibility Score: inf
ROOT
ATOM      1  C   UNL     1     -40.480  22.510 -31.042  1.00  0.00     0.000 C 
ENDROOT
BRANCH   1   2
ATOM      2  C   UNL     1     -39.022  22.685 -31.493  1.00  0.00     0.000 C 
BRANCH   2   3
ATOM      3  C   UNL     1     -38.185  23.492 -30.488  1.00  0.00     0.000 C 
BRANCH   3   4
ATOM      4  C   UNL     1     -36.974  22.684 -30.008  1.00  0.00     0.000 C 
BRANCH   4   5
ATOM      5  C   UNL     1     -36.516  23.152 -28.618  1.00  0.00     0.006 C 
BRANCH   5   6
ATOM      6  C   UNL     1     -37.586  23.989 -27.906  1.00  0.00     0.053 C 
BRANCH   6   7
ATOM      7  C   UNL     1     -36.975  25.043 -27.031  1.00  0.00     0.041 C 
ATOM      8  O   UNL     1     -37.045  26.256 -27.359  1.00  0.00    -0.550 OA
ATOM      9  O   UNL     1     -36.358  24.686 -25.839  1.00  0.00    -0.550 OA
ENDBRANCH   6   7
ENDBRANCH   5   6
ENDBRANCH   4   5
ENDBRANCH   3   4
ENDBRANCH   2   3
ENDBRANCH   1   2
BRANCH   1  10
ATOM     10  C   UNL     1     -40.669  22.772 -29.537  1.00  0.00     0.000 C 
BRANCH  10  11
ATOM     11  C   UNL     1     -41.692  21.821 -28.894  1.00  0.00    -0.000 C 
BRANCH  11  12
ATOM     12  C   UNL     1     -41.065  20.925 -27.812  1.00  0.00    -0.000 C 
BRANCH  12  13
ATOM     13  C   UNL     1     -39.529  20.985 -27.816  1.00  0.00    -0.000 C 
BRANCH  13  14
ATOM     14  C   UNL     1     -38.882  19.631 -28.164  1.00  0.00    -0.000 C 
BRANCH  14  15
ATOM     15  C   UNL     1     -38.743  19.416 -29.679  1.00  0.00    -0.000 C 
BRANCH  15  16
ATOM     16  C   UNL     1     -39.602  18.250 -30.191  1.00  0.00    -0.003 C 
ATOM     17  C   UNL     1     -40.854  18.759 -30.899  1.00  0.00     0.004 C 
ENDBRANCH  15  16
ENDBRANCH  14  15
ENDBRANCH  13  14
ENDBRANCH  12  13
ENDBRANCH  11  12
ENDBRANCH  10  11
ENDBRANCH   1  10
TORSDOF 13
ENDMDL
MODEL 3
REMARK VINA RESULT:    -4.257      2.238      5.247
REMARK INTER + INTRA:          -9.457
REMARK INTER:                  -7.317
REMARK INTRA:                  -2.141
REMARK UNBOUND:                -1.965
REMARK SMILES CCCCCCCCCCCCCCC(=O)[O-]
REMARK SMILES IDX 9 1 10 2 11 3 12 4 13 5 14 6 15 7 16 8 17 9 8 10 7 11 6 12
REMARK SMILES IDX 5 13 4 14 3 15 2 16 1 17
REMARK H PARENT
REMARK Flexibility Score: inf
ROOT
ATOM      1  C   UNL     1     -41.818  21.948 -28.492  1.00  0.00     0.000 C 
ENDROOT
BRANCH   1   2
ATOM      2  C   UNL     1     -41.163  22.991 -29.409  1.00  0.00     0.000 C 
BRANCH   2   3
ATOM      3  C   UNL     1     -40.350  24.036 -28.630  1.00  0.00     0.000 C 
BRANCH   3   4
ATOM      4  C   UNL     1     -38.945  24.194 -29.224  1.00  0.00     0.000 C 
BRANCH   4   5
ATOM      5  C   UNL     1     -38.854  23.531 -30.606  1.00  0.00     0.006 C 
BRANCH   5   6
ATOM      6  C   UNL     1     -37.411  23.453 -31.119  1.00  0.00     0.053 C 
BRANCH   6   7
ATOM      7  C   UNL     1     -37.305  23.887 -32.550  1.00  0.00     0.041 C 
ATOM      8  O   UNL     1     -38.200  23.568 -33.376  1.00  0.00    -0.550 OA
ATOM      9  O   UNL     1     -36.235  24.671 -32.963  1.00  0.00    -0.550 OA
ENDBRANCH   6   7
ENDBRANCH   5   6
ENDBRANCH   4   5
ENDBRANCH   3   4
ENDBRANCH   2   3
ENDBRANCH   1   2
BRANCH   1  10
ATOM     10  C   UNL     1     -41.320  20.519 -28.769  1.00  0.00     0.000 C 
BRANCH  10  11
ATOM     11  C   UNL     1     -40.579  20.398 -30.111  1.00  0.00    -0.000 C 
BRANCH  11  12
ATOM     12  C   UNL     1     -40.115  18.960 -30.401  1.00  0.00    -0.000 C 
BRANCH  12  13
ATOM     13  C   UNL     1     -38.707  18.673 -29.854  1.00  0.00    -0.000 C 
BRANCH  13  14
ATOM     14  C   UNL     1     -37.731  19.842 -30.087  1.00  0.00    -0.000 C 
BRANCH  14  15
ATOM     15  C   UNL     1     -36.904  20.177 -28.837  1.00  0.00    -0.000 C 
BRANCH  15  16
ATOM     16  C   UNL     1     -37.644  21.116 -27.873  1.00  0.00    -0.003 C 
ATOM     17  C   UNL     1     -38.245  20.341 -26.703  1.00  0.00     0.004 C 
ENDBRANCH  15  16
ENDBRANCH  14  15
ENDBRANCH  13  14
ENDBRANCH  12  13
ENDBRANCH  11  12
ENDBRANCH  10  11
ENDBRANCH   1  10
TORSDOF 13
ENDMDL
MODEL 4
REMARK VINA RESULT:    -4.117      1.047      1.954
REMARK INTER + INTRA:          -9.211
REMARK INTER:                  -7.334
REMARK INTRA:                  -1.877
REMARK UNBOUND:                -1.965
REMARK SMILES CCCCCCCCCCCCCCC(=O)[O-]
REMARK SMILES IDX 9 1 10 2 11 3 12 4 13 5 14 6 15 7 16 8 17 9 8 10 7 11 6 12
REMARK SMILES IDX 5 13 4 14 3 15 2 16 1 17
REMARK H PARENT
REMARK Flexibility Score: inf
ROOT
ATOM      1  C   UNL     1     -37.146  22.104 -30.857  1.00  0.00     0.000 C 
ENDROOT
BRANCH   1   2
ATOM      2  C   UNL     1     -36.056  21.105 -30.442  1.00  0.00     0.000 C 
BRANCH   2   3
ATOM      3  C   UNL     1     -36.635  19.761 -29.971  1.00  0.00     0.000 C 
BRANCH   3   4
ATOM      4  C   UNL     1     -37.339  19.911 -28.617  1.00  0.00     0.000 C 
BRANCH   4   5
ATOM      5  C   UNL     1     -38.865  19.883 -28.784  1.00  0.00     0.006 C 
BRANCH   5   6
ATOM      6  C   UNL     1     -39.331  18.724 -29.675  1.00  0.00     0.053 C 
BRANCH   6   7
ATOM      7  C   UNL     1     -40.336  19.173 -30.691  1.00  0.00     0.041 C 
ATOM      8  O   UNL     1     -40.293  20.344 -31.150  1.00  0.00    -0.550 OA
ATOM      9  O   UNL     1     -41.300  18.287 -31.156  1.00  0.00    -0.550 OA
ENDBRANCH   6   7
ENDBRANCH   5   6
ENDBRANCH   4   5
ENDBRANCH   3   4
ENDBRANCH   2   3
ENDBRANCH   1   2
BRANCH   1  10
ATOM     10  C   UNL     1     -36.832  23.543 -30.411  1.00  0.00     0.000 C 
BRANCH  10  11
ATOM     11  C   UNL     1     -36.483  23.638 -28.916  1.00  0.00    -0.000 C 
BRANCH  11  12
ATOM     12  C   UNL     1     -37.733  23.654 -28.020  1.00  0.00    -0.000 C 
BRANCH  12  13
ATOM     13  C   UNL     1     -38.696  24.799 -28.373  1.00  0.00    -0.000 C 
BRANCH  13  14
ATOM     14  C   UNL     1     -40.175  24.372 -28.309  1.00  0.00    -0.000 C 
BRANCH  14  15
ATOM     15  C   UNL     1     -40.449  23.078 -29.089  1.00  0.00    -0.000 C 
BRANCH  15  16
ATOM     16  C   UNL     1     -41.922  22.646 -29.018  1.00  0.00    -0.003 C 
ATOM     17  C   UNL     1     -42.086  21.388 -28.170  1.00  0.00     0.004 C 
ENDBRANCH  15  16
ENDBRANCH  14  15
ENDBRANCH  13  14
ENDBRANCH  12  13
ENDBRANCH  11  12
ENDBRANCH  10  11
ENDBRANCH   1  10
TORSDOF 13
ENDMDL
MODEL 5
REMARK VINA RESULT:    -4.086      1.814      3.222
REMARK INTER + INTRA:          -9.156
REMARK INTER:                  -7.045
REMARK INTRA:                  -2.112
REMARK UNBOUND:                -1.965
REMARK SMILES CCCCCCCCCCCCCCC(=O)[O-]
REMARK SMILES IDX 9 1 10 2 11 3 12 4 13 5 14 6 15 7 16 8 17 9 8 10 7 11 6 12
REMARK SMILES IDX 5 13 4 14 3 15 2 16 1 17
REMARK H PARENT
REMARK Flexibility Score: inf
ROOT
ATOM      1  C   UNL     1     -36.448  20.579 -29.290  1.00  0.00     0.000 C 
ENDROOT
BRANCH   1   2
ATOM      2  C   UNL     1     -37.173  19.404 -29.964  1.00  0.00     0.000 C 
BRANCH   2   3
ATOM      3  C   UNL     1     -38.535  19.103 -29.320  1.00  0.00     0.000 C 
BRANCH   3   4
ATOM      4  C   UNL     1     -39.645  19.066 -30.377  1.00  0.00     0.000 C 
BRANCH   4   5
ATOM      5  C   UNL     1     -40.895  19.814 -29.889  1.00  0.00     0.006 C 
BRANCH   5   6
ATOM      6  C   UNL     1     -40.548  20.961 -28.932  1.00  0.00     0.053 C 
BRANCH   6   7
ATOM      7  C   UNL     1     -41.773  21.699 -28.483  1.00  0.00     0.041 C 
ATOM      8  O   UNL     1     -42.642  21.117 -27.782  1.00  0.00    -0.550 OA
ATOM      9  O   UNL     1     -41.939  23.039 -28.811  1.00  0.00    -0.550 OA
ENDBRANCH   6   7
ENDBRANCH   5   6
ENDBRANCH   4   5
ENDBRANCH   3   4
ENDBRANCH   2   3
ENDBRANCH   1   2
BRANCH   1  10
ATOM     10  C   UNL     1     -36.651  20.604 -27.765  1.00  0.00     0.000 C 
BRANCH  10  11
ATOM     11  C   UNL     1     -36.888  22.022 -27.221  1.00  0.00    -0.000 C 
BRANCH  11  12
ATOM     12  C   UNL     1     -36.034  23.080 -27.940  1.00  0.00    -0.000 C 
BRANCH  12  13
ATOM     13  C   UNL     1     -36.838  24.341 -28.298  1.00  0.00    -0.000 C 
BRANCH  13  14
ATOM     14  C   UNL     1     -38.350  24.071 -28.406  1.00  0.00    -0.000 C 
BRANCH  14  15
ATOM     15  C   UNL     1     -38.885  24.275 -29.832  1.00  0.00    -0.000 C 
BRANCH  15  16
ATOM     16  C   UNL     1     -38.235  23.325 -30.848  1.00  0.00    -0.003 C 
ATOM     17  C   UNL     1     -39.273  22.750 -31.807  1.00  0.00     0.004 C 
ENDBRANCH  15  16
ENDBRANCH  14  15
ENDBRANCH  13  14
ENDBRANCH  12  13
ENDBRANCH  11  12
ENDBRANCH  10  11
ENDBRANCH   1  10
TORSDOF 13
ENDMDL
MODEL 6
REMARK VINA RESULT:    -4.067      2.340      4.923
REMARK INTER + INTRA:          -9.122
REMARK INTER:                  -6.994
REMARK INTRA:                  -2.128
REMARK UNBOUND:                -1.965
REMARK SMILES CCCCCCCCCCCCCCC(=O)[O-]
REMARK SMILES IDX 9 1 10 2 11 3 12 4 13 5 14 6 15 7 16 8 17 9 8 10 7 11 6 12
REMARK SMILES IDX 5 13 4 14 3 15 2 16 1 17
REMARK H PARENT
REMARK Flexibility Score: inf
ROOT
ATOM      1  C   UNL     1     -41.124  19.919 -29.621  1.00  0.00     0.000 C 
ENDROOT
BRANCH   1   2
ATOM      2  C   UNL     1     -40.581  20.847 -28.525  1.00  0.00     0.000 C 
BRANCH   2   3
ATOM      3  C   UNL     1     -41.318  22.194 -28.472  1.00  0.00     0.000 C 
BRANCH   3   4
ATOM      4  C   UNL     1     -41.175  22.951 -29.798  1.00  0.00     0.000 C 
BRANCH   4   5
ATOM      5  C   UNL     1     -39.697  23.146 -30.164  1.00  0.00     0.006 C 
BRANCH   5   6
ATOM      6  C   UNL     1     -39.377  22.644 -31.578  1.00  0.00     0.053 C 
BRANCH   6   7
ATOM      7  C   UNL     1     -38.187  23.345 -32.161  1.00  0.00     0.041 C 
ATOM      8  O   UNL     1     -37.174  23.571 -31.449  1.00  0.00    -0.550 OA
ATOM      9  O   UNL     1     -38.185  23.720 -33.499  1.00  0.00    -0.550 OA
ENDBRANCH   6   7
ENDBRANCH   5   6
ENDBRANCH   4   5
ENDBRANCH   3   4
ENDBRANCH   2   3
ENDBRANCH   1   2
BRANCH   1  10
ATOM     10  C   UNL     1     -40.015  19.108 -30.313  1.00  0.00     0.000 C 
BRANCH  10  11
ATOM     11  C   UNL     1     -38.856  18.758 -29.366  1.00  0.00    -0.000 C 
BRANCH  11  12
ATOM     12  C   UNL     1     -37.496  18.728 -30.084  1.00  0.00    -0.000 C 
BRANCH  12  13
ATOM     13  C   UNL     1     -36.866  20.124 -30.211  1.00  0.00    -0.000 C 
BRANCH  13  14
ATOM     14  C   UNL     1     -36.199  20.596 -28.905  1.00  0.00    -0.000 C 
BRANCH  14  15
ATOM     15  C   UNL     1     -36.872  21.844 -28.316  1.00  0.00    -0.000 C 
BRANCH  15  16
ATOM     16  C   UNL     1     -36.903  21.829 -26.780  1.00  0.00    -0.003 C 
ATOM     17  C   UNL     1     -37.642  20.601 -26.257  1.00  0.00     0.004 C 
ENDBRANCH  15  16
ENDBRANCH  14  15
ENDBRANCH  13  14
ENDBRANCH  12  13
ENDBRANCH  11  12
ENDBRANCH  10  11
ENDBRANCH   1  10
TORSDOF 13
ENDMDL
MODEL 7
REMARK VINA RESULT:    -4.011     14.585     16.326
REMARK INTER + INTRA:          -9.025
REMARK INTER:                  -6.962
REMARK INTRA:                  -2.063
REMARK UNBOUND:                -1.965
REMARK SMILES CCCCCCCCCCCCCCC(=O)[O-]
REMARK SMILES IDX 9 1 10 2 11 3 12 4 13 5 14 6 15 7 16 8 17 9 8 10 7 11 6 12
REMARK SMILES IDX 5 13 4 14 3 15 2 16 1 17
REMARK H PARENT
REMARK Flexibility Score: inf
ROOT
ATOM      1  C   UNL     1     -50.187  10.725 -29.053  1.00  0.00     0.000 C 
ENDROOT
BRANCH   1   2
ATOM      2  C   UNL     1     -50.154  12.243 -28.817  1.00  0.00     0.000 C 
BRANCH   2   3
ATOM      3  C   UNL     1     -51.185  12.996 -29.671  1.00  0.00     0.000 C 
BRANCH   3   4
ATOM      4  C   UNL     1     -52.544  13.058 -28.963  1.00  0.00     0.000 C 
BRANCH   4   5
ATOM      5  C   UNL     1     -53.584  13.783 -29.830  1.00  0.00     0.006 C 
BRANCH   5   6
ATOM      6  C   UNL     1     -52.976  14.336 -31.126  1.00  0.00     0.053 C 
BRANCH   6   7
ATOM      7  C   UNL     1     -53.040  15.832 -31.176  1.00  0.00     0.041 C 
ATOM      8  O   UNL     1     -52.365  16.467 -32.028  1.00  0.00    -0.550 OA
ATOM      9  O   UNL     1     -53.869  16.524 -30.302  1.00  0.00    -0.550 OA
ENDBRANCH   6   7
ENDBRANCH   5   6
ENDBRANCH   4   5
ENDBRANCH   3   4
ENDBRANCH   2   3
ENDBRANCH   1   2
BRANCH   1  10
ATOM     10  C   UNL     1     -48.840  10.175 -29.556  1.00  0.00     0.000 C 
BRANCH  10  11
ATOM     11  C   UNL     1     -48.764  10.100 -31.089  1.00  0.00    -0.000 C 
BRANCH  11  12
ATOM     12  C   UNL     1     -49.363   8.797 -31.646  1.00  0.00    -0.000 C 
BRANCH  12  13
ATOM     13  C   UNL     1     -50.566   9.049 -32.569  1.00  0.00    -0.000 C 
BRANCH  13  14
ATOM     14  C   UNL     1     -50.958  10.536 -32.641  1.00  0.00    -0.000 C 
BRANCH  14  15
ATOM     15  C   UNL     1     -52.461  10.762 -32.416  1.00  0.00    -0.000 C 
BRANCH  15  16
ATOM     16  C   UNL     1     -53.148   9.554 -31.762  1.00  0.00    -0.003 C 
ATOM     17  C   UNL     1     -53.532   9.856 -30.316  1.00  0.00     0.004 C 
ENDBRANCH  15  16
ENDBRANCH  14  15
ENDBRANCH  13  14
ENDBRANCH  12  13
ENDBRANCH  11  12
ENDBRANCH  10  11
ENDBRANCH   1  10
TORSDOF 13
ENDMDL
MODEL 8
REMARK VINA RESULT:    -4.002      1.595      4.099
REMARK INTER + INTRA:          -9.009
REMARK INTER:                  -6.817
REMARK INTRA:                  -2.192
REMARK UNBOUND:                -1.965
REMARK SMILES CCCCCCCCCCCCCCC(=O)[O-]
REMARK SMILES IDX 9 1 10 2 11 3 12 4 13 5 14 6 15 7 16 8 17 9 8 10 7 11 6 12
REMARK SMILES IDX 5 13 4 14 3 15 2 16 1 17
REMARK H PARENT
REMARK Flexibility Score: inf
ROOT
ATOM      1  C   UNL     1     -39.117  24.382 -28.948  1.00  0.00     0.000 C 
ENDROOT
BRANCH   1   2
ATOM      2  C   UNL     1     -40.529  23.955 -28.518  1.00  0.00     0.000 C 
BRANCH   2   3
ATOM      3  C   UNL     1     -41.107  22.843 -29.407  1.00  0.00     0.000 C 
BRANCH   3   4
ATOM      4  C   UNL     1     -40.314  22.718 -30.714  1.00  0.00     0.000 C 
BRANCH   4   5
ATOM      5  C   UNL     1     -40.167  21.247 -31.130  1.00  0.00     0.006 C 
BRANCH   5   6
ATOM      6  C   UNL     1     -39.876  20.332 -29.934  1.00  0.00     0.053 C 
BRANCH   6   7
ATOM      7  C   UNL     1     -40.082  18.887 -30.276  1.00  0.00     0.041 C 
ATOM      8  O   UNL     1     -39.374  18.000 -29.732  1.00  0.00    -0.550 OA
ATOM      9  O   UNL     1     -41.079  18.519 -31.171  1.00  0.00    -0.550 OA
ENDBRANCH   6   7
ENDBRANCH   5   6
ENDBRANCH   4   5
ENDBRANCH   3   4
ENDBRANCH   2   3
ENDBRANCH   1   2
BRANCH   1  10
ATOM     10  C   UNL     1     -38.277  24.916 -27.774  1.00  0.00     0.000 C 
BRANCH  10  11
ATOM     11  C   UNL     1     -37.099  23.994 -27.419  1.00  0.00    -0.000 C 
BRANCH  11  12
ATOM     12  C   UNL     1     -37.244  22.591 -28.031  1.00  0.00    -0.000 C 
BRANCH  12  13
ATOM     13  C   UNL     1     -36.078  22.233 -28.967  1.00  0.00    -0.000 C 
BRANCH  13  14
ATOM     14  C   UNL     1     -36.553  21.743 -30.348  1.00  0.00    -0.000 C 
BRANCH  14  15
ATOM     15  C   UNL     1     -36.689  22.885 -31.365  1.00  0.00    -0.000 C 
BRANCH  15  16
ATOM     16  C   UNL     1     -35.914  24.144 -30.947  1.00  0.00    -0.003 C 
ATOM     17  C   UNL     1     -36.580  25.405 -31.488  1.00  0.00     0.004 C 
ENDBRANCH  15  16
ENDBRANCH  14  15
ENDBRANCH  13  14
ENDBRANCH  12  13
ENDBRANCH  11  12
ENDBRANCH  10  11
ENDBRANCH   1  10
TORSDOF 13
ENDMDL
MODEL 9
REMARK VINA RESULT:    -3.939     14.612     16.670
REMARK INTER + INTRA:          -8.897
REMARK INTER:                  -7.050
REMARK INTRA:                  -1.847
REMARK UNBOUND:                -1.965
REMARK SMILES CCCCCCCCCCCCCCC(=O)[O-]
REMARK SMILES IDX 9 1 10 2 11 3 12 4 13 5 14 6 15 7 16 8 17 9 8 10 7 11 6 12
REMARK SMILES IDX 5 13 4 14 3 15 2 16 1 17
REMARK H PARENT
REMARK Flexibility Score: inf
ROOT
ATOM      1  C   UNL     1     -53.937  10.535 -31.510  1.00  0.00     0.000 C 
ENDROOT
BRANCH   1   2
ATOM      2  C   UNL     1     -52.829  11.124 -32.397  1.00  0.00     0.000 C 
BRANCH   2   3
ATOM      3  C   UNL     1     -51.426  10.913 -31.808  1.00  0.00     0.000 C 
BRANCH   3   4
ATOM      4  C   UNL     1     -50.519  10.175 -32.800  1.00  0.00     0.000 C 
BRANCH   4   5
ATOM      5  C   UNL     1     -49.382   9.445 -32.069  1.00  0.00     0.006 C 
BRANCH   5   6
ATOM      6  C   UNL     1     -49.022  10.117 -30.739  1.00  0.00     0.053 C 
BRANCH   6   7
ATOM      7  C   UNL     1     -49.112   9.159 -29.590  1.00  0.00     0.041 C 
ATOM      8  O   UNL     1     -50.172   8.510 -29.388  1.00  0.00    -0.550 OA
ATOM      9  O   UNL     1     -48.015   8.959 -28.761  1.00  0.00    -0.550 OA
ENDBRANCH   6   7
ENDBRANCH   5   6
ENDBRANCH   4   5
ENDBRANCH   3   4
ENDBRANCH   2   3
ENDBRANCH   1   2
BRANCH   1  10
ATOM     10  C   UNL     1     -54.083  11.282 -30.173  1.00  0.00     0.000 C 
BRANCH  10  11
ATOM     11  C   UNL     1     -55.327  12.185 -30.130  1.00  0.00    -0.000 C 
BRANCH  11  12
ATOM     12  C   UNL     1     -55.175  13.439 -31.008  1.00  0.00    -0.000 C 
BRANCH  12  13
ATOM     13  C   UNL     1     -54.225  14.479 -30.390  1.00  0.00    -0.000 C 
BRANCH  13  14
ATOM     14  C   UNL     1     -53.007  14.776 -31.284  1.00  0.00    -0.000 C 
BRANCH  14  15
ATOM     15  C   UNL     1     -51.676  14.423 -30.603  1.00  0.00    -0.000 C 
BRANCH  15  16
ATOM     16  C   UNL     1     -51.859  13.969 -29.148  1.00  0.00    -0.003 C 
ATOM     17  C   UNL     1     -50.721  13.052 -28.710  1.00  0.00     0.004 C 
ENDBRANCH  15  16
ENDBRANCH  14  15
ENDBRANCH  13  14
ENDBRANCH  12  13
ENDBRANCH  11  12
ENDBRANCH  10  11
ENDBRANCH   1  10
TORSDOF 13
ENDMDL
