MODEL 1
REMARK VINA RESULT:    48.303      0.000      0.000
REMARK INTER + INTRA:          63.012
REMARK INTER:                  63.834
REMARK INTRA:                  -0.822
REMARK UNBOUND:                -0.822
REMARK SMILES C=C(CC[C@@H](C)[C@@H]1CC[C@@]2(C)[C@H]3CC[C@@H]4C(C)(C)[C@@H](O)CC[C@@]45C[C@@]35CC[C@@]12C)C(C)C
REMARK SMILES IDX 4 1 3 2 2 3 1 4 30 5 31 6 32 7 5 8 6 9 7 10 8 11 28 12 9 13
REMARK SMILES IDX 10 14 27 15 29 16 11 17 12 18 26 19 25 20 13 21 23 22 24 23
REMARK SMILES IDX 14 24 15 25 22 26 16 27 21 28 19 29 17 30 18 31 20 32
REMARK H PARENT 20 33
REMARK Flexibility Score: inf
ROOT
ATOM      1  C   UNL     1      16.880  12.556  39.411  1.00  0.00     0.008 C 
ENDROOT
BRANCH   1   2
ATOM      2  C   UNL     1      17.265  13.681  40.390  1.00  0.00     0.031 C 
BRANCH   2   3
ATOM      3  C   UNL     1      17.959  13.135  41.621  1.00  0.00    -0.075 C 
ATOM      4  C   UNL     1      17.593  11.932  42.095  1.00  0.00     0.008 C 
BRANCH   3   5
ATOM      5  C   UNL     1      18.965  13.975  42.396  1.00  0.00     0.008 C 
ATOM      6  C   UNL     1      19.225  13.400  43.795  1.00  0.00     0.012 C 
ATOM      7  C   UNL     1      20.275  14.125  41.611  1.00  0.00     0.012 C 
ENDBRANCH   3   5
ENDBRANCH   2   3
ENDBRANCH   1   2
BRANCH   1   8
ATOM      8  C   UNL     1      15.395  12.665  38.956  1.00  0.00    -0.010 C 
ATOM      9  C   UNL     1      14.647  13.778  39.712  1.00  0.00     0.008 C 
BRANCH   8  10
ATOM     10  C   UNL     1      15.144  12.695  37.408  1.00  0.00    -0.002 C 
ATOM     11  C   UNL     1      15.125  14.125  36.867  1.00  0.00     0.005 C 
ATOM     12  C   UNL     1      13.947  11.923  36.709  1.00  0.00    -0.024 C 
ATOM     13  C   UNL     1      14.493  14.029  35.496  1.00  0.00     0.008 C 
ATOM     14  C   UNL     1      13.390  12.947  35.612  1.00  0.00    -0.024 C 
ATOM     15  C   UNL     1      14.489  10.600  36.056  1.00  0.00     0.008 C 
ATOM     16  C   UNL     1      12.832  11.441  37.687  1.00  0.00     0.012 C 
ATOM     17  C   UNL     1      12.095  13.678  36.097  1.00  0.00     0.012 C 
ATOM     18  C   UNL     1      13.120  12.243  34.220  1.00  0.00     0.002 C 
ATOM     19  C   UNL     1      15.262  10.795  34.747  1.00  0.00     0.008 C 
ATOM     20  C   UNL     1      14.405  11.540  33.696  1.00  0.00    -0.020 C 
ATOM     21  C   UNL     1      12.464  13.172  33.174  1.00  0.00     0.005 C 
ATOM     22  C   UNL     1      14.398  11.055  32.230  1.00  0.00    -0.020 C 
ATOM     23  C   UNL     1      15.230  12.278  32.617  1.00  0.00     0.015 C 
ATOM     24  C   UNL     1      12.251  12.546  31.781  1.00  0.00     0.005 C 
ATOM     25  C   UNL     1      13.144  11.333  31.352  1.00  0.00     0.004 C 
ATOM     26  C   UNL     1      15.309   9.924  31.713  1.00  0.00     0.010 C 
ATOM     27  C   UNL     1      12.339   9.999  31.096  1.00  0.00    -0.006 C 
ATOM     28  C   UNL     1      14.511   8.639  31.512  1.00  0.00     0.033 C 
ATOM     29  C   UNL     1      13.304   8.874  30.581  1.00  0.00     0.120 C 
ATOM     30  C   UNL     1      11.638   9.518  32.389  1.00  0.00     0.014 C 
ATOM     31  C   UNL     1      11.247  10.213  30.010  1.00  0.00     0.014 C 
BRANCH  29  32
ATOM     32  O   UNL     1      13.786   9.181  29.292  1.00  0.00    -0.393 OA
ATOM     33  H   UNL     1      14.746   9.421  29.376  1.00  0.00     0.210 HD
ENDBRANCH  29  32
ENDBRANCH   8  10
ENDBRANCH   1   8
TORSDOF 6
ENDMDL
