MODEL 1
REMARK VINA RESULT:    -4.616      0.000      0.000
REMARK INTER + INTRA:          -7.305
REMARK INTER:                  -6.505
REMARK INTRA:                  -0.800
REMARK UNBOUND:                -0.800
REMARK SMILES COc1ccc(-c2cc(=O)c3c(OC)c(OC)c(OC)c(OC)c3o2)cc1OC
REMARK SMILES IDX 7 1 8 2 9 3 10 4 11 5 24 6 25 7 21 8 18 9 15 10 12 11 6 12
REMARK SMILES IDX 3 13 27 14 4 15 26 16 5 17 2 18 1 19 28 20 29 21 22 22 23 23
REMARK SMILES IDX 13 24 14 25 19 26 20 27 16 28 17 29
REMARK H PARENT
REMARK Flexibility Score: inf
ROOT
ATOM      1  C   UNL     1       1.979  -1.186  -8.379  1.00  0.00     0.138 A 
ATOM      2  C   UNL     1       1.829  -0.970  -9.756  1.00  0.00     0.100 A 
ATOM      3  C   UNL     1       0.905  -1.731 -10.470  1.00  0.00     0.197 A 
ATOM      4  O   UNL     1       0.763  -1.511 -11.704  1.00  0.00    -0.289 OA
ATOM      5  C   UNL     1       0.144  -2.716  -9.803  1.00  0.00     0.115 A 
ATOM      6  C   UNL     1       0.353  -2.876  -8.419  1.00  0.00     0.188 A 
ATOM      7  O   UNL     1       1.246  -2.121  -7.783  1.00  0.00    -0.452 OA
ATOM      8  C   UNL     1      -0.366  -3.827  -7.685  1.00  0.00     0.209 A 
ATOM      9  C   UNL     1      -1.347  -4.624  -8.329  1.00  0.00     0.211 A 
ATOM     10  C   UNL     1      -1.590  -4.445  -9.718  1.00  0.00     0.208 A 
ATOM     11  C   UNL     1      -0.796  -3.540 -10.459  1.00  0.00     0.179 A 
ENDROOT
BRANCH   1  12
ATOM     12  C   UNL     1       2.944  -0.407  -7.563  1.00  0.00     0.021 A 
ATOM     13  C   UNL     1       4.821   1.024  -6.014  1.00  0.00     0.160 A 
ATOM     14  C   UNL     1       3.450   1.278  -5.862  1.00  0.00     0.161 A 
ATOM     15  C   UNL     1       5.248   0.048  -6.933  1.00  0.00     0.051 A 
ATOM     16  C   UNL     1       2.517   0.559  -6.634  1.00  0.00     0.062 A 
ATOM     17  C   UNL     1       4.318  -0.660  -7.694  1.00  0.00     0.016 A 
BRANCH  13  18
ATOM     18  O   UNL     1       5.727   1.760  -5.232  1.00  0.00    -0.493 OA
ATOM     19  C   UNL     1       6.350   2.972  -5.645  1.00  0.00     0.278 C 
ENDBRANCH  13  18
BRANCH  14  20
ATOM     20  O   UNL     1       3.055   2.252  -4.930  1.00  0.00    -0.493 OA
ATOM     21  C   UNL     1       2.628   3.569  -5.267  1.00  0.00     0.278 C 
ENDBRANCH  14  20
ENDBRANCH   1  12
BRANCH   8  22
ATOM     22  O   UNL     1      -0.055  -3.919  -6.313  1.00  0.00    -0.490 OA
ATOM     23  C   UNL     1      -0.747  -3.305  -5.231  1.00  0.00     0.278 C 
ENDBRANCH   8  22
BRANCH  11  24
ATOM     24  O   UNL     1      -0.916  -3.485 -11.850  1.00  0.00    -0.492 OA
ATOM     25  C   UNL     1      -0.370  -4.510 -12.673  1.00  0.00     0.278 C 
ENDBRANCH  11  24
BRANCH   9  26
ATOM     26  O   UNL     1      -2.055  -5.560  -7.550  1.00  0.00    -0.490 OA
ATOM     27  C   UNL     1      -1.864  -6.970  -7.502  1.00  0.00     0.279 C 
ENDBRANCH   9  26
BRANCH  10  28
ATOM     28  O   UNL     1      -2.623  -5.177 -10.328  1.00  0.00    -0.490 OA
ATOM     29  C   UNL     1      -3.979  -4.755 -10.448  1.00  0.00     0.278 C 
ENDBRANCH  10  28
TORSDOF 7
ENDMDL
MODEL 2
REMARK VINA RESULT:    -4.514      4.399      8.667
REMARK INTER + INTRA:          -7.161
REMARK INTER:                  -6.358
REMARK INTRA:                  -0.803
REMARK UNBOUND:                -0.800
REMARK SMILES COc1ccc(-c2cc(=O)c3c(OC)c(OC)c(OC)c(OC)c3o2)cc1OC
REMARK SMILES IDX 7 1 8 2 9 3 10 4 11 5 24 6 25 7 21 8 18 9 15 10 12 11 6 12
REMARK SMILES IDX 3 13 27 14 4 15 26 16 5 17 2 18 1 19 28 20 29 21 22 22 23 23
REMARK SMILES IDX 13 24 14 25 19 26 20 27 16 28 17 29
REMARK H PARENT
REMARK Flexibility Score: inf
ROOT
ATOM      1  C   UNL     1      -1.645   1.231  -8.225  1.00  0.00     0.138 A 
ATOM      2  C   UNL     1      -1.498   1.030  -9.604  1.00  0.00     0.100 A 
ATOM      3  C   UNL     1      -0.580   1.801 -10.313  1.00  0.00     0.197 A 
ATOM      4  O   UNL     1      -0.440   1.595 -11.549  1.00  0.00    -0.289 OA
ATOM      5  C   UNL     1       0.180   2.783  -9.638  1.00  0.00     0.115 A 
ATOM      6  C   UNL     1      -0.026   2.928  -8.251  1.00  0.00     0.188 A 
ATOM      7  O   UNL     1      -0.915   2.163  -7.620  1.00  0.00    -0.452 OA
ATOM      8  C   UNL     1       0.691   3.874  -7.510  1.00  0.00     0.209 A 
ATOM      9  C   UNL     1       1.667   4.681  -8.148  1.00  0.00     0.211 A 
ATOM     10  C   UNL     1       1.908   4.518  -9.539  1.00  0.00     0.208 A 
ATOM     11  C   UNL     1       1.115   3.617 -10.288  1.00  0.00     0.179 A 
ENDROOT
BRANCH   1  12
ATOM     12  C   UNL     1      -2.606   0.440  -7.414  1.00  0.00     0.021 A 
ATOM     13  C   UNL     1      -4.472  -1.013  -5.872  1.00  0.00     0.160 A 
ATOM     14  C   UNL     1      -3.103  -1.297  -5.762  1.00  0.00     0.161 A 
ATOM     15  C   UNL     1      -4.902   0.002  -6.746  1.00  0.00     0.051 A 
ATOM     16  C   UNL     1      -2.175  -0.567  -6.530  1.00  0.00     0.062 A 
ATOM     17  C   UNL     1      -3.977   0.722  -7.503  1.00  0.00     0.016 A 
BRANCH  13  18
ATOM     18  O   UNL     1      -5.373  -1.760  -5.096  1.00  0.00    -0.493 OA
ATOM     19  C   UNL     1      -6.000  -2.965  -5.525  1.00  0.00     0.278 C 
ENDBRANCH  13  18
BRANCH  14  20
ATOM     20  O   UNL     1      -2.703  -2.310  -4.875  1.00  0.00    -0.493 OA
ATOM     21  C   UNL     1      -2.262  -3.605  -5.272  1.00  0.00     0.278 C 
ENDBRANCH  14  20
ENDBRANCH   1  12
BRANCH   8  22
ATOM     22  O   UNL     1       0.383   3.950  -6.136  1.00  0.00    -0.490 OA
ATOM     23  C   UNL     1       1.099   3.355  -5.059  1.00  0.00     0.278 C 
ENDBRANCH   8  22
BRANCH  11  24
ATOM     24  O   UNL     1       1.232   3.577 -11.679  1.00  0.00    -0.492 OA
ATOM     25  C   UNL     1       0.682   4.609 -12.490  1.00  0.00     0.278 C 
ENDBRANCH  11  24
BRANCH   9  26
ATOM     26  O   UNL     1       2.374   5.612  -7.361  1.00  0.00    -0.490 OA
ATOM     27  C   UNL     1       2.126   7.009  -7.237  1.00  0.00     0.279 C 
ENDBRANCH   9  26
BRANCH  10  28
ATOM     28  O   UNL     1       2.936   5.259 -10.145  1.00  0.00    -0.490 OA
ATOM     29  C   UNL     1       4.308   4.877 -10.208  1.00  0.00     0.278 C 
ENDBRANCH  10  28
TORSDOF 7
ENDMDL
MODEL 3
REMARK VINA RESULT:    -4.424      2.394      8.128
REMARK INTER + INTRA:          -7.035
REMARK INTER:                  -6.180
REMARK INTRA:                  -0.854
REMARK UNBOUND:                -0.800
REMARK SMILES COc1ccc(-c2cc(=O)c3c(OC)c(OC)c(OC)c(OC)c3o2)cc1OC
REMARK SMILES IDX 7 1 8 2 9 3 10 4 11 5 24 6 25 7 21 8 18 9 15 10 12 11 6 12
REMARK SMILES IDX 3 13 27 14 4 15 26 16 5 17 2 18 1 19 28 20 29 21 22 22 23 23
REMARK SMILES IDX 13 24 14 25 19 26 20 27 16 28 17 29
REMARK H PARENT
REMARK Flexibility Score: inf
ROOT
ATOM      1  C   UNL     1      -0.582  -3.923  -7.569  1.00  0.00     0.138 A 
ATOM      2  C   UNL     1      -0.030  -3.002  -6.667  1.00  0.00     0.100 A 
ATOM      3  C   UNL     1       0.792  -1.984  -7.147  1.00  0.00     0.197 A 
ATOM      4  O   UNL     1       1.263  -1.149  -6.329  1.00  0.00    -0.289 OA
ATOM      5  C   UNL     1       1.069  -1.901  -8.530  1.00  0.00     0.115 A 
ATOM      6  C   UNL     1       0.480  -2.864  -9.373  1.00  0.00     0.188 A 
ATOM      7  O   UNL     1      -0.300  -3.816  -8.863  1.00  0.00    -0.452 OA
ATOM      8  C   UNL     1       0.702  -2.847 -10.755  1.00  0.00     0.209 A 
ATOM      9  C   UNL     1       1.502  -1.828 -11.330  1.00  0.00     0.211 A 
ATOM     10  C   UNL     1       2.072  -0.830 -10.493  1.00  0.00     0.208 A 
ATOM     11  C   UNL     1       1.907  -0.913  -9.090  1.00  0.00     0.179 A 
ENDROOT
BRANCH   1  12
ATOM     12  C   UNL     1      -1.466  -5.028  -7.120  1.00  0.00     0.021 A 
ATOM     13  C   UNL     1      -3.123  -7.124  -6.206  1.00  0.00     0.160 A 
ATOM     14  C   UNL     1      -2.696  -7.102  -7.541  1.00  0.00     0.161 A 
ATOM     15  C   UNL     1      -2.712  -6.103  -5.329  1.00  0.00     0.051 A 
ATOM     16  C   UNL     1      -1.866  -6.057  -7.993  1.00  0.00     0.062 A 
ATOM     17  C   UNL     1      -1.889  -5.071  -5.783  1.00  0.00     0.016 A 
BRANCH  13  18
ATOM     18  O   UNL     1      -3.952  -8.177  -5.787  1.00  0.00    -0.493 OA
ATOM     19  C   UNL     1      -5.057  -8.030  -4.901  1.00  0.00     0.278 C 
ENDBRANCH  13  18
BRANCH  14  20
ATOM     20  O   UNL     1      -3.115  -8.140  -8.390  1.00  0.00    -0.493 OA
ATOM     21  C   UNL     1      -2.246  -9.100  -8.985  1.00  0.00     0.278 C 
ENDBRANCH  14  20
ENDBRANCH   1  12
BRANCH   8  22
ATOM     22  O   UNL     1       0.085  -3.876 -11.496  1.00  0.00    -0.490 OA
ATOM     23  C   UNL     1      -1.129  -3.794 -12.236  1.00  0.00     0.278 C 
ENDBRANCH   8  22
BRANCH  11  24
ATOM     24  O   UNL     1       2.602  -0.036  -8.254  1.00  0.00    -0.492 OA
ATOM     25  C   UNL     1       3.984  -0.231  -7.976  1.00  0.00     0.278 C 
ENDBRANCH  11  24
BRANCH   9  26
ATOM     26  O   UNL     1       1.689  -1.841 -12.727  1.00  0.00    -0.490 OA
ATOM     27  C   UNL     1       2.703  -2.521 -13.459  1.00  0.00     0.279 C 
ENDBRANCH   9  26
BRANCH  10  28
ATOM     28  O   UNL     1       2.791   0.224 -11.080  1.00  0.00    -0.490 OA
ATOM     29  C   UNL     1       2.244   1.479 -11.479  1.00  0.00     0.278 C 
ENDBRANCH  10  28
TORSDOF 7
ENDMDL
MODEL 4
REMARK VINA RESULT:    -4.416      4.320      6.538
REMARK INTER + INTRA:          -7.023
REMARK INTER:                  -6.142
REMARK INTRA:                  -0.881
REMARK UNBOUND:                -0.800
REMARK SMILES COc1ccc(-c2cc(=O)c3c(OC)c(OC)c(OC)c(OC)c3o2)cc1OC
REMARK SMILES IDX 7 1 8 2 9 3 10 4 11 5 24 6 25 7 21 8 18 9 15 10 12 11 6 12
REMARK SMILES IDX 3 13 27 14 4 15 26 16 5 17 2 18 1 19 28 20 29 21 22 22 23 23
REMARK SMILES IDX 13 24 14 25 19 26 20 27 16 28 17 29
REMARK H PARENT
REMARK Flexibility Score: inf
ROOT
ATOM      1  C   UNL     1       0.735   3.875  -7.281  1.00  0.00     0.138 A 
ATOM      2  C   UNL     1       0.273   2.940  -6.344  1.00  0.00     0.100 A 
ATOM      3  C   UNL     1      -0.535   1.888  -6.771  1.00  0.00     0.197 A 
ATOM      4  O   UNL     1      -0.926   1.041  -5.922  1.00  0.00    -0.289 OA
ATOM      5  C   UNL     1      -0.887   1.784  -8.135  1.00  0.00     0.115 A 
ATOM      6  C   UNL     1      -0.385   2.762  -9.015  1.00  0.00     0.188 A 
ATOM      7  O   UNL     1       0.385   3.747  -8.557  1.00  0.00    -0.452 OA
ATOM      8  C   UNL     1      -0.684   2.726 -10.382  1.00  0.00     0.209 A 
ATOM      9  C   UNL     1      -1.475   1.672 -10.906  1.00  0.00     0.211 A 
ATOM     10  C   UNL     1      -1.957   0.660 -10.032  1.00  0.00     0.208 A 
ATOM     11  C   UNL     1      -1.716   0.759  -8.641  1.00  0.00     0.179 A 
ENDROOT
BRANCH   1  12
ATOM     12  C   UNL     1       1.600   5.017  -6.889  1.00  0.00     0.021 A 
ATOM     13  C   UNL     1       3.222   7.183  -6.082  1.00  0.00     0.160 A 
ATOM     14  C   UNL     1       2.734   7.126  -7.396  1.00  0.00     0.161 A 
ATOM     15  C   UNL     1       2.889   6.161  -5.174  1.00  0.00     0.051 A 
ATOM     16  C   UNL     1       1.922   6.046  -7.793  1.00  0.00     0.062 A 
ATOM     17  C   UNL     1       2.083   5.095  -5.574  1.00  0.00     0.016 A 
BRANCH  13  18
ATOM     18  O   UNL     1       4.032   8.270  -5.717  1.00  0.00    -0.493 OA
ATOM     19  C   UNL     1       5.198   8.171  -4.906  1.00  0.00     0.278 C 
ENDBRANCH  13  18
BRANCH  14  20
ATOM     20  O   UNL     1       3.077   8.165  -8.277  1.00  0.00    -0.493 OA
ATOM     21  C   UNL     1       2.181   9.182  -8.716  1.00  0.00     0.278 C 
ENDBRANCH  14  20
ENDBRANCH   1  12
BRANCH   8  22
ATOM     22  O   UNL     1      -0.151   3.772 -11.163  1.00  0.00    -0.490 OA
ATOM     23  C   UNL     1       1.074   3.766 -11.888  1.00  0.00     0.278 C 
ENDBRANCH   8  22
BRANCH  11  24
ATOM     24  O   UNL     1      -2.328  -0.137  -7.762  1.00  0.00    -0.492 OA
ATOM     25  C   UNL     1      -3.708  -0.016  -7.436  1.00  0.00     0.278 C 
ENDBRANCH  11  24
BRANCH   9  26
ATOM     26  O   UNL     1      -1.742   1.668 -12.289  1.00  0.00    -0.490 OA
ATOM     27  C   UNL     1      -0.989   1.027 -13.315  1.00  0.00     0.279 C 
ENDBRANCH   9  26
BRANCH  10  28
ATOM     28  O   UNL     1      -2.666  -0.426 -10.572  1.00  0.00    -0.490 OA
ATOM     29  C   UNL     1      -2.103  -1.681 -10.944  1.00  0.00     0.278 C 
ENDBRANCH  10  28
TORSDOF 7
ENDMDL
MODEL 5
REMARK VINA RESULT:    -4.405      1.765      4.398
REMARK INTER + INTRA:          -7.008
REMARK INTER:                  -6.173
REMARK INTRA:                  -0.836
REMARK UNBOUND:                -0.800
REMARK SMILES COc1ccc(-c2cc(=O)c3c(OC)c(OC)c(OC)c(OC)c3o2)cc1OC
REMARK SMILES IDX 7 1 8 2 9 3 10 4 11 5 24 6 25 7 21 8 18 9 15 10 12 11 6 12
REMARK SMILES IDX 3 13 27 14 4 15 26 16 5 17 2 18 1 19 28 20 29 21 22 22 23 23
REMARK SMILES IDX 13 24 14 25 19 26 20 27 16 28 17 29
REMARK H PARENT
REMARK Flexibility Score: inf
ROOT
ATOM      1  C   UNL     1      -0.082  -2.760  -6.693  1.00  0.00     0.138 A 
ATOM      2  C   UNL     1      -0.410  -3.595  -5.615  1.00  0.00     0.100 A 
ATOM      3  C   UNL     1      -1.150  -4.753  -5.849  1.00  0.00     0.197 A 
ATOM      4  O   UNL     1      -1.418  -5.507  -4.875  1.00  0.00    -0.289 OA
ATOM      5  C   UNL     1      -1.571  -5.062  -7.161  1.00  0.00     0.115 A 
ATOM      6  C   UNL     1      -1.205  -4.173  -8.191  1.00  0.00     0.188 A 
ATOM      7  O   UNL     1      -0.494  -3.081  -7.915  1.00  0.00    -0.452 OA
ATOM      8  C   UNL     1      -1.579  -4.412  -9.519  1.00  0.00     0.209 A 
ATOM      9  C   UNL     1      -2.309  -5.583  -9.849  1.00  0.00     0.211 A 
ATOM     10  C   UNL     1      -2.652  -6.504  -8.822  1.00  0.00     0.208 A 
ATOM     11  C   UNL     1      -2.340  -6.204  -7.475  1.00  0.00     0.179 A 
ENDROOT
BRANCH   1  12
ATOM     12  C   UNL     1       0.705  -1.515  -6.509  1.00  0.00     0.021 A 
ATOM     13  C   UNL     1       2.148   0.885  -6.144  1.00  0.00     0.160 A 
ATOM     14  C   UNL     1       2.600  -0.069  -7.066  1.00  0.00     0.161 A 
ATOM     15  C   UNL     1       0.969   0.640  -5.415  1.00  0.00     0.051 A 
ATOM     16  C   UNL     1       1.876  -1.264  -7.249  1.00  0.00     0.062 A 
ATOM     17  C   UNL     1       0.257  -0.544  -5.601  1.00  0.00     0.016 A 
BRANCH  13  18
ATOM     18  O   UNL     1       2.893   2.064  -5.982  1.00  0.00    -0.493 OA
ATOM     19  C   UNL     1       2.383   3.376  -6.195  1.00  0.00     0.278 C 
ENDBRANCH  13  18
BRANCH  14  20
ATOM     20  O   UNL     1       3.775   0.207  -7.786  1.00  0.00    -0.493 OA
ATOM     21  C   UNL     1       5.022  -0.452  -7.584  1.00  0.00     0.278 C 
ENDBRANCH  14  20
ENDBRANCH   1  12
BRANCH   8  22
ATOM     22  O   UNL     1      -1.182  -3.441 -10.461  1.00  0.00    -0.490 OA
ATOM     23  C   UNL     1      -0.050  -3.492 -11.323  1.00  0.00     0.278 C 
ENDBRANCH   8  22
BRANCH  11  24
ATOM     24  O   UNL     1      -2.822  -7.020  -6.450  1.00  0.00    -0.492 OA
ATOM     25  C   UNL     1      -4.192  -6.981  -6.065  1.00  0.00     0.278 C 
ENDBRANCH  11  24
BRANCH   9  26
ATOM     26  O   UNL     1      -2.654  -5.790 -11.199  1.00  0.00    -0.490 OA
ATOM     27  C   UNL     1      -3.859  -5.407 -11.854  1.00  0.00     0.279 C 
ENDBRANCH   9  26
BRANCH  10  28
ATOM     28  O   UNL     1      -3.299  -7.702  -9.170  1.00  0.00    -0.490 OA
ATOM     29  C   UNL     1      -2.651  -8.933  -9.482  1.00  0.00     0.278 C 
ENDBRANCH  10  28
TORSDOF 7
ENDMDL
MODEL 6
REMARK VINA RESULT:    -4.365      4.543      9.652
REMARK INTER + INTRA:          -6.952
REMARK INTER:                  -6.095
REMARK INTRA:                  -0.857
REMARK UNBOUND:                -0.800
REMARK SMILES COc1ccc(-c2cc(=O)c3c(OC)c(OC)c(OC)c(OC)c3o2)cc1OC
REMARK SMILES IDX 7 1 8 2 9 3 10 4 11 5 24 6 25 7 21 8 18 9 15 10 12 11 6 12
REMARK SMILES IDX 3 13 27 14 4 15 26 16 5 17 2 18 1 19 28 20 29 21 22 22 23 23
REMARK SMILES IDX 13 24 14 25 19 26 20 27 16 28 17 29
REMARK H PARENT
REMARK Flexibility Score: inf
ROOT
ATOM      1  C   UNL     1       0.415   2.982  -6.597  1.00  0.00     0.138 A 
ATOM      2  C   UNL     1       0.716   3.877  -5.560  1.00  0.00     0.100 A 
ATOM      3  C   UNL     1       1.449   5.028  -5.842  1.00  0.00     0.197 A 
ATOM      4  O   UNL     1       1.693   5.836  -4.905  1.00  0.00    -0.289 OA
ATOM      5  C   UNL     1       1.889   5.273  -7.162  1.00  0.00     0.115 A 
ATOM      6  C   UNL     1       1.549   4.327  -8.149  1.00  0.00     0.188 A 
ATOM      7  O   UNL     1       0.845   3.243  -7.828  1.00  0.00    -0.452 OA
ATOM      8  C   UNL     1       1.944   4.499  -9.481  1.00  0.00     0.209 A 
ATOM      9  C   UNL     1       2.668   5.658  -9.860  1.00  0.00     0.211 A 
ATOM     10  C   UNL     1       2.984   6.636  -8.878  1.00  0.00     0.208 A 
ATOM     11  C   UNL     1       2.652   6.404  -7.523  1.00  0.00     0.179 A 
ENDROOT
BRANCH   1  12
ATOM     12  C   UNL     1      -0.362   1.740  -6.361  1.00  0.00     0.021 A 
ATOM     13  C   UNL     1      -1.787  -0.653  -5.893  1.00  0.00     0.160 A 
ATOM     14  C   UNL     1      -2.234   0.247  -6.872  1.00  0.00     0.161 A 
ATOM     15  C   UNL     1      -0.624  -0.357  -5.158  1.00  0.00     0.051 A 
ATOM     16  C   UNL     1      -1.518   1.438  -7.105  1.00  0.00     0.062 A 
ATOM     17  C   UNL     1       0.080   0.824  -5.395  1.00  0.00     0.016 A 
BRANCH  13  18
ATOM     18  O   UNL     1      -2.524  -1.829  -5.681  1.00  0.00    -0.493 OA
ATOM     19  C   UNL     1      -1.953  -3.128  -5.565  1.00  0.00     0.278 C 
ENDBRANCH  13  18
BRANCH  14  20
ATOM     20  O   UNL     1      -3.393  -0.080  -7.595  1.00  0.00    -0.493 OA
ATOM     21  C   UNL     1      -4.686   0.464  -7.341  1.00  0.00     0.278 C 
ENDBRANCH  14  20
ENDBRANCH   1  12
BRANCH   8  22
ATOM     22  O   UNL     1       1.573   3.475 -10.377  1.00  0.00    -0.490 OA
ATOM     23  C   UNL     1       0.398   3.418 -11.179  1.00  0.00     0.278 C 
ENDBRANCH   8  22
BRANCH  11  24
ATOM     24  O   UNL     1       3.108   7.278  -6.534  1.00  0.00    -0.492 OA
ATOM     25  C   UNL     1       4.472   7.276  -6.127  1.00  0.00     0.278 C 
ENDBRANCH  11  24
BRANCH   9  26
ATOM     26  O   UNL     1       3.034   5.798 -11.213  1.00  0.00    -0.490 OA
ATOM     27  C   UNL     1       2.303   6.450 -12.247  1.00  0.00     0.279 C 
ENDBRANCH   9  26
BRANCH  10  28
ATOM     28  O   UNL     1       3.625   7.821  -9.278  1.00  0.00    -0.490 OA
ATOM     29  C   UNL     1       2.974   9.049  -9.595  1.00  0.00     0.278 C 
ENDBRANCH  10  28
TORSDOF 7
ENDMDL
MODEL 7
REMARK VINA RESULT:    -4.344      2.370      9.261
REMARK INTER + INTRA:          -6.921
REMARK INTER:                  -6.357
REMARK INTRA:                  -0.564
REMARK UNBOUND:                -0.800
REMARK SMILES COc1ccc(-c2cc(=O)c3c(OC)c(OC)c(OC)c(OC)c3o2)cc1OC
REMARK SMILES IDX 7 1 8 2 9 3 10 4 11 5 24 6 25 7 21 8 18 9 15 10 12 11 6 12
REMARK SMILES IDX 3 13 27 14 4 15 26 16 5 17 2 18 1 19 28 20 29 21 22 22 23 23
REMARK SMILES IDX 13 24 14 25 19 26 20 27 16 28 17 29
REMARK H PARENT
REMARK Flexibility Score: inf
ROOT
ATOM      1  C   UNL     1       2.867   0.635  -6.993  1.00  0.00     0.138 A 
ATOM      2  C   UNL     1       4.148   0.464  -6.451  1.00  0.00     0.100 A 
ATOM      3  C   UNL     1       4.843   1.575  -5.976  1.00  0.00     0.197 A 
ATOM      4  O   UNL     1       5.985   1.405  -5.470  1.00  0.00    -0.289 OA
ATOM      5  C   UNL     1       4.255   2.857  -6.059  1.00  0.00     0.115 A 
ATOM      6  C   UNL     1       2.965   2.948  -6.619  1.00  0.00     0.188 A 
ATOM      7  O   UNL     1       2.343   1.855  -7.056  1.00  0.00    -0.452 OA
ATOM      8  C   UNL     1       2.313   4.182  -6.732  1.00  0.00     0.209 A 
ATOM      9  C   UNL     1       2.936   5.359  -6.246  1.00  0.00     0.211 A 
ATOM     10  C   UNL     1       4.223   5.272  -5.647  1.00  0.00     0.208 A 
ATOM     11  C   UNL     1       4.902   4.032  -5.619  1.00  0.00     0.179 A 
ENDROOT
BRANCH   1  12
ATOM     12  C   UNL     1       2.076  -0.509  -7.514  1.00  0.00     0.021 A 
ATOM     13  C   UNL     1       0.566  -2.706  -8.444  1.00  0.00     0.160 A 
ATOM     14  C   UNL     1       1.524  -2.113  -9.278  1.00  0.00     0.161 A 
ATOM     15  C   UNL     1       0.373  -2.205  -7.143  1.00  0.00     0.051 A 
ATOM     16  C   UNL     1       2.278  -1.020  -8.810  1.00  0.00     0.062 A 
ATOM     17  C   UNL     1       1.124  -1.122  -6.685  1.00  0.00     0.016 A 
BRANCH  13  18
ATOM     18  O   UNL     1      -0.172  -3.793  -8.941  1.00  0.00    -0.493 OA
ATOM     19  C   UNL     1      -1.170  -4.493  -8.206  1.00  0.00     0.278 C 
ENDBRANCH  13  18
BRANCH  14  20
ATOM     20  O   UNL     1       1.700  -2.642 -10.568  1.00  0.00    -0.493 OA
ATOM     21  C   UNL     1       1.284  -2.000 -11.770  1.00  0.00     0.278 C 
ENDBRANCH  14  20
ENDBRANCH   1  12
BRANCH   8  22
ATOM     22  O   UNL     1       1.037   4.158  -7.333  1.00  0.00    -0.490 OA
ATOM     23  C   UNL     1      -0.184   3.726  -6.743  1.00  0.00     0.278 C 
ENDBRANCH   8  22
BRANCH  11  24
ATOM     24  O   UNL     1       6.229   3.974  -5.187  1.00  0.00    -0.492 OA
ATOM     25  C   UNL     1       7.290   4.430  -6.018  1.00  0.00     0.278 C 
ENDBRANCH  11  24
BRANCH   9  26
ATOM     26  O   UNL     1       2.239   6.577  -6.369  1.00  0.00    -0.490 OA
ATOM     27  C   UNL     1       2.179   7.431  -7.507  1.00  0.00     0.279 C 
ENDBRANCH   9  26
BRANCH  10  28
ATOM     28  O   UNL     1       4.795   6.429  -5.091  1.00  0.00    -0.490 OA
ATOM     29  C   UNL     1       5.493   7.439  -5.816  1.00  0.00     0.278 C 
ENDBRANCH  10  28
TORSDOF 7
ENDMDL
MODEL 8
REMARK VINA RESULT:    -4.321      2.357      5.113
REMARK INTER + INTRA:          -6.890
REMARK INTER:                  -6.066
REMARK INTRA:                  -0.824
REMARK UNBOUND:                -0.800
REMARK SMILES COc1ccc(-c2cc(=O)c3c(OC)c(OC)c(OC)c(OC)c3o2)cc1OC
REMARK SMILES IDX 7 1 8 2 9 3 10 4 11 5 24 6 25 7 21 8 18 9 15 10 12 11 6 12
REMARK SMILES IDX 3 13 27 14 4 15 26 16 5 17 2 18 1 19 28 20 29 21 22 22 23 23
REMARK SMILES IDX 13 24 14 25 19 26 20 27 16 28 17 29
REMARK H PARENT
REMARK Flexibility Score: inf
ROOT
ATOM      1  C   UNL     1      -0.481  -3.869  -7.711  1.00  0.00     0.138 A 
ATOM      2  C   UNL     1      -0.697  -4.230  -6.374  1.00  0.00     0.100 A 
ATOM      3  C   UNL     1      -1.591  -5.258  -6.080  1.00  0.00     0.197 A 
ATOM      4  O   UNL     1      -1.759  -5.589  -4.875  1.00  0.00    -0.289 OA
ATOM      5  C   UNL     1      -2.276  -5.912  -7.128  1.00  0.00     0.115 A 
ATOM      6  C   UNL     1      -2.007  -5.491  -8.446  1.00  0.00     0.188 A 
ATOM      7  O   UNL     1      -1.141  -4.505  -8.673  1.00  0.00    -0.452 OA
ATOM      8  C   UNL     1      -2.641  -6.093  -9.540  1.00  0.00     0.209 A 
ATOM      9  C   UNL     1      -3.544  -7.167  -9.332  1.00  0.00     0.211 A 
ATOM     10  C   UNL     1      -3.794  -7.622  -8.008  1.00  0.00     0.208 A 
ATOM     11  C   UNL     1      -3.210  -6.947  -6.911  1.00  0.00     0.179 A 
ENDROOT
BRANCH   1  12
ATOM     12  C   UNL     1       0.460  -2.784  -8.088  1.00  0.00     0.021 A 
ATOM     13  C   UNL     1       2.268  -0.755  -8.857  1.00  0.00     0.160 A 
ATOM     14  C   UNL     1       1.928  -0.914  -7.505  1.00  0.00     0.161 A 
ATOM     15  C   UNL     1       1.709  -1.617  -9.818  1.00  0.00     0.051 A 
ATOM     16  C   UNL     1       1.029  -1.930  -7.125  1.00  0.00     0.062 A 
ATOM     17  C   UNL     1       0.820  -2.621  -9.435  1.00  0.00     0.016 A 
BRANCH  13  18
ATOM     18  O   UNL     1       3.164   0.269  -9.204  1.00  0.00    -0.493 OA
ATOM     19  C   UNL     1       2.787   1.497  -9.817  1.00  0.00     0.278 C 
ENDBRANCH  13  18
BRANCH  14  20
ATOM     20  O   UNL     1       2.509  -0.043  -6.568  1.00  0.00    -0.493 OA
ATOM     21  C   UNL     1       1.858   0.431  -5.392  1.00  0.00     0.278 C 
ENDBRANCH  14  20
ENDBRANCH   1  12
BRANCH   8  22
ATOM     22  O   UNL     1      -2.317  -5.572 -10.809  1.00  0.00    -0.490 OA
ATOM     23  C   UNL     1      -3.046  -4.601 -11.552  1.00  0.00     0.278 C 
ENDBRANCH   8  22
BRANCH  11  24
ATOM     24  O   UNL     1      -3.585  -7.282  -5.608  1.00  0.00    -0.492 OA
ATOM     25  C   UNL     1      -4.848  -6.885  -5.084  1.00  0.00     0.278 C 
ENDBRANCH  11  24
BRANCH   9  26
ATOM     26  O   UNL     1      -4.150  -7.751 -10.461  1.00  0.00    -0.490 OA
ATOM     27  C   UNL     1      -5.460  -7.510 -10.964  1.00  0.00     0.279 C 
ENDBRANCH   9  26
BRANCH  10  28
ATOM     28  O   UNL     1      -4.622  -8.742  -7.819  1.00  0.00    -0.490 OA
ATOM     29  C   UNL     1      -4.198 -10.102  -7.859  1.00  0.00     0.278 C 
ENDBRANCH  10  28
TORSDOF 7
ENDMDL
MODEL 9
REMARK VINA RESULT:    -4.307      3.580      5.987
REMARK INTER + INTRA:          -6.869
REMARK INTER:                  -5.994
REMARK INTRA:                  -0.875
REMARK UNBOUND:                -0.800
REMARK SMILES COc1ccc(-c2cc(=O)c3c(OC)c(OC)c(OC)c(OC)c3o2)cc1OC
REMARK SMILES IDX 7 1 8 2 9 3 10 4 11 5 24 6 25 7 21 8 18 9 15 10 12 11 6 12
REMARK SMILES IDX 3 13 27 14 4 15 26 16 5 17 2 18 1 19 28 20 29 21 22 22 23 23
REMARK SMILES IDX 13 24 14 25 19 26 20 27 16 28 17 29
REMARK H PARENT
REMARK Flexibility Score: inf
ROOT
ATOM      1  C   UNL     1      -3.448  -2.235  -6.737  1.00  0.00     0.138 A 
ATOM      2  C   UNL     1      -4.590  -2.388  -5.938  1.00  0.00     0.100 A 
ATOM      3  C   UNL     1      -5.210  -3.635  -5.864  1.00  0.00     0.197 A 
ATOM      4  O   UNL     1      -6.222  -3.765  -5.125  1.00  0.00    -0.289 OA
ATOM      5  C   UNL     1      -4.689  -4.721  -6.603  1.00  0.00     0.115 A 
ATOM      6  C   UNL     1      -3.540  -4.488  -7.384  1.00  0.00     0.188 A 
ATOM      7  O   UNL     1      -2.984  -3.278  -7.418  1.00  0.00    -0.452 OA
ATOM      8  C   UNL     1      -2.960  -5.513  -8.140  1.00  0.00     0.209 A 
ATOM      9  C   UNL     1      -3.510  -6.820  -8.100  1.00  0.00     0.211 A 
ATOM     10  C   UNL     1      -4.648  -7.074  -7.286  1.00  0.00     0.208 A 
ATOM     11  C   UNL     1      -5.270  -6.007  -6.597  1.00  0.00     0.179 A 
ENDROOT
BRANCH   1  12
ATOM     12  C   UNL     1      -2.743  -0.934  -6.855  1.00  0.00     0.021 A 
ATOM     13  C   UNL     1      -1.419   1.544  -7.142  1.00  0.00     0.160 A 
ATOM     14  C   UNL     1      -0.952   0.606  -6.210  1.00  0.00     0.161 A 
ATOM     15  C   UNL     1      -2.540   1.236  -7.934  1.00  0.00     0.051 A 
ATOM     16  C   UNL     1      -1.613  -0.631  -6.072  1.00  0.00     0.062 A 
ATOM     17  C   UNL     1      -3.189   0.009  -7.793  1.00  0.00     0.016 A 
BRANCH  13  18
ATOM     18  O   UNL     1      -0.741   2.769  -7.254  1.00  0.00    -0.493 OA
ATOM     19  C   UNL     1       0.139   3.109  -8.320  1.00  0.00     0.278 C 
ENDBRANCH  13  18
BRANCH  14  20
ATOM     20  O   UNL     1       0.175   0.938  -5.440  1.00  0.00    -0.493 OA
ATOM     21  C   UNL     1       1.488   0.434  -5.668  1.00  0.00     0.278 C 
ENDBRANCH  14  20
ENDBRANCH   1  12
BRANCH   8  22
ATOM     22  O   UNL     1      -1.830  -5.159  -8.906  1.00  0.00    -0.490 OA
ATOM     23  C   UNL     1      -1.811  -4.722 -10.260  1.00  0.00     0.278 C 
ENDBRANCH   8  22
BRANCH  11  24
ATOM     24  O   UNL     1      -6.482  -6.218  -5.936  1.00  0.00    -0.492 OA
ATOM     25  C   UNL     1      -7.696  -6.375  -6.663  1.00  0.00     0.278 C 
ENDBRANCH  11  24
BRANCH   9  26
ATOM     26  O   UNL     1      -2.888  -7.825  -8.866  1.00  0.00    -0.490 OA
ATOM     27  C   UNL     1      -1.792  -8.651  -8.487  1.00  0.00     0.279 C 
ENDBRANCH   9  26
BRANCH  10  28
ATOM     28  O   UNL     1      -5.133  -8.389  -7.184  1.00  0.00    -0.490 OA
ATOM     29  C   UNL     1      -4.785  -9.324  -6.167  1.00  0.00     0.278 C 
ENDBRANCH  10  28
TORSDOF 7
ENDMDL
