MODEL 1
REMARK VINA RESULT:    -4.569      0.000      0.000
REMARK INTER + INTRA:          -9.883
REMARK INTER:                  -8.309
REMARK INTRA:                  -1.574
REMARK UNBOUND:                -1.574
REMARK SMILES CCCCCCCCCCCCCCCC(=O)[O-]
REMARK SMILES IDX 9 1 10 2 11 3 12 4 13 5 14 6 15 7 16 8 17 9 18 10 8 11 7 12
REMARK SMILES IDX 6 13 5 14 4 15 3 16 2 17 1 18
REMARK H PARENT
REMARK Flexibility Score: inf
ROOT
ATOM      1  C   UNL     1      -3.810  10.748 -19.370  1.00  0.00     0.000 C 
ENDROOT
BRANCH   1   2
ATOM      2  C   UNL     1      -2.768  11.572 -18.593  1.00  0.00     0.000 C 
BRANCH   2   3
ATOM      3  C   UNL     1      -2.972  13.092 -18.740  1.00  0.00     0.000 C 
BRANCH   3   4
ATOM      4  C   UNL     1      -1.705  13.897 -19.084  1.00  0.00     0.000 C 
BRANCH   4   5
ATOM      5  C   UNL     1      -1.518  15.135 -18.192  1.00  0.00     0.000 C 
BRANCH   5   6
ATOM      6  C   UNL     1      -0.218  15.894 -18.502  1.00  0.00     0.006 C 
BRANCH   6   7
ATOM      7  C   UNL     1      -0.468  17.352 -18.909  1.00  0.00     0.053 C 
BRANCH   7   8
ATOM      8  C   UNL     1       0.792  17.972 -19.428  1.00  0.00     0.041 C 
ATOM      9  O   UNL     1       1.895  17.724 -18.873  1.00  0.00    -0.550 OA
ATOM     10  O   UNL     1       0.755  18.785 -20.553  1.00  0.00    -0.550 OA
ENDBRANCH   7   8
ENDBRANCH   6   7
ENDBRANCH   5   6
ENDBRANCH   4   5
ENDBRANCH   3   4
ENDBRANCH   2   3
ENDBRANCH   1   2
BRANCH   1  11
ATOM     11  C   UNL     1      -5.044  11.573 -19.780  1.00  0.00     0.000 C 
BRANCH  11  12
ATOM     12  C   UNL     1      -6.258  11.446 -18.841  1.00  0.00    -0.000 C 
BRANCH  12  13
ATOM     13  C   UNL     1      -6.292  12.534 -17.754  1.00  0.00    -0.000 C 
BRANCH  13  14
ATOM     14  C   UNL     1      -6.171  11.953 -16.336  1.00  0.00    -0.000 C 
BRANCH  14  15
ATOM     15  C   UNL     1      -4.999  12.562 -15.549  1.00  0.00    -0.000 C 
BRANCH  15  16
ATOM     16  C   UNL     1      -3.952  11.513 -15.131  1.00  0.00    -0.000 C 
BRANCH  16  17
ATOM     17  C   UNL     1      -2.635  12.098 -14.590  1.00  0.00    -0.003 C 
ATOM     18  C   UNL     1      -2.400  13.545 -15.023  1.00  0.00     0.004 C 
ENDBRANCH  16  17
ENDBRANCH  15  16
ENDBRANCH  14  15
ENDBRANCH  13  14
ENDBRANCH  12  13
ENDBRANCH  11  12
ENDBRANCH   1  11
TORSDOF 14
ENDMDL
MODEL 2
REMARK VINA RESULT:    -4.548      3.178      6.777
REMARK INTER + INTRA:          -9.844
REMARK INTER:                  -8.500
REMARK INTRA:                  -1.344
REMARK UNBOUND:                -1.574
REMARK SMILES CCCCCCCCCCCCCCCC(=O)[O-]
REMARK SMILES IDX 9 1 10 2 11 3 12 4 13 5 14 6 15 7 16 8 17 9 18 10 8 11 7 12
REMARK SMILES IDX 6 13 5 14 4 15 3 16 2 17 1 18
REMARK H PARENT
REMARK Flexibility Score: inf
ROOT
ATOM      1  C   UNL     1      -2.644  11.642 -18.575  1.00  0.00     0.000 C 
ENDROOT
BRANCH   1   2
ATOM      2  C   UNL     1      -3.821  10.930 -19.263  1.00  0.00     0.000 C 
BRANCH   2   3
ATOM      3  C   UNL     1      -5.043  11.846 -19.466  1.00  0.00     0.000 C 
BRANCH   3   4
ATOM      4  C   UNL     1      -6.108  11.780 -18.355  1.00  0.00     0.000 C 
BRANCH   4   5
ATOM      5  C   UNL     1      -5.823  12.741 -17.190  1.00  0.00     0.000 C 
BRANCH   5   6
ATOM      6  C   UNL     1      -5.276  12.017 -15.949  1.00  0.00     0.006 C 
BRANCH   6   7
ATOM      7  C   UNL     1      -4.082  12.745 -15.318  1.00  0.00     0.053 C 
BRANCH   7   8
ATOM      8  C   UNL     1      -3.137  11.760 -14.705  1.00  0.00     0.041 C 
ATOM      9  O   UNL     1      -2.038  12.149 -14.229  1.00  0.00    -0.550 OA
ATOM     10  O   UNL     1      -3.490  10.420 -14.614  1.00  0.00    -0.550 OA
ENDBRANCH   7   8
ENDBRANCH   6   7
ENDBRANCH   5   6
ENDBRANCH   4   5
ENDBRANCH   3   4
ENDBRANCH   2   3
ENDBRANCH   1   2
BRANCH   1  11
ATOM     11  C   UNL     1      -2.504  13.117 -18.996  1.00  0.00     0.000 C 
BRANCH  11  12
ATOM     12  C   UNL     1      -1.928  14.055 -17.918  1.00  0.00    -0.000 C 
BRANCH  12  13
ATOM     13  C   UNL     1      -1.529  15.433 -18.474  1.00  0.00    -0.000 C 
BRANCH  13  14
ATOM     14  C   UNL     1      -0.005  15.628 -18.526  1.00  0.00    -0.000 C 
BRANCH  14  15
ATOM     15  C   UNL     1       0.391  17.060 -18.920  1.00  0.00    -0.000 C 
BRANCH  15  16
ATOM     16  C   UNL     1      -0.796  18.041 -18.878  1.00  0.00    -0.000 C 
BRANCH  16  17
ATOM     17  C   UNL     1      -0.448  19.491 -19.260  1.00  0.00    -0.003 C 
ATOM     18  C   UNL     1       0.957  19.634 -19.845  1.00  0.00     0.004 C 
ENDBRANCH  16  17
ENDBRANCH  15  16
ENDBRANCH  14  15
ENDBRANCH  13  14
ENDBRANCH  12  13
ENDBRANCH  11  12
ENDBRANCH   1  11
TORSDOF 14
ENDMDL
MODEL 3
REMARK VINA RESULT:    -4.365      1.175      2.451
REMARK INTER + INTRA:          -9.512
REMARK INTER:                  -7.738
REMARK INTRA:                  -1.774
REMARK UNBOUND:                -1.574
REMARK SMILES CCCCCCCCCCCCCCCC(=O)[O-]
REMARK SMILES IDX 9 1 10 2 11 3 12 4 13 5 14 6 15 7 16 8 17 9 18 10 8 11 7 12
REMARK SMILES IDX 6 13 5 14 4 15 3 16 2 17 1 18
REMARK H PARENT
REMARK Flexibility Score: inf
ROOT
ATOM      1  C   UNL     1      -6.132  11.477 -19.220  1.00  0.00     0.000 C 
ENDROOT
BRANCH   1   2
ATOM      2  C   UNL     1      -4.736  11.275 -19.835  1.00  0.00     0.000 C 
BRANCH   2   3
ATOM      3  C   UNL     1      -3.680  10.840 -18.800  1.00  0.00     0.000 C 
BRANCH   3   4
ATOM      4  C   UNL     1      -2.439  11.747 -18.704  1.00  0.00     0.000 C 
BRANCH   4   5
ATOM      5  C   UNL     1      -2.788  13.243 -18.667  1.00  0.00     0.000 C 
BRANCH   5   6
ATOM      6  C   UNL     1      -1.617  14.134 -19.110  1.00  0.00     0.006 C 
BRANCH   6   7
ATOM      7  C   UNL     1      -1.149  15.089 -18.005  1.00  0.00     0.053 C 
BRANCH   7   8
ATOM      8  C   UNL     1      -0.164  16.075 -18.550  1.00  0.00     0.041 C 
ATOM      9  O   UNL     1      -0.514  17.265 -18.769  1.00  0.00    -0.550 OA
ATOM     10  O   UNL     1       1.152  15.694 -18.772  1.00  0.00    -0.550 OA
ENDBRANCH   7   8
ENDBRANCH   6   7
ENDBRANCH   5   6
ENDBRANCH   4   5
ENDBRANCH   3   4
ENDBRANCH   2   3
ENDBRANCH   1   2
BRANCH   1  11
ATOM     11  C   UNL     1      -6.131  12.465 -18.038  1.00  0.00     0.000 C 
BRANCH  11  12
ATOM     12  C   UNL     1      -6.537  11.862 -16.680  1.00  0.00    -0.000 C 
BRANCH  12  13
ATOM     13  C   UNL     1      -5.961  12.639 -15.484  1.00  0.00    -0.000 C 
BRANCH  13  14
ATOM     14  C   UNL     1      -4.588  13.259 -15.790  1.00  0.00    -0.000 C 
BRANCH  14  15
ATOM     15  C   UNL     1      -3.570  13.016 -14.663  1.00  0.00    -0.000 C 
BRANCH  15  16
ATOM     16  C   UNL     1      -2.597  11.863 -14.976  1.00  0.00    -0.000 C 
BRANCH  16  17
ATOM     17  C   UNL     1      -3.225  10.459 -14.922  1.00  0.00    -0.003 C 
ATOM     18  C   UNL     1      -3.271   9.878 -13.509  1.00  0.00     0.004 C 
ENDBRANCH  16  17
ENDBRANCH  15  16
ENDBRANCH  14  15
ENDBRANCH  13  14
ENDBRANCH  12  13
ENDBRANCH  11  12
ENDBRANCH   1  11
TORSDOF 14
ENDMDL
MODEL 4
REMARK VINA RESULT:    -4.306      1.431      1.992
REMARK INTER + INTRA:          -9.404
REMARK INTER:                  -8.168
REMARK INTRA:                  -1.236
REMARK UNBOUND:                -1.574
REMARK SMILES CCCCCCCCCCCCCCCC(=O)[O-]
REMARK SMILES IDX 9 1 10 2 11 3 12 4 13 5 14 6 15 7 16 8 17 9 18 10 8 11 7 12
REMARK SMILES IDX 6 13 5 14 4 15 3 16 2 17 1 18
REMARK H PARENT
REMARK Flexibility Score: inf
ROOT
ATOM      1  C   UNL     1      -3.066  12.044 -18.656  1.00  0.00     0.000 C 
ENDROOT
BRANCH   1   2
ATOM      2  C   UNL     1      -2.602  13.364 -18.017  1.00  0.00     0.000 C 
BRANCH   2   3
ATOM      3  C   UNL     1      -1.640  14.163 -18.916  1.00  0.00     0.000 C 
BRANCH   3   4
ATOM      4  C   UNL     1      -1.193  15.526 -18.357  1.00  0.00     0.000 C 
BRANCH   4   5
ATOM      5  C   UNL     1       0.266  15.869 -18.704  1.00  0.00     0.000 C 
BRANCH   5   6
ATOM      6  C   UNL     1       0.460  17.359 -19.027  1.00  0.00     0.006 C 
BRANCH   6   7
ATOM      7  C   UNL     1      -0.861  18.139 -19.037  1.00  0.00     0.053 C 
BRANCH   7   8
ATOM      8  C   UNL     1      -0.721  19.413 -18.264  1.00  0.00     0.041 C 
ATOM      9  O   UNL     1      -1.745  20.042 -17.889  1.00  0.00    -0.550 OA
ATOM     10  O   UNL     1       0.540  19.879 -17.916  1.00  0.00    -0.550 OA
ENDBRANCH   7   8
ENDBRANCH   6   7
ENDBRANCH   5   6
ENDBRANCH   4   5
ENDBRANCH   3   4
ENDBRANCH   2   3
ENDBRANCH   1   2
BRANCH   1  11
ATOM     11  C   UNL     1      -4.363  12.196 -19.474  1.00  0.00     0.000 C 
BRANCH  11  12
ATOM     12  C   UNL     1      -5.585  11.447 -18.909  1.00  0.00    -0.000 C 
BRANCH  12  13
ATOM     13  C   UNL     1      -6.335  12.250 -17.834  1.00  0.00    -0.000 C 
BRANCH  13  14
ATOM     14  C   UNL     1      -5.921  11.853 -16.407  1.00  0.00    -0.000 C 
BRANCH  14  15
ATOM     15  C   UNL     1      -5.339  13.035 -15.614  1.00  0.00    -0.000 C 
BRANCH  15  16
ATOM     16  C   UNL     1      -4.117  12.639 -14.764  1.00  0.00    -0.000 C 
BRANCH  16  17
ATOM     17  C   UNL     1      -3.482  11.289 -15.140  1.00  0.00    -0.003 C 
ATOM     18  C   UNL     1      -3.397  10.319 -13.962  1.00  0.00     0.004 C 
ENDBRANCH  16  17
ENDBRANCH  15  16
ENDBRANCH  14  15
ENDBRANCH  13  14
ENDBRANCH  12  13
ENDBRANCH  11  12
ENDBRANCH   1  11
TORSDOF 14
ENDMDL
MODEL 5
REMARK VINA RESULT:    -4.298      3.469      6.338
REMARK INTER + INTRA:          -9.390
REMARK INTER:                  -8.379
REMARK INTRA:                  -1.011
REMARK UNBOUND:                -1.574
REMARK SMILES CCCCCCCCCCCCCCCC(=O)[O-]
REMARK SMILES IDX 9 1 10 2 11 3 12 4 13 5 14 6 15 7 16 8 17 9 18 10 8 11 7 12
REMARK SMILES IDX 6 13 5 14 4 15 3 16 2 17 1 18
REMARK H PARENT
REMARK Flexibility Score: inf
ROOT
ATOM      1  C   UNL     1      -4.892  11.932 -19.558  1.00  0.00     0.000 C 
ENDROOT
BRANCH   1   2
ATOM      2  C   UNL     1      -6.238  11.411 -19.025  1.00  0.00     0.000 C 
BRANCH   2   3
ATOM      3  C   UNL     1      -6.540  11.882 -17.590  1.00  0.00     0.000 C 
BRANCH   3   4
ATOM      4  C   UNL     1      -5.544  12.901 -17.007  1.00  0.00     0.000 C 
BRANCH   4   5
ATOM      5  C   UNL     1      -4.938  12.451 -15.667  1.00  0.00     0.000 C 
BRANCH   5   6
ATOM      6  C   UNL     1      -3.554  13.067 -15.410  1.00  0.00     0.006 C 
BRANCH   6   7
ATOM      7  C   UNL     1      -2.685  12.205 -14.484  1.00  0.00     0.053 C 
BRANCH   7   8
ATOM      8  C   UNL     1      -3.065  10.763 -14.608  1.00  0.00     0.041 C 
ATOM      9  O   UNL     1      -3.036  10.194 -15.731  1.00  0.00    -0.550 OA
ATOM     10  O   UNL     1      -3.403  10.033 -13.476  1.00  0.00    -0.550 OA
ENDBRANCH   7   8
ENDBRANCH   6   7
ENDBRANCH   5   6
ENDBRANCH   4   5
ENDBRANCH   3   4
ENDBRANCH   2   3
ENDBRANCH   1   2
BRANCH   1  11
ATOM     11  C   UNL     1      -3.697  11.062 -19.128  1.00  0.00     0.000 C 
BRANCH  11  12
ATOM     12  C   UNL     1      -2.456  11.841 -18.654  1.00  0.00    -0.000 C 
BRANCH  12  13
ATOM     13  C   UNL     1      -2.490  13.325 -19.059  1.00  0.00    -0.000 C 
BRANCH  13  14
ATOM     14  C   UNL     1      -1.705  14.219 -18.085  1.00  0.00    -0.000 C 
BRANCH  14  15
ATOM     15  C   UNL     1      -1.346  15.583 -18.699  1.00  0.00    -0.000 C 
BRANCH  15  16
ATOM     16  C   UNL     1       0.123  15.978 -18.458  1.00  0.00    -0.000 C 
BRANCH  16  17
ATOM     17  C   UNL     1       0.559  17.286 -19.141  1.00  0.00    -0.003 C 
ATOM     18  C   UNL     1      -0.417  18.439 -18.904  1.00  0.00     0.004 C 
ENDBRANCH  16  17
ENDBRANCH  15  16
ENDBRANCH  14  15
ENDBRANCH  13  14
ENDBRANCH  12  13
ENDBRANCH  11  12
ENDBRANCH   1  11
TORSDOF 14
ENDMDL
MODEL 6
REMARK VINA RESULT:    -4.278      3.707      6.740
REMARK INTER + INTRA:          -9.353
REMARK INTER:                  -8.011
REMARK INTRA:                  -1.342
REMARK UNBOUND:                -1.574
REMARK SMILES CCCCCCCCCCCCCCCC(=O)[O-]
REMARK SMILES IDX 9 1 10 2 11 3 12 4 13 5 14 6 15 7 16 8 17 9 18 10 8 11 7 12
REMARK SMILES IDX 6 13 5 14 4 15 3 16 2 17 1 18
REMARK H PARENT
REMARK Flexibility Score: inf
ROOT
ATOM      1  C   UNL     1      -3.200  10.910 -18.254  1.00  0.00     0.000 C 
ENDROOT
BRANCH   1   2
ATOM      2  C   UNL     1      -2.324  10.678 -17.010  1.00  0.00     0.000 C 
BRANCH   2   3
ATOM      3  C   UNL     1      -3.147  10.389 -15.740  1.00  0.00     0.000 C 
BRANCH   3   4
ATOM      4  C   UNL     1      -2.826  11.283 -14.528  1.00  0.00     0.000 C 
BRANCH   4   5
ATOM      5  C   UNL     1      -3.339  12.723 -14.690  1.00  0.00     0.000 C 
BRANCH   5   6
ATOM      6  C   UNL     1      -4.867  12.790 -14.845  1.00  0.00     0.006 C 
BRANCH   6   7
ATOM      7  C   UNL     1      -5.300  13.205 -16.256  1.00  0.00     0.053 C 
BRANCH   7   8
ATOM      8  C   UNL     1      -6.330  12.257 -16.786  1.00  0.00     0.041 C 
ATOM      9  O   UNL     1      -7.198  11.770 -16.015  1.00  0.00    -0.550 OA
ATOM     10  O   UNL     1      -6.361  11.949 -18.139  1.00  0.00    -0.550 OA
ENDBRANCH   7   8
ENDBRANCH   6   7
ENDBRANCH   5   6
ENDBRANCH   4   5
ENDBRANCH   3   4
ENDBRANCH   2   3
ENDBRANCH   1   2
BRANCH   1  11
ATOM     11  C   UNL     1      -2.802  12.172 -19.042  1.00  0.00     0.000 C 
BRANCH  11  12
ATOM     12  C   UNL     1      -2.338  13.362 -18.182  1.00  0.00    -0.000 C 
BRANCH  12  13
ATOM     13  C   UNL     1      -1.666  14.472 -19.008  1.00  0.00    -0.000 C 
BRANCH  13  14
ATOM     14  C   UNL     1      -0.918  15.488 -18.130  1.00  0.00    -0.000 C 
BRANCH  14  15
ATOM     15  C   UNL     1       0.436  15.901 -18.732  1.00  0.00    -0.000 C 
BRANCH  15  16
ATOM     16  C   UNL     1       0.543  17.417 -18.976  1.00  0.00    -0.000 C 
BRANCH  16  17
ATOM     17  C   UNL     1      -0.804  18.160 -19.018  1.00  0.00    -0.003 C 
ATOM     18  C   UNL     1      -0.650  19.669 -19.205  1.00  0.00     0.004 C 
ENDBRANCH  16  17
ENDBRANCH  15  16
ENDBRANCH  14  15
ENDBRANCH  13  14
ENDBRANCH  12  13
ENDBRANCH  11  12
ENDBRANCH   1  11
TORSDOF 14
ENDMDL
MODEL 7
REMARK VINA RESULT:    -4.190      1.444      3.591
REMARK INTER + INTRA:          -9.193
REMARK INTER:                  -8.139
REMARK INTRA:                  -1.053
REMARK UNBOUND:                -1.574
REMARK SMILES CCCCCCCCCCCCCCCC(=O)[O-]
REMARK SMILES IDX 9 1 10 2 11 3 12 4 13 5 14 6 15 7 16 8 17 9 18 10 8 11 7 12
REMARK SMILES IDX 6 13 5 14 4 15 3 16 2 17 1 18
REMARK H PARENT
REMARK Flexibility Score: inf
ROOT
ATOM      1  C   UNL     1      -2.317  14.181 -16.365  1.00  0.00     0.000 C 
ENDROOT
BRANCH   1   2
ATOM      2  C   UNL     1      -2.299  13.594 -17.787  1.00  0.00     0.000 C 
BRANCH   2   3
ATOM      3  C   UNL     1      -1.532  14.475 -18.792  1.00  0.00     0.000 C 
BRANCH   3   4
ATOM      4  C   UNL     1      -0.967  15.789 -18.220  1.00  0.00     0.000 C 
BRANCH   4   5
ATOM      5  C   UNL     1       0.494  16.042 -18.628  1.00  0.00     0.000 C 
BRANCH   5   6
ATOM      6  C   UNL     1       0.681  17.390 -19.343  1.00  0.00     0.006 C 
BRANCH   6   7
ATOM      7  C   UNL     1      -0.502  18.343 -19.128  1.00  0.00     0.053 C 
BRANCH   7   8
ATOM      8  C   UNL     1      -0.115  19.454 -18.204  1.00  0.00     0.041 C 
ATOM      9  O   UNL     1      -0.993  20.047 -17.523  1.00  0.00    -0.550 OA
ATOM     10  O   UNL     1       1.221  19.804 -18.057  1.00  0.00    -0.550 OA
ENDBRANCH   7   8
ENDBRANCH   6   7
ENDBRANCH   5   6
ENDBRANCH   4   5
ENDBRANCH   3   4
ENDBRANCH   2   3
ENDBRANCH   1   2
BRANCH   1  11
ATOM     11  C   UNL     1      -2.535  13.113 -15.276  1.00  0.00     0.000 C 
BRANCH  11  12
ATOM     12  C   UNL     1      -3.993  12.941 -14.811  1.00  0.00    -0.000 C 
BRANCH  12  13
ATOM     13  C   UNL     1      -4.737  11.831 -15.573  1.00  0.00    -0.000 C 
BRANCH  13  14
ATOM     14  C   UNL     1      -6.076  12.312 -16.154  1.00  0.00    -0.000 C 
BRANCH  14  15
ATOM     15  C   UNL     1      -6.104  12.257 -17.691  1.00  0.00    -0.000 C 
BRANCH  15  16
ATOM     16  C   UNL     1      -4.844  11.601 -18.287  1.00  0.00    -0.000 C 
BRANCH  16  17
ATOM     17  C   UNL     1      -4.741  11.682 -19.821  1.00  0.00    -0.003 C 
ATOM     18  C   UNL     1      -6.013  11.222 -20.531  1.00  0.00     0.004 C 
ENDBRANCH  16  17
ENDBRANCH  15  16
ENDBRANCH  14  15
ENDBRANCH  13  14
ENDBRANCH  12  13
ENDBRANCH  11  12
ENDBRANCH   1  11
TORSDOF 14
ENDMDL
MODEL 8
REMARK VINA RESULT:    -4.171      3.586      7.326
REMARK INTER + INTRA:          -9.159
REMARK INTER:                  -8.328
REMARK INTRA:                  -0.832
REMARK UNBOUND:                -1.574
REMARK SMILES CCCCCCCCCCCCCCCC(=O)[O-]
REMARK SMILES IDX 9 1 10 2 11 3 12 4 13 5 14 6 15 7 16 8 17 9 18 10 8 11 7 12
REMARK SMILES IDX 6 13 5 14 4 15 3 16 2 17 1 18
REMARK H PARENT
REMARK Flexibility Score: inf
ROOT
ATOM      1  C   UNL     1      -2.094  14.082 -16.037  1.00  0.00     0.000 C 
ENDROOT
BRANCH   1   2
ATOM      2  C   UNL     1      -2.492  13.017 -15.000  1.00  0.00     0.000 C 
BRANCH   2   3
ATOM      3  C   UNL     1      -4.014  12.928 -14.783  1.00  0.00     0.000 C 
BRANCH   3   4
ATOM      4  C   UNL     1      -4.764  11.984 -15.742  1.00  0.00     0.000 C 
BRANCH   4   5
ATOM      5  C   UNL     1      -5.743  12.723 -16.669  1.00  0.00     0.000 C 
BRANCH   5   6
ATOM      6  C   UNL     1      -6.126  11.892 -17.904  1.00  0.00     0.006 C 
BRANCH   6   7
ATOM      7  C   UNL     1      -5.001  11.828 -18.945  1.00  0.00     0.053 C 
BRANCH   7   8
ATOM      8  C   UNL     1      -5.501  11.218 -20.217  1.00  0.00     0.041 C 
ATOM      9  O   UNL     1      -4.699  10.657 -21.009  1.00  0.00    -0.550 OA
ATOM     10  O   UNL     1      -6.859  11.226 -20.505  1.00  0.00    -0.550 OA
ENDBRANCH   7   8
ENDBRANCH   6   7
ENDBRANCH   5   6
ENDBRANCH   4   5
ENDBRANCH   3   4
ENDBRANCH   2   3
ENDBRANCH   1   2
BRANCH   1  11
ATOM     11  C   UNL     1      -2.356  13.636 -17.488  1.00  0.00     0.000 C 
BRANCH  11  12
ATOM     12  C   UNL     1      -1.710  14.520 -18.571  1.00  0.00    -0.000 C 
BRANCH  12  13
ATOM     13  C   UNL     1      -0.818  15.628 -17.986  1.00  0.00    -0.000 C 
BRANCH  13  14
ATOM     14  C   UNL     1       0.469  15.839 -18.801  1.00  0.00    -0.000 C 
BRANCH  14  15
ATOM     15  C   UNL     1       0.753  17.325 -19.078  1.00  0.00    -0.000 C 
BRANCH  15  16
ATOM     16  C   UNL     1      -0.515  18.197 -19.013  1.00  0.00    -0.000 C 
BRANCH  16  17
ATOM     17  C   UNL     1      -0.336  19.633 -19.537  1.00  0.00    -0.003 C 
ATOM     18  C   UNL     1       0.760  19.752 -20.595  1.00  0.00     0.004 C 
ENDBRANCH  16  17
ENDBRANCH  15  16
ENDBRANCH  14  15
ENDBRANCH  13  14
ENDBRANCH  12  13
ENDBRANCH  11  12
ENDBRANCH   1  11
TORSDOF 14
ENDMDL
MODEL 9
REMARK VINA RESULT:    -4.075      1.267      3.785
REMARK INTER + INTRA:          -8.985
REMARK INTER:                  -7.823
REMARK INTRA:                  -1.162
REMARK UNBOUND:                -1.574
REMARK SMILES CCCCCCCCCCCCCCCC(=O)[O-]
REMARK SMILES IDX 9 1 10 2 11 3 12 4 13 5 14 6 15 7 16 8 17 9 18 10 8 11 7 12
REMARK SMILES IDX 6 13 5 14 4 15 3 16 2 17 1 18
REMARK H PARENT
REMARK Flexibility Score: inf
ROOT
ATOM      1  C   UNL     1      -1.982  13.741 -15.747  1.00  0.00     0.000 C 
ENDROOT
BRANCH   1   2
ATOM      2  C   UNL     1      -2.517  14.471 -16.992  1.00  0.00     0.000 C 
BRANCH   2   3
ATOM      3  C   UNL     1      -1.500  14.513 -18.148  1.00  0.00     0.000 C 
BRANCH   3   4
ATOM      4  C   UNL     1      -0.752  15.849 -18.320  1.00  0.00     0.000 C 
BRANCH   4   5
ATOM      5  C   UNL     1       0.667  15.675 -18.886  1.00  0.00     0.000 C 
BRANCH   5   6
ATOM      6  C   UNL     1       1.452  16.996 -18.923  1.00  0.00     0.006 C 
BRANCH   6   7
ATOM      7  C   UNL     1       1.338  17.715 -20.273  1.00  0.00     0.053 C 
BRANCH   7   8
ATOM      8  C   UNL     1       0.604  19.009 -20.114  1.00  0.00     0.041 C 
ATOM      9  O   UNL     1       0.599  19.853 -21.048  1.00  0.00    -0.550 OA
ATOM     10  O   UNL     1      -0.115  19.263 -18.954  1.00  0.00    -0.550 OA
ENDBRANCH   7   8
ENDBRANCH   6   7
ENDBRANCH   5   6
ENDBRANCH   4   5
ENDBRANCH   3   4
ENDBRANCH   2   3
ENDBRANCH   1   2
BRANCH   1  11
ATOM     11  C   UNL     1      -3.017  12.790 -15.118  1.00  0.00     0.000 C 
BRANCH  11  12
ATOM     12  C   UNL     1      -3.806  11.925 -16.119  1.00  0.00    -0.000 C 
BRANCH  12  13
ATOM     13  C   UNL     1      -2.989  10.738 -16.658  1.00  0.00    -0.000 C 
BRANCH  13  14
ATOM     14  C   UNL     1      -2.645  10.888 -18.148  1.00  0.00    -0.000 C 
BRANCH  14  15
ATOM     15  C   UNL     1      -3.617  11.825 -18.884  1.00  0.00    -0.000 C 
BRANCH  15  16
ATOM     16  C   UNL     1      -4.420  11.107 -19.985  1.00  0.00    -0.000 C 
BRANCH  16  17
ATOM     17  C   UNL     1      -5.948  11.161 -19.806  1.00  0.00    -0.003 C 
ATOM     18  C   UNL     1      -6.374  11.834 -18.502  1.00  0.00     0.004 C 
ENDBRANCH  16  17
ENDBRANCH  15  16
ENDBRANCH  14  15
ENDBRANCH  13  14
ENDBRANCH  12  13
ENDBRANCH  11  12
ENDBRANCH   1  11
TORSDOF 14
ENDMDL
