MODEL 1
REMARK VINA RESULT:    -4.002      0.000      0.000
REMARK INTER + INTRA:          -4.335
REMARK INTER:                  -4.236
REMARK INTRA:                  -0.099
REMARK UNBOUND:                -0.099
REMARK SMILES C=C(C)[C@@H]1CC=C(C)C(=O)C1
REMARK SMILES IDX 8 1 7 2 6 3 5 4 4 5 11 6 9 7 10 8 2 9 1 10 3 11
REMARK H PARENT
REMARK Flexibility Score: inf
ROOT
ATOM      1  C   UNL     1     133.968  53.007  26.020  1.00  0.00     0.048 C 
ATOM      2  C   UNL     1     134.334  52.772  24.581  1.00  0.00    -0.012 C 
ATOM      3  C   UNL     1     133.916  53.631  23.635  1.00  0.00    -0.019 C 
ATOM      4  C   UNL     1     134.269  53.453  22.183  1.00  0.00     0.036 C 
ATOM      5  C   UNL     1     134.386  51.961  21.818  1.00  0.00     0.025 C 
ATOM      6  C   UNL     1     135.389  51.260  22.752  1.00  0.00     0.089 C 
ATOM      7  C   UNL     1     135.049  51.530  24.192  1.00  0.00     0.158 C 
ATOM      8  O   UNL     1     135.410  50.705  25.073  1.00  0.00    -0.295 OA
ENDROOT
BRANCH   5   9
ATOM      9  C   UNL     1     134.762  51.772  20.356  1.00  0.00    -0.077 C 
ATOM     10  C   UNL     1     135.907  51.150  20.030  1.00  0.00     0.008 C 
ATOM     11  C   UNL     1     133.875  52.273  19.243  1.00  0.00     0.039 C 
ENDBRANCH   5   9
TORSDOF 1
ENDMDL
MODEL 2
REMARK VINA RESULT:    -3.652      1.577      2.275
REMARK INTER + INTRA:          -3.964
REMARK INTER:                  -3.865
REMARK INTRA:                  -0.098
REMARK UNBOUND:                -0.099
REMARK SMILES C=C(C)[C@@H]1CC=C(C)C(=O)C1
REMARK SMILES IDX 8 1 7 2 6 3 5 4 4 5 11 6 9 7 10 8 2 9 1 10 3 11
REMARK H PARENT
REMARK Flexibility Score: inf
ROOT
ATOM      1  C   UNL     1     134.570  53.010  26.320  1.00  0.00     0.048 C 
ATOM      2  C   UNL     1     134.583  52.383  24.953  1.00  0.00    -0.012 C 
ATOM      3  C   UNL     1     135.011  51.117  24.802  1.00  0.00    -0.019 C 
ATOM      4  C   UNL     1     135.027  50.435  23.460  1.00  0.00     0.036 C 
ATOM      5  C   UNL     1     135.303  51.443  22.328  1.00  0.00     0.025 C 
ATOM      6  C   UNL     1     134.287  52.599  22.382  1.00  0.00     0.089 C 
ATOM      7  C   UNL     1     134.242  53.199  23.761  1.00  0.00     0.158 C 
ATOM      8  O   UNL     1     133.875  54.396  23.898  1.00  0.00    -0.295 OA
ENDROOT
BRANCH   5   9
ATOM      9  C   UNL     1     135.301  50.765  20.966  1.00  0.00    -0.077 C 
ATOM     10  C   UNL     1     134.908  49.486  20.850  1.00  0.00     0.008 C 
ATOM     11  C   UNL     1     135.737  51.498  19.721  1.00  0.00     0.039 C 
ENDBRANCH   5   9
TORSDOF 1
ENDMDL
MODEL 3
REMARK VINA RESULT:    -3.650      1.632      4.345
REMARK INTER + INTRA:          -3.962
REMARK INTER:                  -3.868
REMARK INTRA:                  -0.094
REMARK UNBOUND:                -0.099
REMARK SMILES C=C(C)[C@@H]1CC=C(C)C(=O)C1
REMARK SMILES IDX 8 1 7 2 6 3 5 4 4 5 11 6 9 7 10 8 2 9 1 10 3 11
REMARK H PARENT
REMARK Flexibility Score: inf
ROOT
ATOM      1  C   UNL     1     134.133  52.295  19.647  1.00  0.00     0.048 C 
ATOM      2  C   UNL     1     134.193  52.105  21.137  1.00  0.00    -0.012 C 
ATOM      3  C   UNL     1     133.876  53.124  21.955  1.00  0.00    -0.019 C 
ATOM      4  C   UNL     1     133.900  52.983  23.453  1.00  0.00     0.036 C 
ATOM      5  C   UNL     1     134.998  52.000  23.900  1.00  0.00     0.025 C 
ATOM      6  C   UNL     1     134.823  50.644  23.190  1.00  0.00     0.089 C 
ATOM      7  C   UNL     1     134.720  50.837  21.701  1.00  0.00     0.158 C 
ATOM      8  O   UNL     1     135.052  49.893  20.936  1.00  0.00    -0.295 OA
ENDROOT
BRANCH   5   9
ATOM      9  C   UNL     1     135.018  51.835  25.413  1.00  0.00    -0.077 C 
ATOM     10  C   UNL     1     134.991  52.917  26.208  1.00  0.00     0.008 C 
ATOM     11  C   UNL     1     135.069  50.472  26.056  1.00  0.00     0.039 C 
ENDBRANCH   5   9
TORSDOF 1
ENDMDL
MODEL 4
REMARK VINA RESULT:    -3.580      1.900      4.767
REMARK INTER + INTRA:          -3.888
REMARK INTER:                  -3.790
REMARK INTRA:                  -0.098
REMARK UNBOUND:                -0.099
REMARK SMILES C=C(C)[C@@H]1CC=C(C)C(=O)C1
REMARK SMILES IDX 8 1 7 2 6 3 5 4 4 5 11 6 9 7 10 8 2 9 1 10 3 11
REMARK H PARENT
REMARK Flexibility Score: inf
ROOT
ATOM      1  C   UNL     1     134.197  51.872  20.171  1.00  0.00     0.048 C 
ATOM      2  C   UNL     1     134.582  51.857  21.624  1.00  0.00    -0.012 C 
ATOM      3  C   UNL     1     134.970  50.706  22.201  1.00  0.00    -0.019 C 
ATOM      4  C   UNL     1     135.385  50.638  23.647  1.00  0.00     0.036 C 
ATOM      5  C   UNL     1     134.603  51.658  24.497  1.00  0.00     0.025 C 
ATOM      6  C   UNL     1     134.760  53.073  23.912  1.00  0.00     0.089 C 
ATOM      7  C   UNL     1     134.415  53.081  22.447  1.00  0.00     0.158 C 
ATOM      8  O   UNL     1     134.018  54.152  21.916  1.00  0.00    -0.295 OA
ENDROOT
BRANCH   5   9
ATOM      9  C   UNL     1     135.029  51.610  25.957  1.00  0.00    -0.077 C 
ATOM     10  C   UNL     1     135.040  52.733  26.693  1.00  0.00     0.008 C 
ATOM     11  C   UNL     1     135.448  50.317  26.612  1.00  0.00     0.039 C 
ENDBRANCH   5   9
TORSDOF 1
ENDMDL
MODEL 5
REMARK VINA RESULT:    -3.565      1.514      2.318
REMARK INTER + INTRA:          -3.872
REMARK INTER:                  -3.783
REMARK INTRA:                  -0.089
REMARK UNBOUND:                -0.099
REMARK SMILES C=C(C)[C@@H]1CC=C(C)C(=O)C1
REMARK SMILES IDX 8 1 7 2 6 3 5 4 4 5 11 6 9 7 10 8 2 9 1 10 3 11
REMARK H PARENT
REMARK Flexibility Score: inf
ROOT
ATOM      1  C   UNL     1     135.172  50.061  26.590  1.00  0.00     0.048 C 
ATOM      2  C   UNL     1     134.959  50.480  25.162  1.00  0.00    -0.012 C 
ATOM      3  C   UNL     1     134.953  49.555  24.187  1.00  0.00    -0.019 C 
ATOM      4  C   UNL     1     134.726  49.918  22.744  1.00  0.00     0.036 C 
ATOM      5  C   UNL     1     135.295  51.313  22.426  1.00  0.00     0.025 C 
ATOM      6  C   UNL     1     134.708  52.361  23.390  1.00  0.00     0.089 C 
ATOM      7  C   UNL     1     134.881  51.922  24.818  1.00  0.00     0.158 C 
ATOM      8  O   UNL     1     134.923  52.793  25.727  1.00  0.00    -0.295 OA
ENDROOT
BRANCH   5   9
ATOM      9  C   UNL     1     135.052  51.697  20.973  1.00  0.00    -0.077 C 
ATOM     10  C   UNL     1     135.892  51.272  20.015  1.00  0.00     0.008 C 
ATOM     11  C   UNL     1     133.879  52.555  20.571  1.00  0.00     0.039 C 
ENDBRANCH   5   9
TORSDOF 1
ENDMDL
MODEL 6
REMARK VINA RESULT:    -3.266      1.516      1.929
REMARK INTER + INTRA:          -3.555
REMARK INTER:                  -3.461
REMARK INTRA:                  -0.095
REMARK UNBOUND:                -0.099
REMARK SMILES C=C(C)[C@@H]1CC=C(C)C(=O)C1
REMARK SMILES IDX 8 1 7 2 6 3 5 4 4 5 11 6 9 7 10 8 2 9 1 10 3 11
REMARK H PARENT
REMARK Flexibility Score: inf
ROOT
ATOM      1  C   UNL     1     134.845  52.826  26.995  1.00  0.00     0.048 C 
ATOM      2  C   UNL     1     134.995  52.172  25.650  1.00  0.00    -0.012 C 
ATOM      3  C   UNL     1     134.862  52.906  24.531  1.00  0.00    -0.019 C 
ATOM      4  C   UNL     1     135.020  52.306  23.159  1.00  0.00     0.036 C 
ATOM      5  C   UNL     1     134.547  50.840  23.136  1.00  0.00     0.025 C 
ATOM      6  C   UNL     1     135.280  50.025  24.217  1.00  0.00     0.089 C 
ATOM      7  C   UNL     1     135.167  50.700  25.557  1.00  0.00     0.158 C 
ATOM      8  O   UNL     1     135.257  50.006  26.604  1.00  0.00    -0.295 OA
ENDROOT
BRANCH   5   9
ATOM      9  C   UNL     1     134.722  50.220  21.758  1.00  0.00    -0.077 C 
ATOM     10  C   UNL     1     134.255  48.985  21.511  1.00  0.00     0.008 C 
ATOM     11  C   UNL     1     135.417  50.961  20.643  1.00  0.00     0.039 C 
ENDBRANCH   5   9
TORSDOF 1
ENDMDL
MODEL 7
REMARK VINA RESULT:    -2.968      5.114      7.431
REMARK INTER + INTRA:          -3.240
REMARK INTER:                  -3.143
REMARK INTRA:                  -0.097
REMARK UNBOUND:                -0.099
REMARK SMILES C=C(C)[C@@H]1CC=C(C)C(=O)C1
REMARK SMILES IDX 8 1 7 2 6 3 5 4 4 5 11 6 9 7 10 8 2 9 1 10 3 11
REMARK H PARENT
REMARK Flexibility Score: inf
ROOT
ATOM      1  C   UNL     1     133.890  56.415  32.053  1.00  0.00     0.048 C 
ATOM      2  C   UNL     1     134.028  55.418  30.936  1.00  0.00    -0.012 C 
ATOM      3  C   UNL     1     134.248  54.122  31.220  1.00  0.00    -0.019 C 
ATOM      4  C   UNL     1     134.376  53.079  30.142  1.00  0.00     0.036 C 
ATOM      5  C   UNL     1     135.015  53.670  28.871  1.00  0.00     0.025 C 
ATOM      6  C   UNL     1     134.223  54.903  28.398  1.00  0.00     0.089 C 
ATOM      7  C   UNL     1     134.046  55.883  29.527  1.00  0.00     0.158 C 
ATOM      8  O   UNL     1     133.876  57.102  29.260  1.00  0.00    -0.295 OA
ENDROOT
BRANCH   5   9
ATOM      9  C   UNL     1     135.130  52.627  27.769  1.00  0.00    -0.077 C 
ATOM     10  C   UNL     1     135.351  53.010  26.500  1.00  0.00     0.008 C 
ATOM     11  C   UNL     1     134.999  51.154  28.062  1.00  0.00     0.039 C 
ENDBRANCH   5   9
TORSDOF 1
ENDMDL
MODEL 8
REMARK VINA RESULT:    -2.950      2.166      4.370
REMARK INTER + INTRA:          -3.221
REMARK INTER:                  -3.128
REMARK INTRA:                  -0.093
REMARK UNBOUND:                -0.099
REMARK SMILES C=C(C)[C@@H]1CC=C(C)C(=O)C1
REMARK SMILES IDX 8 1 7 2 6 3 5 4 4 5 11 6 9 7 10 8 2 9 1 10 3 11
REMARK H PARENT
REMARK Flexibility Score: inf
ROOT
ATOM      1  C   UNL     1     134.036  53.404  21.466  1.00  0.00     0.048 C 
ATOM      2  C   UNL     1     134.277  52.459  22.610  1.00  0.00    -0.012 C 
ATOM      3  C   UNL     1     134.382  52.938  23.862  1.00  0.00    -0.019 C 
ATOM      4  C   UNL     1     134.605  52.035  25.046  1.00  0.00     0.036 C 
ATOM      5  C   UNL     1     135.450  50.807  24.656  1.00  0.00     0.025 C 
ATOM      6  C   UNL     1     134.801  50.066  23.472  1.00  0.00     0.089 C 
ATOM      7  C   UNL     1     134.521  51.019  22.342  1.00  0.00     0.158 C 
ATOM      8  O   UNL     1     134.457  50.574  21.166  1.00  0.00    -0.295 OA
ENDROOT
BRANCH   5   9
ATOM      9  C   UNL     1     135.663  49.878  25.843  1.00  0.00    -0.077 C 
ATOM     10  C   UNL     1     136.552  48.875  25.762  1.00  0.00     0.008 C 
ATOM     11  C   UNL     1     134.892  50.053  27.128  1.00  0.00     0.039 C 
ENDBRANCH   5   9
TORSDOF 1
ENDMDL
MODEL 9
REMARK VINA RESULT:    -2.867      2.144      5.572
REMARK INTER + INTRA:          -3.134
REMARK INTER:                  -3.037
REMARK INTRA:                  -0.097
REMARK UNBOUND:                -0.099
REMARK SMILES C=C(C)[C@@H]1CC=C(C)C(=O)C1
REMARK SMILES IDX 8 1 7 2 6 3 5 4 4 5 11 6 9 7 10 8 2 9 1 10 3 11
REMARK H PARENT
REMARK Flexibility Score: inf
ROOT
ATOM      1  C   UNL     1     134.986  50.746  22.953  1.00  0.00     0.048 C 
ATOM      2  C   UNL     1     134.890  51.233  24.372  1.00  0.00    -0.012 C 
ATOM      3  C   UNL     1     134.418  52.466  24.625  1.00  0.00    -0.019 C 
ATOM      4  C   UNL     1     134.282  52.996  26.028  1.00  0.00     0.036 C 
ATOM      5  C   UNL     1     135.384  52.430  26.944  1.00  0.00     0.025 C 
ATOM      6  C   UNL     1     135.376  50.890  26.900  1.00  0.00     0.089 C 
ATOM      7  C   UNL     1     135.430  50.402  25.478  1.00  0.00     0.158 C 
ATOM      8  O   UNL     1     135.905  49.261  25.238  1.00  0.00    -0.295 OA
ENDROOT
BRANCH   5   9
ATOM      9  C   UNL     1     135.243  52.945  28.369  1.00  0.00    -0.077 C 
ATOM     10  C   UNL     1     134.298  52.440  29.178  1.00  0.00     0.008 C 
ATOM     11  C   UNL     1     136.148  54.025  28.908  1.00  0.00     0.039 C 
ENDBRANCH   5   9
TORSDOF 1
ENDMDL
