MODEL 1
REMARK VINA RESULT:    -5.609      0.000      0.000
REMARK INTER + INTRA:          -6.954
REMARK INTER:                  -6.757
REMARK INTRA:                  -0.197
REMARK UNBOUND:                -0.197
REMARK SMILES O=c1c(O)c(-c2ccc(O)c(O)c2)oc2cc(O)cc(O)c12
REMARK SMILES IDX 5 1 3 2 2 3 1 4 22 5 20 6 19 7 17 8 16 9 15 10 14 11 6 12
REMARK SMILES IDX 7 13 8 14 9 15 13 16 11 17 10 18 12 20 4 22 21 24 18 26
REMARK H PARENT 10 19 12 21 4 23 21 25 18 27
REMARK Flexibility Score: inf
ROOT
ATOM      1  C   UNL     1      -6.758 -13.439 -19.621  1.00  0.00     0.180 A 
ATOM      2  C   UNL     1      -5.466 -13.218 -20.136  1.00  0.00     0.208 A 
ATOM      3  C   UNL     1      -4.917 -11.929 -20.059  1.00  0.00     0.238 A 
ATOM      4  O   UNL     1      -3.756 -11.721 -20.508  1.00  0.00    -0.285 OA
ATOM      5  C   UNL     1      -5.671 -10.882 -19.489  1.00  0.00     0.111 A 
ATOM      6  C   UNL     1      -5.192  -9.554 -19.376  1.00  0.00     0.134 A 
ATOM      7  C   UNL     1      -6.007  -8.567 -18.804  1.00  0.00     0.093 A 
ATOM      8  C   UNL     1      -7.288  -8.879 -18.344  1.00  0.00     0.123 A 
ATOM      9  C   UNL     1      -7.767 -10.189 -18.452  1.00  0.00     0.094 A 
ATOM     10  C   UNL     1      -6.969 -11.188 -19.018  1.00  0.00     0.146 A 
ATOM     11  O   UNL     1      -7.446 -12.424 -19.103  1.00  0.00    -0.452 OA
ENDROOT
BRANCH   1  12
ATOM     12  C   UNL     1      -7.398 -14.773 -19.649  1.00  0.00     0.025 A 
ATOM     13  C   UNL     1      -8.581 -14.956 -20.383  1.00  0.00     0.016 A 
ATOM     14  C   UNL     1      -9.214 -16.202 -20.406  1.00  0.00     0.051 A 
ATOM     15  C   UNL     1      -8.682 -17.278 -19.684  1.00  0.00     0.157 A 
ATOM     16  C   UNL     1      -6.878 -15.851 -18.909  1.00  0.00     0.062 A 
ATOM     17  C   UNL     1      -7.514 -17.101 -18.931  1.00  0.00     0.158 A 
BRANCH  15  18
ATOM     18  O   UNL     1      -9.308 -18.522 -19.706  1.00  0.00    -0.504 OA
ATOM     19  H   UNL     1      -8.780 -19.382 -19.616  1.00  0.00     0.293 HD
ENDBRANCH  15  18
BRANCH  17  20
ATOM     20  O   UNL     1      -6.995 -18.170 -18.202  1.00  0.00    -0.504 OA
ATOM     21  H   UNL     1      -6.618 -18.991 -18.661  1.00  0.00     0.293 HD
ENDBRANCH  17  20
ENDBRANCH   1  12
BRANCH   2  22
ATOM     22  O   UNL     1      -4.760 -14.260 -20.741  1.00  0.00    -0.502 OA
ATOM     23  H   UNL     1      -4.636 -15.161 -20.295  1.00  0.00     0.293 HD
ENDBRANCH   2  22
BRANCH   6  24
ATOM     24  O   UNL     1      -3.916  -9.210 -19.826  1.00  0.00    -0.507 OA
ATOM     25  H   UNL     1      -3.482  -8.329 -19.576  1.00  0.00     0.293 HD
ENDBRANCH   6  24
BRANCH   8  26
ATOM     26  O   UNL     1      -8.078  -7.879 -17.781  1.00  0.00    -0.508 OA
ATOM     27  H   UNL     1      -9.012  -7.687 -18.122  1.00  0.00     0.293 HD
ENDBRANCH   8  26
TORSDOF 6
ENDMDL
MODEL 2
REMARK VINA RESULT:    -5.116      1.773      3.403
REMARK INTER + INTRA:          -6.360
REMARK INTER:                  -6.142
REMARK INTRA:                  -0.217
REMARK UNBOUND:                -0.197
REMARK SMILES O=c1c(O)c(-c2ccc(O)c(O)c2)oc2cc(O)cc(O)c12
REMARK SMILES IDX 5 1 3 2 2 3 1 4 22 5 20 6 19 7 17 8 16 9 15 10 14 11 6 12
REMARK SMILES IDX 7 13 8 14 9 15 13 16 11 17 10 18 12 20 4 22 21 24 18 26
REMARK H PARENT 10 19 12 21 4 23 21 25 18 27
REMARK Flexibility Score: inf
ROOT
ATOM      1  C   UNL     1      -7.992 -14.442 -18.932  1.00  0.00     0.180 A 
ATOM      2  C   UNL     1      -8.774 -13.300 -18.669  1.00  0.00     0.208 A 
ATOM      3  C   UNL     1      -8.204 -12.031 -18.855  1.00  0.00     0.238 A 
ATOM      4  O   UNL     1      -8.897 -11.000 -18.633  1.00  0.00    -0.285 OA
ATOM      5  C   UNL     1      -6.862 -11.924 -19.279  1.00  0.00     0.111 A 
ATOM      6  C   UNL     1      -6.212 -10.683 -19.486  1.00  0.00     0.134 A 
ATOM      7  C   UNL     1      -4.872 -10.661 -19.899  1.00  0.00     0.093 A 
ATOM      8  C   UNL     1      -4.171 -11.850 -20.109  1.00  0.00     0.123 A 
ATOM      9  C   UNL     1      -4.809 -13.079 -19.906  1.00  0.00     0.094 A 
ATOM     10  C   UNL     1      -6.143 -13.123 -19.495  1.00  0.00     0.146 A 
ATOM     11  O   UNL     1      -6.726 -14.303 -19.316  1.00  0.00    -0.452 OA
ENDROOT
BRANCH   1  12
ATOM     12  C   UNL     1      -8.528 -15.813 -18.777  1.00  0.00     0.025 A 
ATOM     13  C   UNL     1      -8.805 -16.578 -19.922  1.00  0.00     0.016 A 
ATOM     14  C   UNL     1      -9.331 -17.868 -19.801  1.00  0.00     0.051 A 
ATOM     15  C   UNL     1      -9.602 -18.404 -18.535  1.00  0.00     0.157 A 
ATOM     16  C   UNL     1      -8.820 -16.348 -17.510  1.00  0.00     0.062 A 
ATOM     17  C   UNL     1      -9.350 -17.641 -17.388  1.00  0.00     0.158 A 
BRANCH  15  18
ATOM     18  O   UNL     1     -10.125 -19.689 -18.409  1.00  0.00    -0.504 OA
ATOM     19  H   UNL     1     -10.632 -20.131 -19.168  1.00  0.00     0.293 HD
ENDBRANCH  15  18
BRANCH  17  20
ATOM     20  O   UNL     1      -9.634 -18.171 -16.131  1.00  0.00    -0.504 OA
ATOM     21  H   UNL     1     -10.551 -18.074 -15.709  1.00  0.00     0.293 HD
ENDBRANCH  17  20
ENDBRANCH   1  12
BRANCH   2  22
ATOM     22  O   UNL     1     -10.084 -13.433 -18.202  1.00  0.00    -0.502 OA
ATOM     23  H   UNL     1     -10.297 -13.808 -17.286  1.00  0.00     0.293 HD
ENDBRANCH   2  22
BRANCH   6  24
ATOM     24  O   UNL     1      -6.885  -9.477 -19.285  1.00  0.00    -0.507 OA
ATOM     25  H   UNL     1      -7.432  -9.304 -18.449  1.00  0.00     0.293 HD
ENDBRANCH   6  24
BRANCH   8  26
ATOM     26  O   UNL     1      -2.841 -11.800 -20.519  1.00  0.00    -0.508 OA
ATOM     27  H   UNL     1      -2.498 -12.380 -21.275  1.00  0.00     0.293 HD
ENDBRANCH   8  26
TORSDOF 6
ENDMDL
MODEL 3
REMARK VINA RESULT:    -4.925      1.733      2.017
REMARK INTER + INTRA:          -6.130
REMARK INTER:                  -5.978
REMARK INTRA:                  -0.153
REMARK UNBOUND:                -0.197
REMARK SMILES O=c1c(O)c(-c2ccc(O)c(O)c2)oc2cc(O)cc(O)c12
REMARK SMILES IDX 5 1 3 2 2 3 1 4 22 5 20 6 19 7 17 8 16 9 15 10 14 11 6 12
REMARK SMILES IDX 7 13 8 14 9 15 13 16 11 17 10 18 12 20 4 22 21 24 18 26
REMARK H PARENT 10 19 12 21 4 23 21 25 18 27
REMARK Flexibility Score: inf
ROOT
ATOM      1  C   UNL     1      -8.131 -14.192 -18.793  1.00  0.00     0.180 A 
ATOM      2  C   UNL     1      -6.835 -13.895 -19.258  1.00  0.00     0.208 A 
ATOM      3  C   UNL     1      -6.423 -12.554 -19.306  1.00  0.00     0.238 A 
ATOM      4  O   UNL     1      -5.261 -12.277 -19.711  1.00  0.00    -0.285 OA
ATOM      5  C   UNL     1      -7.314 -11.536 -18.910  1.00  0.00     0.111 A 
ATOM      6  C   UNL     1      -6.978 -10.160 -18.932  1.00  0.00     0.134 A 
ATOM      7  C   UNL     1      -7.924  -9.206 -18.530  1.00  0.00     0.093 A 
ATOM      8  C   UNL     1      -9.197  -9.599 -18.109  1.00  0.00     0.123 A 
ATOM      9  C   UNL     1      -9.534 -10.956 -18.084  1.00  0.00     0.094 A 
ATOM     10  C   UNL     1      -8.605 -11.922 -18.479  1.00  0.00     0.146 A 
ATOM     11  O   UNL     1      -8.950 -13.204 -18.441  1.00  0.00    -0.452 OA
ENDROOT
BRANCH   1  12
ATOM     12  C   UNL     1      -8.632 -15.582 -18.695  1.00  0.00     0.025 A 
ATOM     13  C   UNL     1      -8.817 -16.332 -19.867  1.00  0.00     0.016 A 
ATOM     14  C   UNL     1      -9.309 -17.639 -19.801  1.00  0.00     0.051 A 
ATOM     15  C   UNL     1      -9.637 -18.208 -18.563  1.00  0.00     0.157 A 
ATOM     16  C   UNL     1      -8.981 -16.150 -17.457  1.00  0.00     0.062 A 
ATOM     17  C   UNL     1      -9.476 -17.460 -17.389  1.00  0.00     0.158 A 
BRANCH  15  18
ATOM     18  O   UNL     1     -10.125 -19.510 -18.492  1.00  0.00    -0.504 OA
ATOM     19  H   UNL     1     -10.521 -19.973 -19.302  1.00  0.00     0.293 HD
ENDBRANCH  15  18
BRANCH  17  20
ATOM     20  O   UNL     1      -9.817 -18.024 -16.161  1.00  0.00    -0.504 OA
ATOM     21  H   UNL     1     -10.089 -17.450 -15.371  1.00  0.00     0.293 HD
ENDBRANCH  17  20
ENDBRANCH   1  12
BRANCH   2  22
ATOM     22  O   UNL     1      -5.989 -14.919 -19.692  1.00  0.00    -0.502 OA
ATOM     23  H   UNL     1      -6.287 -15.886 -19.734  1.00  0.00     0.293 HD
ENDBRANCH   2  22
BRANCH   6  24
ATOM     24  O   UNL     1      -5.716  -9.736 -19.349  1.00  0.00    -0.507 OA
ATOM     25  H   UNL     1      -4.874 -10.242 -19.100  1.00  0.00     0.293 HD
ENDBRANCH   6  24
BRANCH   8  26
ATOM     26  O   UNL     1     -10.119  -8.631 -17.715  1.00  0.00    -0.508 OA
ATOM     27  H   UNL     1     -11.062  -8.879 -17.442  1.00  0.00     0.293 HD
ENDBRANCH   8  26
TORSDOF 6
ENDMDL
MODEL 4
REMARK VINA RESULT:    -4.722      1.686      7.186
REMARK INTER + INTRA:          -5.886
REMARK INTER:                  -5.635
REMARK INTRA:                  -0.251
REMARK UNBOUND:                -0.197
REMARK SMILES O=c1c(O)c(-c2ccc(O)c(O)c2)oc2cc(O)cc(O)c12
REMARK SMILES IDX 5 1 3 2 2 3 1 4 22 5 20 6 19 7 17 8 16 9 15 10 14 11 6 12
REMARK SMILES IDX 7 13 8 14 9 15 13 16 11 17 10 18 12 20 4 22 21 24 18 26
REMARK H PARENT 10 19 12 21 4 23 21 25 18 27
REMARK Flexibility Score: inf
ROOT
ATOM      1  C   UNL     1      -7.059 -14.255 -19.224  1.00  0.00     0.180 A 
ATOM      2  C   UNL     1      -8.105 -14.508 -20.133  1.00  0.00     0.208 A 
ATOM      3  C   UNL     1      -8.794 -15.728 -20.050  1.00  0.00     0.238 A 
ATOM      4  O   UNL     1      -9.740 -15.963 -20.852  1.00  0.00    -0.285 OA
ATOM      5  C   UNL     1      -8.416 -16.679 -19.079  1.00  0.00     0.111 A 
ATOM      6  C   UNL     1      -9.056 -17.934 -18.933  1.00  0.00     0.134 A 
ATOM      7  C   UNL     1      -8.615 -18.828 -17.947  1.00  0.00     0.093 A 
ATOM      8  C   UNL     1      -7.549 -18.496 -17.109  1.00  0.00     0.123 A 
ATOM      9  C   UNL     1      -6.913 -17.258 -17.248  1.00  0.00     0.094 A 
ATOM     10  C   UNL     1      -7.338 -16.351 -18.223  1.00  0.00     0.146 A 
ATOM     11  O   UNL     1      -6.721 -15.181 -18.331  1.00  0.00    -0.452 OA
ENDROOT
BRANCH   1  12
ATOM     12  C   UNL     1      -6.299 -12.985 -19.236  1.00  0.00     0.025 A 
ATOM     13  C   UNL     1      -6.907 -11.812 -18.760  1.00  0.00     0.016 A 
ATOM     14  C   UNL     1      -6.216 -10.598 -18.781  1.00  0.00     0.051 A 
ATOM     15  C   UNL     1      -4.913 -10.536 -19.293  1.00  0.00     0.157 A 
ATOM     16  C   UNL     1      -4.998 -12.914 -19.767  1.00  0.00     0.062 A 
ATOM     17  C   UNL     1      -4.305 -11.696 -19.790  1.00  0.00     0.158 A 
BRANCH  15  18
ATOM     18  O   UNL     1      -4.219  -9.328 -19.314  1.00  0.00    -0.504 OA
ATOM     19  H   UNL     1      -4.467  -8.564 -18.696  1.00  0.00     0.293 HD
ENDBRANCH  15  18
BRANCH  17  20
ATOM     20  O   UNL     1      -3.014 -11.628 -20.311  1.00  0.00    -0.504 OA
ATOM     21  H   UNL     1      -2.473 -12.465 -20.500  1.00  0.00     0.293 HD
ENDBRANCH  17  20
ENDBRANCH   1  12
BRANCH   2  22
ATOM     22  O   UNL     1      -8.427 -13.571 -21.118  1.00  0.00    -0.502 OA
ATOM     23  H   UNL     1      -8.926 -13.823 -21.963  1.00  0.00     0.293 HD
ENDBRANCH   2  22
BRANCH   6  24
ATOM     24  O   UNL     1     -10.124 -18.296 -19.755  1.00  0.00    -0.507 OA
ATOM     25  H   UNL     1     -10.643 -17.609 -20.289  1.00  0.00     0.293 HD
ENDBRANCH   6  24
BRANCH   8  26
ATOM     26  O   UNL     1      -7.129 -19.403 -16.138  1.00  0.00    -0.508 OA
ATOM     27  H   UNL     1      -6.693 -20.282 -16.389  1.00  0.00     0.293 HD
ENDBRANCH   8  26
TORSDOF 6
ENDMDL
MODEL 5
REMARK VINA RESULT:    -4.175      1.956      2.849
REMARK INTER + INTRA:          -5.226
REMARK INTER:                  -5.148
REMARK INTRA:                  -0.078
REMARK UNBOUND:                -0.197
REMARK SMILES O=c1c(O)c(-c2ccc(O)c(O)c2)oc2cc(O)cc(O)c12
REMARK SMILES IDX 5 1 3 2 2 3 1 4 22 5 20 6 19 7 17 8 16 9 15 10 14 11 6 12
REMARK SMILES IDX 7 13 8 14 9 15 13 16 11 17 10 18 12 20 4 22 21 24 18 26
REMARK H PARENT 10 19 12 21 4 23 21 25 18 27
REMARK Flexibility Score: inf
ROOT
ATOM      1  C   UNL     1      -8.050 -13.020 -19.182  1.00  0.00     0.180 A 
ATOM      2  C   UNL     1      -8.992 -12.385 -20.016  1.00  0.00     0.208 A 
ATOM      3  C   UNL     1      -8.786 -11.043 -20.370  1.00  0.00     0.238 A 
ATOM      4  O   UNL     1      -9.617 -10.466 -21.125  1.00  0.00    -0.285 OA
ATOM      5  C   UNL     1      -7.660 -10.354 -19.873  1.00  0.00     0.111 A 
ATOM      6  C   UNL     1      -7.382  -9.000 -20.179  1.00  0.00     0.134 A 
ATOM      7  C   UNL     1      -6.245  -8.383 -19.638  1.00  0.00     0.093 A 
ATOM      8  C   UNL     1      -5.383  -9.091 -18.797  1.00  0.00     0.123 A 
ATOM      9  C   UNL     1      -5.652 -10.429 -18.492  1.00  0.00     0.094 A 
ATOM     10  C   UNL     1      -6.779 -11.062 -19.022  1.00  0.00     0.146 A 
ATOM     11  O   UNL     1      -7.008 -12.335 -18.721  1.00  0.00    -0.452 OA
ENDROOT
BRANCH   1  12
ATOM     12  C   UNL     1      -8.187 -14.438 -18.780  1.00  0.00     0.025 A 
ATOM     13  C   UNL     1      -9.327 -14.846 -18.068  1.00  0.00     0.016 A 
ATOM     14  C   UNL     1      -9.468 -16.175 -17.659  1.00  0.00     0.051 A 
ATOM     15  C   UNL     1      -8.465 -17.111 -17.942  1.00  0.00     0.157 A 
ATOM     16  C   UNL     1      -7.174 -15.377 -19.044  1.00  0.00     0.062 A 
ATOM     17  C   UNL     1      -7.314 -16.710 -18.633  1.00  0.00     0.158 A 
BRANCH  15  18
ATOM     18  O   UNL     1      -8.602 -18.437 -17.539  1.00  0.00    -0.504 OA
ATOM     19  H   UNL     1      -8.442 -18.718 -16.578  1.00  0.00     0.293 HD
ENDBRANCH  15  18
BRANCH  17  20
ATOM     20  O   UNL     1      -6.312 -17.641 -18.901  1.00  0.00    -0.504 OA
ATOM     21  H   UNL     1      -5.535 -17.781 -18.265  1.00  0.00     0.293 HD
ENDBRANCH  17  20
ENDBRANCH   1  12
BRANCH   2  22
ATOM     22  O   UNL     1     -10.125 -13.074 -20.454  1.00  0.00    -0.502 OA
ATOM     23  H   UNL     1     -10.595 -13.764 -19.880  1.00  0.00     0.293 HD
ENDBRANCH   2  22
BRANCH   6  24
ATOM     24  O   UNL     1      -8.225  -8.265 -21.016  1.00  0.00    -0.507 OA
ATOM     25  H   UNL     1      -8.745  -7.464 -20.678  1.00  0.00     0.293 HD
ENDBRANCH   6  24
BRANCH   8  26
ATOM     26  O   UNL     1      -4.260  -8.455 -18.272  1.00  0.00    -0.508 OA
ATOM     27  H   UNL     1      -4.261  -8.067 -17.336  1.00  0.00     0.293 HD
ENDBRANCH   8  26
TORSDOF 6
ENDMDL
MODEL 6
REMARK VINA RESULT:    -3.644      1.825      6.984
REMARK INTER + INTRA:          -4.586
REMARK INTER:                  -5.098
REMARK INTRA:                   0.511
REMARK UNBOUND:                -0.197
REMARK SMILES O=c1c(O)c(-c2ccc(O)c(O)c2)oc2cc(O)cc(O)c12
REMARK SMILES IDX 5 1 3 2 2 3 1 4 22 5 20 6 19 7 17 8 16 9 15 10 14 11 6 12
REMARK SMILES IDX 7 13 8 14 9 15 13 16 11 17 10 18 12 20 4 22 21 24 18 26
REMARK H PARENT 10 19 12 21 4 23 21 25 18 27
REMARK Flexibility Score: inf
ROOT
ATOM      1  C   UNL     1      -6.092 -12.025 -19.381  1.00  0.00     0.180 A 
ATOM      2  C   UNL     1      -7.350 -11.591 -18.920  1.00  0.00     0.208 A 
ATOM      3  C   UNL     1      -8.289 -12.549 -18.508  1.00  0.00     0.238 A 
ATOM      4  O   UNL     1      -9.416 -12.172 -18.083  1.00  0.00    -0.285 OA
ATOM      5  C   UNL     1      -7.965 -13.920 -18.581  1.00  0.00     0.111 A 
ATOM      6  C   UNL     1      -8.856 -14.949 -18.189  1.00  0.00     0.134 A 
ATOM      7  C   UNL     1      -8.462 -16.290 -18.301  1.00  0.00     0.093 A 
ATOM      8  C   UNL     1      -7.199 -16.623 -18.796  1.00  0.00     0.123 A 
ATOM      9  C   UNL     1      -6.314 -15.611 -19.184  1.00  0.00     0.094 A 
ATOM     10  C   UNL     1      -6.688 -14.268 -19.080  1.00  0.00     0.146 A 
ATOM     11  O   UNL     1      -5.827 -13.327 -19.450  1.00  0.00    -0.452 OA
ENDROOT
BRANCH   1  12
ATOM     12  C   UNL     1      -5.043 -11.075 -19.815  1.00  0.00     0.025 A 
ATOM     13  C   UNL     1      -5.376  -9.727 -20.018  1.00  0.00     0.016 A 
ATOM     14  C   UNL     1      -4.407  -8.816 -20.449  1.00  0.00     0.051 A 
ATOM     15  C   UNL     1      -3.096  -9.244 -20.696  1.00  0.00     0.157 A 
ATOM     16  C   UNL     1      -3.731 -11.504 -20.083  1.00  0.00     0.062 A 
ATOM     17  C   UNL     1      -2.758 -10.592 -20.516  1.00  0.00     0.158 A 
BRANCH  15  18
ATOM     18  O   UNL     1      -2.126  -8.339 -21.122  1.00  0.00    -0.504 OA
ATOM     19  H   UNL     1      -1.137  -8.533 -21.014  1.00  0.00     0.293 HD
ENDBRANCH  15  18
BRANCH  17  20
ATOM     20  O   UNL     1      -1.457 -11.017 -20.777  1.00  0.00    -0.504 OA
ATOM     21  H   UNL     1      -0.869 -11.404 -20.047  1.00  0.00     0.293 HD
ENDBRANCH  17  20
ENDBRANCH   1  12
BRANCH   2  22
ATOM     22  O   UNL     1      -7.665 -10.230 -18.904  1.00  0.00    -0.502 OA
ATOM     23  H   UNL     1      -7.560  -9.659 -18.074  1.00  0.00     0.293 HD
ENDBRANCH   2  22
BRANCH   6  24
ATOM     24  O   UNL     1     -10.125 -14.649 -17.691  1.00  0.00    -0.507 OA
ATOM     25  H   UNL     1     -10.957 -14.738 -18.263  1.00  0.00     0.293 HD
ENDBRANCH   6  24
BRANCH   8  26
ATOM     26  O   UNL     1      -6.832 -17.963 -18.898  1.00  0.00    -0.508 OA
ATOM     27  H   UNL     1      -7.519 -18.688 -19.068  1.00  0.00     0.293 HD
ENDBRANCH   8  26
TORSDOF 6
ENDMDL
MODEL 7
REMARK VINA RESULT:    -3.202      2.212      6.728
REMARK INTER + INTRA:          -4.055
REMARK INTER:                  -3.741
REMARK INTRA:                  -0.313
REMARK UNBOUND:                -0.197
REMARK SMILES O=c1c(O)c(-c2ccc(O)c(O)c2)oc2cc(O)cc(O)c12
REMARK SMILES IDX 5 1 3 2 2 3 1 4 22 5 20 6 19 7 17 8 16 9 15 10 14 11 6 12
REMARK SMILES IDX 7 13 8 14 9 15 13 16 11 17 10 18 12 20 4 22 21 24 18 26
REMARK H PARENT 10 19 12 21 4 23 21 25 18 27
REMARK Flexibility Score: inf
ROOT
ATOM      1  C   UNL     1      -8.317 -13.224 -18.998  1.00  0.00     0.180 A 
ATOM      2  C   UNL     1      -7.116 -13.688 -19.570  1.00  0.00     0.208 A 
ATOM      3  C   UNL     1      -6.746 -15.028 -19.377  1.00  0.00     0.238 A 
ATOM      4  O   UNL     1      -5.678 -15.458 -19.893  1.00  0.00    -0.285 OA
ATOM      5  C   UNL     1      -7.567 -15.874 -18.601  1.00  0.00     0.111 A 
ATOM      6  C   UNL     1      -7.263 -17.235 -18.355  1.00  0.00     0.134 A 
ATOM      7  C   UNL     1      -8.127 -18.008 -17.566  1.00  0.00     0.093 A 
ATOM      8  C   UNL     1      -9.284 -17.449 -17.018  1.00  0.00     0.123 A 
ATOM      9  C   UNL     1      -9.590 -16.105 -17.259  1.00  0.00     0.094 A 
ATOM     10  C   UNL     1      -8.743 -15.318 -18.044  1.00  0.00     0.146 A 
ATOM     11  O   UNL     1      -9.059 -14.047 -18.261  1.00  0.00    -0.452 OA
ENDROOT
BRANCH   1  12
ATOM     12  C   UNL     1      -8.785 -11.831 -19.174  1.00  0.00     0.025 A 
ATOM     13  C   UNL     1      -9.673 -11.528 -20.218  1.00  0.00     0.016 A 
ATOM     14  C   UNL     1     -10.111 -10.215 -20.416  1.00  0.00     0.051 A 
ATOM     15  C   UNL     1      -9.655  -9.186 -19.582  1.00  0.00     0.157 A 
ATOM     16  C   UNL     1      -8.314 -10.791 -18.352  1.00  0.00     0.062 A 
ATOM     17  C   UNL     1      -8.752  -9.474 -18.551  1.00  0.00     0.158 A 
BRANCH  15  18
ATOM     18  O   UNL     1     -10.091  -7.876 -19.774  1.00  0.00    -0.504 OA
ATOM     19  H   UNL     1      -9.806  -7.127 -19.154  1.00  0.00     0.293 HD
ENDBRANCH  15  18
BRANCH  17  20
ATOM     20  O   UNL     1      -8.289  -8.444 -17.733  1.00  0.00    -0.504 OA
ATOM     21  H   UNL     1      -8.186  -8.568 -16.732  1.00  0.00     0.293 HD
ENDBRANCH  17  20
ENDBRANCH   1  12
BRANCH   2  22
ATOM     22  O   UNL     1      -6.296 -12.817 -20.292  1.00  0.00    -0.502 OA
ATOM     23  H   UNL     1      -6.550 -11.852 -20.465  1.00  0.00     0.293 HD
ENDBRANCH   2  22
BRANCH   6  24
ATOM     24  O   UNL     1      -6.115 -17.822 -18.887  1.00  0.00    -0.507 OA
ATOM     25  H   UNL     1      -6.156 -18.671 -19.439  1.00  0.00     0.293 HD
ENDBRANCH   6  24
BRANCH   8  26
ATOM     26  O   UNL     1     -10.125 -18.239 -16.237  1.00  0.00    -0.508 OA
ATOM     27  H   UNL     1     -10.890 -17.836 -15.709  1.00  0.00     0.293 HD
ENDBRANCH   8  26
TORSDOF 6
ENDMDL
