MODEL 1
REMARK VINA RESULT:    -4.579      0.000      0.000
REMARK INTER + INTRA:         -13.834
REMARK INTER:                  -9.932
REMARK INTRA:                  -3.902
REMARK UNBOUND:                -3.902
REMARK SMILES CCCCCCCCCCCCCCCCCCCCCC(=O)[O-]
REMARK SMILES IDX 12 1 11 2 10 3 9 4 8 5 7 6 6 7 5 8 4 9 3 10 2 11 1 12 13 13
REMARK SMILES IDX 14 14 15 15 16 16 17 17 18 18 19 19 20 20 21 21 22 22 23 23
REMARK SMILES IDX 24 24
REMARK H PARENT
REMARK Flexibility Score: inf
ROOT
ATOM      1  C   UNL     1      44.302  32.963  17.479  1.00  0.00     0.000 C 
ENDROOT
BRANCH   1   2
ATOM      2  C   UNL     1      43.191  32.103  16.853  1.00  0.00     0.000 C 
BRANCH   2   3
ATOM      3  C   UNL     1      42.695  32.658  15.505  1.00  0.00     0.000 C 
BRANCH   3   4
ATOM      4  C   UNL     1      42.811  31.686  14.312  1.00  0.00    -0.000 C 
BRANCH   4   5
ATOM      5  C   UNL     1      43.335  30.278  14.661  1.00  0.00    -0.000 C 
BRANCH   5   6
ATOM      6  C   UNL     1      44.659  29.894  13.980  1.00  0.00    -0.000 C 
BRANCH   6   7
ATOM      7  C   UNL     1      45.481  31.120  13.543  1.00  0.00    -0.000 C 
BRANCH   7   8
ATOM      8  C   UNL     1      46.743  31.321  14.396  1.00  0.00    -0.000 C 
BRANCH   8   9
ATOM      9  C   UNL     1      46.896  30.245  15.485  1.00  0.00    -0.000 C 
BRANCH   9  10
ATOM     10  C   UNL     1      47.348  30.828  16.833  1.00  0.00    -0.000 C 
BRANCH  10  11
ATOM     11  C   UNL     1      46.688  30.131  18.032  1.00  0.00    -0.003 C 
ATOM     12  C   UNL     1      45.509  29.271  17.586  1.00  0.00     0.004 C 
ENDBRANCH  10  11
ENDBRANCH   9  10
ENDBRANCH   8   9
ENDBRANCH   7   8
ENDBRANCH   6   7
ENDBRANCH   5   6
ENDBRANCH   4   5
ENDBRANCH   3   4
ENDBRANCH   2   3
ENDBRANCH   1   2
BRANCH   1  13
ATOM     13  C   UNL     1      45.080  33.789  16.438  1.00  0.00     0.000 C 
BRANCH  13  14
ATOM     14  C   UNL     1      46.340  34.498  16.969  1.00  0.00     0.000 C 
BRANCH  14  15
ATOM     15  C   UNL     1      47.002  35.411  15.926  1.00  0.00     0.000 C 
BRANCH  15  16
ATOM     16  C   UNL     1      46.719  34.911  14.501  1.00  0.00     0.000 C 
BRANCH  16  17
ATOM     17  C   UNL     1      47.488  35.697  13.425  1.00  0.00     0.000 C 
BRANCH  17  18
ATOM     18  C   UNL     1      46.862  35.662  12.018  1.00  0.00     0.000 C 
BRANCH  18  19
ATOM     19  C   UNL     1      46.262  34.291  11.663  1.00  0.00     0.000 C 
BRANCH  19  20
ATOM     20  C   UNL     1      47.005  33.604  10.507  1.00  0.00     0.006 C 
BRANCH  20  21
ATOM     21  C   UNL     1      48.327  32.962  10.952  1.00  0.00     0.053 C 
BRANCH  21  22
ATOM     22  C   UNL     1      48.279  31.480  10.751  1.00  0.00     0.041 C 
ATOM     23  O   UNL     1      47.172  30.892  10.635  1.00  0.00    -0.550 OA
ATOM     24  O   UNL     1      49.456  30.741  10.744  1.00  0.00    -0.550 OA
ENDBRANCH  21  22
ENDBRANCH  20  21
ENDBRANCH  19  20
ENDBRANCH  18  19
ENDBRANCH  17  18
ENDBRANCH  16  17
ENDBRANCH  15  16
ENDBRANCH  14  15
ENDBRANCH  13  14
ENDBRANCH   1  13
TORSDOF 20
ENDMDL
MODEL 2
REMARK VINA RESULT:    -4.381      2.299      5.548
REMARK INTER + INTRA:         -13.405
REMARK INTER:                  -9.353
REMARK INTRA:                  -4.052
REMARK UNBOUND:                -3.902
REMARK SMILES CCCCCCCCCCCCCCCCCCCCCC(=O)[O-]
REMARK SMILES IDX 12 1 11 2 10 3 9 4 8 5 7 6 6 7 5 8 4 9 3 10 2 11 1 12 13 13
REMARK SMILES IDX 14 14 15 15 16 16 17 17 18 18 19 19 20 20 21 21 22 22 23 23
REMARK SMILES IDX 24 24
REMARK H PARENT
REMARK Flexibility Score: inf
ROOT
ATOM      1  C   UNL     1      43.831  32.069  17.148  1.00  0.00     0.000 C 
ENDROOT
BRANCH   1   2
ATOM      2  C   UNL     1      44.475  33.458  17.006  1.00  0.00     0.000 C 
BRANCH   2   3
ATOM      3  C   UNL     1      45.467  33.775  18.140  1.00  0.00     0.000 C 
BRANCH   3   4
ATOM      4  C   UNL     1      46.901  34.114  17.684  1.00  0.00    -0.000 C 
BRANCH   4   5
ATOM      5  C   UNL     1      47.082  35.517  17.071  1.00  0.00    -0.000 C 
BRANCH   5   6
ATOM      6  C   UNL     1      47.108  35.553  15.533  1.00  0.00    -0.000 C 
BRANCH   6   7
ATOM      7  C   UNL     1      48.457  35.096  14.950  1.00  0.00    -0.000 C 
BRANCH   7   8
ATOM      8  C   UNL     1      48.452  35.044  13.415  1.00  0.00    -0.000 C 
BRANCH   8   9
ATOM      9  C   UNL     1      47.221  35.740  12.806  1.00  0.00    -0.000 C 
BRANCH   9  10
ATOM     10  C   UNL     1      46.893  35.230  11.394  1.00  0.00    -0.000 C 
BRANCH  10  11
ATOM     11  C   UNL     1      47.803  34.073  10.955  1.00  0.00    -0.003 C 
ATOM     12  C   UNL     1      46.994  32.958  10.298  1.00  0.00     0.004 C 
ENDBRANCH  10  11
ENDBRANCH   9  10
ENDBRANCH   8   9
ENDBRANCH   7   8
ENDBRANCH   6   7
ENDBRANCH   5   6
ENDBRANCH   4   5
ENDBRANCH   3   4
ENDBRANCH   2   3
ENDBRANCH   1   2
BRANCH   1  13
ATOM     13  C   UNL     1      44.718  31.073  17.919  1.00  0.00     0.000 C 
BRANCH  13  14
ATOM     14  C   UNL     1      45.233  29.878  17.095  1.00  0.00     0.000 C 
BRANCH  14  15
ATOM     15  C   UNL     1      46.752  29.677  17.211  1.00  0.00     0.000 C 
BRANCH  15  16
ATOM     16  C   UNL     1      47.450  29.984  15.878  1.00  0.00     0.000 C 
BRANCH  16  17
ATOM     17  C   UNL     1      47.320  31.458  15.456  1.00  0.00     0.000 C 
BRANCH  17  18
ATOM     18  C   UNL     1      47.022  31.687  13.962  1.00  0.00     0.000 C 
BRANCH  18  19
ATOM     19  C   UNL     1      45.720  32.470  13.724  1.00  0.00     0.000 C 
BRANCH  19  20
ATOM     20  C   UNL     1      44.689  31.669  12.914  1.00  0.00     0.006 C 
BRANCH  20  21
ATOM     21  C   UNL     1      44.370  30.306  13.546  1.00  0.00     0.053 C 
BRANCH  21  22
ATOM     22  C   UNL     1      42.926  30.235  13.931  1.00  0.00     0.041 C 
ATOM     23  O   UNL     1      42.302  31.282  14.244  1.00  0.00    -0.550 OA
ATOM     24  O   UNL     1      42.282  29.006  13.991  1.00  0.00    -0.550 OA
ENDBRANCH  21  22
ENDBRANCH  20  21
ENDBRANCH  19  20
ENDBRANCH  18  19
ENDBRANCH  17  18
ENDBRANCH  16  17
ENDBRANCH  15  16
ENDBRANCH  14  15
ENDBRANCH  13  14
ENDBRANCH   1  13
TORSDOF 20
ENDMDL
MODEL 3
REMARK VINA RESULT:    -4.316      3.408      6.802
REMARK INTER + INTRA:         -13.265
REMARK INTER:                  -9.721
REMARK INTRA:                  -3.545
REMARK UNBOUND:                -3.902
REMARK SMILES CCCCCCCCCCCCCCCCCCCCCC(=O)[O-]
REMARK SMILES IDX 12 1 11 2 10 3 9 4 8 5 7 6 6 7 5 8 4 9 3 10 2 11 1 12 13 13
REMARK SMILES IDX 14 14 15 15 16 16 17 17 18 18 19 19 20 20 21 21 22 22 23 23
REMARK SMILES IDX 24 24
REMARK H PARENT
REMARK Flexibility Score: inf
ROOT
ATOM      1  C   UNL     1      42.527  33.333  16.031  1.00  0.00     0.000 C 
ENDROOT
BRANCH   1   2
ATOM      2  C   UNL     1      43.216  32.447  17.083  1.00  0.00     0.000 C 
BRANCH   2   3
ATOM      3  C   UNL     1      44.633  32.934  17.438  1.00  0.00     0.000 C 
BRANCH   3   4
ATOM      4  C   UNL     1      45.209  34.016  16.502  1.00  0.00    -0.000 C 
BRANCH   4   5
ATOM      5  C   UNL     1      46.079  33.487  15.344  1.00  0.00    -0.000 C 
BRANCH   5   6
ATOM      6  C   UNL     1      45.754  34.087  13.965  1.00  0.00    -0.000 C 
BRANCH   6   7
ATOM      7  C   UNL     1      46.877  34.995  13.432  1.00  0.00    -0.000 C 
BRANCH   7   8
ATOM      8  C   UNL     1      46.536  35.622  12.072  1.00  0.00    -0.000 C 
BRANCH   8   9
ATOM      9  C   UNL     1      46.609  34.605  10.920  1.00  0.00    -0.000 C 
BRANCH   9  10
ATOM     10  C   UNL     1      47.953  33.861  10.872  1.00  0.00    -0.000 C 
BRANCH  10  11
ATOM     11  C   UNL     1      47.787  32.349  10.659  1.00  0.00    -0.003 C 
ATOM     12  C   UNL     1      46.341  31.918  10.889  1.00  0.00     0.004 C 
ENDBRANCH  10  11
ENDBRANCH   9  10
ENDBRANCH   8   9
ENDBRANCH   7   8
ENDBRANCH   6   7
ENDBRANCH   5   6
ENDBRANCH   4   5
ENDBRANCH   3   4
ENDBRANCH   2   3
ENDBRANCH   1   2
BRANCH   1  13
ATOM     13  C   UNL     1      42.272  32.598  14.702  1.00  0.00     0.000 C 
BRANCH  13  14
ATOM     14  C   UNL     1      42.809  31.156  14.634  1.00  0.00     0.000 C 
BRANCH  14  15
ATOM     15  C   UNL     1      43.865  30.958  13.536  1.00  0.00     0.000 C 
BRANCH  15  16
ATOM     16  C   UNL     1      44.974  30.006  14.008  1.00  0.00     0.000 C 
BRANCH  16  17
ATOM     17  C   UNL     1      44.999  29.821  15.535  1.00  0.00     0.000 C 
BRANCH  17  18
ATOM     18  C   UNL     1      46.396  29.895  16.180  1.00  0.00     0.000 C 
BRANCH  18  19
ATOM     19  C   UNL     1      46.378  29.582  17.685  1.00  0.00     0.000 C 
BRANCH  19  20
ATOM     20  C   UNL     1      45.040  28.986  18.148  1.00  0.00     0.006 C 
BRANCH  20  21
ATOM     21  C   UNL     1      44.414  29.768  19.312  1.00  0.00     0.053 C 
BRANCH  21  22
ATOM     22  C   UNL     1      44.729  29.104  20.615  1.00  0.00     0.041 C 
ATOM     23  O   UNL     1      43.822  28.517  21.262  1.00  0.00    -0.550 OA
ATOM     24  O   UNL     1      46.013  29.174  21.139  1.00  0.00    -0.550 OA
ENDBRANCH  21  22
ENDBRANCH  20  21
ENDBRANCH  19  20
ENDBRANCH  18  19
ENDBRANCH  17  18
ENDBRANCH  16  17
ENDBRANCH  15  16
ENDBRANCH  14  15
ENDBRANCH  13  14
ENDBRANCH   1  13
TORSDOF 20
ENDMDL
MODEL 4
REMARK VINA RESULT:    -4.311      6.252      9.400
REMARK INTER + INTRA:         -13.254
REMARK INTER:                 -11.329
REMARK INTRA:                  -1.925
REMARK UNBOUND:                -3.902
REMARK SMILES CCCCCCCCCCCCCCCCCCCCCC(=O)[O-]
REMARK SMILES IDX 12 1 11 2 10 3 9 4 8 5 7 6 6 7 5 8 4 9 3 10 2 11 1 12 13 13
REMARK SMILES IDX 14 14 15 15 16 16 17 17 18 18 19 19 20 20 21 21 22 22 23 23
REMARK SMILES IDX 24 24
REMARK H PARENT
REMARK Flexibility Score: inf
ROOT
ATOM      1  C   UNL     1      46.053  24.040  19.414  1.00  0.00     0.000 C 
ENDROOT
BRANCH   1   2
ATOM      2  C   UNL     1      46.659  22.819  20.126  1.00  0.00     0.000 C 
BRANCH   2   3
ATOM      3  C   UNL     1      45.885  22.425  21.398  1.00  0.00     0.000 C 
BRANCH   3   4
ATOM      4  C   UNL     1      45.165  21.063  21.333  1.00  0.00    -0.000 C 
BRANCH   4   5
ATOM      5  C   UNL     1      43.662  21.129  20.995  1.00  0.00    -0.000 C 
BRANCH   5   6
ATOM      6  C   UNL     1      42.971  22.450  21.377  1.00  0.00    -0.000 C 
BRANCH   6   7
ATOM      7  C   UNL     1      41.927  22.897  20.339  1.00  0.00    -0.000 C 
BRANCH   7   8
ATOM      8  C   UNL     1      42.509  22.998  18.920  1.00  0.00    -0.000 C 
BRANCH   8   9
ATOM      9  C   UNL     1      41.671  22.227  17.884  1.00  0.00    -0.000 C 
BRANCH   9  10
ATOM     10  C   UNL     1      40.339  22.925  17.565  1.00  0.00    -0.000 C 
BRANCH  10  11
ATOM     11  C   UNL     1      39.243  21.939  17.133  1.00  0.00    -0.003 C 
ATOM     12  C   UNL     1      37.858  22.566  17.267  1.00  0.00     0.004 C 
ENDBRANCH  10  11
ENDBRANCH   9  10
ENDBRANCH   8   9
ENDBRANCH   7   8
ENDBRANCH   6   7
ENDBRANCH   5   6
ENDBRANCH   4   5
ENDBRANCH   3   4
ENDBRANCH   2   3
ENDBRANCH   1   2
BRANCH   1  13
ATOM     13  C   UNL     1      45.358  25.016  20.381  1.00  0.00     0.000 C 
BRANCH  13  14
ATOM     14  C   UNL     1      44.485  26.094  19.712  1.00  0.00     0.000 C 
BRANCH  14  15
ATOM     15  C   UNL     1      45.073  27.508  19.839  1.00  0.00     0.000 C 
BRANCH  15  16
ATOM     16  C   UNL     1      46.143  27.756  18.766  1.00  0.00     0.000 C 
BRANCH  16  17
ATOM     17  C   UNL     1      46.141  29.200  18.236  1.00  0.00     0.000 C 
BRANCH  17  18
ATOM     18  C   UNL     1      44.995  29.538  17.265  1.00  0.00     0.000 C 
BRANCH  18  19
ATOM     19  C   UNL     1      45.442  30.441  16.103  1.00  0.00     0.000 C 
BRANCH  19  20
ATOM     20  C   UNL     1      45.208  29.793  14.729  1.00  0.00     0.006 C 
BRANCH  20  21
ATOM     21  C   UNL     1      44.446  30.711  13.763  1.00  0.00     0.053 C 
BRANCH  21  22
ATOM     22  C   UNL     1      42.975  30.638  14.027  1.00  0.00     0.041 C 
ATOM     23  O   UNL     1      42.358  31.647  14.459  1.00  0.00    -0.550 OA
ATOM     24  O   UNL     1      42.294  29.441  13.842  1.00  0.00    -0.550 OA
ENDBRANCH  21  22
ENDBRANCH  20  21
ENDBRANCH  19  20
ENDBRANCH  18  19
ENDBRANCH  17  18
ENDBRANCH  16  17
ENDBRANCH  15  16
ENDBRANCH  14  15
ENDBRANCH  13  14
ENDBRANCH   1  13
TORSDOF 20
ENDMDL
MODEL 5
REMARK VINA RESULT:    -4.296      3.208      5.873
REMARK INTER + INTRA:         -13.220
REMARK INTER:                  -9.746
REMARK INTRA:                  -3.474
REMARK UNBOUND:                -3.902
REMARK SMILES CCCCCCCCCCCCCCCCCCCCCC(=O)[O-]
REMARK SMILES IDX 12 1 11 2 10 3 9 4 8 5 7 6 6 7 5 8 4 9 3 10 2 11 1 12 13 13
REMARK SMILES IDX 14 14 15 15 16 16 17 17 18 18 19 19 20 20 21 21 22 22 23 23
REMARK SMILES IDX 24 24
REMARK H PARENT
REMARK Flexibility Score: inf
ROOT
ATOM      1  C   UNL     1      44.604  33.347  16.825  1.00  0.00     0.000 C 
ENDROOT
BRANCH   1   2
ATOM      2  C   UNL     1      43.305  32.539  16.678  1.00  0.00     0.000 C 
BRANCH   2   3
ATOM      3  C   UNL     1      42.594  32.789  15.335  1.00  0.00     0.000 C 
BRANCH   3   4
ATOM      4  C   UNL     1      42.478  31.558  14.413  1.00  0.00    -0.000 C 
BRANCH   4   5
ATOM      5  C   UNL     1      43.492  30.431  14.692  1.00  0.00    -0.000 C 
BRANCH   5   6
ATOM      6  C   UNL     1      44.442  30.112  13.524  1.00  0.00    -0.000 C 
BRANCH   6   7
ATOM      7  C   UNL     1      44.602  31.292  12.549  1.00  0.00    -0.000 C 
BRANCH   7   8
ATOM      8  C   UNL     1      46.066  31.727  12.381  1.00  0.00    -0.000 C 
BRANCH   8   9
ATOM      9  C   UNL     1      46.348  32.321  10.990  1.00  0.00    -0.000 C 
BRANCH   9  10
ATOM     10  C   UNL     1      46.900  33.754  11.060  1.00  0.00    -0.000 C 
BRANCH  10  11
ATOM     11  C   UNL     1      45.954  34.718  11.791  1.00  0.00    -0.003 C 
ATOM     12  C   UNL     1      46.086  36.136  11.243  1.00  0.00     0.004 C 
ENDBRANCH  10  11
ENDBRANCH   9  10
ENDBRANCH   8   9
ENDBRANCH   7   8
ENDBRANCH   6   7
ENDBRANCH   5   6
ENDBRANCH   4   5
ENDBRANCH   3   4
ENDBRANCH   2   3
ENDBRANCH   1   2
BRANCH   1  13
ATOM     13  C   UNL     1      45.215  33.754  15.471  1.00  0.00     0.000 C 
BRANCH  13  14
ATOM     14  C   UNL     1      46.598  34.427  15.550  1.00  0.00     0.000 C 
BRANCH  14  15
ATOM     15  C   UNL     1      47.731  33.536  15.019  1.00  0.00     0.000 C 
BRANCH  15  16
ATOM     16  C   UNL     1      48.160  32.506  16.074  1.00  0.00     0.000 C 
BRANCH  16  17
ATOM     17  C   UNL     1      48.364  31.096  15.491  1.00  0.00     0.000 C 
BRANCH  17  18
ATOM     18  C   UNL     1      47.195  30.120  15.718  1.00  0.00     0.000 C 
BRANCH  18  19
ATOM     19  C   UNL     1      46.432  30.393  17.026  1.00  0.00     0.000 C 
BRANCH  19  20
ATOM     20  C   UNL     1      45.425  29.282  17.364  1.00  0.00     0.006 C 
BRANCH  20  21
ATOM     21  C   UNL     1      45.897  28.386  18.517  1.00  0.00     0.053 C 
BRANCH  21  22
ATOM     22  C   UNL     1      44.726  27.891  19.306  1.00  0.00     0.041 C 
ATOM     23  O   UNL     1      44.484  26.657  19.375  1.00  0.00    -0.550 OA
ATOM     24  O   UNL     1      43.871  28.795  19.923  1.00  0.00    -0.550 OA
ENDBRANCH  21  22
ENDBRANCH  20  21
ENDBRANCH  19  20
ENDBRANCH  18  19
ENDBRANCH  17  18
ENDBRANCH  16  17
ENDBRANCH  15  16
ENDBRANCH  14  15
ENDBRANCH  13  14
ENDBRANCH   1  13
TORSDOF 20
ENDMDL
MODEL 6
REMARK VINA RESULT:    -4.294      1.456      3.780
REMARK INTER + INTRA:         -13.217
REMARK INTER:                  -9.374
REMARK INTRA:                  -3.843
REMARK UNBOUND:                -3.902
REMARK SMILES CCCCCCCCCCCCCCCCCCCCCC(=O)[O-]
REMARK SMILES IDX 12 1 11 2 10 3 9 4 8 5 7 6 6 7 5 8 4 9 3 10 2 11 1 12 13 13
REMARK SMILES IDX 14 14 15 15 16 16 17 17 18 18 19 19 20 20 21 21 22 22 23 23
REMARK SMILES IDX 24 24
REMARK H PARENT
REMARK Flexibility Score: inf
ROOT
ATOM      1  C   UNL     1      46.007  32.159  12.337  1.00  0.00     0.000 C 
ENDROOT
BRANCH   1   2
ATOM      2  C   UNL     1      44.636  31.495  12.545  1.00  0.00     0.000 C 
BRANCH   2   3
ATOM      3  C   UNL     1      44.739  30.103  13.194  1.00  0.00     0.000 C 
BRANCH   3   4
ATOM      4  C   UNL     1      43.898  29.911  14.473  1.00  0.00    -0.000 C 
BRANCH   4   5
ATOM      5  C   UNL     1      44.694  29.936  15.793  1.00  0.00    -0.000 C 
BRANCH   5   6
ATOM      6  C   UNL     1      46.223  29.971  15.626  1.00  0.00    -0.000 C 
BRANCH   6   7
ATOM      7  C   UNL     1      46.800  31.395  15.726  1.00  0.00    -0.000 C 
BRANCH   7   8
ATOM      8  C   UNL     1      46.326  32.138  16.985  1.00  0.00    -0.000 C 
BRANCH   8   9
ATOM      9  C   UNL     1      45.777  33.541  16.669  1.00  0.00    -0.000 C 
BRANCH   9  10
ATOM     10  C   UNL     1      44.580  33.504  15.706  1.00  0.00    -0.000 C 
BRANCH  10  11
ATOM     11  C   UNL     1      43.241  33.306  16.432  1.00  0.00    -0.003 C 
ATOM     12  C   UNL     1      42.125  32.974  15.444  1.00  0.00     0.004 C 
ENDBRANCH  10  11
ENDBRANCH   9  10
ENDBRANCH   8   9
ENDBRANCH   7   8
ENDBRANCH   6   7
ENDBRANCH   5   6
ENDBRANCH   4   5
ENDBRANCH   3   4
ENDBRANCH   2   3
ENDBRANCH   1   2
BRANCH   1  13
ATOM     13  C   UNL     1      46.359  32.357  10.850  1.00  0.00     0.000 C 
BRANCH  13  14
ATOM     14  C   UNL     1      47.017  33.706  10.505  1.00  0.00     0.000 C 
BRANCH  14  15
ATOM     15  C   UNL     1      46.308  34.905  11.153  1.00  0.00     0.000 C 
BRANCH  15  16
ATOM     16  C   UNL     1      47.327  35.896  11.734  1.00  0.00     0.000 C 
BRANCH  16  17
ATOM     17  C   UNL     1      48.578  35.207  12.308  1.00  0.00     0.000 C 
BRANCH  17  18
ATOM     18  C   UNL     1      48.422  34.656  13.738  1.00  0.00     0.000 C 
BRANCH  18  19
ATOM     19  C   UNL     1      49.211  33.356  13.968  1.00  0.00     0.000 C 
BRANCH  19  20
ATOM     20  C   UNL     1      49.835  32.808  12.675  1.00  0.00     0.006 C 
BRANCH  20  21
ATOM     21  C   UNL     1      49.570  31.309  12.479  1.00  0.00     0.053 C 
BRANCH  21  22
ATOM     22  C   UNL     1      49.959  30.887  11.097  1.00  0.00     0.041 C 
ATOM     23  O   UNL     1      49.111  30.349  10.337  1.00  0.00    -0.550 OA
ATOM     24  O   UNL     1      51.270  31.041  10.666  1.00  0.00    -0.550 OA
ENDBRANCH  21  22
ENDBRANCH  20  21
ENDBRANCH  19  20
ENDBRANCH  18  19
ENDBRANCH  17  18
ENDBRANCH  16  17
ENDBRANCH  15  16
ENDBRANCH  14  15
ENDBRANCH  13  14
ENDBRANCH   1  13
TORSDOF 20
ENDMDL
MODEL 7
REMARK VINA RESULT:    -4.287      6.879     11.159
REMARK INTER + INTRA:         -13.202
REMARK INTER:                  -9.480
REMARK INTRA:                  -3.722
REMARK UNBOUND:                -3.902
REMARK SMILES CCCCCCCCCCCCCCCCCCCCCC(=O)[O-]
REMARK SMILES IDX 12 1 11 2 10 3 9 4 8 5 7 6 6 7 5 8 4 9 3 10 2 11 1 12 13 13
REMARK SMILES IDX 14 14 15 15 16 16 17 17 18 18 19 19 20 20 21 21 22 22 23 23
REMARK SMILES IDX 24 24
REMARK H PARENT
REMARK Flexibility Score: inf
ROOT
ATOM      1  C   UNL     1      46.258  23.971  19.109  1.00  0.00     0.000 C 
ENDROOT
BRANCH   1   2
ATOM      2  C   UNL     1      45.295  25.107  19.492  1.00  0.00     0.000 C 
BRANCH   2   3
ATOM      3  C   UNL     1      45.437  25.540  20.963  1.00  0.00     0.000 C 
BRANCH   3   4
ATOM      4  C   UNL     1      44.765  26.881  21.321  1.00  0.00    -0.000 C 
BRANCH   4   5
ATOM      5  C   UNL     1      43.749  27.404  20.285  1.00  0.00    -0.000 C 
BRANCH   5   6
ATOM      6  C   UNL     1      43.548  28.929  20.289  1.00  0.00    -0.000 C 
BRANCH   6   7
ATOM      7  C   UNL     1      44.777  29.691  19.761  1.00  0.00    -0.000 C 
BRANCH   7   8
ATOM      8  C   UNL     1      45.139  29.306  18.319  1.00  0.00    -0.000 C 
BRANCH   8   9
ATOM      9  C   UNL     1      46.409  28.441  18.241  1.00  0.00    -0.000 C 
BRANCH   9  10
ATOM     10  C   UNL     1      47.360  28.680  19.425  1.00  0.00    -0.000 C 
BRANCH  10  11
ATOM     11  C   UNL     1      48.313  27.500  19.667  1.00  0.00    -0.003 C 
ATOM     12  C   UNL     1      48.627  26.771  18.363  1.00  0.00     0.004 C 
ENDBRANCH  10  11
ENDBRANCH   9  10
ENDBRANCH   8   9
ENDBRANCH   7   8
ENDBRANCH   6   7
ENDBRANCH   5   6
ENDBRANCH   4   5
ENDBRANCH   3   4
ENDBRANCH   2   3
ENDBRANCH   1   2
BRANCH   1  13
ATOM     13  C   UNL     1      46.984  23.364  20.324  1.00  0.00     0.000 C 
BRANCH  13  14
ATOM     14  C   UNL     1      46.593  21.914  20.665  1.00  0.00     0.000 C 
BRANCH  14  15
ATOM     15  C   UNL     1      45.591  21.818  21.826  1.00  0.00     0.000 C 
BRANCH  15  16
ATOM     16  C   UNL     1      44.380  20.958  21.435  1.00  0.00     0.000 C 
BRANCH  16  17
ATOM     17  C   UNL     1      43.216  21.785  20.859  1.00  0.00     0.000 C 
BRANCH  17  18
ATOM     18  C   UNL     1      42.709  22.921  21.767  1.00  0.00     0.000 C 
BRANCH  18  19
ATOM     19  C   UNL     1      41.994  24.037  20.987  1.00  0.00     0.000 C 
BRANCH  19  20
ATOM     20  C   UNL     1      41.829  23.702  19.497  1.00  0.00     0.006 C 
BRANCH  20  21
ATOM     21  C   UNL     1      40.371  23.801  19.026  1.00  0.00     0.053 C 
BRANCH  21  22
ATOM     22  C   UNL     1      40.193  23.082  17.726  1.00  0.00     0.041 C 
ATOM     23  O   UNL     1      41.041  22.230  17.352  1.00  0.00    -0.550 OA
ATOM     24  O   UNL     1      39.117  23.389  16.903  1.00  0.00    -0.550 OA
ENDBRANCH  21  22
ENDBRANCH  20  21
ENDBRANCH  19  20
ENDBRANCH  18  19
ENDBRANCH  17  18
ENDBRANCH  16  17
ENDBRANCH  15  16
ENDBRANCH  14  15
ENDBRANCH  13  14
ENDBRANCH   1  13
TORSDOF 20
ENDMDL
MODEL 8
REMARK VINA RESULT:    -4.234      1.574      3.553
REMARK INTER + INTRA:         -13.086
REMARK INTER:                  -9.045
REMARK INTRA:                  -4.041
REMARK UNBOUND:                -3.902
REMARK SMILES CCCCCCCCCCCCCCCCCCCCCC(=O)[O-]
REMARK SMILES IDX 12 1 11 2 10 3 9 4 8 5 7 6 6 7 5 8 4 9 3 10 2 11 1 12 13 13
REMARK SMILES IDX 14 14 15 15 16 16 17 17 18 18 19 19 20 20 21 21 22 22 23 23
REMARK SMILES IDX 24 24
REMARK H PARENT
REMARK Flexibility Score: inf
ROOT
ATOM      1  C   UNL     1      48.414  33.201  14.611  1.00  0.00     0.000 C 
ENDROOT
BRANCH   1   2
ATOM      2  C   UNL     1      47.016  32.684  14.231  1.00  0.00     0.000 C 
BRANCH   2   3
ATOM      3  C   UNL     1      46.836  31.182  14.523  1.00  0.00     0.000 C 
BRANCH   3   4
ATOM      4  C   UNL     1      45.415  30.632  14.280  1.00  0.00    -0.000 C 
BRANCH   4   5
ATOM      5  C   UNL     1      44.379  31.673  13.812  1.00  0.00    -0.000 C 
BRANCH   5   6
ATOM      6  C   UNL     1      43.080  31.708  14.635  1.00  0.00    -0.000 C 
BRANCH   6   7
ATOM      7  C   UNL     1      43.051  32.863  15.652  1.00  0.00    -0.000 C 
BRANCH   7   8
ATOM      8  C   UNL     1      43.481  32.423  17.060  1.00  0.00    -0.000 C 
BRANCH   8   9
ATOM      9  C   UNL     1      44.940  32.799  17.375  1.00  0.00    -0.000 C 
BRANCH   9  10
ATOM     10  C   UNL     1      45.346  34.150  16.767  1.00  0.00    -0.000 C 
BRANCH  10  11
ATOM     11  C   UNL     1      46.512  34.811  17.518  1.00  0.00    -0.003 C 
ATOM     12  C   UNL     1      47.360  33.769  18.242  1.00  0.00     0.004 C 
ENDBRANCH  10  11
ENDBRANCH   9  10
ENDBRANCH   8   9
ENDBRANCH   7   8
ENDBRANCH   6   7
ENDBRANCH   5   6
ENDBRANCH   4   5
ENDBRANCH   3   4
ENDBRANCH   2   3
ENDBRANCH   1   2
BRANCH   1  13
ATOM     13  C   UNL     1      48.812  34.474  13.841  1.00  0.00     0.000 C 
BRANCH  13  14
ATOM     14  C   UNL     1      47.674  35.486  13.611  1.00  0.00     0.000 C 
BRANCH  14  15
ATOM     15  C   UNL     1      47.804  36.246  12.283  1.00  0.00     0.000 C 
BRANCH  15  16
ATOM     16  C   UNL     1      46.521  36.115  11.448  1.00  0.00     0.000 C 
BRANCH  16  17
ATOM     17  C   UNL     1      46.008  34.667  11.355  1.00  0.00     0.000 C 
BRANCH  17  18
ATOM     18  C   UNL     1      46.889  33.714  10.527  1.00  0.00     0.000 C 
BRANCH  18  19
ATOM     19  C   UNL     1      46.460  32.242  10.651  1.00  0.00     0.000 C 
BRANCH  19  20
ATOM     20  C   UNL     1      47.651  31.296  10.872  1.00  0.00     0.006 C 
BRANCH  20  21
ATOM     21  C   UNL     1      49.001  32.025  10.829  1.00  0.00     0.053 C 
BRANCH  21  22
ATOM     22  C   UNL     1      50.068  31.183  11.455  1.00  0.00     0.041 C 
ATOM     23  O   UNL     1      51.120  30.917  10.817  1.00  0.00    -0.550 OA
ATOM     24  O   UNL     1      49.879  30.651  12.724  1.00  0.00    -0.550 OA
ENDBRANCH  21  22
ENDBRANCH  20  21
ENDBRANCH  19  20
ENDBRANCH  18  19
ENDBRANCH  17  18
ENDBRANCH  16  17
ENDBRANCH  15  16
ENDBRANCH  14  15
ENDBRANCH  13  14
ENDBRANCH   1  13
TORSDOF 20
ENDMDL
MODEL 9
REMARK VINA RESULT:    -4.203      1.474      3.553
REMARK INTER + INTRA:         -13.018
REMARK INTER:                  -8.939
REMARK INTRA:                  -4.079
REMARK UNBOUND:                -3.902
REMARK SMILES CCCCCCCCCCCCCCCCCCCCCC(=O)[O-]
REMARK SMILES IDX 12 1 11 2 10 3 9 4 8 5 7 6 6 7 5 8 4 9 3 10 2 11 1 12 13 13
REMARK SMILES IDX 14 14 15 15 16 16 17 17 18 18 19 19 20 20 21 21 22 22 23 23
REMARK SMILES IDX 24 24
REMARK H PARENT
REMARK Flexibility Score: inf
ROOT
ATOM      1  C   UNL     1      45.506  31.249  13.277  1.00  0.00     0.000 C 
ENDROOT
BRANCH   1   2
ATOM      2  C   UNL     1      44.610  30.034  13.567  1.00  0.00     0.000 C 
BRANCH   2   3
ATOM      3  C   UNL     1      43.537  30.324  14.633  1.00  0.00     0.000 C 
BRANCH   3   4
ATOM      4  C   UNL     1      42.492  31.388  14.240  1.00  0.00    -0.000 C 
BRANCH   4   5
ATOM      5  C   UNL     1      42.421  32.614  15.173  1.00  0.00    -0.000 C 
BRANCH   5   6
ATOM      6  C   UNL     1      43.320  32.532  16.418  1.00  0.00    -0.000 C 
BRANCH   6   7
ATOM      7  C   UNL     1      44.574  33.418  16.306  1.00  0.00    -0.000 C 
BRANCH   7   8
ATOM      8  C   UNL     1      45.397  33.445  17.603  1.00  0.00    -0.000 C 
BRANCH   8   9
ATOM      9  C   UNL     1      46.016  32.076  17.937  1.00  0.00    -0.000 C 
BRANCH   9  10
ATOM     10  C   UNL     1      46.781  31.469  16.750  1.00  0.00    -0.000 C 
BRANCH  10  11
ATOM     11  C   UNL     1      46.673  29.938  16.695  1.00  0.00    -0.003 C 
ATOM     12  C   UNL     1      45.508  29.440  17.547  1.00  0.00     0.004 C 
ENDBRANCH  10  11
ENDBRANCH   9  10
ENDBRANCH   8   9
ENDBRANCH   7   8
ENDBRANCH   6   7
ENDBRANCH   5   6
ENDBRANCH   4   5
ENDBRANCH   3   4
ENDBRANCH   2   3
ENDBRANCH   1   2
BRANCH   1  13
ATOM     13  C   UNL     1      45.330  31.796  11.847  1.00  0.00     0.000 C 
BRANCH  13  14
ATOM     14  C   UNL     1      46.480  31.476  10.875  1.00  0.00     0.000 C 
BRANCH  14  15
ATOM     15  C   UNL     1      47.316  32.711  10.505  1.00  0.00     0.000 C 
BRANCH  15  16
ATOM     16  C   UNL     1      46.566  34.006  10.854  1.00  0.00     0.000 C 
BRANCH  16  17
ATOM     17  C   UNL     1      47.337  34.900  11.841  1.00  0.00     0.000 C 
BRANCH  17  18
ATOM     18  C   UNL     1      46.753  34.955  13.266  1.00  0.00     0.000 C 
BRANCH  18  19
ATOM     19  C   UNL     1      47.573  34.140  14.280  1.00  0.00     0.000 C 
BRANCH  19  20
ATOM     20  C   UNL     1      48.903  33.638  13.697  1.00  0.00     0.006 C 
BRANCH  20  21
ATOM     21  C   UNL     1      49.079  32.121  13.844  1.00  0.00     0.053 C 
BRANCH  21  22
ATOM     22  C   UNL     1      50.110  31.620  12.882  1.00  0.00     0.041 C 
ATOM     23  O   UNL     1      51.267  32.115  12.879  1.00  0.00    -0.550 OA
ATOM     24  O   UNL     1      49.778  30.641  11.955  1.00  0.00    -0.550 OA
ENDBRANCH  21  22
ENDBRANCH  20  21
ENDBRANCH  19  20
ENDBRANCH  18  19
ENDBRANCH  17  18
ENDBRANCH  16  17
ENDBRANCH  15  16
ENDBRANCH  14  15
ENDBRANCH  13  14
ENDBRANCH   1  13
TORSDOF 20
ENDMDL
