MODEL 1
REMARK VINA RESULT:    -3.978      0.000      0.000
REMARK INTER + INTRA:          -4.232
REMARK INTER:                  -4.210
REMARK INTRA:                  -0.022
REMARK UNBOUND:                -0.022
REMARK SMILES O=C([O-])c1cccnc1
REMARK SMILES IDX 4 1 5 2 9 3 6 4 8 5 7 6 2 7 1 8 3 9
REMARK H PARENT
REMARK Flexibility Score: inf
ROOT
ATOM      1  C   UNL     1      92.368  29.365  30.462  1.00  0.00     0.016 A 
ATOM      2  C   UNL     1      91.451  28.309  30.334  1.00  0.00     0.013 A 
ATOM      3  C   UNL     1      91.870  30.665  30.651  1.00  0.00     0.120 A 
ATOM      4  C   UNL     1      90.079  28.562  30.393  1.00  0.00     0.021 A 
ATOM      5  N   UNL     1      90.528  30.884  30.707  1.00  0.00    -0.264 NA
ATOM      6  C   UNL     1      89.632  29.870  30.583  1.00  0.00     0.111 A 
ENDROOT
BRANCH   1   7
ATOM      7  C   UNL     1      93.825  29.118  30.402  1.00  0.00     0.073 C 
ATOM      8  O   UNL     1      94.306  28.020  30.791  1.00  0.00    -0.545 OA
ATOM      9  O   UNL     1      94.685  30.095  29.911  1.00  0.00    -0.545 OA
ENDBRANCH   1   7
TORSDOF 1
ENDMDL
MODEL 2
REMARK VINA RESULT:    -3.969      7.362      8.290
REMARK INTER + INTRA:          -4.223
REMARK INTER:                  -4.206
REMARK INTRA:                  -0.016
REMARK UNBOUND:                -0.022
REMARK SMILES O=C([O-])c1cccnc1
REMARK SMILES IDX 4 1 5 2 9 3 6 4 8 5 7 6 2 7 1 8 3 9
REMARK H PARENT
REMARK Flexibility Score: inf
ROOT
ATOM      1  C   UNL     1      89.762  35.995  27.790  1.00  0.00     0.016 A 
ATOM      2  C   UNL     1      89.513  36.172  26.419  1.00  0.00     0.013 A 
ATOM      3  C   UNL     1      91.069  35.685  28.198  1.00  0.00     0.120 A 
ATOM      4  C   UNL     1      90.552  36.038  25.496  1.00  0.00     0.021 A 
ATOM      5  N   UNL     1      92.064  35.561  27.278  1.00  0.00    -0.264 NA
ATOM      6  C   UNL     1      91.835  35.729  25.949  1.00  0.00     0.111 A 
ENDROOT
BRANCH   1   7
ATOM      7  C   UNL     1      88.675  36.133  28.784  1.00  0.00     0.073 C 
ATOM      8  O   UNL     1      88.349  37.268  29.224  1.00  0.00    -0.545 OA
ATOM      9  O   UNL     1      87.996  35.010  29.244  1.00  0.00    -0.545 OA
ENDBRANCH   1   7
TORSDOF 1
ENDMDL
MODEL 3
REMARK VINA RESULT:    -3.951      7.800      8.035
REMARK INTER + INTRA:          -4.204
REMARK INTER:                  -4.181
REMARK INTRA:                  -0.023
REMARK UNBOUND:                -0.022
REMARK SMILES O=C([O-])c1cccnc1
REMARK SMILES IDX 4 1 5 2 9 3 6 4 8 5 7 6 2 7 1 8 3 9
REMARK H PARENT
REMARK Flexibility Score: inf
ROOT
ATOM      1  C   UNL     1      89.950  35.735  26.425  1.00  0.00     0.016 A 
ATOM      2  C   UNL     1      89.974  36.534  27.581  1.00  0.00     0.013 A 
ATOM      3  C   UNL     1      88.817  34.940  26.185  1.00  0.00     0.120 A 
ATOM      4  C   UNL     1      88.889  36.527  28.460  1.00  0.00     0.021 A 
ATOM      5  N   UNL     1      87.773  34.952  27.057  1.00  0.00    -0.264 NA
ATOM      6  C   UNL     1      87.785  35.720  28.178  1.00  0.00     0.111 A 
ENDROOT
BRANCH   1   7
ATOM      7  C   UNL     1      91.089  35.729  25.482  1.00  0.00     0.073 C 
ATOM      8  O   UNL     1      92.218  36.163  25.837  1.00  0.00    -0.545 OA
ATOM      9  O   UNL     1      90.929  35.243  24.189  1.00  0.00    -0.545 OA
ENDBRANCH   1   7
TORSDOF 1
ENDMDL
MODEL 4
REMARK VINA RESULT:    -3.950      7.611      8.056
REMARK INTER + INTRA:          -4.203
REMARK INTER:                  -4.187
REMARK INTRA:                  -0.016
REMARK UNBOUND:                -0.022
REMARK SMILES O=C([O-])c1cccnc1
REMARK SMILES IDX 4 1 5 2 9 3 6 4 8 5 7 6 2 7 1 8 3 9
REMARK H PARENT
REMARK Flexibility Score: inf
ROOT
ATOM      1  C   UNL     1      88.892  29.015  24.045  1.00  0.00     0.016 A 
ATOM      2  C   UNL     1      88.758  29.776  22.872  1.00  0.00     0.013 A 
ATOM      3  C   UNL     1      90.185  28.675  24.477  1.00  0.00     0.120 A 
ATOM      4  C   UNL     1      89.892  30.177  22.163  1.00  0.00     0.021 A 
ATOM      5  N   UNL     1      91.274  29.080  23.769  1.00  0.00    -0.264 NA
ATOM      6  C   UNL     1      91.156  29.816  22.633  1.00  0.00     0.111 A 
ENDROOT
BRANCH   1   7
ATOM      7  C   UNL     1      87.703  28.581  24.809  1.00  0.00     0.073 C 
ATOM      8  O   UNL     1      87.277  27.399  24.716  1.00  0.00    -0.545 OA
ATOM      9  O   UNL     1      87.039  29.473  25.644  1.00  0.00    -0.545 OA
ENDBRANCH   1   7
TORSDOF 1
ENDMDL
MODEL 5
REMARK VINA RESULT:    -3.948      7.173      7.955
REMARK INTER + INTRA:          -4.201
REMARK INTER:                  -4.184
REMARK INTRA:                  -0.016
REMARK UNBOUND:                -0.022
REMARK SMILES O=C([O-])c1cccnc1
REMARK SMILES IDX 4 1 5 2 9 3 6 4 8 5 7 6 2 7 1 8 3 9
REMARK H PARENT
REMARK Flexibility Score: inf
ROOT
ATOM      1  C   UNL     1      87.439  34.332  28.298  1.00  0.00     0.016 A 
ATOM      2  C   UNL     1      87.997  35.221  29.232  1.00  0.00     0.013 A 
ATOM      3  C   UNL     1      87.861  34.416  26.961  1.00  0.00     0.120 A 
ATOM      4  C   UNL     1      88.947  36.160  28.825  1.00  0.00     0.021 A 
ATOM      5  N   UNL     1      88.790  35.339  26.591  1.00  0.00    -0.264 NA
ATOM      6  C   UNL     1      89.335  36.204  27.486  1.00  0.00     0.111 A 
ENDROOT
BRANCH   1   7
ATOM      7  C   UNL     1      86.431  33.331  28.709  1.00  0.00     0.073 C 
ATOM      8  O   UNL     1      85.210  33.508  28.455  1.00  0.00    -0.545 OA
ATOM      9  O   UNL     1      86.820  32.177  29.381  1.00  0.00    -0.545 OA
ENDBRANCH   1   7
TORSDOF 1
ENDMDL
MODEL 6
REMARK VINA RESULT:    -3.945      7.430      7.743
REMARK INTER + INTRA:          -4.197
REMARK INTER:                  -4.175
REMARK INTRA:                  -0.023
REMARK UNBOUND:                -0.022
REMARK SMILES O=C([O-])c1cccnc1
REMARK SMILES IDX 4 1 5 2 9 3 6 4 8 5 7 6 2 7 1 8 3 9
REMARK H PARENT
REMARK Flexibility Score: inf
ROOT
ATOM      1  C   UNL     1      88.137  35.127  27.840  1.00  0.00     0.016 A 
ATOM      2  C   UNL     1      87.212  34.576  28.741  1.00  0.00     0.013 A 
ATOM      3  C   UNL     1      88.323  34.493  26.600  1.00  0.00     0.120 A 
ATOM      4  C   UNL     1      86.501  33.424  28.398  1.00  0.00     0.021 A 
ATOM      5  N   UNL     1      87.616  33.373  26.290  1.00  0.00    -0.264 NA
ATOM      6  C   UNL     1      86.719  32.830  27.154  1.00  0.00     0.111 A 
ENDROOT
BRANCH   1   7
ATOM      7  C   UNL     1      88.900  36.346  28.184  1.00  0.00     0.073 C 
ATOM      8  O   UNL     1      89.972  36.624  27.583  1.00  0.00    -0.545 OA
ATOM      9  O   UNL     1      88.442  37.205  29.177  1.00  0.00    -0.545 OA
ENDBRANCH   1   7
TORSDOF 1
ENDMDL
MODEL 7
REMARK VINA RESULT:    -3.936      2.788      3.558
REMARK INTER + INTRA:          -4.188
REMARK INTER:                  -4.171
REMARK INTRA:                  -0.017
REMARK UNBOUND:                -0.022
REMARK SMILES O=C([O-])c1cccnc1
REMARK SMILES IDX 4 1 5 2 9 3 6 4 8 5 7 6 2 7 1 8 3 9
REMARK H PARENT
REMARK Flexibility Score: inf
ROOT
ATOM      1  C   UNL     1      91.241  28.966  30.428  1.00  0.00     0.016 A 
ATOM      2  C   UNL     1      92.334  28.167  30.052  1.00  0.00     0.013 A 
ATOM      3  C   UNL     1      91.472  30.319  30.722  1.00  0.00     0.120 A 
ATOM      4  C   UNL     1      93.614  28.721  29.978  1.00  0.00     0.021 A 
ATOM      5  N   UNL     1      92.728  30.835  30.641  1.00  0.00    -0.264 NA
ATOM      6  C   UNL     1      93.793  30.072  30.279  1.00  0.00     0.111 A 
ENDROOT
BRANCH   1   7
ATOM      7  C   UNL     1      89.878  28.397  30.512  1.00  0.00     0.073 C 
ATOM      8  O   UNL     1      89.329  28.211  31.631  1.00  0.00    -0.545 OA
ATOM      9  O   UNL     1      89.184  28.061  29.355  1.00  0.00    -0.545 OA
ENDBRANCH   1   7
TORSDOF 1
ENDMDL
MODEL 8
REMARK VINA RESULT:    -3.921      2.820      3.880
REMARK INTER + INTRA:          -4.172
REMARK INTER:                  -4.156
REMARK INTRA:                  -0.016
REMARK UNBOUND:                -0.022
REMARK SMILES O=C([O-])c1cccnc1
REMARK SMILES IDX 4 1 5 2 9 3 6 4 8 5 7 6 2 7 1 8 3 9
REMARK H PARENT
REMARK Flexibility Score: inf
ROOT
ATOM      1  C   UNL     1      93.932  29.942  29.650  1.00  0.00     0.016 A 
ATOM      2  C   UNL     1      93.973  31.129  30.400  1.00  0.00     0.013 A 
ATOM      3  C   UNL     1      94.301  29.993  28.296  1.00  0.00     0.120 A 
ATOM      4  C   UNL     1      94.373  32.324  29.798  1.00  0.00     0.021 A 
ATOM      5  N   UNL     1      94.689  31.170  27.734  1.00  0.00    -0.264 NA
ATOM      6  C   UNL     1      94.732  32.324  28.449  1.00  0.00     0.111 A 
ENDROOT
BRANCH   1   7
ATOM      7  C   UNL     1      93.511  28.666  30.269  1.00  0.00     0.073 C 
ATOM      8  O   UNL     1      94.335  27.963  30.913  1.00  0.00    -0.545 OA
ATOM      9  O   UNL     1      92.198  28.226  30.149  1.00  0.00    -0.545 OA
ENDBRANCH   1   7
TORSDOF 1
ENDMDL
MODEL 9
REMARK VINA RESULT:    -3.915      7.258      7.660
REMARK INTER + INTRA:          -4.165
REMARK INTER:                  -4.144
REMARK INTRA:                  -0.021
REMARK UNBOUND:                -0.022
REMARK SMILES O=C([O-])c1cccnc1
REMARK SMILES IDX 4 1 5 2 9 3 6 4 8 5 7 6 2 7 1 8 3 9
REMARK H PARENT
REMARK Flexibility Score: inf
ROOT
ATOM      1  C   UNL     1      89.601  29.347  23.416  1.00  0.00     0.016 A 
ATOM      2  C   UNL     1      88.223  29.429  23.676  1.00  0.00     0.013 A 
ATOM      3  C   UNL     1      90.432  28.764  24.387  1.00  0.00     0.120 A 
ATOM      4  C   UNL     1      87.707  28.939  24.877  1.00  0.00     0.021 A 
ATOM      5  N   UNL     1      89.903  28.292  25.548  1.00  0.00    -0.264 NA
ATOM      6  C   UNL     1      88.572  28.367  25.811  1.00  0.00     0.111 A 
ENDROOT
BRANCH   1   7
ATOM      7  C   UNL     1      90.167  29.861  22.150  1.00  0.00     0.073 C 
ATOM      8  O   UNL     1      89.518  29.771  21.074  1.00  0.00    -0.545 OA
ATOM      9  O   UNL     1      91.425  30.454  22.131  1.00  0.00    -0.545 OA
ENDBRANCH   1   7
TORSDOF 1
ENDMDL
