MODEL 1
REMARK VINA RESULT:    -4.368      0.000      0.000
REMARK INTER + INTRA:          -9.600
REMARK INTER:                  -7.688
REMARK INTRA:                  -1.912
REMARK UNBOUND:                -1.912
REMARK SMILES CCCCCCCCCCCCCCC(=O)[O-]
REMARK SMILES IDX 9 1 10 2 11 3 12 4 13 5 14 6 15 7 16 8 17 9 8 10 7 11 6 12
REMARK SMILES IDX 5 13 4 14 3 15 2 16 1 17
REMARK H PARENT
REMARK Flexibility Score: inf
ROOT
ATOM      1  C   UNL     1     -26.209 -14.699  17.424  1.00  0.00     0.000 C 
ENDROOT
BRANCH   1   2
ATOM      2  C   UNL     1     -27.519 -15.312  17.941  1.00  0.00     0.000 C 
BRANCH   2   3
ATOM      3  C   UNL     1     -28.076 -16.397  17.004  1.00  0.00     0.000 C 
BRANCH   3   4
ATOM      4  C   UNL     1     -29.511 -16.818  17.363  1.00  0.00     0.000 C 
BRANCH   4   5
ATOM      5  C   UNL     1     -30.429 -16.988  16.133  1.00  0.00     0.006 C 
BRANCH   5   6
ATOM      6  C   UNL     1     -29.750 -16.534  14.835  1.00  0.00     0.053 C 
BRANCH   6   7
ATOM      7  C   UNL     1     -30.352 -17.234  13.657  1.00  0.00     0.041 C 
ATOM      8  O   UNL     1     -31.526 -17.686  13.720  1.00  0.00    -0.550 OA
ATOM      9  O   UNL     1     -29.599 -17.431  12.506  1.00  0.00    -0.550 OA
ENDBRANCH   6   7
ENDBRANCH   5   6
ENDBRANCH   4   5
ENDBRANCH   3   4
ENDBRANCH   2   3
ENDBRANCH   1   2
BRANCH   1  10
ATOM     10  C   UNL     1     -25.902 -13.336  18.061  1.00  0.00     0.000 C 
BRANCH  10  11
ATOM     11  C   UNL     1     -25.595 -12.284  16.985  1.00  0.00    -0.000 C 
BRANCH  11  12
ATOM     12  C   UNL     1     -26.806 -11.391  16.670  1.00  0.00    -0.000 C 
BRANCH  12  13
ATOM     13  C   UNL     1     -27.824 -11.348  17.823  1.00  0.00    -0.000 C 
BRANCH  13  14
ATOM     14  C   UNL     1     -29.275 -11.481  17.332  1.00  0.00    -0.000 C 
BRANCH  14  15
ATOM     15  C   UNL     1     -29.457 -12.643  16.339  1.00  0.00    -0.000 C 
BRANCH  15  16
ATOM     16  C   UNL     1     -30.816 -13.342  16.494  1.00  0.00    -0.003 C 
ATOM     17  C   UNL     1     -31.232 -13.507  17.957  1.00  0.00     0.004 C 
ENDBRANCH  15  16
ENDBRANCH  14  15
ENDBRANCH  13  14
ENDBRANCH  12  13
ENDBRANCH  11  12
ENDBRANCH  10  11
ENDBRANCH   1  10
TORSDOF 13
ENDMDL
MODEL 2
REMARK VINA RESULT:    -4.234      1.461      1.829
REMARK INTER + INTRA:          -9.364
REMARK INTER:                  -8.109
REMARK INTRA:                  -1.255
REMARK UNBOUND:                -1.912
REMARK SMILES CCCCCCCCCCCCCCC(=O)[O-]
REMARK SMILES IDX 9 1 10 2 11 3 12 4 13 5 14 6 15 7 16 8 17 9 8 10 7 11 6 12
REMARK SMILES IDX 5 13 4 14 3 15 2 16 1 17
REMARK H PARENT
REMARK Flexibility Score: inf
ROOT
ATOM      1  C   UNL     1     -26.266 -15.182  17.438  1.00  0.00     0.000 C 
ENDROOT
BRANCH   1   2
ATOM      2  C   UNL     1     -27.499 -16.054  17.720  1.00  0.00     0.000 C 
BRANCH   2   3
ATOM      3  C   UNL     1     -27.719 -17.134  16.647  1.00  0.00     0.000 C 
BRANCH   3   4
ATOM      4  C   UNL     1     -28.895 -16.814  15.709  1.00  0.00     0.000 C 
BRANCH   4   5
ATOM      5  C   UNL     1     -29.025 -17.797  14.526  1.00  0.00     0.006 C 
BRANCH   5   6
ATOM      6  C   UNL     1     -29.394 -17.085  13.218  1.00  0.00     0.053 C 
BRANCH   6   7
ATOM      7  C   UNL     1     -28.495 -17.530  12.108  1.00  0.00     0.041 C 
ATOM      8  O   UNL     1     -28.374 -16.826  11.070  1.00  0.00    -0.550 OA
ATOM      9  O   UNL     1     -27.829 -18.745  12.198  1.00  0.00    -0.550 OA
ENDBRANCH   6   7
ENDBRANCH   5   6
ENDBRANCH   4   5
ENDBRANCH   3   4
ENDBRANCH   2   3
ENDBRANCH   1   2
BRANCH   1  10
ATOM     10  C   UNL     1     -26.350 -13.804  18.112  1.00  0.00     0.000 C 
BRANCH  10  11
ATOM     11  C   UNL     1     -25.189 -12.904  17.665  1.00  0.00    -0.000 C 
BRANCH  11  12
ATOM     12  C   UNL     1     -25.647 -11.479  17.315  1.00  0.00    -0.000 C 
BRANCH  12  13
ATOM     13  C   UNL     1     -27.019 -11.454  16.619  1.00  0.00    -0.000 C 
BRANCH  13  14
ATOM     14  C   UNL     1     -28.020 -10.525  17.325  1.00  0.00    -0.000 C 
BRANCH  14  15
ATOM     15  C   UNL     1     -29.356 -11.224  17.634  1.00  0.00    -0.000 C 
BRANCH  15  16
ATOM     16  C   UNL     1     -29.664 -12.363  16.651  1.00  0.00    -0.003 C 
ATOM     17  C   UNL     1     -30.198 -13.615  17.347  1.00  0.00     0.004 C 
ENDBRANCH  15  16
ENDBRANCH  14  15
ENDBRANCH  13  14
ENDBRANCH  12  13
ENDBRANCH  11  12
ENDBRANCH  10  11
ENDBRANCH   1  10
TORSDOF 13
ENDMDL
MODEL 3
REMARK VINA RESULT:    -4.147      2.010      4.759
REMARK INTER + INTRA:          -9.212
REMARK INTER:                  -7.920
REMARK INTRA:                  -1.291
REMARK UNBOUND:                -1.912
REMARK SMILES CCCCCCCCCCCCCCC(=O)[O-]
REMARK SMILES IDX 9 1 10 2 11 3 12 4 13 5 14 6 15 7 16 8 17 9 8 10 7 11 6 12
REMARK SMILES IDX 5 13 4 14 3 15 2 16 1 17
REMARK H PARENT
REMARK Flexibility Score: inf
ROOT
ATOM      1  C   UNL     1     -26.894 -11.747  16.667  1.00  0.00     0.000 C 
ENDROOT
BRANCH   1   2
ATOM      2  C   UNL     1     -27.592 -10.607  17.424  1.00  0.00     0.000 C 
BRANCH   2   3
ATOM      3  C   UNL     1     -29.096 -10.862  17.620  1.00  0.00     0.000 C 
BRANCH   3   4
ATOM      4  C   UNL     1     -29.637 -11.978  16.711  1.00  0.00     0.000 C 
BRANCH   4   5
ATOM      5  C   UNL     1     -30.447 -13.052  17.469  1.00  0.00     0.006 C 
BRANCH   5   6
ATOM      6  C   UNL     1     -30.346 -14.431  16.805  1.00  0.00     0.053 C 
BRANCH   6   7
ATOM      7  C   UNL     1     -31.497 -14.651  15.875  1.00  0.00     0.041 C 
ATOM      8  O   UNL     1     -32.626 -14.160  16.138  1.00  0.00    -0.550 OA
ATOM      9  O   UNL     1     -31.335 -15.440  14.743  1.00  0.00    -0.550 OA
ENDBRANCH   6   7
ENDBRANCH   5   6
ENDBRANCH   4   5
ENDBRANCH   3   4
ENDBRANCH   2   3
ENDBRANCH   1   2
BRANCH   1  10
ATOM     10  C   UNL     1     -25.468 -12.008  17.176  1.00  0.00     0.000 C 
BRANCH  10  11
ATOM     11  C   UNL     1     -25.438 -13.217  18.124  1.00  0.00    -0.000 C 
BRANCH  11  12
ATOM     12  C   UNL     1     -26.611 -14.181  17.889  1.00  0.00    -0.000 C 
BRANCH  12  13
ATOM     13  C   UNL     1     -26.148 -15.579  17.444  1.00  0.00    -0.000 C 
BRANCH  13  14
ATOM     14  C   UNL     1     -27.319 -16.480  17.019  1.00  0.00    -0.000 C 
BRANCH  14  15
ATOM     15  C   UNL     1     -26.883 -17.933  16.764  1.00  0.00    -0.000 C 
BRANCH  15  16
ATOM     16  C   UNL     1     -25.407 -18.041  16.352  1.00  0.00    -0.003 C 
ATOM     17  C   UNL     1     -24.703 -19.241  16.985  1.00  0.00     0.004 C 
ENDBRANCH  15  16
ENDBRANCH  14  15
ENDBRANCH  13  14
ENDBRANCH  12  13
ENDBRANCH  11  12
ENDBRANCH  10  11
ENDBRANCH   1  10
TORSDOF 13
ENDMDL
MODEL 4
REMARK VINA RESULT:    -4.116      2.312      5.689
REMARK INTER + INTRA:          -9.157
REMARK INTER:                  -7.962
REMARK INTRA:                  -1.196
REMARK UNBOUND:                -1.912
REMARK SMILES CCCCCCCCCCCCCCC(=O)[O-]
REMARK SMILES IDX 9 1 10 2 11 3 12 4 13 5 14 6 15 7 16 8 17 9 8 10 7 11 6 12
REMARK SMILES IDX 5 13 4 14 3 15 2 16 1 17
REMARK H PARENT
REMARK Flexibility Score: inf
ROOT
ATOM      1  C   UNL     1     -26.220 -14.956  17.375  1.00  0.00     0.000 C 
ENDROOT
BRANCH   1   2
ATOM      2  C   UNL     1     -26.012 -13.585  18.036  1.00  0.00     0.000 C 
BRANCH   2   3
ATOM      3  C   UNL     1     -25.605 -12.498  17.027  1.00  0.00     0.000 C 
BRANCH   3   4
ATOM      4  C   UNL     1     -26.722 -11.472  16.772  1.00  0.00     0.000 C 
BRANCH   4   5
ATOM      5  C   UNL     1     -27.847 -11.510  17.827  1.00  0.00     0.006 C 
BRANCH   5   6
ATOM      6  C   UNL     1     -29.234 -11.300  17.206  1.00  0.00     0.053 C 
BRANCH   6   7
ATOM      7  C   UNL     1     -29.921 -12.614  17.003  1.00  0.00     0.041 C 
ATOM      8  O   UNL     1     -29.723 -13.277  15.952  1.00  0.00    -0.550 OA
ATOM      9  O   UNL     1     -30.819 -13.081  17.955  1.00  0.00    -0.550 OA
ENDBRANCH   6   7
ENDBRANCH   5   6
ENDBRANCH   4   5
ENDBRANCH   3   4
ENDBRANCH   2   3
ENDBRANCH   1   2
BRANCH   1  10
ATOM     10  C   UNL     1     -27.559 -15.602  17.763  1.00  0.00     0.000 C 
BRANCH  10  11
ATOM     11  C   UNL     1     -28.082 -16.502  16.633  1.00  0.00    -0.000 C 
BRANCH  11  12
ATOM     12  C   UNL     1     -29.610 -16.662  16.665  1.00  0.00    -0.000 C 
BRANCH  12  13
ATOM     13  C   UNL     1     -30.160 -17.345  15.400  1.00  0.00    -0.000 C 
BRANCH  13  14
ATOM     14  C   UNL     1     -29.875 -16.536  14.124  1.00  0.00    -0.000 C 
BRANCH  14  15
ATOM     15  C   UNL     1     -29.349 -17.414  12.975  1.00  0.00    -0.000 C 
BRANCH  15  16
ATOM     16  C   UNL     1     -28.109 -18.228  13.377  1.00  0.00    -0.003 C 
ATOM     17  C   UNL     1     -27.662 -19.201  12.285  1.00  0.00     0.004 C 
ENDBRANCH  15  16
ENDBRANCH  14  15
ENDBRANCH  13  14
ENDBRANCH  12  13
ENDBRANCH  11  12
ENDBRANCH  10  11
ENDBRANCH   1  10
TORSDOF 13
ENDMDL
MODEL 5
REMARK VINA RESULT:    -4.100      1.733      4.717
REMARK INTER + INTRA:          -9.129
REMARK INTER:                  -7.814
REMARK INTRA:                  -1.314
REMARK UNBOUND:                -1.912
REMARK SMILES CCCCCCCCCCCCCCC(=O)[O-]
REMARK SMILES IDX 9 1 10 2 11 3 12 4 13 5 14 6 15 7 16 8 17 9 8 10 7 11 6 12
REMARK SMILES IDX 5 13 4 14 3 15 2 16 1 17
REMARK H PARENT
REMARK Flexibility Score: inf
ROOT
ATOM      1  C   UNL     1     -25.487 -12.543  17.038  1.00  0.00     0.000 C 
ENDROOT
BRANCH   1   2
ATOM      2  C   UNL     1     -26.627 -11.579  16.673  1.00  0.00     0.000 C 
BRANCH   2   3
ATOM      3  C   UNL     1     -27.649 -11.412  17.810  1.00  0.00     0.000 C 
BRANCH   3   4
ATOM      4  C   UNL     1     -29.089 -11.241  17.298  1.00  0.00     0.000 C 
BRANCH   4   5
ATOM      5  C   UNL     1     -29.976 -12.483  17.528  1.00  0.00     0.006 C 
BRANCH   5   6
ATOM      6  C   UNL     1     -30.228 -13.264  16.232  1.00  0.00     0.053 C 
BRANCH   6   7
ATOM      7  C   UNL     1     -31.484 -14.071  16.342  1.00  0.00     0.041 C 
ATOM      8  O   UNL     1     -32.073 -14.178  17.450  1.00  0.00    -0.550 OA
ATOM      9  O   UNL     1     -31.976 -14.745  15.232  1.00  0.00    -0.550 OA
ENDBRANCH   6   7
ENDBRANCH   5   6
ENDBRANCH   4   5
ENDBRANCH   3   4
ENDBRANCH   2   3
ENDBRANCH   1   2
BRANCH   1  10
ATOM     10  C   UNL     1     -25.922 -13.616  18.047  1.00  0.00     0.000 C 
BRANCH  10  11
ATOM     11  C   UNL     1     -26.186 -14.956  17.343  1.00  0.00    -0.000 C 
BRANCH  11  12
ATOM     12  C   UNL     1     -27.580 -15.522  17.653  1.00  0.00    -0.000 C 
BRANCH  12  13
ATOM     13  C   UNL     1     -27.858 -16.846  16.921  1.00  0.00    -0.000 C 
BRANCH  13  14
ATOM     14  C   UNL     1     -28.886 -16.688  15.789  1.00  0.00    -0.000 C 
BRANCH  14  15
ATOM     15  C   UNL     1     -28.764 -17.792  14.723  1.00  0.00    -0.000 C 
BRANCH  15  16
ATOM     16  C   UNL     1     -29.598 -17.492  13.468  1.00  0.00    -0.003 C 
ATOM     17  C   UNL     1     -28.745 -17.394  12.202  1.00  0.00     0.004 C 
ENDBRANCH  15  16
ENDBRANCH  14  15
ENDBRANCH  13  14
ENDBRANCH  12  13
ENDBRANCH  11  12
ENDBRANCH  10  11
ENDBRANCH   1  10
TORSDOF 13
ENDMDL
MODEL 6
REMARK VINA RESULT:    -4.052      3.069      6.448
REMARK INTER + INTRA:          -9.045
REMARK INTER:                  -7.586
REMARK INTRA:                  -1.458
REMARK UNBOUND:                -1.912
REMARK SMILES CCCCCCCCCCCCCCC(=O)[O-]
REMARK SMILES IDX 9 1 10 2 11 3 12 4 13 5 14 6 15 7 16 8 17 9 8 10 7 11 6 12
REMARK SMILES IDX 5 13 4 14 3 15 2 16 1 17
REMARK H PARENT
REMARK Flexibility Score: inf
ROOT
ATOM      1  C   UNL     1     -29.156 -15.375  16.803  1.00  0.00     0.000 C 
ENDROOT
BRANCH   1   2
ATOM      2  C   UNL     1     -29.703 -14.082  17.424  1.00  0.00     0.000 C 
BRANCH   2   3
ATOM      3  C   UNL     1     -29.687 -12.899  16.441  1.00  0.00     0.000 C 
BRANCH   3   4
ATOM      4  C   UNL     1     -29.338 -11.563  17.119  1.00  0.00     0.000 C 
BRANCH   4   5
ATOM      5  C   UNL     1     -27.940 -11.551  17.774  1.00  0.00     0.006 C 
BRANCH   5   6
ATOM      6  C   UNL     1     -26.812 -11.612  16.736  1.00  0.00     0.053 C 
BRANCH   6   7
ATOM      7  C   UNL     1     -25.734 -12.546  17.188  1.00  0.00     0.041 C 
ATOM      8  O   UNL     1     -24.579 -12.110  17.431  1.00  0.00    -0.550 OA
ATOM      9  O   UNL     1     -25.994 -13.907  17.293  1.00  0.00    -0.550 OA
ENDBRANCH   6   7
ENDBRANCH   5   6
ENDBRANCH   4   5
ENDBRANCH   3   4
ENDBRANCH   2   3
ENDBRANCH   1   2
BRANCH   1  10
ATOM     10  C   UNL     1     -30.195 -16.506  16.778  1.00  0.00     0.000 C 
BRANCH  10  11
ATOM     11  C   UNL     1     -31.157 -16.341  15.592  1.00  0.00    -0.000 C 
BRANCH  11  12
ATOM     12  C   UNL     1     -30.422 -16.088  14.267  1.00  0.00    -0.000 C 
BRANCH  12  13
ATOM     13  C   UNL     1     -30.306 -17.356  13.403  1.00  0.00    -0.000 C 
BRANCH  13  14
ATOM     14  C   UNL     1     -29.071 -17.334  12.488  1.00  0.00    -0.000 C 
BRANCH  14  15
ATOM     15  C   UNL     1     -27.984 -18.324  12.941  1.00  0.00    -0.000 C 
BRANCH  15  16
ATOM     16  C   UNL     1     -28.305 -18.971  14.297  1.00  0.00    -0.003 C 
ATOM     17  C   UNL     1     -27.341 -18.537  15.401  1.00  0.00     0.004 C 
ENDBRANCH  15  16
ENDBRANCH  14  15
ENDBRANCH  13  14
ENDBRANCH  12  13
ENDBRANCH  11  12
ENDBRANCH  10  11
ENDBRANCH   1  10
TORSDOF 13
ENDMDL
MODEL 7
REMARK VINA RESULT:    -4.046      3.446      7.125
REMARK INTER + INTRA:          -9.033
REMARK INTER:                  -8.296
REMARK INTRA:                  -0.736
REMARK UNBOUND:                -1.912
REMARK SMILES CCCCCCCCCCCCCCC(=O)[O-]
REMARK SMILES IDX 9 1 10 2 11 3 12 4 13 5 14 6 15 7 16 8 17 9 8 10 7 11 6 12
REMARK SMILES IDX 5 13 4 14 3 15 2 16 1 17
REMARK H PARENT
REMARK Flexibility Score: inf
ROOT
ATOM      1  C   UNL     1     -30.011 -14.795  15.789  1.00  0.00     0.000 C 
ENDROOT
BRANCH   1   2
ATOM      2  C   UNL     1     -30.351 -14.471  17.252  1.00  0.00     0.000 C 
BRANCH   2   3
ATOM      3  C   UNL     1     -30.439 -12.959  17.519  1.00  0.00     0.000 C 
BRANCH   3   4
ATOM      4  C   UNL     1     -29.397 -12.151  16.727  1.00  0.00     0.000 C 
BRANCH   4   5
ATOM      5  C   UNL     1     -28.240 -11.616  17.598  1.00  0.00     0.006 C 
BRANCH   5   6
ATOM      6  C   UNL     1     -26.946 -11.433  16.796  1.00  0.00     0.053 C 
BRANCH   6   7
ATOM      7  C   UNL     1     -25.930 -12.454  17.201  1.00  0.00     0.041 C 
ATOM      8  O   UNL     1     -24.707 -12.154  17.230  1.00  0.00    -0.550 OA
ATOM      9  O   UNL     1     -26.328 -13.751  17.499  1.00  0.00    -0.550 OA
ENDBRANCH   6   7
ENDBRANCH   5   6
ENDBRANCH   4   5
ENDBRANCH   3   4
ENDBRANCH   2   3
ENDBRANCH   1   2
BRANCH   1  10
ATOM     10  C   UNL     1     -31.220 -15.327  15.005  1.00  0.00     0.000 C 
BRANCH  10  11
ATOM     11  C   UNL     1     -31.331 -16.853  15.139  1.00  0.00    -0.000 C 
BRANCH  11  12
ATOM     12  C   UNL     1     -31.018 -17.586  13.825  1.00  0.00    -0.000 C 
BRANCH  12  13
ATOM     13  C   UNL     1     -29.508 -17.791  13.608  1.00  0.00    -0.000 C 
BRANCH  13  14
ATOM     14  C   UNL     1     -29.037 -17.283  12.236  1.00  0.00    -0.000 C 
BRANCH  14  15
ATOM     15  C   UNL     1     -27.814 -18.055  11.709  1.00  0.00    -0.000 C 
BRANCH  15  16
ATOM     16  C   UNL     1     -27.763 -18.100  10.174  1.00  0.00    -0.003 C 
ATOM     17  C   UNL     1     -27.418 -19.490   9.636  1.00  0.00     0.004 C 
ENDBRANCH  15  16
ENDBRANCH  14  15
ENDBRANCH  13  14
ENDBRANCH  12  13
ENDBRANCH  11  12
ENDBRANCH  10  11
ENDBRANCH   1  10
TORSDOF 13
ENDMDL
MODEL 8
REMARK VINA RESULT:    -3.990      2.014      4.210
REMARK INTER + INTRA:          -8.934
REMARK INTER:                  -7.797
REMARK INTRA:                  -1.137
REMARK UNBOUND:                -1.912
REMARK SMILES CCCCCCCCCCCCCCC(=O)[O-]
REMARK SMILES IDX 9 1 10 2 11 3 12 4 13 5 14 6 15 7 16 8 17 9 8 10 7 11 6 12
REMARK SMILES IDX 5 13 4 14 3 15 2 16 1 17
REMARK H PARENT
REMARK Flexibility Score: inf
ROOT
ATOM      1  C   UNL     1     -32.058 -16.130  16.204  1.00  0.00     0.000 C 
ENDROOT
BRANCH   1   2
ATOM      2  C   UNL     1     -32.426 -17.463  15.535  1.00  0.00     0.000 C 
BRANCH   2   3
ATOM      3  C   UNL     1     -31.523 -17.791  14.334  1.00  0.00     0.000 C 
BRANCH   3   4
ATOM      4  C   UNL     1     -30.238 -18.533  14.738  1.00  0.00     0.000 C 
BRANCH   4   5
ATOM      5  C   UNL     1     -28.952 -17.896  14.168  1.00  0.00     0.006 C 
BRANCH   5   6
ATOM      6  C   UNL     1     -29.220 -17.097  12.886  1.00  0.00     0.053 C 
BRANCH   6   7
ATOM      7  C   UNL     1     -28.410 -17.641  11.751  1.00  0.00     0.041 C 
ATOM      8  O   UNL     1     -28.374 -17.032  10.650  1.00  0.00    -0.550 OA
ATOM      9  O   UNL     1     -27.736 -18.846  11.895  1.00  0.00    -0.550 OA
ENDBRANCH   6   7
ENDBRANCH   5   6
ENDBRANCH   4   5
ENDBRANCH   3   4
ENDBRANCH   2   3
ENDBRANCH   1   2
BRANCH   1  10
ATOM     10  C   UNL     1     -31.367 -15.155  15.240  1.00  0.00     0.000 C 
BRANCH  10  11
ATOM     11  C   UNL     1     -30.074 -14.598  15.856  1.00  0.00    -0.000 C 
BRANCH  11  12
ATOM     12  C   UNL     1     -30.342 -13.512  16.909  1.00  0.00    -0.000 C 
BRANCH  12  13
ATOM     13  C   UNL     1     -29.821 -12.129  16.478  1.00  0.00    -0.000 C 
BRANCH  13  14
ATOM     14  C   UNL     1     -29.112 -11.385  17.621  1.00  0.00    -0.000 C 
BRANCH  14  15
ATOM     15  C   UNL     1     -27.612 -11.175  17.347  1.00  0.00    -0.000 C 
BRANCH  15  16
ATOM     16  C   UNL     1     -26.793 -12.460  17.540  1.00  0.00    -0.003 C 
ATOM     17  C   UNL     1     -25.303 -12.258  17.262  1.00  0.00     0.004 C 
ENDBRANCH  15  16
ENDBRANCH  14  15
ENDBRANCH  13  14
ENDBRANCH  12  13
ENDBRANCH  11  12
ENDBRANCH  10  11
ENDBRANCH   1  10
TORSDOF 13
ENDMDL
MODEL 9
REMARK VINA RESULT:    -3.847      2.186      4.314
REMARK INTER + INTRA:          -8.684
REMARK INTER:                  -7.498
REMARK INTRA:                  -1.186
REMARK UNBOUND:                -1.912
REMARK SMILES CCCCCCCCCCCCCCC(=O)[O-]
REMARK SMILES IDX 9 1 10 2 11 3 12 4 13 5 14 6 15 7 16 8 17 9 8 10 7 11 6 12
REMARK SMILES IDX 5 13 4 14 3 15 2 16 1 17
REMARK H PARENT
REMARK Flexibility Score: inf
ROOT
ATOM      1  C   UNL     1     -30.064 -16.446  15.854  1.00  0.00     0.000 C 
ENDROOT
BRANCH   1   2
ATOM      2  C   UNL     1     -30.378 -16.134  14.383  1.00  0.00     0.000 C 
BRANCH   2   3
ATOM      3  C   UNL     1     -30.294 -17.379  13.483  1.00  0.00     0.000 C 
BRANCH   3   4
ATOM      4  C   UNL     1     -29.224 -17.251  12.386  1.00  0.00     0.000 C 
BRANCH   4   5
ATOM      5  C   UNL     1     -28.047 -18.237  12.555  1.00  0.00     0.006 C 
BRANCH   5   6
ATOM      6  C   UNL     1     -28.194 -19.107  13.810  1.00  0.00     0.053 C 
BRANCH   6   7
ATOM      7  C   UNL     1     -26.975 -18.994  14.670  1.00  0.00     0.041 C 
ATOM      8  O   UNL     1     -25.918 -19.602  14.355  1.00  0.00    -0.550 OA
ATOM      9  O   UNL     1     -27.021 -18.257  15.847  1.00  0.00    -0.550 OA
ENDBRANCH   6   7
ENDBRANCH   5   6
ENDBRANCH   4   5
ENDBRANCH   3   4
ENDBRANCH   2   3
ENDBRANCH   1   2
BRANCH   1  10
ATOM     10  C   UNL     1     -29.481 -15.237  16.603  1.00  0.00     0.000 C 
BRANCH  10  11
ATOM     11  C   UNL     1     -30.475 -14.709  17.648  1.00  0.00    -0.000 C 
BRANCH  11  12
ATOM     12  C   UNL     1     -30.761 -13.208  17.485  1.00  0.00    -0.000 C 
BRANCH  12  13
ATOM     13  C   UNL     1     -29.684 -12.488  16.654  1.00  0.00    -0.000 C 
BRANCH  13  14
ATOM     14  C   UNL     1     -29.242 -11.159  17.289  1.00  0.00    -0.000 C 
BRANCH  14  15
ATOM     15  C   UNL     1     -27.761 -11.170  17.708  1.00  0.00    -0.000 C 
BRANCH  15  16
ATOM     16  C   UNL     1     -27.054 -12.483  17.336  1.00  0.00    -0.003 C 
ATOM     17  C   UNL     1     -25.563 -12.293  17.059  1.00  0.00     0.004 C 
ENDBRANCH  15  16
ENDBRANCH  14  15
ENDBRANCH  13  14
ENDBRANCH  12  13
ENDBRANCH  11  12
ENDBRANCH  10  11
ENDBRANCH   1  10
TORSDOF 13
ENDMDL
