MODEL 1
REMARK VINA RESULT:    -4.246      0.000      0.000
REMARK INTER + INTRA:          -5.721
REMARK INTER:                  -5.239
REMARK INTRA:                  -0.482
REMARK UNBOUND:                -0.482
REMARK SMILES C=CC[C@@H](C)C(=O)CC
REMARK SMILES IDX 4 1 5 2 6 3 7 4 8 5 9 6 3 7 2 8 1 9
REMARK H PARENT
REMARK Flexibility Score: inf
ROOT
ATOM      1  C   UNL     1     -12.666 -17.570  31.440  1.00  0.00     0.057 C 
ATOM      2  C   UNL     1     -13.427 -18.835  31.857  1.00  0.00     0.016 C 
ENDROOT
BRANCH   1   3
ATOM      3  C   UNL     1     -12.900 -17.246  29.977  1.00  0.00     0.135 C 
ATOM      4  O   UNL     1     -13.550 -18.013  29.280  1.00  0.00    -0.299 OA
BRANCH   3   5
ATOM      5  C   UNL     1     -12.336 -15.996  29.356  1.00  0.00     0.072 C 
ATOM      6  C   UNL     1     -13.447 -15.155  28.733  1.00  0.00     0.012 C 
ENDBRANCH   3   5
ENDBRANCH   1   3
BRANCH   1   7
ATOM      7  C   UNL     1     -12.989 -16.365  32.348  1.00  0.00     0.038 C 
BRANCH   7   8
ATOM      8  C   UNL     1     -14.465 -16.075  32.458  1.00  0.00    -0.034 C 
ATOM      9  C   UNL     1     -14.974 -14.880  32.145  1.00  0.00     0.004 C 
ENDBRANCH   7   8
ENDBRANCH   1   7
TORSDOF 4
ENDMDL
MODEL 2
REMARK VINA RESULT:    -4.194      0.986      2.856
REMARK INTER + INTRA:          -5.658
REMARK INTER:                  -5.461
REMARK INTRA:                  -0.197
REMARK UNBOUND:                -0.482
REMARK SMILES C=CC[C@@H](C)C(=O)CC
REMARK SMILES IDX 4 1 5 2 6 3 7 4 8 5 9 6 3 7 2 8 1 9
REMARK H PARENT
REMARK Flexibility Score: inf
ROOT
ATOM      1  C   UNL     1     -13.401 -16.602  30.201  1.00  0.00     0.057 C 
ATOM      2  C   UNL     1     -12.426 -15.873  29.266  1.00  0.00     0.016 C 
ENDROOT
BRANCH   1   3
ATOM      3  C   UNL     1     -13.053 -18.074  30.315  1.00  0.00     0.135 C 
ATOM      4  O   UNL     1     -12.508 -18.645  29.381  1.00  0.00    -0.299 OA
BRANCH   3   5
ATOM      5  C   UNL     1     -13.375 -18.856  31.561  1.00  0.00     0.072 C 
ATOM      6  C   UNL     1     -12.805 -20.268  31.474  1.00  0.00     0.012 C 
ENDBRANCH   3   5
ENDBRANCH   1   3
BRANCH   1   7
ATOM      7  C   UNL     1     -13.496 -15.931  31.588  1.00  0.00     0.038 C 
BRANCH   7   8
ATOM      8  C   UNL     1     -14.708 -15.048  31.745  1.00  0.00    -0.034 C 
ATOM      9  C   UNL     1     -15.475 -15.092  32.839  1.00  0.00     0.004 C 
ENDBRANCH   7   8
ENDBRANCH   1   7
TORSDOF 4
ENDMDL
MODEL 3
REMARK VINA RESULT:    -4.186      2.269      4.381
REMARK INTER + INTRA:          -5.647
REMARK INTER:                  -5.245
REMARK INTRA:                  -0.402
REMARK UNBOUND:                -0.482
REMARK SMILES C=CC[C@@H](C)C(=O)CC
REMARK SMILES IDX 4 1 5 2 6 3 7 4 8 5 9 6 3 7 2 8 1 9
REMARK H PARENT
REMARK Flexibility Score: inf
ROOT
ATOM      1  C   UNL     1     -12.882 -15.736  28.670  1.00  0.00     0.057 C 
ATOM      2  C   UNL     1     -13.967 -14.651  28.632  1.00  0.00     0.016 C 
ENDROOT
BRANCH   1   3
ATOM      3  C   UNL     1     -12.637 -16.216  30.087  1.00  0.00     0.135 C 
ATOM      4  O   UNL     1     -13.564 -16.662  30.749  1.00  0.00    -0.299 OA
BRANCH   3   5
ATOM      5  C   UNL     1     -11.266 -16.147  30.706  1.00  0.00     0.072 C 
ATOM      6  C   UNL     1     -10.262 -15.542  29.730  1.00  0.00     0.012 C 
ENDBRANCH   3   5
ENDBRANCH   1   3
BRANCH   1   7
ATOM      7  C   UNL     1     -13.192 -16.909  27.717  1.00  0.00     0.038 C 
BRANCH   7   8
ATOM      8  C   UNL     1     -11.958 -17.604  27.199  1.00  0.00    -0.034 C 
ATOM      9  C   UNL     1     -11.418 -17.292  26.017  1.00  0.00     0.004 C 
ENDBRANCH   7   8
ENDBRANCH   1   7
TORSDOF 4
ENDMDL
MODEL 4
REMARK VINA RESULT:    -4.160      2.010      2.875
REMARK INTER + INTRA:          -5.616
REMARK INTER:                  -5.437
REMARK INTRA:                  -0.179
REMARK UNBOUND:                -0.482
REMARK SMILES C=CC[C@@H](C)C(=O)CC
REMARK SMILES IDX 4 1 5 2 6 3 7 4 8 5 9 6 3 7 2 8 1 9
REMARK H PARENT
REMARK Flexibility Score: inf
ROOT
ATOM      1  C   UNL     1     -12.626 -15.685  29.074  1.00  0.00     0.057 C 
ATOM      2  C   UNL     1     -11.123 -15.623  29.380  1.00  0.00     0.016 C 
ENDROOT
BRANCH   1   3
ATOM      3  C   UNL     1     -12.899 -16.520  27.838  1.00  0.00     0.135 C 
ATOM      4  O   UNL     1     -13.910 -16.320  27.179  1.00  0.00    -0.299 OA
BRANCH   3   5
ATOM      5  C   UNL     1     -11.949 -17.605  27.406  1.00  0.00     0.072 C 
ATOM      6  C   UNL     1     -11.420 -17.332  26.002  1.00  0.00     0.012 C 
ENDBRANCH   3   5
ENDBRANCH   1   3
BRANCH   1   7
ATOM      7  C   UNL     1     -13.452 -16.171  30.283  1.00  0.00     0.038 C 
BRANCH   7   8
ATOM      8  C   UNL     1     -14.312 -15.095  30.895  1.00  0.00    -0.034 C 
ATOM      9  C   UNL     1     -14.691 -15.139  32.176  1.00  0.00     0.004 C 
ENDBRANCH   7   8
ENDBRANCH   1   7
TORSDOF 4
ENDMDL
MODEL 5
REMARK VINA RESULT:    -4.137      1.645      4.290
REMARK INTER + INTRA:          -5.586
REMARK INTER:                  -5.402
REMARK INTRA:                  -0.184
REMARK UNBOUND:                -0.482
REMARK SMILES C=CC[C@@H](C)C(=O)CC
REMARK SMILES IDX 4 1 5 2 6 3 7 4 8 5 9 6 3 7 2 8 1 9
REMARK H PARENT
REMARK Flexibility Score: inf
ROOT
ATOM      1  C   UNL     1     -12.628 -15.781  29.417  1.00  0.00     0.057 C 
ATOM      2  C   UNL     1     -13.603 -15.000  28.525  1.00  0.00     0.016 C 
ENDROOT
BRANCH   1   3
ATOM      3  C   UNL     1     -13.362 -16.497  30.534  1.00  0.00     0.135 C 
ATOM      4  O   UNL     1     -13.339 -17.719  30.593  1.00  0.00    -0.299 OA
BRANCH   3   5
ATOM      5  C   UNL     1     -14.132 -15.731  31.577  1.00  0.00     0.072 C 
ATOM      6  C   UNL     1     -13.889 -16.315  32.965  1.00  0.00     0.012 C 
ENDBRANCH   3   5
ENDBRANCH   1   3
BRANCH   1   7
ATOM      7  C   UNL     1     -11.739 -16.749  28.608  1.00  0.00     0.038 C 
BRANCH   7   8
ATOM      8  C   UNL     1     -12.299 -17.086  27.250  1.00  0.00    -0.034 C 
ATOM      9  C   UNL     1     -11.507 -17.332  26.202  1.00  0.00     0.004 C 
ENDBRANCH   7   8
ENDBRANCH   1   7
TORSDOF 4
ENDMDL
MODEL 6
REMARK VINA RESULT:    -4.104      1.608      3.731
REMARK INTER + INTRA:          -5.546
REMARK INTER:                  -5.180
REMARK INTRA:                  -0.366
REMARK UNBOUND:                -0.482
REMARK SMILES C=CC[C@@H](C)C(=O)CC
REMARK SMILES IDX 4 1 5 2 6 3 7 4 8 5 9 6 3 7 2 8 1 9
REMARK H PARENT
REMARK Flexibility Score: inf
ROOT
ATOM      1  C   UNL     1     -13.470 -15.979  31.234  1.00  0.00     0.057 C 
ATOM      2  C   UNL     1     -14.616 -15.021  31.588  1.00  0.00     0.016 C 
ENDROOT
BRANCH   1   3
ATOM      3  C   UNL     1     -13.535 -17.244  32.069  1.00  0.00     0.135 C 
ATOM      4  O   UNL     1     -14.374 -17.347  32.953  1.00  0.00    -0.299 OA
BRANCH   3   5
ATOM      5  C   UNL     1     -12.576 -18.381  31.836  1.00  0.00     0.072 C 
ATOM      6  C   UNL     1     -13.327 -19.648  31.438  1.00  0.00     0.012 C 
ENDBRANCH   3   5
ENDBRANCH   1   3
BRANCH   1   7
ATOM      7  C   UNL     1     -13.415 -16.296  29.725  1.00  0.00     0.038 C 
BRANCH   7   8
ATOM      8  C   UNL     1     -12.176 -15.772  29.045  1.00  0.00    -0.034 C 
ATOM      9  C   UNL     1     -10.976 -15.823  29.632  1.00  0.00     0.004 C 
ENDBRANCH   7   8
ENDBRANCH   1   7
TORSDOF 4
ENDMDL
MODEL 7
REMARK VINA RESULT:    -4.091      1.291      3.697
REMARK INTER + INTRA:          -5.530
REMARK INTER:                  -5.256
REMARK INTRA:                  -0.273
REMARK UNBOUND:                -0.482
REMARK SMILES C=CC[C@@H](C)C(=O)CC
REMARK SMILES IDX 4 1 5 2 6 3 7 4 8 5 9 6 3 7 2 8 1 9
REMARK H PARENT
REMARK Flexibility Score: inf
ROOT
ATOM      1  C   UNL     1     -12.470 -16.518  30.477  1.00  0.00     0.057 C 
ATOM      2  C   UNL     1     -13.761 -15.930  31.062  1.00  0.00     0.016 C 
ENDROOT
BRANCH   1   3
ATOM      3  C   UNL     1     -12.500 -18.034  30.495  1.00  0.00     0.135 C 
ATOM      4  O   UNL     1     -11.941 -18.666  29.609  1.00  0.00    -0.299 OA
BRANCH   3   5
ATOM      5  C   UNL     1     -13.216 -18.785  31.586  1.00  0.00     0.072 C 
ATOM      6  C   UNL     1     -12.824 -20.259  31.574  1.00  0.00     0.012 C 
ENDBRANCH   3   5
ENDBRANCH   1   3
BRANCH   1   7
ATOM      7  C   UNL     1     -12.164 -15.973  29.066  1.00  0.00     0.038 C 
BRANCH   7   8
ATOM      8  C   UNL     1     -13.399 -15.709  28.243  1.00  0.00    -0.034 C 
ATOM      9  C   UNL     1     -13.692 -16.435  27.159  1.00  0.00     0.004 C 
ENDBRANCH   7   8
ENDBRANCH   1   7
TORSDOF 4
ENDMDL
MODEL 8
REMARK VINA RESULT:    -4.089      1.593      2.982
REMARK INTER + INTRA:          -5.527
REMARK INTER:                  -5.214
REMARK INTRA:                  -0.313
REMARK UNBOUND:                -0.482
REMARK SMILES C=CC[C@@H](C)C(=O)CC
REMARK SMILES IDX 4 1 5 2 6 3 7 4 8 5 9 6 3 7 2 8 1 9
REMARK H PARENT
REMARK Flexibility Score: inf
ROOT
ATOM      1  C   UNL     1     -13.625 -16.610  31.223  1.00  0.00     0.057 C 
ATOM      2  C   UNL     1     -14.318 -15.483  32.001  1.00  0.00     0.016 C 
ENDROOT
BRANCH   1   3
ATOM      3  C   UNL     1     -12.233 -16.197  30.783  1.00  0.00     0.135 C 
ATOM      4  O   UNL     1     -11.327 -16.140  31.603  1.00  0.00    -0.299 OA
BRANCH   3   5
ATOM      5  C   UNL     1     -11.943 -15.843  29.349  1.00  0.00     0.072 C 
ATOM      6  C   UNL     1     -13.233 -15.781  28.536  1.00  0.00     0.012 C 
ENDBRANCH   3   5
ENDBRANCH   1   3
BRANCH   1   7
ATOM      7  C   UNL     1     -13.602 -17.938  32.009  1.00  0.00     0.038 C 
BRANCH   7   8
ATOM      8  C   UNL     1     -13.295 -19.139  31.151  1.00  0.00    -0.034 C 
ATOM      9  C   UNL     1     -12.772 -20.257  31.664  1.00  0.00     0.004 C 
ENDBRANCH   7   8
ENDBRANCH   1   7
TORSDOF 4
ENDMDL
MODEL 9
REMARK VINA RESULT:    -4.057      1.711      3.436
REMARK INTER + INTRA:          -5.488
REMARK INTER:                  -5.166
REMARK INTRA:                  -0.322
REMARK UNBOUND:                -0.482
REMARK SMILES C=CC[C@@H](C)C(=O)CC
REMARK SMILES IDX 4 1 5 2 6 3 7 4 8 5 9 6 3 7 2 8 1 9
REMARK H PARENT
REMARK Flexibility Score: inf
ROOT
ATOM      1  C   UNL     1     -12.881 -16.913  32.425  1.00  0.00     0.057 C 
ATOM      2  C   UNL     1     -11.782 -16.138  33.165  1.00  0.00     0.016 C 
ENDROOT
BRANCH   1   3
ATOM      3  C   UNL     1     -13.660 -16.005  31.493  1.00  0.00     0.135 C 
ATOM      4  O   UNL     1     -13.399 -15.991  30.298  1.00  0.00    -0.299 OA
BRANCH   3   5
ATOM      5  C   UNL     1     -14.749 -15.106  32.014  1.00  0.00     0.072 C 
ATOM      6  C   UNL     1     -15.529 -15.793  33.130  1.00  0.00     0.012 C 
ENDBRANCH   3   5
ENDBRANCH   1   3
BRANCH   1   7
ATOM      7  C   UNL     1     -12.330 -18.150  31.685  1.00  0.00     0.038 C 
BRANCH   7   8
ATOM      8  C   UNL     1     -13.317 -19.286  31.597  1.00  0.00    -0.034 C 
ATOM      9  C   UNL     1     -13.646 -19.844  30.428  1.00  0.00     0.004 C 
ENDBRANCH   7   8
ENDBRANCH   1   7
TORSDOF 4
ENDMDL
