MODEL 1
REMARK VINA RESULT:    -4.297      0.000      0.000
REMARK INTER + INTRA:          -8.494
REMARK INTER:                  -7.311
REMARK INTRA:                  -1.183
REMARK UNBOUND:                -1.183
REMARK SMILES CCCCCCCCCCCCCC(=O)[O-]
REMARK SMILES IDX 8 1 9 2 10 3 11 4 12 5 13 6 14 7 15 8 16 9 7 10 6 11 5 12
REMARK SMILES IDX 4 13 3 14 2 15 1 16
REMARK H PARENT
REMARK Flexibility Score: inf
ROOT
ATOM      1  C   UNL     1      -4.107  -4.649   1.182  1.00  0.00     0.000 C 
ENDROOT
BRANCH   1   2
ATOM      2  C   UNL     1      -5.217  -5.629   0.763  1.00  0.00     0.000 C 
BRANCH   2   3
ATOM      3  C   UNL     1      -6.474  -5.513   1.640  1.00  0.00     0.000 C 
BRANCH   3   4
ATOM      4  C   UNL     1      -7.757  -5.337   0.812  1.00  0.00     0.000 C 
BRANCH   4   5
ATOM      5  C   UNL     1      -7.550  -4.449  -0.428  1.00  0.00     0.006 C 
BRANCH   5   6
ATOM      6  C   UNL     1      -8.746  -3.548  -0.771  1.00  0.00     0.053 C 
BRANCH   6   7
ATOM      7  C   UNL     1     -10.022  -4.326  -0.878  1.00  0.00     0.041 C 
ATOM      8  O   UNL     1     -10.228  -5.076  -1.868  1.00  0.00    -0.550 OA
ATOM      9  O   UNL     1     -10.998  -4.197   0.103  1.00  0.00    -0.550 OA
ENDBRANCH   6   7
ENDBRANCH   5   6
ENDBRANCH   4   5
ENDBRANCH   3   4
ENDBRANCH   2   3
ENDBRANCH   1   2
BRANCH   1  10
ATOM     10  C   UNL     1      -4.647  -3.248   1.507  1.00  0.00     0.000 C 
BRANCH  10  11
ATOM     11  C   UNL     1      -3.531  -2.202   1.646  1.00  0.00    -0.000 C 
BRANCH  11  12
ATOM     12  C   UNL     1      -2.148  -2.857   1.524  1.00  0.00    -0.000 C 
BRANCH  12  13
ATOM     13  C   UNL     1      -1.239  -2.150   0.501  1.00  0.00    -0.000 C 
BRANCH  13  14
ATOM     14  C   UNL     1      -1.089  -2.878  -0.851  1.00  0.00    -0.000 C 
BRANCH  14  15
ATOM     15  C   UNL     1      -0.660  -4.352  -0.750  1.00  0.00    -0.003 C 
ATOM     16  C   UNL     1      -1.596  -5.298  -1.503  1.00  0.00     0.004 C 
ENDBRANCH  14  15
ENDBRANCH  13  14
ENDBRANCH  12  13
ENDBRANCH  11  12
ENDBRANCH  10  11
ENDBRANCH   1  10
TORSDOF 12
ENDMDL
MODEL 2
REMARK VINA RESULT:    -4.187      1.016      1.109
REMARK INTER + INTRA:          -8.308
REMARK INTER:                  -7.446
REMARK INTRA:                  -0.862
REMARK UNBOUND:                -1.183
REMARK SMILES CCCCCCCCCCCCCC(=O)[O-]
REMARK SMILES IDX 8 1 9 2 10 3 11 4 12 5 13 6 14 7 15 8 16 9 7 10 6 11 5 12
REMARK SMILES IDX 4 13 3 14 2 15 1 16
REMARK H PARENT
REMARK Flexibility Score: inf
ROOT
ATOM      1  C   UNL     1      -4.324  -4.611   1.197  1.00  0.00     0.000 C 
ENDROOT
BRANCH   1   2
ATOM      2  C   UNL     1      -5.393  -5.637   0.781  1.00  0.00     0.000 C 
BRANCH   2   3
ATOM      3  C   UNL     1      -6.665  -5.551   1.640  1.00  0.00     0.000 C 
BRANCH   3   4
ATOM      4  C   UNL     1      -7.937  -5.379   0.793  1.00  0.00     0.000 C 
BRANCH   4   5
ATOM      5  C   UNL     1      -7.713  -4.494  -0.446  1.00  0.00     0.006 C 
BRANCH   5   6
ATOM      6  C   UNL     1      -8.898  -3.581  -0.797  1.00  0.00     0.053 C 
BRANCH   6   7
ATOM      7  C   UNL     1     -10.181  -4.344  -0.911  1.00  0.00     0.041 C 
ATOM      8  O   UNL     1     -10.361  -5.144  -1.866  1.00  0.00    -0.550 OA
ATOM      9  O   UNL     1     -11.192  -4.147   0.022  1.00  0.00    -0.550 OA
ENDBRANCH   6   7
ENDBRANCH   5   6
ENDBRANCH   4   5
ENDBRANCH   3   4
ENDBRANCH   2   3
ENDBRANCH   1   2
BRANCH   1  10
ATOM     10  C   UNL     1      -4.929  -3.252   1.586  1.00  0.00     0.000 C 
BRANCH  10  11
ATOM     11  C   UNL     1      -3.862  -2.169   1.798  1.00  0.00    -0.000 C 
BRANCH  11  12
ATOM     12  C   UNL     1      -2.455  -2.727   1.535  1.00  0.00    -0.000 C 
BRANCH  12  13
ATOM     13  C   UNL     1      -1.706  -1.963   0.428  1.00  0.00    -0.000 C 
BRANCH  13  14
ATOM     14  C   UNL     1      -0.387  -2.614  -0.037  1.00  0.00    -0.000 C 
BRANCH  14  15
ATOM     15  C   UNL     1       0.475  -3.210   1.090  1.00  0.00    -0.003 C 
ATOM     16  C   UNL     1       0.703  -4.713   0.935  1.00  0.00     0.004 C 
ENDBRANCH  14  15
ENDBRANCH  13  14
ENDBRANCH  12  13
ENDBRANCH  11  12
ENDBRANCH  10  11
ENDBRANCH   1  10
TORSDOF 12
ENDMDL
MODEL 3
REMARK VINA RESULT:    -4.168      1.359      2.483
REMARK INTER + INTRA:          -8.276
REMARK INTER:                  -7.662
REMARK INTRA:                  -0.614
REMARK UNBOUND:                -1.183
REMARK SMILES CCCCCCCCCCCCCC(=O)[O-]
REMARK SMILES IDX 8 1 9 2 10 3 11 4 12 5 13 6 14 7 15 8 16 9 7 10 6 11 5 12
REMARK SMILES IDX 4 13 3 14 2 15 1 16
REMARK H PARENT
REMARK Flexibility Score: inf
ROOT
ATOM      1  C   UNL     1      -6.061  -5.224   0.893  1.00  0.00     0.000 C 
ENDROOT
BRANCH   1   2
ATOM      2  C   UNL     1      -7.107  -4.186   0.449  1.00  0.00     0.000 C 
BRANCH   2   3
ATOM      3  C   UNL     1      -8.085  -4.739  -0.600  1.00  0.00     0.000 C 
BRANCH   3   4
ATOM      4  C   UNL     1      -9.334  -3.858  -0.763  1.00  0.00     0.000 C 
BRANCH   4   5
ATOM      5  C   UNL     1     -10.592  -4.486  -0.136  1.00  0.00     0.006 C 
BRANCH   5   6
ATOM      6  C   UNL     1     -11.849  -4.403  -1.015  1.00  0.00     0.053 C 
BRANCH   6   7
ATOM      7  C   UNL     1     -12.043  -5.641  -1.835  1.00  0.00     0.041 C 
ATOM      8  O   UNL     1     -12.104  -6.769  -1.278  1.00  0.00    -0.550 OA
ATOM      9  O   UNL     1     -12.125  -5.552  -3.220  1.00  0.00    -0.550 OA
ENDBRANCH   6   7
ENDBRANCH   5   6
ENDBRANCH   4   5
ENDBRANCH   3   4
ENDBRANCH   2   3
ENDBRANCH   1   2
BRANCH   1  10
ATOM     10  C   UNL     1      -4.820  -4.577   1.528  1.00  0.00     0.000 C 
BRANCH  10  11
ATOM     11  C   UNL     1      -4.875  -3.042   1.503  1.00  0.00    -0.000 C 
BRANCH  11  12
ATOM     12  C   UNL     1      -3.462  -2.443   1.559  1.00  0.00    -0.000 C 
BRANCH  12  13
ATOM     13  C   UNL     1      -2.358  -3.515   1.618  1.00  0.00    -0.000 C 
BRANCH  13  14
ATOM     14  C   UNL     1      -0.924  -2.987   1.410  1.00  0.00    -0.000 C 
BRANCH  14  15
ATOM     15  C   UNL     1      -0.685  -2.266   0.072  1.00  0.00    -0.003 C 
ATOM     16  C   UNL     1      -1.066  -3.117  -1.140  1.00  0.00     0.004 C 
ENDBRANCH  14  15
ENDBRANCH  13  14
ENDBRANCH  12  13
ENDBRANCH  11  12
ENDBRANCH  10  11
ENDBRANCH   1  10
TORSDOF 12
ENDMDL
MODEL 4
REMARK VINA RESULT:    -4.145      4.910      8.199
REMARK INTER + INTRA:          -8.236
REMARK INTER:                  -7.620
REMARK INTRA:                  -0.616
REMARK UNBOUND:                -1.183
REMARK SMILES CCCCCCCCCCCCCC(=O)[O-]
REMARK SMILES IDX 8 1 9 2 10 3 11 4 12 5 13 6 14 7 15 8 16 9 7 10 6 11 5 12
REMARK SMILES IDX 4 13 3 14 2 15 1 16
REMARK H PARENT
REMARK Flexibility Score: inf
ROOT
ATOM      1  C   UNL     1      -3.656  -2.052   1.902  1.00  0.00     0.000 C 
ENDROOT
BRANCH   1   2
ATOM      2  C   UNL     1      -2.359  -2.813   1.577  1.00  0.00     0.000 C 
BRANCH   2   3
ATOM      3  C   UNL     1      -1.570  -2.176   0.422  1.00  0.00     0.000 C 
BRANCH   3   4
ATOM      4  C   UNL     1      -0.088  -2.586   0.423  1.00  0.00     0.000 C 
BRANCH   4   5
ATOM      5  C   UNL     1       0.179  -3.851   1.258  1.00  0.00     0.006 C 
BRANCH   5   6
ATOM      6  C   UNL     1       1.664  -4.113   1.555  1.00  0.00     0.053 C 
BRANCH   6   7
ATOM      7  C   UNL     1       1.858  -5.301   2.446  1.00  0.00     0.041 C 
ATOM      8  O   UNL     1       0.884  -5.782   3.083  1.00  0.00    -0.550 OA
ATOM      9  O   UNL     1       3.121  -5.858   2.597  1.00  0.00    -0.550 OA
ENDBRANCH   6   7
ENDBRANCH   5   6
ENDBRANCH   4   5
ENDBRANCH   3   4
ENDBRANCH   2   3
ENDBRANCH   1   2
BRANCH   1  10
ATOM     10  C   UNL     1      -4.917  -2.857   1.548  1.00  0.00     0.000 C 
BRANCH  10  11
ATOM     11  C   UNL     1      -4.661  -4.371   1.511  1.00  0.00    -0.000 C 
BRANCH  11  12
ATOM     12  C   UNL     1      -5.815  -5.105   0.811  1.00  0.00    -0.000 C 
BRANCH  12  13
ATOM     13  C   UNL     1      -6.998  -4.178   0.476  1.00  0.00    -0.000 C 
BRANCH  13  14
ATOM     14  C   UNL     1      -7.827  -4.597  -0.756  1.00  0.00    -0.000 C 
BRANCH  14  15
ATOM     15  C   UNL     1      -9.101  -3.767  -0.992  1.00  0.00    -0.003 C 
ATOM     16  C   UNL     1     -10.319  -4.322  -0.254  1.00  0.00     0.004 C 
ENDBRANCH  14  15
ENDBRANCH  13  14
ENDBRANCH  12  13
ENDBRANCH  11  12
ENDBRANCH  10  11
ENDBRANCH   1  10
TORSDOF 12
ENDMDL
MODEL 5
REMARK VINA RESULT:    -4.028      3.797      7.657
REMARK INTER + INTRA:          -8.037
REMARK INTER:                  -7.119
REMARK INTRA:                  -0.918
REMARK UNBOUND:                -1.183
REMARK SMILES CCCCCCCCCCCCCC(=O)[O-]
REMARK SMILES IDX 8 1 9 2 10 3 11 4 12 5 13 6 14 7 15 8 16 9 7 10 6 11 5 12
REMARK SMILES IDX 4 13 3 14 2 15 1 16
REMARK H PARENT
REMARK Flexibility Score: inf
ROOT
ATOM      1  C   UNL     1      -6.687  -5.458   1.531  1.00  0.00     0.000 C 
ENDROOT
BRANCH   1   2
ATOM      2  C   UNL     1      -5.436  -4.938   0.801  1.00  0.00     0.000 C 
BRANCH   2   3
ATOM      3  C   UNL     1      -4.450  -4.229   1.742  1.00  0.00     0.000 C 
BRANCH   3   4
ATOM      4  C   UNL     1      -4.507  -2.698   1.613  1.00  0.00     0.000 C 
BRANCH   4   5
ATOM      5  C   UNL     1      -3.111  -2.051   1.568  1.00  0.00     0.006 C 
BRANCH   5   6
ATOM      6  C   UNL     1      -1.947  -3.054   1.554  1.00  0.00     0.053 C 
BRANCH   6   7
ATOM      7  C   UNL     1      -0.900  -2.686   0.549  1.00  0.00     0.041 C 
ATOM      8  O   UNL     1       0.308  -2.597   0.894  1.00  0.00    -0.550 OA
ATOM      9  O   UNL     1      -1.263  -2.411  -0.764  1.00  0.00    -0.550 OA
ENDBRANCH   6   7
ENDBRANCH   5   6
ENDBRANCH   4   5
ENDBRANCH   3   4
ENDBRANCH   2   3
ENDBRANCH   1   2
BRANCH   1  10
ATOM     10  C   UNL     1      -7.990  -5.105   0.796  1.00  0.00     0.000 C 
BRANCH  10  11
ATOM     11  C   UNL     1      -7.759  -4.168  -0.398  1.00  0.00    -0.000 C 
BRANCH  11  12
ATOM     12  C   UNL     1      -8.368  -4.754  -1.680  1.00  0.00    -0.000 C 
BRANCH  12  13
ATOM     13  C   UNL     1      -9.644  -5.574  -1.416  1.00  0.00    -0.000 C 
BRANCH  13  14
ATOM     14  C   UNL     1     -10.930  -5.004  -2.050  1.00  0.00    -0.000 C 
BRANCH  14  15
ATOM     15  C   UNL     1     -12.013  -4.575  -1.045  1.00  0.00    -0.003 C 
ATOM     16  C   UNL     1     -11.482  -4.437   0.382  1.00  0.00     0.004 C 
ENDBRANCH  14  15
ENDBRANCH  13  14
ENDBRANCH  12  13
ENDBRANCH  11  12
ENDBRANCH  10  11
ENDBRANCH   1  10
TORSDOF 12
ENDMDL
MODEL 6
REMARK VINA RESULT:    -4.010      1.426      2.607
REMARK INTER + INTRA:          -8.006
REMARK INTER:                  -6.790
REMARK INTRA:                  -1.216
REMARK UNBOUND:                -1.183
REMARK SMILES CCCCCCCCCCCCCC(=O)[O-]
REMARK SMILES IDX 8 1 9 2 10 3 11 4 12 5 13 6 14 7 15 8 16 9 7 10 6 11 5 12
REMARK SMILES IDX 4 13 3 14 2 15 1 16
REMARK H PARENT
REMARK Flexibility Score: inf
ROOT
ATOM      1  C   UNL     1      -2.774  -2.972   1.294  1.00  0.00     0.000 C 
ENDROOT
BRANCH   1   2
ATOM      2  C   UNL     1      -3.969  -2.292   1.984  1.00  0.00     0.000 C 
BRANCH   2   3
ATOM      3  C   UNL     1      -5.323  -2.807   1.470  1.00  0.00     0.000 C 
BRANCH   3   4
ATOM      4  C   UNL     1      -5.297  -4.308   1.140  1.00  0.00     0.000 C 
BRANCH   4   5
ATOM      5  C   UNL     1      -6.705  -4.925   1.057  1.00  0.00     0.006 C 
BRANCH   5   6
ATOM      6  C   UNL     1      -7.261  -5.050  -0.371  1.00  0.00     0.053 C 
BRANCH   6   7
ATOM      7  C   UNL     1      -8.455  -4.173  -0.587  1.00  0.00     0.041 C 
ATOM      8  O   UNL     1      -8.305  -2.962  -0.898  1.00  0.00    -0.550 OA
ATOM      9  O   UNL     1      -9.735  -4.686  -0.415  1.00  0.00    -0.550 OA
ENDBRANCH   6   7
ENDBRANCH   5   6
ENDBRANCH   4   5
ENDBRANCH   3   4
ENDBRANCH   2   3
ENDBRANCH   1   2
BRANCH   1  10
ATOM     10  C   UNL     1      -1.850  -1.967   0.586  1.00  0.00     0.000 C 
BRANCH  10  11
ATOM     11  C   UNL     1      -0.609  -2.634  -0.025  1.00  0.00    -0.000 C 
BRANCH  11  12
ATOM     12  C   UNL     1       0.301  -3.206   1.072  1.00  0.00    -0.000 C 
BRANCH  12  13
ATOM     13  C   UNL     1       0.599  -4.705   0.881  1.00  0.00    -0.000 C 
BRANCH  13  14
ATOM     14  C   UNL     1      -0.143  -5.373  -0.295  1.00  0.00    -0.000 C 
BRANCH  14  15
ATOM     15  C   UNL     1      -1.326  -6.270   0.110  1.00  0.00    -0.003 C 
ATOM     16  C   UNL     1      -2.558  -6.065  -0.772  1.00  0.00     0.004 C 
ENDBRANCH  14  15
ENDBRANCH  13  14
ENDBRANCH  12  13
ENDBRANCH  11  12
ENDBRANCH  10  11
ENDBRANCH   1  10
TORSDOF 12
ENDMDL
MODEL 7
REMARK VINA RESULT:    -4.004      3.463      7.047
REMARK INTER + INTRA:          -7.995
REMARK INTER:                  -7.091
REMARK INTRA:                  -0.904
REMARK UNBOUND:                -1.183
REMARK SMILES CCCCCCCCCCCCCC(=O)[O-]
REMARK SMILES IDX 8 1 9 2 10 3 11 4 12 5 13 6 14 7 15 8 16 9 7 10 6 11 5 12
REMARK SMILES IDX 4 13 3 14 2 15 1 16
REMARK H PARENT
REMARK Flexibility Score: inf
ROOT
ATOM      1  C   UNL     1      -4.109  -4.397   1.471  1.00  0.00     0.000 C 
ENDROOT
BRANCH   1   2
ATOM      2  C   UNL     1      -4.308  -2.881   1.637  1.00  0.00     0.000 C 
BRANCH   2   3
ATOM      3  C   UNL     1      -3.006  -2.086   1.442  1.00  0.00     0.000 C 
BRANCH   3   4
ATOM      4  C   UNL     1      -1.753  -2.969   1.559  1.00  0.00     0.000 C 
BRANCH   4   5
ATOM      5  C   UNL     1      -0.689  -2.636   0.497  1.00  0.00     0.006 C 
BRANCH   5   6
ATOM      6  C   UNL     1      -1.078  -3.030  -0.937  1.00  0.00     0.053 C 
BRANCH   6   7
ATOM      7  C   UNL     1      -0.852  -4.487  -1.200  1.00  0.00     0.041 C 
ATOM      8  O   UNL     1      -0.034  -5.139  -0.499  1.00  0.00    -0.550 OA
ATOM      9  O   UNL     1      -1.522  -5.118  -2.241  1.00  0.00    -0.550 OA
ENDBRANCH   6   7
ENDBRANCH   5   6
ENDBRANCH   4   5
ENDBRANCH   3   4
ENDBRANCH   2   3
ENDBRANCH   1   2
BRANCH   1  10
ATOM     10  C   UNL     1      -5.379  -5.199   1.798  1.00  0.00     0.000 C 
BRANCH  10  11
ATOM     11  C   UNL     1      -6.572  -4.801   0.917  1.00  0.00    -0.000 C 
BRANCH  11  12
ATOM     12  C   UNL     1      -6.543  -5.559  -0.419  1.00  0.00    -0.000 C 
BRANCH  12  13
ATOM     13  C   UNL     1      -7.714  -5.183  -1.345  1.00  0.00    -0.000 C 
BRANCH  13  14
ATOM     14  C   UNL     1      -8.399  -3.840  -1.020  1.00  0.00    -0.000 C 
BRANCH  14  15
ATOM     15  C   UNL     1      -9.890  -3.943  -0.655  1.00  0.00    -0.003 C 
ATOM     16  C   UNL     1     -10.201  -5.134   0.252  1.00  0.00     0.004 C 
ENDBRANCH  14  15
ENDBRANCH  13  14
ENDBRANCH  12  13
ENDBRANCH  11  12
ENDBRANCH  10  11
ENDBRANCH   1  10
TORSDOF 12
ENDMDL
MODEL 8
REMARK VINA RESULT:    -3.945      3.501      6.881
REMARK INTER + INTRA:          -7.895
REMARK INTER:                  -6.799
REMARK INTRA:                  -1.096
REMARK UNBOUND:                -1.183
REMARK SMILES CCCCCCCCCCCCCC(=O)[O-]
REMARK SMILES IDX 8 1 9 2 10 3 11 4 12 5 13 6 14 7 15 8 16 9 7 10 6 11 5 12
REMARK SMILES IDX 4 13 3 14 2 15 1 16
REMARK H PARENT
REMARK Flexibility Score: inf
ROOT
ATOM      1  C   UNL     1      -2.197  -2.890   0.675  1.00  0.00     0.000 C 
ENDROOT
BRANCH   1   2
ATOM      2  C   UNL     1      -0.819  -2.268   0.387  1.00  0.00     0.000 C 
BRANCH   2   3
ATOM      3  C   UNL     1       0.335  -3.063   1.018  1.00  0.00     0.000 C 
BRANCH   3   4
ATOM      4  C   UNL     1      -0.133  -4.388   1.642  1.00  0.00     0.000 C 
BRANCH   4   5
ATOM      5  C   UNL     1       0.709  -5.593   1.184  1.00  0.00     0.006 C 
BRANCH   5   6
ATOM      6  C   UNL     1       0.703  -5.830  -0.334  1.00  0.00     0.053 C 
BRANCH   6   7
ATOM      7  C   UNL     1      -0.684  -6.000  -0.872  1.00  0.00     0.041 C 
ATOM      8  O   UNL     1      -1.109  -5.243  -1.783  1.00  0.00    -0.550 OA
ATOM      9  O   UNL     1      -1.519  -6.976  -0.343  1.00  0.00    -0.550 OA
ENDBRANCH   6   7
ENDBRANCH   5   6
ENDBRANCH   4   5
ENDBRANCH   3   4
ENDBRANCH   2   3
ENDBRANCH   1   2
BRANCH   1  10
ATOM     10  C   UNL     1      -3.094  -1.973   1.520  1.00  0.00     0.000 C 
BRANCH  10  11
ATOM     11  C   UNL     1      -4.438  -2.626   1.876  1.00  0.00    -0.000 C 
BRANCH  11  12
ATOM     12  C   UNL     1      -4.314  -4.156   1.903  1.00  0.00    -0.000 C 
BRANCH  12  13
ATOM     13  C   UNL     1      -5.450  -4.863   1.140  1.00  0.00    -0.000 C 
BRANCH  13  14
ATOM     14  C   UNL     1      -6.593  -3.940   0.670  1.00  0.00    -0.000 C 
BRANCH  14  15
ATOM     15  C   UNL     1      -7.567  -4.575  -0.338  1.00  0.00    -0.003 C 
ATOM     16  C   UNL     1      -8.490  -3.553  -1.000  1.00  0.00     0.004 C 
ENDBRANCH  14  15
ENDBRANCH  13  14
ENDBRANCH  12  13
ENDBRANCH  11  12
ENDBRANCH  10  11
ENDBRANCH   1  10
TORSDOF 12
ENDMDL
MODEL 9
REMARK VINA RESULT:    -3.894      1.580      1.749
REMARK INTER + INTRA:          -7.808
REMARK INTER:                  -6.806
REMARK INTRA:                  -1.003
REMARK UNBOUND:                -1.183
REMARK SMILES CCCCCCCCCCCCCC(=O)[O-]
REMARK SMILES IDX 8 1 9 2 10 3 11 4 12 5 13 6 14 7 15 8 16 9 7 10 6 11 5 12
REMARK SMILES IDX 4 13 3 14 2 15 1 16
REMARK H PARENT
REMARK Flexibility Score: inf
ROOT
ATOM      1  C   UNL     1      -4.461  -4.382   1.563  1.00  0.00     0.000 C 
ENDROOT
BRANCH   1   2
ATOM      2  C   UNL     1      -5.427  -5.221   0.708  1.00  0.00     0.000 C 
BRANCH   2   3
ATOM      3  C   UNL     1      -6.688  -5.643   1.479  1.00  0.00     0.000 C 
BRANCH   3   4
ATOM      4  C   UNL     1      -7.982  -5.165   0.799  1.00  0.00     0.000 C 
BRANCH   4   5
ATOM      5  C   UNL     1      -7.723  -4.149  -0.328  1.00  0.00     0.006 C 
BRANCH   5   6
ATOM      6  C   UNL     1      -8.638  -4.311  -1.551  1.00  0.00     0.053 C 
BRANCH   6   7
ATOM      7  C   UNL     1      -7.944  -4.998  -2.687  1.00  0.00     0.041 C 
ATOM      8  O   UNL     1      -8.339  -4.826  -3.870  1.00  0.00    -0.550 OA
ATOM      9  O   UNL     1      -6.878  -5.853  -2.434  1.00  0.00    -0.550 OA
ENDBRANCH   6   7
ENDBRANCH   5   6
ENDBRANCH   4   5
ENDBRANCH   3   4
ENDBRANCH   2   3
ENDBRANCH   1   2
BRANCH   1  10
ATOM     10  C   UNL     1      -4.908  -2.918   1.695  1.00  0.00     0.000 C 
BRANCH  10  11
ATOM     11  C   UNL     1      -3.730  -1.934   1.660  1.00  0.00    -0.000 C 
BRANCH  11  12
ATOM     12  C   UNL     1      -2.389  -2.684   1.678  1.00  0.00    -0.000 C 
BRANCH  12  13
ATOM     13  C   UNL     1      -1.392  -2.151   0.633  1.00  0.00    -0.000 C 
BRANCH  13  14
ATOM     14  C   UNL     1      -0.080  -2.955   0.513  1.00  0.00    -0.000 C 
BRANCH  14  15
ATOM     15  C   UNL     1      -0.242  -4.382  -0.037  1.00  0.00    -0.003 C 
ATOM     16  C   UNL     1      -1.122  -4.444  -1.286  1.00  0.00     0.004 C 
ENDBRANCH  14  15
ENDBRANCH  13  14
ENDBRANCH  12  13
ENDBRANCH  11  12
ENDBRANCH  10  11
ENDBRANCH   1  10
TORSDOF 12
ENDMDL
