MODEL 1
REMARK VINA RESULT:    -4.643      0.000      0.000
REMARK INTER + INTRA:          -6.514
REMARK INTER:                  -6.000
REMARK INTRA:                  -0.514
REMARK UNBOUND:                -0.514
REMARK SMILES C=CC(=O)CCCCC
REMARK SMILES IDX 6 1 7 2 8 3 9 4 5 5 3 6 4 7 2 8 1 9
REMARK H PARENT
REMARK Flexibility Score: inf
ROOT
ATOM      1  C   UNL     1      31.453  22.557   8.727  1.00  0.00     0.008 C 
ENDROOT
BRANCH   1   2
ATOM      2  C   UNL     1      29.988  22.088   8.728  1.00  0.00     0.000 C 
BRANCH   2   3
ATOM      3  C   UNL     1      29.082  22.981   7.867  1.00  0.00    -0.003 C 
ATOM      4  C   UNL     1      28.298  22.191   6.820  1.00  0.00     0.004 C 
ENDBRANCH   2   3
ENDBRANCH   1   2
BRANCH   1   5
ATOM      5  C   UNL     1      32.035  22.643   7.310  1.00  0.00     0.080 C 
BRANCH   5   6
ATOM      6  C   UNL     1      32.865  21.436   6.974  1.00  0.00     0.155 C 
ATOM      7  O   UNL     1      34.091  21.428   7.275  1.00  0.00    -0.295 OA
BRANCH   6   8
ATOM      8  C   UNL     1      32.245  20.263   6.328  1.00  0.00     0.039 C 
ATOM      9  C   UNL     1      31.224  20.370   5.479  1.00  0.00     0.012 C 
ENDBRANCH   6   8
ENDBRANCH   5   6
ENDBRANCH   1   5
TORSDOF 5
ENDMDL
MODEL 2
REMARK VINA RESULT:    -4.637      1.415      3.150
REMARK INTER + INTRA:          -6.507
REMARK INTER:                  -5.924
REMARK INTRA:                  -0.583
REMARK UNBOUND:                -0.514
REMARK SMILES C=CC(=O)CCCCC
REMARK SMILES IDX 6 1 7 2 8 3 9 4 5 5 3 6 4 7 2 8 1 9
REMARK H PARENT
REMARK Flexibility Score: inf
ROOT
ATOM      1  C   UNL     1      32.106  20.290   6.521  1.00  0.00     0.008 C 
ENDROOT
BRANCH   1   2
ATOM      2  C   UNL     1      31.228  20.208   5.261  1.00  0.00     0.000 C 
BRANCH   2   3
ATOM      3  C   UNL     1      29.764  19.875   5.584  1.00  0.00    -0.003 C 
ATOM      4  C   UNL     1      28.859  21.107   5.559  1.00  0.00     0.004 C 
ENDBRANCH   2   3
ENDBRANCH   1   2
BRANCH   1   5
ATOM      5  C   UNL     1      32.724  21.682   6.710  1.00  0.00     0.080 C 
BRANCH   5   6
ATOM      6  C   UNL     1      31.800  22.605   7.453  1.00  0.00     0.155 C 
ATOM      7  O   UNL     1      31.546  23.743   6.969  1.00  0.00    -0.295 OA
BRANCH   6   8
ATOM      8  C   UNL     1      31.175  22.173   8.718  1.00  0.00     0.039 C 
ATOM      9  C   UNL     1      29.854  22.106   8.877  1.00  0.00     0.012 C 
ENDBRANCH   6   8
ENDBRANCH   5   6
ENDBRANCH   1   5
TORSDOF 5
ENDMDL
MODEL 3
REMARK VINA RESULT:    -4.608      1.782      3.417
REMARK INTER + INTRA:          -6.469
REMARK INTER:                  -6.022
REMARK INTRA:                  -0.447
REMARK UNBOUND:                -0.514
REMARK SMILES C=CC(=O)CCCCC
REMARK SMILES IDX 6 1 7 2 8 3 9 4 5 5 3 6 4 7 2 8 1 9
REMARK H PARENT
REMARK Flexibility Score: inf
ROOT
ATOM      1  C   UNL     1      32.741  21.236   6.332  1.00  0.00     0.008 C 
ENDROOT
BRANCH   1   2
ATOM      2  C   UNL     1      31.852  19.984   6.243  1.00  0.00     0.000 C 
BRANCH   2   3
ATOM      3  C   UNL     1      30.775  20.101   5.154  1.00  0.00    -0.003 C 
ATOM      4  C   UNL     1      29.467  20.694   5.679  1.00  0.00     0.004 C 
ENDBRANCH   2   3
ENDBRANCH   1   2
BRANCH   1   5
ATOM      5  C   UNL     1      32.860  21.764   7.767  1.00  0.00     0.080 C 
BRANCH   5   6
ATOM      6  C   UNL     1      31.607  22.466   8.209  1.00  0.00     0.155 C 
ATOM      7  O   UNL     1      31.046  22.109   9.282  1.00  0.00    -0.295 OA
BRANCH   6   8
ATOM      8  C   UNL     1      31.059  23.582   7.413  1.00  0.00     0.039 C 
ATOM      9  C   UNL     1      31.261  24.858   7.736  1.00  0.00     0.012 C 
ENDBRANCH   6   8
ENDBRANCH   5   6
ENDBRANCH   1   5
TORSDOF 5
ENDMDL
MODEL 4
REMARK VINA RESULT:    -4.562      1.235      2.771
REMARK INTER + INTRA:          -6.410
REMARK INTER:                  -5.914
REMARK INTRA:                  -0.497
REMARK UNBOUND:                -0.514
REMARK SMILES C=CC(=O)CCCCC
REMARK SMILES IDX 6 1 7 2 8 3 9 4 5 5 3 6 4 7 2 8 1 9
REMARK H PARENT
REMARK Flexibility Score: inf
ROOT
ATOM      1  C   UNL     1      31.182  19.875   6.295  1.00  0.00     0.008 C 
ENDROOT
BRANCH   1   2
ATOM      2  C   UNL     1      30.087  20.187   5.261  1.00  0.00     0.000 C 
BRANCH   2   3
ATOM      3  C   UNL     1      28.897  20.942   5.872  1.00  0.00    -0.003 C 
ATOM      4  C   UNL     1      28.522  20.428   7.262  1.00  0.00     0.004 C 
ENDBRANCH   2   3
ENDBRANCH   1   2
BRANCH   1   5
ATOM      5  C   UNL     1      32.485  20.632   6.008  1.00  0.00     0.080 C 
BRANCH   5   6
ATOM      6  C   UNL     1      32.855  21.554   7.134  1.00  0.00     0.155 C 
ATOM      7  O   UNL     1      34.053  21.594   7.531  1.00  0.00    -0.295 OA
BRANCH   6   8
ATOM      8  C   UNL     1      31.834  22.427   7.747  1.00  0.00     0.039 C 
ATOM      9  C   UNL     1      31.381  22.237   8.985  1.00  0.00     0.012 C 
ENDBRANCH   6   8
ENDBRANCH   5   6
ENDBRANCH   1   5
TORSDOF 5
ENDMDL
MODEL 5
REMARK VINA RESULT:    -4.513      1.664      3.599
REMARK INTER + INTRA:          -6.347
REMARK INTER:                  -5.863
REMARK INTRA:                  -0.485
REMARK UNBOUND:                -0.514
REMARK SMILES C=CC(=O)CCCCC
REMARK SMILES IDX 6 1 7 2 8 3 9 4 5 5 3 6 4 7 2 8 1 9
REMARK H PARENT
REMARK Flexibility Score: inf
ROOT
ATOM      1  C   UNL     1      28.981  21.632   7.112  1.00  0.00     0.008 C 
ENDROOT
BRANCH   1   2
ATOM      2  C   UNL     1      29.693  20.313   6.770  1.00  0.00     0.000 C 
BRANCH   2   3
ATOM      3  C   UNL     1      30.553  20.418   5.502  1.00  0.00    -0.003 C 
ATOM      4  C   UNL     1      32.052  20.372   5.799  1.00  0.00     0.004 C 
ENDBRANCH   2   3
ENDBRANCH   1   2
BRANCH   1   5
ATOM      5  C   UNL     1      29.398  22.181   8.483  1.00  0.00     0.080 C 
BRANCH   5   6
ATOM      6  C   UNL     1      30.828  22.644   8.487  1.00  0.00     0.155 C 
ATOM      7  O   UNL     1      31.635  22.145   9.320  1.00  0.00    -0.295 OA
BRANCH   6   8
ATOM      8  C   UNL     1      31.288  23.647   7.507  1.00  0.00     0.039 C 
ATOM      9  C   UNL     1      31.310  24.951   7.776  1.00  0.00     0.012 C 
ENDBRANCH   6   8
ENDBRANCH   5   6
ENDBRANCH   1   5
TORSDOF 5
ENDMDL
MODEL 6
REMARK VINA RESULT:    -4.464      2.079      4.340
REMARK INTER + INTRA:          -6.283
REMARK INTER:                  -5.825
REMARK INTRA:                  -0.458
REMARK UNBOUND:                -0.514
REMARK SMILES C=CC(=O)CCCCC
REMARK SMILES IDX 6 1 7 2 8 3 9 4 5 5 3 6 4 7 2 8 1 9
REMARK H PARENT
REMARK Flexibility Score: inf
ROOT
ATOM      1  C   UNL     1      30.778  20.269   5.647  1.00  0.00     0.008 C 
ENDROOT
BRANCH   1   2
ATOM      2  C   UNL     1      32.196  20.118   6.222  1.00  0.00     0.000 C 
BRANCH   2   3
ATOM      3  C   UNL     1      32.941  21.458   6.317  1.00  0.00    -0.003 C 
ATOM      4  C   UNL     1      34.003  21.466   7.416  1.00  0.00     0.004 C 
ENDBRANCH   2   3
ENDBRANCH   1   2
BRANCH   1   5
ATOM      5  C   UNL     1      29.702  20.257   6.741  1.00  0.00     0.080 C 
BRANCH   5   6
ATOM      6  C   UNL     1      29.315  21.647   7.157  1.00  0.00     0.155 C 
ATOM      7  O   UNL     1      28.751  22.406   6.321  1.00  0.00    -0.295 OA
BRANCH   6   8
ATOM      8  C   UNL     1      29.562  22.107   8.538  1.00  0.00     0.039 C 
ATOM      9  C   UNL     1      30.783  22.154   9.068  1.00  0.00     0.012 C 
ENDBRANCH   6   8
ENDBRANCH   5   6
ENDBRANCH   1   5
TORSDOF 5
ENDMDL
MODEL 7
REMARK VINA RESULT:    -4.436      1.499      2.069
REMARK INTER + INTRA:          -6.247
REMARK INTER:                  -6.021
REMARK INTRA:                  -0.226
REMARK UNBOUND:                -0.514
REMARK SMILES C=CC(=O)CCCCC
REMARK SMILES IDX 6 1 7 2 8 3 9 4 5 5 3 6 4 7 2 8 1 9
REMARK H PARENT
REMARK Flexibility Score: inf
ROOT
ATOM      1  C   UNL     1      30.562  22.145   8.560  1.00  0.00     0.008 C 
ENDROOT
BRANCH   1   2
ATOM      2  C   UNL     1      30.131  23.568   8.166  1.00  0.00     0.000 C 
BRANCH   2   3
ATOM      3  C   UNL     1      31.240  24.339   7.434  1.00  0.00    -0.003 C 
ATOM      4  C   UNL     1      31.386  25.777   7.933  1.00  0.00     0.004 C 
ENDBRANCH   2   3
ENDBRANCH   1   2
BRANCH   1   5
ATOM      5  C   UNL     1      32.051  21.893   8.290  1.00  0.00     0.080 C 
BRANCH   5   6
ATOM      6  C   UNL     1      32.269  21.188   6.981  1.00  0.00     0.155 C 
ATOM      7  O   UNL     1      33.314  21.431   6.316  1.00  0.00    -0.295 OA
BRANCH   6   8
ATOM      8  C   UNL     1      31.286  20.200   6.495  1.00  0.00     0.039 C 
ATOM      9  C   UNL     1      30.736  20.274   5.285  1.00  0.00     0.012 C 
ENDBRANCH   6   8
ENDBRANCH   5   6
ENDBRANCH   1   5
TORSDOF 5
ENDMDL
MODEL 8
REMARK VINA RESULT:    -4.334      1.581      2.321
REMARK INTER + INTRA:          -6.115
REMARK INTER:                  -5.614
REMARK INTRA:                  -0.501
REMARK UNBOUND:                -0.514
REMARK SMILES C=CC(=O)CCCCC
REMARK SMILES IDX 6 1 7 2 8 3 9 4 5 5 3 6 4 7 2 8 1 9
REMARK H PARENT
REMARK Flexibility Score: inf
ROOT
ATOM      1  C   UNL     1      29.494  22.177   8.588  1.00  0.00     0.008 C 
ENDROOT
BRANCH   1   2
ATOM      2  C   UNL     1      29.049  21.035   7.660  1.00  0.00     0.000 C 
BRANCH   2   3
ATOM      3  C   UNL     1      29.013  21.454   6.183  1.00  0.00    -0.003 C 
ATOM      4  C   UNL     1      29.385  20.314   5.236  1.00  0.00     0.004 C 
ENDBRANCH   2   3
ENDBRANCH   1   2
BRANCH   1   5
ATOM      5  C   UNL     1      30.991  22.111   8.915  1.00  0.00     0.080 C 
BRANCH   5   6
ATOM      6  C   UNL     1      31.822  22.793   7.866  1.00  0.00     0.155 C 
ATOM      7  O   UNL     1      31.582  23.998   7.577  1.00  0.00    -0.295 OA
BRANCH   6   8
ATOM      8  C   UNL     1      32.926  22.071   7.204  1.00  0.00     0.039 C 
ATOM      9  C   UNL     1      32.744  20.918   6.563  1.00  0.00     0.012 C 
ENDBRANCH   6   8
ENDBRANCH   5   6
ENDBRANCH   1   5
TORSDOF 5
ENDMDL
MODEL 9
REMARK VINA RESULT:    -4.290      1.717      3.510
REMARK INTER + INTRA:          -6.058
REMARK INTER:                  -5.488
REMARK INTRA:                  -0.570
REMARK UNBOUND:                -0.514
REMARK SMILES C=CC(=O)CCCCC
REMARK SMILES IDX 6 1 7 2 8 3 9 4 5 5 3 6 4 7 2 8 1 9
REMARK H PARENT
REMARK Flexibility Score: inf
ROOT
ATOM      1  C   UNL     1      32.465  21.977   8.130  1.00  0.00     0.008 C 
ENDROOT
BRANCH   1   2
ATOM      2  C   UNL     1      32.510  21.576   6.646  1.00  0.00     0.000 C 
BRANCH   2   3
ATOM      3  C   UNL     1      32.119  20.109   6.419  1.00  0.00    -0.003 C 
ATOM      4  C   UNL     1      31.217  19.921   5.199  1.00  0.00     0.004 C 
ENDBRANCH   2   3
ENDBRANCH   1   2
BRANCH   1   5
ATOM      5  C   UNL     1      31.028  22.101   8.655  1.00  0.00     0.080 C 
BRANCH   5   6
ATOM      6  C   UNL     1      30.215  23.060   7.833  1.00  0.00     0.155 C 
ATOM      7  O   UNL     1      30.509  24.288   7.848  1.00  0.00    -0.295 OA
BRANCH   6   8
ATOM      8  C   UNL     1      29.105  22.566   6.994  1.00  0.00     0.039 C 
ATOM      9  C   UNL     1      28.462  21.430   7.255  1.00  0.00     0.012 C 
ENDBRANCH   6   8
ENDBRANCH   5   6
ENDBRANCH   1   5
TORSDOF 5
ENDMDL
