MODEL 1
REMARK VINA RESULT:    -4.681      0.000      0.000
REMARK INTER + INTRA:          -5.591
REMARK INTER:                  -5.776
REMARK INTRA:                   0.185
REMARK UNBOUND:                 0.185
REMARK SMILES O=C1c2c(O)cc(O)cc2O[C@H](c2cc(O)c(O)c(O)c2)[C@@H]1O
REMARK SMILES IDX 12 1 22 2 2 3 1 4 3 5 4 6 6 7 7 8 9 9 10 10 11 11 13 12
REMARK SMILES IDX 14 13 15 14 21 15 17 16 19 17 16 18 18 20 20 22 23 24 5 26
REMARK SMILES IDX 8 28
REMARK H PARENT 16 19 18 21 20 23 23 25 5 27 8 29
REMARK Flexibility Score: inf
ROOT
ATOM      1  C   UNL     1      -9.185  10.091   5.317  1.00  0.00     0.240 C 
ATOM      2  C   UNL     1     -10.353  11.063   5.564  1.00  0.00     0.231 C 
ATOM      3  C   UNL     1     -11.624  10.404   5.104  1.00  0.00     0.202 C 
ATOM      4  O   UNL     1     -12.430  11.051   4.385  1.00  0.00    -0.291 OA
ATOM      5  C   UNL     1     -11.864   8.982   5.458  1.00  0.00     0.105 A 
ATOM      6  C   UNL     1     -13.140   8.361   5.440  1.00  0.00     0.133 A 
ATOM      7  C   UNL     1     -13.245   6.995   5.729  1.00  0.00     0.093 A 
ATOM      8  C   UNL     1     -12.118   6.249   6.092  1.00  0.00     0.123 A 
ATOM      9  C   UNL     1     -10.869   6.869   6.157  1.00  0.00     0.093 A 
ATOM     10  C   UNL     1     -10.734   8.221   5.832  1.00  0.00     0.138 A 
ATOM     11  O   UNL     1      -9.465   8.811   5.891  1.00  0.00    -0.481 OA
ENDROOT
BRANCH   1  12
ATOM     12  C   UNL     1      -7.883  10.641   5.853  1.00  0.00     0.003 A 
ATOM     13  C   UNL     1      -7.717  10.825   7.235  1.00  0.00     0.058 A 
ATOM     14  C   UNL     1      -6.504  11.301   7.751  1.00  0.00     0.161 A 
ATOM     15  C   UNL     1      -6.806  10.914   4.992  1.00  0.00     0.058 A 
ATOM     16  C   UNL     1      -5.437  11.588   6.882  1.00  0.00     0.200 A 
ATOM     17  C   UNL     1      -5.591  11.389   5.499  1.00  0.00     0.161 A 
BRANCH  14  18
ATOM     18  O   UNL     1      -6.355  11.489   9.124  1.00  0.00    -0.504 OA
ATOM     19  H   UNL     1      -6.028  10.746   9.730  1.00  0.00     0.293 HD
ENDBRANCH  14  18
BRANCH  16  20
ATOM     20  O   UNL     1      -4.223  12.066   7.378  1.00  0.00    -0.502 OA
ATOM     21  H   UNL     1      -3.497  11.445   7.716  1.00  0.00     0.293 HD
ENDBRANCH  16  20
BRANCH  17  22
ATOM     22  O   UNL     1      -4.549  11.656   4.612  1.00  0.00    -0.504 OA
ATOM     23  H   UNL     1      -4.375  11.081   3.797  1.00  0.00     0.293 HD
ENDBRANCH  17  22
ENDBRANCH   1  12
BRANCH   2  24
ATOM     24  O   UNL     1     -10.455  11.365   6.932  1.00  0.00    -0.381 OA
ATOM     25  H   UNL     1      -9.580  11.744   7.206  1.00  0.00     0.211 HD
ENDBRANCH   2  24
BRANCH   6  26
ATOM     26  O   UNL     1     -14.324   9.055   5.179  1.00  0.00    -0.507 OA
ATOM     27  H   UNL     1     -14.895   8.907   4.360  1.00  0.00     0.293 HD
ENDBRANCH   6  26
BRANCH   8  28
ATOM     28  O   UNL     1     -12.229   4.895   6.397  1.00  0.00    -0.508 OA
ATOM     29  H   UNL     1     -11.847   4.181   5.786  1.00  0.00     0.293 HD
ENDBRANCH   8  28
TORSDOF 7
ENDMDL
MODEL 2
REMARK VINA RESULT:    -4.052      1.868      3.664
REMARK INTER + INTRA:          -4.815
REMARK INTER:                  -4.429
REMARK INTRA:                  -0.386
REMARK UNBOUND:                 0.185
REMARK SMILES O=C1c2c(O)cc(O)cc2O[C@H](c2cc(O)c(O)c(O)c2)[C@@H]1O
REMARK SMILES IDX 12 1 22 2 2 3 1 4 3 5 4 6 6 7 7 8 9 9 10 10 11 11 13 12
REMARK SMILES IDX 14 13 15 14 21 15 17 16 19 17 16 18 18 20 20 22 23 24 5 26
REMARK SMILES IDX 8 28
REMARK H PARENT 16 19 18 21 20 23 23 25 5 27 8 29
REMARK Flexibility Score: inf
ROOT
ATOM      1  C   UNL     1      -9.345   7.979   6.637  1.00  0.00     0.240 C 
ATOM      2  C   UNL     1      -8.825   6.560   6.339  1.00  0.00     0.231 C 
ATOM      3  C   UNL     1      -9.937   5.583   6.606  1.00  0.00     0.202 C 
ATOM      4  O   UNL     1      -9.699   4.547   7.280  1.00  0.00    -0.291 OA
ATOM      5  C   UNL     1     -11.303   5.900   6.119  1.00  0.00     0.105 A 
ATOM      6  C   UNL     1     -12.332   4.937   5.949  1.00  0.00     0.133 A 
ATOM      7  C   UNL     1     -13.606   5.355   5.546  1.00  0.00     0.093 A 
ATOM      8  C   UNL     1     -13.861   6.699   5.252  1.00  0.00     0.123 A 
ATOM      9  C   UNL     1     -12.839   7.640   5.372  1.00  0.00     0.093 A 
ATOM     10  C   UNL     1     -11.571   7.253   5.813  1.00  0.00     0.138 A 
ATOM     11  O   UNL     1     -10.569   8.225   5.938  1.00  0.00    -0.481 OA
ENDROOT
BRANCH   1  12
ATOM     12  C   UNL     1      -8.315   9.031   6.290  1.00  0.00     0.003 A 
ATOM     13  C   UNL     1      -8.655  10.086   5.428  1.00  0.00     0.058 A 
ATOM     14  C   UNL     1      -7.723  11.088   5.125  1.00  0.00     0.161 A 
ATOM     15  C   UNL     1      -7.035   9.005   6.869  1.00  0.00     0.058 A 
ATOM     16  C   UNL     1      -6.438  11.045   5.694  1.00  0.00     0.200 A 
ATOM     17  C   UNL     1      -6.098  10.001   6.571  1.00  0.00     0.161 A 
BRANCH  14  18
ATOM     18  O   UNL     1      -8.069  12.125   4.261  1.00  0.00    -0.504 OA
ATOM     19  H   UNL     1      -7.728  12.159   3.308  1.00  0.00     0.293 HD
ENDBRANCH  14  18
BRANCH  16  20
ATOM     20  O   UNL     1      -5.496  12.033   5.401  1.00  0.00    -0.502 OA
ATOM     21  H   UNL     1      -5.705  13.021   5.491  1.00  0.00     0.293 HD
ENDBRANCH  16  20
BRANCH  17  22
ATOM     22  O   UNL     1      -4.835   9.936   7.159  1.00  0.00    -0.504 OA
ATOM     23  H   UNL     1      -4.705   9.979   8.162  1.00  0.00     0.293 HD
ENDBRANCH  17  22
ENDBRANCH   1  12
BRANCH   2  24
ATOM     24  O   UNL     1      -8.429   6.459   4.996  1.00  0.00    -0.381 OA
ATOM     25  H   UNL     1      -9.122   6.923   4.458  1.00  0.00     0.211 HD
ENDBRANCH   2  24
BRANCH   6  26
ATOM     26  O   UNL     1     -12.133   3.567   6.132  1.00  0.00    -0.507 OA
ATOM     27  H   UNL     1     -12.326   2.871   5.428  1.00  0.00     0.293 HD
ENDBRANCH   6  26
BRANCH   8  28
ATOM     28  O   UNL     1     -15.125   7.108   4.833  1.00  0.00    -0.508 OA
ATOM     29  H   UNL     1     -15.322   7.305   3.859  1.00  0.00     0.293 HD
ENDBRANCH   8  28
TORSDOF 7
ENDMDL
MODEL 3
REMARK VINA RESULT:    -3.242     16.929     19.098
REMARK INTER + INTRA:          -3.816
REMARK INTER:                  -4.140
REMARK INTRA:                   0.324
REMARK UNBOUND:                 0.185
REMARK SMILES O=C1c2c(O)cc(O)cc2O[C@H](c2cc(O)c(O)c(O)c2)[C@@H]1O
REMARK SMILES IDX 12 1 22 2 2 3 1 4 3 5 4 6 6 7 7 8 9 9 10 10 11 11 13 12
REMARK SMILES IDX 14 13 15 14 21 15 17 16 19 17 16 18 18 20 20 22 23 24 5 26
REMARK SMILES IDX 8 28
REMARK H PARENT 16 19 18 21 20 23 23 25 5 27 8 29
REMARK Flexibility Score: inf
ROOT
ATOM      1  C   UNL     1     -10.262  -0.225  -9.135  1.00  0.00     0.240 C 
ATOM      2  C   UNL     1     -10.192  -1.004 -10.462  1.00  0.00     0.231 C 
ATOM      3  C   UNL     1      -9.291  -2.193 -10.267  1.00  0.00     0.202 C 
ATOM      4  O   UNL     1      -8.404  -2.441 -11.125  1.00  0.00    -0.291 OA
ATOM      5  C   UNL     1      -9.432  -3.004  -9.032  1.00  0.00     0.105 A 
ATOM      6  C   UNL     1      -8.950  -4.332  -8.892  1.00  0.00     0.133 A 
ATOM      7  C   UNL     1      -9.078  -4.986  -7.661  1.00  0.00     0.093 A 
ATOM      8  C   UNL     1      -9.727  -4.368  -6.585  1.00  0.00     0.123 A 
ATOM      9  C   UNL     1     -10.245  -3.081  -6.735  1.00  0.00     0.093 A 
ATOM     10  C   UNL     1     -10.092  -2.395  -7.942  1.00  0.00     0.138 A 
ATOM     11  O   UNL     1     -10.609  -1.097  -8.056  1.00  0.00    -0.481 OA
ENDROOT
BRANCH   1  12
ATOM     12  C   UNL     1     -11.235   0.929  -9.220  1.00  0.00     0.003 A 
ATOM     13  C   UNL     1     -12.571   0.693  -9.585  1.00  0.00     0.058 A 
ATOM     14  C   UNL     1     -13.493   1.746  -9.634  1.00  0.00     0.161 A 
ATOM     15  C   UNL     1     -10.839   2.233  -8.878  1.00  0.00     0.058 A 
ATOM     16  C   UNL     1     -13.086   3.051  -9.307  1.00  0.00     0.200 A 
ATOM     17  C   UNL     1     -11.755   3.291  -8.924  1.00  0.00     0.161 A 
BRANCH  14  18
ATOM     18  O   UNL     1     -14.814   1.501 -10.006  1.00  0.00    -0.504 OA
ATOM     19  H   UNL     1     -15.531   2.211  -9.921  1.00  0.00     0.293 HD
ENDBRANCH  14  18
BRANCH  16  20
ATOM     20  O   UNL     1     -13.991   4.113  -9.353  1.00  0.00    -0.502 OA
ATOM     21  H   UNL     1     -13.760   5.034  -8.999  1.00  0.00     0.293 HD
ENDBRANCH  16  20
BRANCH  17  22
ATOM     22  O   UNL     1     -11.322   4.573  -8.585  1.00  0.00    -0.504 OA
ATOM     23  H   UNL     1     -10.800   5.153  -9.230  1.00  0.00     0.293 HD
ENDBRANCH  17  22
ENDBRANCH   1  12
BRANCH   2  24
ATOM     24  O   UNL     1     -11.471  -1.446 -10.835  1.00  0.00    -0.381 OA
ATOM     25  H   UNL     1     -11.607  -1.166 -11.777  1.00  0.00     0.211 HD
ENDBRANCH   2  24
BRANCH   6  26
ATOM     26  O   UNL     1      -8.374  -5.050  -9.943  1.00  0.00    -0.507 OA
ATOM     27  H   UNL     1      -8.603  -6.008 -10.164  1.00  0.00     0.293 HD
ENDBRANCH   6  26
BRANCH   8  28
ATOM     28  O   UNL     1      -9.869  -5.028  -5.367  1.00  0.00    -0.508 OA
ATOM     29  H   UNL     1     -10.283  -4.571  -4.562  1.00  0.00     0.293 HD
ENDBRANCH   8  28
TORSDOF 7
ENDMDL
MODEL 4
REMARK VINA RESULT:    -2.175      2.519      6.732
REMARK INTER + INTRA:          -2.499
REMARK INTER:                  -2.624
REMARK INTRA:                   0.125
REMARK UNBOUND:                 0.185
REMARK SMILES O=C1c2c(O)cc(O)cc2O[C@H](c2cc(O)c(O)c(O)c2)[C@@H]1O
REMARK SMILES IDX 12 1 22 2 2 3 1 4 3 5 4 6 6 7 7 8 9 9 10 10 11 11 13 12
REMARK SMILES IDX 14 13 15 14 21 15 17 16 19 17 16 18 18 20 20 22 23 24 5 26
REMARK SMILES IDX 8 28
REMARK H PARENT 16 19 18 21 20 23 23 25 5 27 8 29
REMARK Flexibility Score: inf
ROOT
ATOM      1  C   UNL     1     -11.388   7.443   6.696  1.00  0.00     0.240 C 
ATOM      2  C   UNL     1     -12.682   7.812   5.947  1.00  0.00     0.231 C 
ATOM      3  C   UNL     1     -12.782   9.312   5.885  1.00  0.00     0.202 C 
ATOM      4  O   UNL     1     -13.872   9.870   6.180  1.00  0.00    -0.291 OA
ATOM      5  C   UNL     1     -11.572  10.098   5.538  1.00  0.00     0.105 A 
ATOM      6  C   UNL     1     -11.599  11.437   5.069  1.00  0.00     0.133 A 
ATOM      7  C   UNL     1     -10.394  12.110   4.833  1.00  0.00     0.093 A 
ATOM      8  C   UNL     1      -9.165  11.459   4.998  1.00  0.00     0.123 A 
ATOM      9  C   UNL     1      -9.137  10.128   5.414  1.00  0.00     0.093 A 
ATOM     10  C   UNL     1     -10.326   9.450   5.694  1.00  0.00     0.138 A 
ATOM     11  O   UNL     1     -10.264   8.118   6.125  1.00  0.00    -0.481 OA
ENDROOT
BRANCH   1  12
ATOM     12  C   UNL     1     -11.161   5.948   6.707  1.00  0.00     0.003 A 
ATOM     13  C   UNL     1     -10.826   5.282   5.517  1.00  0.00     0.058 A 
ATOM     14  C   UNL     1     -10.578   3.903   5.517  1.00  0.00     0.161 A 
ATOM     15  C   UNL     1     -11.219   5.218   7.906  1.00  0.00     0.058 A 
ATOM     16  C   UNL     1     -10.655   3.177   6.718  1.00  0.00     0.200 A 
ATOM     17  C   UNL     1     -10.973   3.841   7.915  1.00  0.00     0.161 A 
BRANCH  14  18
ATOM     18  O   UNL     1     -10.255   3.252   4.327  1.00  0.00    -0.504 OA
ATOM     19  H   UNL     1     -10.128   2.248   4.288  1.00  0.00     0.293 HD
ENDBRANCH  14  18
BRANCH  16  20
ATOM     20  O   UNL     1     -10.413   1.802   6.736  1.00  0.00    -0.502 OA
ATOM     21  H   UNL     1     -10.529   1.245   7.574  1.00  0.00     0.293 HD
ENDBRANCH  16  20
BRANCH  17  22
ATOM     22  O   UNL     1     -11.047   3.150   9.125  1.00  0.00    -0.504 OA
ATOM     23  H   UNL     1     -10.339   2.485   9.410  1.00  0.00     0.293 HD
ENDBRANCH  17  22
ENDBRANCH   1  12
BRANCH   2  24
ATOM     24  O   UNL     1     -12.653   7.294   4.641  1.00  0.00    -0.381 OA
ATOM     25  H   UNL     1     -13.574   6.987   4.436  1.00  0.00     0.211 HD
ENDBRANCH   2  24
BRANCH   6  26
ATOM     26  O   UNL     1     -12.783  12.125   4.791  1.00  0.00    -0.507 OA
ATOM     27  H   UNL     1     -13.355  11.955   3.978  1.00  0.00     0.293 HD
ENDBRANCH   6  26
BRANCH   8  28
ATOM     28  O   UNL     1      -7.969  12.125   4.745  1.00  0.00    -0.508 OA
ATOM     29  H   UNL     1      -7.221  11.689   4.218  1.00  0.00     0.293 HD
ENDBRANCH   8  28
TORSDOF 7
ENDMDL
MODEL 5
REMARK VINA RESULT:    -2.155      1.292      2.811
REMARK INTER + INTRA:          -2.474
REMARK INTER:                  -2.684
REMARK INTRA:                   0.210
REMARK UNBOUND:                 0.185
REMARK SMILES O=C1c2c(O)cc(O)cc2O[C@H](c2cc(O)c(O)c(O)c2)[C@@H]1O
REMARK SMILES IDX 12 1 22 2 2 3 1 4 3 5 4 6 6 7 7 8 9 9 10 10 11 11 13 12
REMARK SMILES IDX 14 13 15 14 21 15 17 16 19 17 16 18 18 20 20 22 23 24 5 26
REMARK SMILES IDX 8 28
REMARK H PARENT 16 19 18 21 20 23 23 25 5 27 8 29
REMARK Flexibility Score: inf
ROOT
ATOM      1  C   UNL     1      -8.898   9.466   6.542  1.00  0.00     0.240 C 
ATOM      2  C   UNL     1      -8.804   8.018   6.025  1.00  0.00     0.231 C 
ATOM      3  C   UNL     1     -10.172   7.397   6.105  1.00  0.00     0.202 C 
ATOM      4  O   UNL     1     -10.299   6.248   6.604  1.00  0.00    -0.291 OA
ATOM      5  C   UNL     1     -11.345   8.185   5.651  1.00  0.00     0.105 A 
ATOM      6  C   UNL     1     -12.600   7.619   5.304  1.00  0.00     0.133 A 
ATOM      7  C   UNL     1     -13.661   8.460   4.950  1.00  0.00     0.093 A 
ATOM      8  C   UNL     1     -13.484   9.847   4.877  1.00  0.00     0.123 A 
ATOM      9  C   UNL     1     -12.239  10.402   5.171  1.00  0.00     0.093 A 
ATOM     10  C   UNL     1     -11.177   9.585   5.566  1.00  0.00     0.138 A 
ATOM     11  O   UNL     1      -9.942  10.175   5.870  1.00  0.00    -0.481 OA
ENDROOT
BRANCH   1  12
ATOM     12  C   UNL     1      -7.581  10.194   6.394  1.00  0.00     0.003 A 
ATOM     13  C   UNL     1      -6.879  10.611   7.537  1.00  0.00     0.058 A 
ATOM     14  C   UNL     1      -5.641  11.255   7.418  1.00  0.00     0.161 A 
ATOM     15  C   UNL     1      -7.013  10.407   5.127  1.00  0.00     0.058 A 
ATOM     16  C   UNL     1      -5.087  11.480   6.145  1.00  0.00     0.200 A 
ATOM     17  C   UNL     1      -5.776  11.050   4.999  1.00  0.00     0.161 A 
BRANCH  14  18
ATOM     18  O   UNL     1      -4.958  11.672   8.559  1.00  0.00    -0.504 OA
ATOM     19  H   UNL     1      -4.768  11.039   9.326  1.00  0.00     0.293 HD
ENDBRANCH  14  18
BRANCH  16  20
ATOM     20  O   UNL     1      -3.856  12.124   6.008  1.00  0.00    -0.502 OA
ATOM     21  H   UNL     1      -3.068  11.916   6.611  1.00  0.00     0.293 HD
ENDBRANCH  16  20
BRANCH  17  22
ATOM     22  O   UNL     1      -5.249  11.250   3.723  1.00  0.00    -0.504 OA
ATOM     23  H   UNL     1      -5.824  11.545   2.943  1.00  0.00     0.293 HD
ENDBRANCH  17  22
ENDBRANCH   1  12
BRANCH   2  24
ATOM     24  O   UNL     1      -8.365   8.005   4.692  1.00  0.00    -0.381 OA
ATOM     25  H   UNL     1      -8.417   7.063   4.384  1.00  0.00     0.211 HD
ENDBRANCH   2  24
BRANCH   6  26
ATOM     26  O   UNL     1     -12.830   6.242   5.262  1.00  0.00    -0.507 OA
ATOM     27  H   UNL     1     -12.794   5.639   6.071  1.00  0.00     0.293 HD
ENDBRANCH   6  26
BRANCH   8  28
ATOM     28  O   UNL     1     -14.538  10.679   4.507  1.00  0.00    -0.508 OA
ATOM     29  H   UNL     1     -15.418  10.303   4.173  1.00  0.00     0.293 HD
ENDBRANCH   8  28
TORSDOF 7
ENDMDL
MODEL 6
REMARK VINA RESULT:    -2.117      4.671      6.747
REMARK INTER + INTRA:          -2.428
REMARK INTER:                  -2.077
REMARK INTRA:                  -0.350
REMARK UNBOUND:                 0.185
REMARK SMILES O=C1c2c(O)cc(O)cc2O[C@H](c2cc(O)c(O)c(O)c2)[C@@H]1O
REMARK SMILES IDX 12 1 22 2 2 3 1 4 3 5 4 6 6 7 7 8 9 9 10 10 11 11 13 12
REMARK SMILES IDX 14 13 15 14 21 15 17 16 19 17 16 18 18 20 20 22 23 24 5 26
REMARK SMILES IDX 8 28
REMARK H PARENT 16 19 18 21 20 23 23 25 5 27 8 29
REMARK Flexibility Score: inf
ROOT
ATOM      1  C   UNL     1     -13.308   6.679   5.133  1.00  0.00     0.240 C 
ATOM      2  C   UNL     1     -13.377   5.812   3.863  1.00  0.00     0.231 C 
ATOM      3  C   UNL     1     -14.132   6.574   2.809  1.00  0.00     0.202 C 
ATOM      4  O   UNL     1     -15.040   5.993   2.158  1.00  0.00    -0.291 OA
ATOM      5  C   UNL     1     -13.830   8.014   2.610  1.00  0.00     0.105 A 
ATOM      6  C   UNL     1     -14.159   8.742   1.437  1.00  0.00     0.133 A 
ATOM      7  C   UNL     1     -13.886  10.115   1.378  1.00  0.00     0.093 A 
ATOM      8  C   UNL     1     -13.241  10.763   2.438  1.00  0.00     0.123 A 
ATOM      9  C   UNL     1     -12.873  10.039   3.572  1.00  0.00     0.093 A 
ATOM     10  C   UNL     1     -13.172   8.679   3.669  1.00  0.00     0.138 A 
ATOM     11  O   UNL     1     -12.804   7.982   4.828  1.00  0.00    -0.481 OA
ENDROOT
BRANCH   1  12
ATOM     12  C   UNL     1     -12.469   6.023   6.208  1.00  0.00     0.003 A 
ATOM     13  C   UNL     1     -12.956   4.892   6.883  1.00  0.00     0.058 A 
ATOM     14  C   UNL     1     -12.177   4.252   7.856  1.00  0.00     0.161 A 
ATOM     15  C   UNL     1     -11.177   6.491   6.500  1.00  0.00     0.058 A 
ATOM     16  C   UNL     1     -10.892   4.737   8.156  1.00  0.00     0.200 A 
ATOM     17  C   UNL     1     -10.392   5.858   7.471  1.00  0.00     0.161 A 
BRANCH  14  18
ATOM     18  O   UNL     1     -12.676   3.136   8.526  1.00  0.00    -0.504 OA
ATOM     19  H   UNL     1     -13.640   3.086   8.830  1.00  0.00     0.293 HD
ENDBRANCH  14  18
BRANCH  16  20
ATOM     20  O   UNL     1     -10.103   4.114   9.124  1.00  0.00    -0.502 OA
ATOM     21  H   UNL     1      -9.112   3.952   8.990  1.00  0.00     0.293 HD
ENDBRANCH  16  20
BRANCH  17  22
ATOM     22  O   UNL     1      -9.118   6.357   7.738  1.00  0.00    -0.504 OA
ATOM     23  H   UNL     1      -8.803   7.250   7.378  1.00  0.00     0.293 HD
ENDBRANCH  17  22
ENDBRANCH   1  12
BRANCH   2  24
ATOM     24  O   UNL     1     -12.083   5.531   3.395  1.00  0.00    -0.381 OA
ATOM     25  H   UNL     1     -11.622   5.026   4.115  1.00  0.00     0.211 HD
ENDBRANCH   2  24
BRANCH   6  26
ATOM     26  O   UNL     1     -14.719   8.151   0.302  1.00  0.00    -0.507 OA
ATOM     27  H   UNL     1     -14.320   7.355  -0.173  1.00  0.00     0.293 HD
ENDBRANCH   6  26
BRANCH   8  28
ATOM     28  O   UNL     1     -12.954  12.124   2.369  1.00  0.00    -0.508 OA
ATOM     29  H   UNL     1     -13.591  12.778   1.928  1.00  0.00     0.293 HD
ENDBRANCH   8  28
TORSDOF 7
ENDMDL
