MODEL 1
REMARK VINA RESULT:    -6.891      0.000      0.000
REMARK INTER + INTRA:          -6.891
REMARK INTER:                  -6.891
REMARK INTRA:                   0.000
REMARK UNBOUND:                 0.000
REMARK SMILES C=C1c2ccccc2-c2ccccc21
REMARK SMILES IDX 1 1 2 2 3 3 4 4 5 5 6 6 7 7 8 8 9 9 10 10 11 11 12 12 13 13
REMARK SMILES IDX 14 14
REMARK H PARENT
REMARK Flexibility Score: inf
ROOT
ATOM      1  C   UNL     1      21.721 -17.783 -24.125  1.00  0.00     0.018 C 
ATOM      2  C   UNL     1      20.787 -18.158 -23.252  1.00  0.00    -0.017 C 
ATOM      3  C   UNL     1      20.172 -19.484 -23.121  1.00  0.00    -0.010 A 
ATOM      4  C   UNL     1      20.395 -20.656 -23.849  1.00  0.00     0.009 A 
ATOM      5  C   UNL     1      19.657 -21.803 -23.509  1.00  0.00     0.001 A 
ATOM      6  C   UNL     1      18.718 -21.764 -22.458  1.00  0.00     0.001 A 
ATOM      7  C   UNL     1      18.506 -20.578 -21.736  1.00  0.00     0.009 A 
ATOM      8  C   UNL     1      19.248 -19.449 -22.089  1.00  0.00    -0.010 A 
ATOM      9  C   UNL     1      19.238 -18.106 -21.523  1.00  0.00    -0.010 A 
ATOM     10  C   UNL     1      18.483 -17.579 -20.476  1.00  0.00     0.009 A 
ATOM     11  C   UNL     1      18.675 -16.230 -20.131  1.00  0.00     0.001 A 
ATOM     12  C   UNL     1      19.608 -15.439 -20.832  1.00  0.00     0.001 A 
ATOM     13  C   UNL     1      20.359 -15.989 -21.885  1.00  0.00     0.009 A 
ATOM     14  C   UNL     1      20.155 -17.331 -22.215  1.00  0.00    -0.010 A 
ENDROOT
TORSDOF 0
ENDMDL
MODEL 2
REMARK VINA RESULT:    -6.436      8.787     10.027
REMARK INTER + INTRA:          -6.436
REMARK INTER:                  -6.436
REMARK INTRA:                   0.000
REMARK UNBOUND:                 0.000
REMARK SMILES C=C1c2ccccc2-c2ccccc21
REMARK SMILES IDX 1 1 2 2 3 3 4 4 5 5 6 6 7 7 8 8 9 9 10 10 11 11 12 12 13 13
REMARK SMILES IDX 14 14
REMARK H PARENT
REMARK Flexibility Score: inf
ROOT
ATOM      1  C   UNL     1      14.798 -12.259 -18.930  1.00  0.00     0.018 C 
ATOM      2  C   UNL     1      15.389 -11.319 -19.666  1.00  0.00    -0.017 C 
ATOM      3  C   UNL     1      14.820 -10.595 -20.810  1.00  0.00    -0.010 A 
ATOM      4  C   UNL     1      13.559 -10.697 -21.403  1.00  0.00     0.009 A 
ATOM      5  C   UNL     1      13.271  -9.871 -22.504  1.00  0.00     0.001 A 
ATOM      6  C   UNL     1      14.236  -8.966 -22.990  1.00  0.00     0.001 A 
ATOM      7  C   UNL     1      15.498  -8.875 -22.381  1.00  0.00     0.009 A 
ATOM      8  C   UNL     1      15.765  -9.703 -21.290  1.00  0.00    -0.010 A 
ATOM      9  C   UNL     1      16.969  -9.823 -20.476  1.00  0.00    -0.010 A 
ATOM     10  C   UNL     1      18.183  -9.143 -20.565  1.00  0.00     0.009 A 
ATOM     11  C   UNL     1      19.191  -9.459 -19.638  1.00  0.00     0.001 A 
ATOM     12  C   UNL     1      18.970 -10.439 -18.648  1.00  0.00     0.001 A 
ATOM     13  C   UNL     1      17.739 -11.113 -18.576  1.00  0.00     0.009 A 
ATOM     14  C   UNL     1      16.749 -10.786 -19.505  1.00  0.00    -0.010 A 
ENDROOT
TORSDOF 0
ENDMDL
MODEL 3
REMARK VINA RESULT:    -6.268      0.992      4.387
REMARK INTER + INTRA:          -6.268
REMARK INTER:                  -6.268
REMARK INTRA:                   0.000
REMARK UNBOUND:                 0.000
REMARK SMILES C=C1c2ccccc2-c2ccccc21
REMARK SMILES IDX 1 1 2 2 3 3 4 4 5 5 6 6 7 7 8 8 9 9 10 10 11 11 12 12 13 13
REMARK SMILES IDX 14 14
REMARK H PARENT
REMARK Flexibility Score: inf
ROOT
ATOM      1  C   UNL     1      18.681 -16.534 -20.313  1.00  0.00     0.018 C 
ATOM      2  C   UNL     1      19.232 -17.405 -21.156  1.00  0.00    -0.017 C 
ATOM      3  C   UNL     1      20.365 -17.174 -22.061  1.00  0.00    -0.010 A 
ATOM      4  C   UNL     1      21.133 -16.025 -22.267  1.00  0.00     0.009 A 
ATOM      5  C   UNL     1      22.176 -16.080 -23.208  1.00  0.00     0.001 A 
ATOM      6  C   UNL     1      22.433 -17.267 -23.922  1.00  0.00     0.001 A 
ATOM      7  C   UNL     1      21.652 -18.413 -23.702  1.00  0.00     0.009 A 
ATOM      8  C   UNL     1      20.621 -18.339 -22.764  1.00  0.00    -0.010 A 
ATOM      9  C   UNL     1      19.666 -19.356 -22.339  1.00  0.00    -0.010 A 
ATOM     10  C   UNL     1      19.520 -20.679 -22.753  1.00  0.00     0.009 A 
ATOM     11  C   UNL     1      18.500 -21.450 -22.169  1.00  0.00     0.001 A 
ATOM     12  C   UNL     1      17.652 -20.889 -21.191  1.00  0.00     0.001 A 
ATOM     13  C   UNL     1      17.815 -19.553 -20.788  1.00  0.00     0.009 A 
ATOM     14  C   UNL     1      18.835 -18.802 -21.379  1.00  0.00    -0.010 A 
ENDROOT
TORSDOF 0
ENDMDL
MODEL 4
REMARK VINA RESULT:    -6.268      0.990      3.116
REMARK INTER + INTRA:          -6.268
REMARK INTER:                  -6.268
REMARK INTRA:                   0.000
REMARK UNBOUND:                 0.000
REMARK SMILES C=C1c2ccccc2-c2ccccc21
REMARK SMILES IDX 1 1 2 2 3 3 4 4 5 5 6 6 7 7 8 8 9 9 10 10 11 11 12 12 13 13
REMARK SMILES IDX 14 14
REMARK H PARENT
REMARK Flexibility Score: inf
ROOT
ATOM      1  C   UNL     1      18.673 -16.540 -20.322  1.00  0.00     0.018 C 
ATOM      2  C   UNL     1      19.220 -17.418 -21.161  1.00  0.00    -0.017 C 
ATOM      3  C   UNL     1      18.813 -18.812 -21.382  1.00  0.00    -0.010 A 
ATOM      4  C   UNL     1      17.787 -19.554 -20.793  1.00  0.00     0.009 A 
ATOM      5  C   UNL     1      17.615 -20.890 -21.195  1.00  0.00     0.001 A 
ATOM      6  C   UNL     1      18.461 -21.459 -22.169  1.00  0.00     0.001 A 
ATOM      7  C   UNL     1      19.488 -20.698 -22.751  1.00  0.00     0.009 A 
ATOM      8  C   UNL     1      19.643 -19.374 -22.339  1.00  0.00    -0.010 A 
ATOM      9  C   UNL     1      20.607 -18.366 -22.764  1.00  0.00    -0.010 A 
ATOM     10  C   UNL     1      21.639 -18.450 -23.699  1.00  0.00     0.009 A 
ATOM     11  C   UNL     1      22.430 -17.309 -23.919  1.00  0.00     0.001 A 
ATOM     12  C   UNL     1      22.179 -16.117 -23.208  1.00  0.00     0.001 A 
ATOM     13  C   UNL     1      21.134 -16.054 -22.270  1.00  0.00     0.009 A 
ATOM     14  C   UNL     1      20.358 -17.197 -22.064  1.00  0.00    -0.010 A 
ENDROOT
TORSDOF 0
ENDMDL
MODEL 5
REMARK VINA RESULT:    -6.266      1.397      4.313
REMARK INTER + INTRA:          -6.266
REMARK INTER:                  -6.266
REMARK INTRA:                   0.000
REMARK UNBOUND:                 0.000
REMARK SMILES C=C1c2ccccc2-c2ccccc21
REMARK SMILES IDX 1 1 2 2 3 3 4 4 5 5 6 6 7 7 8 8 9 9 10 10 11 11 12 12 13 13
REMARK SMILES IDX 14 14
REMARK H PARENT
REMARK Flexibility Score: inf
ROOT
ATOM      1  C   UNL     1      21.135 -19.385 -24.002  1.00  0.00     0.018 C 
ATOM      2  C   UNL     1      20.554 -19.292 -22.806  1.00  0.00    -0.017 C 
ATOM      3  C   UNL     1      20.117 -18.069 -22.121  1.00  0.00    -0.010 A 
ATOM      4  C   UNL     1      20.193 -16.734 -22.527  1.00  0.00     0.009 A 
ATOM      5  C   UNL     1      19.691 -15.745 -21.663  1.00  0.00     0.001 A 
ATOM      6  C   UNL     1      19.127 -16.100 -20.421  1.00  0.00     0.001 A 
ATOM      7  C   UNL     1      19.058 -17.447 -20.029  1.00  0.00     0.009 A 
ATOM      8  C   UNL     1      19.563 -18.414 -20.900  1.00  0.00    -0.010 A 
ATOM      9  C   UNL     1      19.622 -19.864 -20.758  1.00  0.00    -0.010 A 
ATOM     10  C   UNL     1      19.194 -20.681 -19.712  1.00  0.00     0.009 A 
ATOM     11  C   UNL     1      19.377 -22.069 -19.836  1.00  0.00     0.001 A 
ATOM     12  C   UNL     1      19.978 -22.610 -20.992  1.00  0.00     0.001 A 
ATOM     13  C   UNL     1      20.404 -21.769 -22.034  1.00  0.00     0.009 A 
ATOM     14  C   UNL     1      20.214 -20.392 -21.893  1.00  0.00    -0.010 A 
ENDROOT
TORSDOF 0
ENDMDL
MODEL 6
REMARK VINA RESULT:    -6.061      1.266      4.502
REMARK INTER + INTRA:          -6.061
REMARK INTER:                  -6.061
REMARK INTRA:                   0.000
REMARK UNBOUND:                 0.000
REMARK SMILES C=C1c2ccccc2-c2ccccc21
REMARK SMILES IDX 1 1 2 2 3 3 4 4 5 5 6 6 7 7 8 8 9 9 10 10 11 11 12 12 13 13
REMARK SMILES IDX 14 14
REMARK H PARENT
REMARK Flexibility Score: inf
ROOT
ATOM      1  C   UNL     1      19.802 -19.742 -22.437  1.00  0.00     0.018 C 
ATOM      2  C   UNL     1      20.137 -18.469 -22.234  1.00  0.00    -0.017 C 
ATOM      3  C   UNL     1      19.417 -17.477 -21.426  1.00  0.00    -0.010 A 
ATOM      4  C   UNL     1      18.238 -17.602 -20.687  1.00  0.00     0.009 A 
ATOM      5  C   UNL     1      17.762 -16.475 -19.995  1.00  0.00     0.001 A 
ATOM      6  C   UNL     1      18.462 -15.253 -20.050  1.00  0.00     0.001 A 
ATOM      7  C   UNL     1      19.646 -15.144 -20.798  1.00  0.00     0.009 A 
ATOM      8  C   UNL     1      20.103 -16.274 -21.478  1.00  0.00    -0.010 A 
ATOM      9  C   UNL     1      21.282 -16.450 -22.317  1.00  0.00    -0.010 A 
ATOM     10  C   UNL     1      22.276 -15.538 -22.671  1.00  0.00     0.009 A 
ATOM     11  C   UNL     1      23.316 -15.980 -23.507  1.00  0.00     0.001 A 
ATOM     12  C   UNL     1      23.344 -17.312 -23.970  1.00  0.00     0.001 A 
ATOM     13  C   UNL     1      22.332 -18.215 -23.602  1.00  0.00     0.009 A 
ATOM     14  C   UNL     1      21.306 -17.759 -22.771  1.00  0.00    -0.010 A 
ENDROOT
TORSDOF 0
ENDMDL
MODEL 7
REMARK VINA RESULT:    -6.050      1.159      2.986
REMARK INTER + INTRA:          -6.050
REMARK INTER:                  -6.050
REMARK INTRA:                   0.000
REMARK UNBOUND:                 0.000
REMARK SMILES C=C1c2ccccc2-c2ccccc21
REMARK SMILES IDX 1 1 2 2 3 3 4 4 5 5 6 6 7 7 8 8 9 9 10 10 11 11 12 12 13 13
REMARK SMILES IDX 14 14
REMARK H PARENT
REMARK Flexibility Score: inf
ROOT
ATOM      1  C   UNL     1      17.981 -19.180 -20.628  1.00  0.00     0.018 C 
ATOM      2  C   UNL     1      18.859 -19.391 -21.607  1.00  0.00    -0.017 C 
ATOM      3  C   UNL     1      19.093 -20.641 -22.341  1.00  0.00    -0.010 A 
ATOM      4  C   UNL     1      18.481 -21.890 -22.209  1.00  0.00     0.009 A 
ATOM      5  C   UNL     1      18.904 -22.932 -23.052  1.00  0.00     0.001 A 
ATOM      6  C   UNL     1      19.920 -22.714 -24.004  1.00  0.00     0.001 A 
ATOM      7  C   UNL     1      20.525 -21.452 -24.124  1.00  0.00     0.009 A 
ATOM      8  C   UNL     1      20.092 -20.431 -23.277  1.00  0.00    -0.010 A 
ATOM      9  C   UNL     1      20.532 -19.044 -23.180  1.00  0.00    -0.010 A 
ATOM     10  C   UNL     1      21.507 -18.359 -23.905  1.00  0.00     0.009 A 
ATOM     11  C   UNL     1      21.733 -17.006 -23.601  1.00  0.00     0.001 A 
ATOM     12  C   UNL     1      20.988 -16.367 -22.588  1.00  0.00     0.001 A 
ATOM     13  C   UNL     1      20.010 -17.075 -21.869  1.00  0.00     0.009 A 
ATOM     14  C   UNL     1      19.799 -18.419 -22.184  1.00  0.00    -0.010 A 
ENDROOT
TORSDOF 0
ENDMDL
MODEL 8
REMARK VINA RESULT:    -6.023      1.154      5.006
REMARK INTER + INTRA:          -6.023
REMARK INTER:                  -6.023
REMARK INTRA:                   0.000
REMARK UNBOUND:                 0.000
REMARK SMILES C=C1c2ccccc2-c2ccccc21
REMARK SMILES IDX 1 1 2 2 3 3 4 4 5 5 6 6 7 7 8 8 9 9 10 10 11 11 12 12 13 13
REMARK SMILES IDX 14 14
REMARK H PARENT
REMARK Flexibility Score: inf
ROOT
ATOM      1  C   UNL     1      17.952 -19.065 -20.622  1.00  0.00     0.018 C 
ATOM      2  C   UNL     1      18.814 -19.310 -21.608  1.00  0.00    -0.017 C 
ATOM      3  C   UNL     1      19.784 -18.378 -22.196  1.00  0.00    -0.010 A 
ATOM      4  C   UNL     1      20.047 -17.041 -21.890  1.00  0.00     0.009 A 
ATOM      5  C   UNL     1      21.045 -16.373 -22.621  1.00  0.00     0.001 A 
ATOM      6  C   UNL     1      21.757 -17.043 -23.636  1.00  0.00     0.001 A 
ATOM      7  C   UNL     1      21.480 -18.388 -23.931  1.00  0.00     0.009 A 
ATOM      8  C   UNL     1      20.486 -19.034 -23.194  1.00  0.00    -0.010 A 
ATOM      9  C   UNL     1      19.995 -20.404 -23.281  1.00  0.00    -0.010 A 
ATOM     10  C   UNL     1      20.384 -21.445 -24.125  1.00  0.00     0.009 A 
ATOM     11  C   UNL     1      19.734 -22.684 -23.994  1.00  0.00     0.001 A 
ATOM     12  C   UNL     1      18.718 -22.860 -23.032  1.00  0.00     0.001 A 
ATOM     13  C   UNL     1      18.340 -21.799 -22.192  1.00  0.00     0.009 A 
ATOM     14  C   UNL     1      18.997 -20.574 -22.336  1.00  0.00    -0.010 A 
ENDROOT
TORSDOF 0
ENDMDL
