MODEL 1
REMARK VINA RESULT:    -4.631      0.000      0.000
REMARK INTER + INTRA:          -7.192
REMARK INTER:                  -6.797
REMARK INTRA:                  -0.395
REMARK UNBOUND:                -0.395
REMARK SMILES O=C([O-])CCCCCCCC(=O)[O-]
REMARK SMILES IDX 7 1 6 2 5 3 4 4 2 5 1 6 3 7 8 8 9 9 10 10 11 11 12 12 13 13
REMARK H PARENT
REMARK Flexibility Score: inf
ROOT
ATOM      1  C   UNL     1      44.896 -11.854 -40.238  1.00  0.00     0.000 C 
ENDROOT
BRANCH   1   2
ATOM      2  C   UNL     1      44.340 -10.834 -39.230  1.00  0.00     0.000 C 
BRANCH   2   3
ATOM      3  C   UNL     1      43.195 -11.400 -38.373  1.00  0.00     0.006 C 
BRANCH   3   4
ATOM      4  C   UNL     1      41.848 -10.742 -38.700  1.00  0.00     0.053 C 
BRANCH   4   5
ATOM      5  C   UNL     1      41.952  -9.247 -38.719  1.00  0.00     0.041 C 
ATOM      6  O   UNL     1      42.252  -8.619 -37.670  1.00  0.00    -0.550 OA
ATOM      7  O   UNL     1      41.682  -8.545 -39.887  1.00  0.00    -0.550 OA
ENDBRANCH   4   5
ENDBRANCH   3   4
ENDBRANCH   2   3
ENDBRANCH   1   2
BRANCH   1   8
ATOM      8  C   UNL     1      43.859 -12.437 -41.218  1.00  0.00     0.000 C 
BRANCH   8   9
ATOM      9  C   UNL     1      43.560 -11.571 -42.457  1.00  0.00     0.006 C 
BRANCH   9  10
ATOM     10  C   UNL     1      43.651 -12.334 -43.790  1.00  0.00     0.053 C 
BRANCH  10  11
ATOM     11  C   UNL     1      42.557 -11.957 -44.741  1.00  0.00     0.041 C 
ATOM     12  O   UNL     1      42.770 -11.947 -45.983  1.00  0.00    -0.550 OA
ATOM     13  O   UNL     1      41.290 -11.648 -44.261  1.00  0.00    -0.550 OA
ENDBRANCH  10  11
ENDBRANCH   9  10
ENDBRANCH   8   9
ENDBRANCH   1   8
TORSDOF 8
ENDMDL
MODEL 2
REMARK VINA RESULT:    -4.611      1.922      2.430
REMARK INTER + INTRA:          -7.162
REMARK INTER:                  -6.498
REMARK INTRA:                  -0.665
REMARK UNBOUND:                -0.395
REMARK SMILES O=C([O-])CCCCCCCC(=O)[O-]
REMARK SMILES IDX 7 1 6 2 5 3 4 4 2 5 1 6 3 7 8 8 9 9 10 10 11 11 12 12 13 13
REMARK H PARENT
REMARK Flexibility Score: inf
ROOT
ATOM      1  C   UNL     1      44.110 -11.994 -40.972  1.00  0.00     0.000 C 
ENDROOT
BRANCH   1   2
ATOM      2  C   UNL     1      44.536 -11.131 -39.772  1.00  0.00     0.000 C 
BRANCH   2   3
ATOM      3  C   UNL     1      44.248 -11.803 -38.418  1.00  0.00     0.006 C 
BRANCH   3   4
ATOM      4  C   UNL     1      43.738 -10.802 -37.372  1.00  0.00     0.053 C 
BRANCH   4   5
ATOM      5  C   UNL     1      42.469 -10.140 -37.812  1.00  0.00     0.041 C 
ATOM      6  O   UNL     1      42.399  -8.885 -37.879  1.00  0.00    -0.550 OA
ATOM      7  O   UNL     1      41.350 -10.908 -38.112  1.00  0.00    -0.550 OA
ENDBRANCH   4   5
ENDBRANCH   3   4
ENDBRANCH   2   3
ENDBRANCH   1   2
BRANCH   1   8
ATOM      8  C   UNL     1      43.281 -11.262 -42.044  1.00  0.00     0.000 C 
BRANCH   8   9
ATOM      9  C   UNL     1      42.558  -9.988 -41.564  1.00  0.00     0.006 C 
BRANCH   9  10
ATOM     10  C   UNL     1      41.022 -10.090 -41.600  1.00  0.00     0.053 C 
BRANCH  10  11
ATOM     11  C   UNL     1      40.478 -10.042 -42.995  1.00  0.00     0.041 C 
ATOM     12  O   UNL     1      40.029 -11.086 -43.537  1.00  0.00    -0.550 OA
ATOM     13  O   UNL     1      40.434  -8.837 -43.685  1.00  0.00    -0.550 OA
ENDBRANCH  10  11
ENDBRANCH   9  10
ENDBRANCH   8   9
ENDBRANCH   1   8
TORSDOF 8
ENDMDL
MODEL 3
REMARK VINA RESULT:    -4.596      3.105      5.456
REMARK INTER + INTRA:          -7.139
REMARK INTER:                  -6.644
REMARK INTRA:                  -0.496
REMARK UNBOUND:                -0.395
REMARK SMILES O=C([O-])CCCCCCCC(=O)[O-]
REMARK SMILES IDX 7 1 6 2 5 3 4 4 2 5 1 6 3 7 8 8 9 9 10 10 11 11 12 12 13 13
REMARK H PARENT
REMARK Flexibility Score: inf
ROOT
ATOM      1  C   UNL     1      43.068  -9.813 -41.725  1.00  0.00     0.000 C 
ENDROOT
BRANCH   1   2
ATOM      2  C   UNL     1      41.573  -9.490 -41.554  1.00  0.00     0.000 C 
BRANCH   2   3
ATOM      3  C   UNL     1      40.658 -10.478 -42.298  1.00  0.00     0.006 C 
BRANCH   3   4
ATOM      4  C   UNL     1      40.729 -10.299 -43.820  1.00  0.00     0.053 C 
BRANCH   4   5
ATOM      5  C   UNL     1      41.079 -11.580 -44.513  1.00  0.00     0.041 C 
ATOM      6  O   UNL     1      42.279 -11.951 -44.590  1.00  0.00    -0.550 OA
ATOM      7  O   UNL     1      40.083 -12.346 -45.105  1.00  0.00    -0.550 OA
ENDBRANCH   4   5
ENDBRANCH   3   4
ENDBRANCH   2   3
ENDBRANCH   1   2
BRANCH   1   8
ATOM      8  C   UNL     1      43.478 -11.243 -41.326  1.00  0.00     0.000 C 
BRANCH   8   9
ATOM      9  C   UNL     1      43.730 -11.463 -39.821  1.00  0.00     0.006 C 
BRANCH   9  10
ATOM     10  C   UNL     1      45.198 -11.274 -39.400  1.00  0.00     0.053 C 
BRANCH  10  11
ATOM     11  C   UNL     1      46.039 -12.476 -39.701  1.00  0.00     0.041 C 
ATOM     12  O   UNL     1      47.286 -12.361 -39.839  1.00  0.00    -0.550 OA
ATOM     13  O   UNL     1      45.452 -13.732 -39.797  1.00  0.00    -0.550 OA
ENDBRANCH  10  11
ENDBRANCH   9  10
ENDBRANCH   8   9
ENDBRANCH   1   8
TORSDOF 8
ENDMDL
MODEL 4
REMARK VINA RESULT:    -4.580      2.334      3.322
REMARK INTER + INTRA:          -7.116
REMARK INTER:                  -6.527
REMARK INTRA:                  -0.589
REMARK UNBOUND:                -0.395
REMARK SMILES O=C([O-])CCCCCCCC(=O)[O-]
REMARK SMILES IDX 7 1 6 2 5 3 4 4 2 5 1 6 3 7 8 8 9 9 10 10 11 11 12 12 13 13
REMARK H PARENT
REMARK Flexibility Score: inf
ROOT
ATOM      1  C   UNL     1      40.797 -10.165 -41.936  1.00  0.00     0.000 C 
ENDROOT
BRANCH   1   2
ATOM      2  C   UNL     1      41.877  -9.893 -40.874  1.00  0.00     0.000 C 
BRANCH   2   3
ATOM      3  C   UNL     1      43.306 -10.104 -41.404  1.00  0.00     0.006 C 
BRANCH   3   4
ATOM      4  C   UNL     1      43.994 -11.309 -40.750  1.00  0.00     0.053 C 
BRANCH   4   5
ATOM      5  C   UNL     1      44.557 -10.963 -39.406  1.00  0.00     0.041 C 
ATOM      6  O   UNL     1      45.078  -9.835 -39.208  1.00  0.00    -0.550 OA
ATOM      7  O   UNL     1      44.539 -11.902 -38.381  1.00  0.00    -0.550 OA
ENDBRANCH   4   5
ENDBRANCH   3   4
ENDBRANCH   2   3
ENDBRANCH   1   2
BRANCH   1   8
ATOM      8  C   UNL     1      41.053  -9.517 -43.310  1.00  0.00     0.000 C 
BRANCH   8   9
ATOM      9  C   UNL     1      40.672 -10.381 -44.529  1.00  0.00     0.006 C 
BRANCH   9  10
ATOM     10  C   UNL     1      41.165 -11.837 -44.442  1.00  0.00     0.053 C 
BRANCH  10  11
ATOM     11  C   UNL     1      42.548 -12.006 -44.992  1.00  0.00     0.041 C 
ATOM     12  O   UNL     1      42.754 -11.918 -46.232  1.00  0.00    -0.550 OA
ATOM     13  O   UNL     1      43.619 -12.225 -44.133  1.00  0.00    -0.550 OA
ENDBRANCH  10  11
ENDBRANCH   9  10
ENDBRANCH   8   9
ENDBRANCH   1   8
TORSDOF 8
ENDMDL
MODEL 5
REMARK VINA RESULT:    -4.530      2.353      2.682
REMARK INTER + INTRA:          -7.043
REMARK INTER:                  -6.236
REMARK INTRA:                  -0.807
REMARK UNBOUND:                -0.395
REMARK SMILES O=C([O-])CCCCCCCC(=O)[O-]
REMARK SMILES IDX 7 1 6 2 5 3 4 4 2 5 1 6 3 7 8 8 9 9 10 10 11 11 12 12 13 13
REMARK H PARENT
REMARK Flexibility Score: inf
ROOT
ATOM      1  C   UNL     1      45.355 -11.751 -39.248  1.00  0.00     0.000 C 
ENDROOT
BRANCH   1   2
ATOM      2  C   UNL     1      45.001 -12.620 -38.028  1.00  0.00     0.000 C 
BRANCH   2   3
ATOM      3  C   UNL     1      43.976 -11.953 -37.095  1.00  0.00     0.006 C 
BRANCH   3   4
ATOM      4  C   UNL     1      43.783 -10.465 -37.416  1.00  0.00     0.053 C 
BRANCH   4   5
ATOM      5  C   UNL     1      42.360 -10.154 -37.766  1.00  0.00     0.041 C 
ATOM      6  O   UNL     1      42.028  -8.981 -38.083  1.00  0.00    -0.550 OA
ATOM      7  O   UNL     1      41.394 -11.150 -37.707  1.00  0.00    -0.550 OA
ENDBRANCH   4   5
ENDBRANCH   3   4
ENDBRANCH   2   3
ENDBRANCH   1   2
BRANCH   1   8
ATOM      8  C   UNL     1      44.872 -12.298 -40.604  1.00  0.00     0.000 C 
BRANCH   8   9
ATOM      9  C   UNL     1      43.537 -11.718 -41.113  1.00  0.00     0.006 C 
BRANCH   9  10
ATOM     10  C   UNL     1      43.551 -10.191 -41.306  1.00  0.00     0.053 C 
BRANCH  10  11
ATOM     11  C   UNL     1      42.195  -9.643 -41.630  1.00  0.00     0.041 C 
ATOM     12  O   UNL     1      42.080  -8.638 -42.381  1.00  0.00    -0.550 OA
ATOM     13  O   UNL     1      41.055 -10.262 -41.133  1.00  0.00    -0.550 OA
ENDBRANCH  10  11
ENDBRANCH   9  10
ENDBRANCH   8   9
ENDBRANCH   1   8
TORSDOF 8
ENDMDL
MODEL 6
REMARK VINA RESULT:    -4.523      1.856      5.336
REMARK INTER + INTRA:          -7.032
REMARK INTER:                  -6.321
REMARK INTRA:                  -0.711
REMARK UNBOUND:                -0.395
REMARK SMILES O=C([O-])CCCCCCCC(=O)[O-]
REMARK SMILES IDX 7 1 6 2 5 3 4 4 2 5 1 6 3 7 8 8 9 9 10 10 11 11 12 12 13 13
REMARK H PARENT
REMARK Flexibility Score: inf
ROOT
ATOM      1  C   UNL     1      43.397 -11.441 -41.291  1.00  0.00     0.000 C 
ENDROOT
BRANCH   1   2
ATOM      2  C   UNL     1      43.182  -9.957 -41.637  1.00  0.00     0.000 C 
BRANCH   2   3
ATOM      3  C   UNL     1      41.710  -9.523 -41.524  1.00  0.00     0.006 C 
BRANCH   3   4
ATOM      4  C   UNL     1      40.787 -10.373 -42.407  1.00  0.00     0.053 C 
BRANCH   4   5
ATOM      5  C   UNL     1      41.033 -10.127 -43.864  1.00  0.00     0.041 C 
ATOM      6  O   UNL     1      40.721  -9.023 -44.382  1.00  0.00    -0.550 OA
ATOM      7  O   UNL     1      41.574 -11.131 -44.658  1.00  0.00    -0.550 OA
ENDBRANCH   4   5
ENDBRANCH   3   4
ENDBRANCH   2   3
ENDBRANCH   1   2
BRANCH   1   8
ATOM      8  C   UNL     1      44.383 -11.708 -40.139  1.00  0.00     0.000 C 
BRANCH   8   9
ATOM      9  C   UNL     1      44.629 -10.519 -39.189  1.00  0.00     0.006 C 
BRANCH   9  10
ATOM     10  C   UNL     1      43.898 -10.635 -37.840  1.00  0.00     0.053 C 
BRANCH  10  11
ATOM     11  C   UNL     1      42.520 -10.050 -37.883  1.00  0.00     0.041 C 
ATOM     12  O   UNL     1      41.510 -10.802 -37.888  1.00  0.00    -0.550 OA
ATOM     13  O   UNL     1      42.347  -8.671 -37.883  1.00  0.00    -0.550 OA
ENDBRANCH  10  11
ENDBRANCH   9  10
ENDBRANCH   8   9
ENDBRANCH   1   8
TORSDOF 8
ENDMDL
MODEL 7
REMARK VINA RESULT:    -4.520      3.761      4.594
REMARK INTER + INTRA:          -7.029
REMARK INTER:                  -6.339
REMARK INTRA:                  -0.690
REMARK UNBOUND:                -0.395
REMARK SMILES O=C([O-])CCCCCCCC(=O)[O-]
REMARK SMILES IDX 7 1 6 2 5 3 4 4 2 5 1 6 3 7 8 8 9 9 10 10 11 11 12 12 13 13
REMARK H PARENT
REMARK Flexibility Score: inf
ROOT
ATOM      1  C   UNL     1      41.891 -11.051 -38.438  1.00  0.00     0.000 C 
ENDROOT
BRANCH   1   2
ATOM      2  C   UNL     1      42.821 -10.194 -37.560  1.00  0.00     0.000 C 
BRANCH   2   3
ATOM      3  C   UNL     1      43.851 -11.033 -36.784  1.00  0.00     0.006 C 
BRANCH   3   4
ATOM      4  C   UNL     1      43.335 -12.445 -36.477  1.00  0.00     0.053 C 
BRANCH   4   5
ATOM      5  C   UNL     1      42.652 -12.508 -35.145  1.00  0.00     0.041 C 
ATOM      6  O   UNL     1      43.218 -12.045 -34.121  1.00  0.00    -0.550 OA
ATOM      7  O   UNL     1      41.406 -13.113 -35.029  1.00  0.00    -0.550 OA
ENDBRANCH   4   5
ENDBRANCH   3   4
ENDBRANCH   2   3
ENDBRANCH   1   2
BRANCH   1   8
ATOM      8  C   UNL     1      42.116 -10.917 -39.955  1.00  0.00     0.000 C 
BRANCH   8   9
ATOM      9  C   UNL     1      43.574 -10.661 -40.387  1.00  0.00     0.006 C 
BRANCH   9  10
ATOM     10  C   UNL     1      44.298 -11.913 -40.914  1.00  0.00     0.053 C 
BRANCH  10  11
ATOM     11  C   UNL     1      45.366 -12.392 -39.978  1.00  0.00     0.041 C 
ATOM     12  O   UNL     1      45.496 -13.622 -39.740  1.00  0.00    -0.550 OA
ATOM     13  O   UNL     1      46.241 -11.484 -39.395  1.00  0.00    -0.550 OA
ENDBRANCH  10  11
ENDBRANCH   9  10
ENDBRANCH   8   9
ENDBRANCH   1   8
TORSDOF 8
ENDMDL
MODEL 8
REMARK VINA RESULT:    -4.511      3.798      4.467
REMARK INTER + INTRA:          -7.015
REMARK INTER:                  -6.404
REMARK INTRA:                  -0.611
REMARK UNBOUND:                -0.395
REMARK SMILES O=C([O-])CCCCCCCC(=O)[O-]
REMARK SMILES IDX 7 1 6 2 5 3 4 4 2 5 1 6 3 7 8 8 9 9 10 10 11 11 12 12 13 13
REMARK H PARENT
REMARK Flexibility Score: inf
ROOT
ATOM      1  C   UNL     1      42.014 -10.658 -41.026  1.00  0.00     0.000 C 
ENDROOT
BRANCH   1   2
ATOM      2  C   UNL     1      41.653  -9.772 -39.822  1.00  0.00     0.000 C 
BRANCH   2   3
ATOM      3  C   UNL     1      41.578 -10.558 -38.501  1.00  0.00     0.006 C 
BRANCH   3   4
ATOM      4  C   UNL     1      42.678 -10.139 -37.516  1.00  0.00     0.053 C 
BRANCH   4   5
ATOM      5  C   UNL     1      43.146 -11.294 -36.685  1.00  0.00     0.041 C 
ATOM      6  O   UNL     1      44.297 -11.283 -36.175  1.00  0.00    -0.550 OA
ATOM      7  O   UNL     1      42.324 -12.399 -36.502  1.00  0.00    -0.550 OA
ENDBRANCH   4   5
ENDBRANCH   3   4
ENDBRANCH   2   3
ENDBRANCH   1   2
BRANCH   1   8
ATOM      8  C   UNL     1      43.513 -10.708 -41.376  1.00  0.00     0.000 C 
BRANCH   8   9
ATOM      9  C   UNL     1      44.280 -11.927 -40.828  1.00  0.00     0.006 C 
BRANCH   9  10
ATOM     10  C   UNL     1      45.302 -11.581 -39.729  1.00  0.00     0.053 C 
BRANCH  10  11
ATOM     11  C   UNL     1      46.251 -12.707 -39.455  1.00  0.00     0.041 C 
ATOM     12  O   UNL     1      47.486 -12.559 -39.654  1.00  0.00    -0.550 OA
ATOM     13  O   UNL     1      45.777 -13.910 -38.946  1.00  0.00    -0.550 OA
ENDBRANCH  10  11
ENDBRANCH   9  10
ENDBRANCH   8   9
ENDBRANCH   1   8
TORSDOF 8
ENDMDL
MODEL 9
REMARK VINA RESULT:    -4.507      1.932      4.851
REMARK INTER + INTRA:          -7.009
REMARK INTER:                  -6.316
REMARK INTRA:                  -0.693
REMARK UNBOUND:                -0.395
REMARK SMILES O=C([O-])CCCCCCCC(=O)[O-]
REMARK SMILES IDX 7 1 6 2 5 3 4 4 2 5 1 6 3 7 8 8 9 9 10 10 11 11 12 12 13 13
REMARK H PARENT
REMARK Flexibility Score: inf
ROOT
ATOM      1  C   UNL     1      44.998 -12.158 -40.460  1.00  0.00     0.000 C 
ENDROOT
BRANCH   1   2
ATOM      2  C   UNL     1      43.524 -11.899 -40.818  1.00  0.00     0.000 C 
BRANCH   2   3
ATOM      3  C   UNL     1      43.357 -10.922 -41.995  1.00  0.00     0.006 C 
BRANCH   3   4
ATOM      4  C   UNL     1      42.549  -9.678 -41.603  1.00  0.00     0.053 C 
BRANCH   4   5
ATOM      5  C   UNL     1      41.074  -9.936 -41.656  1.00  0.00     0.041 C 
ATOM      6  O   UNL     1      40.347  -9.665 -40.664  1.00  0.00    -0.550 OA
ATOM      7  O   UNL     1      40.507 -10.511 -42.786  1.00  0.00    -0.550 OA
ENDBRANCH   4   5
ENDBRANCH   3   4
ENDBRANCH   2   3
ENDBRANCH   1   2
BRANCH   1   8
ATOM      8  C   UNL     1      45.326 -12.103 -38.956  1.00  0.00     0.000 C 
BRANCH   8   9
ATOM      9  C   UNL     1      44.112 -11.936 -38.021  1.00  0.00     0.006 C 
BRANCH   9  10
ATOM     10  C   UNL     1      43.883 -10.490 -37.546  1.00  0.00     0.053 C 
BRANCH  10  11
ATOM     11  C   UNL     1      42.481 -10.023 -37.791  1.00  0.00     0.041 C 
ATOM     12  O   UNL     1      41.533 -10.853 -37.830  1.00  0.00    -0.550 OA
ATOM     13  O   UNL     1      42.212  -8.668 -37.941  1.00  0.00    -0.550 OA
ENDBRANCH  10  11
ENDBRANCH   9  10
ENDBRANCH   8   9
ENDBRANCH   1   8
TORSDOF 8
ENDMDL
