MODEL 1
REMARK VINA RESULT:    -2.517      0.000      0.000
REMARK INTER + INTRA:          -2.517
REMARK INTER:                  -2.517
REMARK INTRA:                   0.000
REMARK UNBOUND:                 0.000
REMARK SMILES CC(=O)[O-]
REMARK SMILES IDX 1 1 2 2 3 3 4 4
REMARK H PARENT
REMARK Flexibility Score: inf
ROOT
ATOM      1  C   UNL     1     -17.357  17.194 -41.718  1.00  0.00     0.063 C 
ATOM      2  C   UNL     1     -17.340  18.636 -42.094  1.00  0.00     0.038 C 
ATOM      3  O   UNL     1     -16.876  19.492 -41.296  1.00  0.00    -0.550 OA
ATOM      4  O   UNL     1     -17.885  19.046 -43.303  1.00  0.00    -0.550 OA
ENDROOT
TORSDOF 0
ENDMDL
MODEL 2
REMARK VINA RESULT:    -2.077      2.496      3.270
REMARK INTER + INTRA:          -2.077
REMARK INTER:                  -2.077
REMARK INTRA:                   0.000
REMARK UNBOUND:                 0.000
REMARK SMILES CC(=O)[O-]
REMARK SMILES IDX 1 1 2 2 3 3 4 4
REMARK H PARENT
REMARK Flexibility Score: inf
ROOT
ATOM      1  C   UNL     1     -19.773  21.157 -43.377  1.00  0.00     0.063 C 
ATOM      2  C   UNL     1     -18.440  20.578 -43.045  1.00  0.00     0.038 C 
ATOM      3  O   UNL     1     -18.108  19.453 -43.502  1.00  0.00    -0.550 OA
ATOM      4  O   UNL     1     -17.583  21.253 -42.186  1.00  0.00    -0.550 OA
ENDROOT
TORSDOF 0
ENDMDL
MODEL 3
REMARK VINA RESULT:    -1.928     13.108     13.418
REMARK INTER + INTRA:          -1.928
REMARK INTER:                  -1.928
REMARK INTRA:                   0.000
REMARK UNBOUND:                 0.000
REMARK SMILES CC(=O)[O-]
REMARK SMILES IDX 1 1 2 2 3 3 4 4
REMARK H PARENT
REMARK Flexibility Score: inf
ROOT
ATOM      1  C   UNL     1     -19.528  30.841 -42.594  1.00  0.00     0.063 C 
ATOM      2  C   UNL     1     -18.480  31.862 -42.878  1.00  0.00     0.038 C 
ATOM      3  O   UNL     1     -18.217  32.185 -44.066  1.00  0.00    -0.550 OA
ATOM      4  O   UNL     1     -17.752  32.421 -41.836  1.00  0.00    -0.550 OA
ENDROOT
TORSDOF 0
ENDMDL
MODEL 4
REMARK VINA RESULT:    -1.899     19.169     19.458
REMARK INTER + INTRA:          -1.899
REMARK INTER:                  -1.899
REMARK INTRA:                   0.000
REMARK UNBOUND:                 0.000
REMARK SMILES CC(=O)[O-]
REMARK SMILES IDX 1 1 2 2 3 3 4 4
REMARK H PARENT
REMARK Flexibility Score: inf
ROOT
ATOM      1  C   UNL     1     -29.302  31.630 -35.271  1.00  0.00     0.063 C 
ATOM      2  C   UNL     1     -29.648  31.194 -33.888  1.00  0.00     0.038 C 
ATOM      3  O   UNL     1     -29.258  31.865 -32.897  1.00  0.00    -0.550 OA
ATOM      4  O   UNL     1     -30.355  30.015 -33.687  1.00  0.00    -0.550 OA
ENDROOT
TORSDOF 0
ENDMDL
MODEL 5
REMARK VINA RESULT:    -1.866     18.939     19.264
REMARK INTER + INTRA:          -1.866
REMARK INTER:                  -1.866
REMARK INTRA:                   0.000
REMARK UNBOUND:                 0.000
REMARK SMILES CC(=O)[O-]
REMARK SMILES IDX 1 1 2 2 3 3 4 4
REMARK H PARENT
REMARK Flexibility Score: inf
ROOT
ATOM      1  C   UNL     1     -29.615  31.862 -33.254  1.00  0.00     0.063 C 
ATOM      2  C   UNL     1     -29.901  30.599 -33.992  1.00  0.00     0.038 C 
ATOM      3  O   UNL     1     -31.009  30.019 -33.847  1.00  0.00    -0.550 OA
ATOM      4  O   UNL     1     -28.926  30.029 -34.800  1.00  0.00    -0.550 OA
ENDROOT
TORSDOF 0
ENDMDL
MODEL 6
REMARK VINA RESULT:    -1.848     15.656     15.942
REMARK INTER + INTRA:          -1.848
REMARK INTER:                  -1.848
REMARK INTRA:                   0.000
REMARK UNBOUND:                 0.000
REMARK SMILES CC(=O)[O-]
REMARK SMILES IDX 1 1 2 2 3 3 4 4
REMARK H PARENT
REMARK Flexibility Score: inf
ROOT
ATOM      1  C   UNL     1     -24.553  26.277 -29.945  1.00  0.00     0.063 C 
ATOM      2  C   UNL     1     -23.820  25.180 -29.250  1.00  0.00     0.038 C 
ATOM      3  O   UNL     1     -22.563  25.192 -29.201  1.00  0.00    -0.550 OA
ATOM      4  O   UNL     1     -24.521  24.112 -28.703  1.00  0.00    -0.550 OA
ENDROOT
TORSDOF 0
ENDMDL
MODEL 7
REMARK VINA RESULT:    -1.835     22.188     22.789
REMARK INTER + INTRA:          -1.835
REMARK INTER:                  -1.835
REMARK INTRA:                   0.000
REMARK UNBOUND:                 0.000
REMARK SMILES CC(=O)[O-]
REMARK SMILES IDX 1 1 2 2 3 3 4 4
REMARK H PARENT
REMARK Flexibility Score: inf
ROOT
ATOM      1  C   UNL     1     -19.473  36.251 -27.149  1.00  0.00     0.063 C 
ATOM      2  C   UNL     1     -19.160  34.963 -26.466  1.00  0.00     0.038 C 
ATOM      3  O   UNL     1     -19.604  34.736 -25.311  1.00  0.00    -0.550 OA
ATOM      4  O   UNL     1     -18.333  34.033 -27.082  1.00  0.00    -0.550 OA
ENDROOT
TORSDOF 0
ENDMDL
MODEL 8
REMARK VINA RESULT:    -1.828     18.195     18.293
REMARK INTER + INTRA:          -1.828
REMARK INTER:                  -1.828
REMARK INTRA:                   0.000
REMARK UNBOUND:                 0.000
REMARK SMILES CC(=O)[O-]
REMARK SMILES IDX 1 1 2 2 3 3 4 4
REMARK H PARENT
REMARK Flexibility Score: inf
ROOT
ATOM      1  C   UNL     1     -35.887  19.657 -41.936  1.00  0.00     0.063 C 
ATOM      2  C   UNL     1     -35.519  19.540 -43.376  1.00  0.00     0.038 C 
ATOM      3  O   UNL     1     -35.387  18.405 -43.904  1.00  0.00    -0.550 OA
ATOM      4  O   UNL     1     -35.267  20.682 -44.125  1.00  0.00    -0.550 OA
ENDROOT
TORSDOF 0
ENDMDL
MODEL 9
REMARK VINA RESULT:    -1.801     15.974     16.352
REMARK INTER + INTRA:          -1.801
REMARK INTER:                  -1.801
REMARK INTRA:                   0.000
REMARK UNBOUND:                 0.000
REMARK SMILES CC(=O)[O-]
REMARK SMILES IDX 1 1 2 2 3 3 4 4
REMARK H PARENT
REMARK Flexibility Score: inf
ROOT
ATOM      1  C   UNL     1     -23.698  19.297 -25.937  1.00  0.00     0.063 C 
ATOM      2  C   UNL     1     -24.130  19.578 -27.335  1.00  0.00     0.038 C 
ATOM      3  O   UNL     1     -24.820  20.599 -27.591  1.00  0.00    -0.550 OA
ATOM      4  O   UNL     1     -23.819  18.684 -28.353  1.00  0.00    -0.550 OA
ENDROOT
TORSDOF 0
ENDMDL
