MODEL 1
REMARK VINA RESULT:    -3.140      0.000      0.000
REMARK INTER + INTRA:          -3.336
REMARK INTER:                  -3.324
REMARK INTRA:                  -0.012
REMARK UNBOUND:                -0.012
REMARK SMILES O=Cc1ccco1
REMARK SMILES IDX 5 1 6 2 7 3 3 4 4 5 2 6 1 7
REMARK H PARENT
REMARK Flexibility Score: inf
ROOT
ATOM      1  C   UNL     1       2.147  29.141  12.184  1.00  0.00     0.043 A 
ATOM      2  C   UNL     1       3.079  28.265  12.704  1.00  0.00     0.196 A 
ATOM      3  O   UNL     1       2.814  28.036  13.970  1.00  0.00    -0.462 OA
ATOM      4  C   UNL     1       1.747  28.725  14.303  1.00  0.00     0.166 A 
ATOM      5  C   UNL     1       1.284  29.440  13.218  1.00  0.00     0.054 A 
ENDROOT
BRANCH   4   6
ATOM      6  C   UNL     1       1.148  28.723  15.638  1.00  0.00     0.298 C 
ATOM      7  O   UNL     1      -0.002  29.203  15.817  1.00  0.00    -0.294 OA
ENDBRANCH   4   6
TORSDOF 1
ENDMDL
MODEL 2
REMARK VINA RESULT:    -3.114     19.465     20.356
REMARK INTER + INTRA:          -3.308
REMARK INTER:                  -3.297
REMARK INTRA:                  -0.011
REMARK UNBOUND:                -0.012
REMARK SMILES O=Cc1ccco1
REMARK SMILES IDX 5 1 6 2 7 3 3 4 4 5 2 6 1 7
REMARK H PARENT
REMARK Flexibility Score: inf
ROOT
ATOM      1  C   UNL     1      -8.863  18.930  28.057  1.00  0.00     0.043 A 
ATOM      2  C   UNL     1      -9.690  17.859  28.330  1.00  0.00     0.196 A 
ATOM      3  O   UNL     1     -10.552  17.704  27.351  1.00  0.00    -0.462 OA
ATOM      4  C   UNL     1     -10.327  18.630  26.448  1.00  0.00     0.166 A 
ATOM      5  C   UNL     1      -9.274  19.431  26.839  1.00  0.00     0.054 A 
ENDROOT
BRANCH   4   6
ATOM      6  C   UNL     1     -11.091  18.776  25.209  1.00  0.00     0.298 C 
ATOM      7  O   UNL     1     -10.801  18.082  24.199  1.00  0.00    -0.294 OA
ENDBRANCH   4   6
TORSDOF 1
ENDMDL
MODEL 3
REMARK VINA RESULT:    -3.053     19.397     19.815
REMARK INTER + INTRA:          -3.244
REMARK INTER:                  -3.233
REMARK INTRA:                  -0.011
REMARK UNBOUND:                -0.012
REMARK SMILES O=Cc1ccco1
REMARK SMILES IDX 5 1 6 2 7 3 3 4 4 5 2 6 1 7
REMARK H PARENT
REMARK Flexibility Score: inf
ROOT
ATOM      1  C   UNL     1     -10.995  14.173  19.735  1.00  0.00     0.043 A 
ATOM      2  C   UNL     1     -10.034  13.452  20.415  1.00  0.00     0.196 A 
ATOM      3  O   UNL     1      -9.599  14.150  21.439  1.00  0.00    -0.462 OA
ATOM      4  C   UNL     1     -10.233  15.300  21.459  1.00  0.00     0.166 A 
ATOM      5  C   UNL     1     -11.125  15.370  20.409  1.00  0.00     0.054 A 
ENDROOT
BRANCH   4   6
ATOM      6  C   UNL     1     -10.014  16.346  22.459  1.00  0.00     0.298 C 
ATOM      7  O   UNL     1     -10.716  16.381  23.504  1.00  0.00    -0.294 OA
ENDBRANCH   4   6
TORSDOF 1
ENDMDL
MODEL 4
REMARK VINA RESULT:    -2.953      1.519      1.964
REMARK INTER + INTRA:          -3.138
REMARK INTER:                  -3.126
REMARK INTRA:                  -0.011
REMARK UNBOUND:                -0.012
REMARK SMILES O=Cc1ccco1
REMARK SMILES IDX 5 1 6 2 7 3 3 4 4 5 2 6 1 7
REMARK H PARENT
REMARK Flexibility Score: inf
ROOT
ATOM      1  C   UNL     1       1.919  30.658  11.534  1.00  0.00     0.043 A 
ATOM      2  C   UNL     1       3.261  30.358  11.412  1.00  0.00     0.196 A 
ATOM      3  O   UNL     1       3.586  29.426  12.279  1.00  0.00    -0.462 OA
ATOM      4  C   UNL     1       2.513  29.103  12.964  1.00  0.00     0.166 A 
ATOM      5  C   UNL     1       1.433  29.847  12.538  1.00  0.00     0.054 A 
ENDROOT
BRANCH   4   6
ATOM      6  C   UNL     1       2.485  28.094  14.024  1.00  0.00     0.298 C 
ATOM      7  O   UNL     1       1.864  28.318  15.096  1.00  0.00    -0.294 OA
ENDBRANCH   4   6
TORSDOF 1
ENDMDL
MODEL 5
REMARK VINA RESULT:    -2.879     19.561     20.650
REMARK INTER + INTRA:          -3.059
REMARK INTER:                  -3.048
REMARK INTRA:                  -0.011
REMARK UNBOUND:                -0.012
REMARK SMILES O=Cc1ccco1
REMARK SMILES IDX 5 1 6 2 7 3 3 4 4 5 2 6 1 7
REMARK H PARENT
REMARK Flexibility Score: inf
ROOT
ATOM      1  C   UNL     1     -10.115  19.488  25.446  1.00  0.00     0.043 A 
ATOM      2  C   UNL     1     -10.875  18.427  24.994  1.00  0.00     0.196 A 
ATOM      3  O   UNL     1     -11.102  17.592  25.982  1.00  0.00    -0.462 OA
ATOM      4  C   UNL     1     -10.522  18.060  27.064  1.00  0.00     0.166 A 
ATOM      5  C   UNL     1      -9.885  19.252  26.785  1.00  0.00     0.054 A 
ENDROOT
BRANCH   4   6
ATOM      6  C   UNL     1     -10.556  17.399  28.369  1.00  0.00     0.298 C 
ATOM      7  O   UNL     1      -9.484  17.107  28.961  1.00  0.00    -0.294 OA
ENDBRANCH   4   6
TORSDOF 1
ENDMDL
MODEL 6
REMARK VINA RESULT:    -2.859      1.845      3.472
REMARK INTER + INTRA:          -3.038
REMARK INTER:                  -3.025
REMARK INTRA:                  -0.013
REMARK UNBOUND:                -0.012
REMARK SMILES O=Cc1ccco1
REMARK SMILES IDX 5 1 6 2 7 3 3 4 4 5 2 6 1 7
REMARK H PARENT
REMARK Flexibility Score: inf
ROOT
ATOM      1  C   UNL     1       1.170  29.424  13.007  1.00  0.00     0.043 A 
ATOM      2  C   UNL     1       1.930  28.661  13.872  1.00  0.00     0.196 A 
ATOM      3  O   UNL     1       3.196  28.731  13.529  1.00  0.00    -0.462 OA
ATOM      4  C   UNL     1       3.299  29.508  12.475  1.00  0.00     0.166 A 
ATOM      5  C   UNL     1       2.055  29.973  12.102  1.00  0.00     0.054 A 
ENDROOT
BRANCH   4   6
ATOM      6  C   UNL     1       4.561  29.825  11.805  1.00  0.00     0.298 C 
ATOM      7  O   UNL     1       5.492  30.387  12.440  1.00  0.00    -0.294 OA
ENDBRANCH   4   6
TORSDOF 1
ENDMDL
MODEL 7
REMARK VINA RESULT:    -2.855     19.561     20.143
REMARK INTER + INTRA:          -3.034
REMARK INTER:                  -3.020
REMARK INTRA:                  -0.014
REMARK UNBOUND:                -0.012
REMARK SMILES O=Cc1ccco1
REMARK SMILES IDX 5 1 6 2 7 3 3 4 4 5 2 6 1 7
REMARK H PARENT
REMARK Flexibility Score: inf
ROOT
ATOM      1  C   UNL     1     -11.104  18.850  24.988  1.00  0.00     0.043 A 
ATOM      2  C   UNL     1     -11.125  17.692  25.740  1.00  0.00     0.196 A 
ATOM      3  O   UNL     1     -10.531  17.901  26.892  1.00  0.00    -0.462 OA
ATOM      4  C   UNL     1     -10.120  19.148  26.928  1.00  0.00     0.166 A 
ATOM      5  C   UNL     1     -10.454  19.794  25.755  1.00  0.00     0.054 A 
ENDROOT
BRANCH   4   6
ATOM      6  C   UNL     1      -9.413  19.751  28.058  1.00  0.00     0.298 C 
ATOM      7  O   UNL     1      -8.473  19.132  28.622  1.00  0.00    -0.294 OA
ENDBRANCH   4   6
TORSDOF 1
ENDMDL
MODEL 8
REMARK VINA RESULT:    -2.808      2.655      3.315
REMARK INTER + INTRA:          -2.985
REMARK INTER:                  -2.972
REMARK INTRA:                  -0.013
REMARK UNBOUND:                -0.012
REMARK SMILES O=Cc1ccco1
REMARK SMILES IDX 5 1 6 2 7 3 3 4 4 5 2 6 1 7
REMARK H PARENT
REMARK Flexibility Score: inf
ROOT
ATOM      1  C   UNL     1       2.391  27.929  12.932  1.00  0.00     0.043 A 
ATOM      2  C   UNL     1       3.278  28.080  11.884  1.00  0.00     0.196 A 
ATOM      3  O   UNL     1       3.102  29.254  11.321  1.00  0.00    -0.462 OA
ATOM      4  C   UNL     1       2.136  29.879  11.954  1.00  0.00     0.166 A 
ATOM      5  C   UNL     1       1.651  29.092  12.978  1.00  0.00     0.054 A 
ENDROOT
BRANCH   4   6
ATOM      6  C   UNL     1       1.656  31.218  11.611  1.00  0.00     0.298 C 
ATOM      7  O   UNL     1       1.242  31.464  10.447  1.00  0.00    -0.294 OA
ENDBRANCH   4   6
TORSDOF 1
ENDMDL
MODEL 9
REMARK VINA RESULT:    -2.652      1.863      2.794
REMARK INTER + INTRA:          -2.819
REMARK INTER:                  -2.808
REMARK INTRA:                  -0.011
REMARK UNBOUND:                -0.012
REMARK SMILES O=Cc1ccco1
REMARK SMILES IDX 5 1 6 2 7 3 3 4 4 5 2 6 1 7
REMARK H PARENT
REMARK Flexibility Score: inf
ROOT
ATOM      1  C   UNL     1       3.656  27.146  10.507  1.00  0.00     0.043 A 
ATOM      2  C   UNL     1       3.109  26.028  11.104  1.00  0.00     0.196 A 
ATOM      3  O   UNL     1       2.572  26.358  12.256  1.00  0.00    -0.462 OA
ATOM      4  C   UNL     1       2.744  27.647  12.440  1.00  0.00     0.166 A 
ATOM      5  C   UNL     1       3.421  28.196  11.371  1.00  0.00     0.054 A 
ENDROOT
BRANCH   4   6
ATOM      6  C   UNL     1       2.278  28.381  13.617  1.00  0.00     0.298 C 
ATOM      7  O   UNL     1       3.099  28.769  14.489  1.00  0.00    -0.294 OA
ENDBRANCH   4   6
TORSDOF 1
ENDMDL
