MODEL 1
REMARK VINA RESULT:    -7.789      0.000      0.000
REMARK INTER + INTRA:          -9.718
REMARK INTER:                  -9.383
REMARK INTRA:                  -0.335
REMARK UNBOUND:                -0.335
REMARK SMILES Oc1cc(O)c2c(c1)O[C@H](c1ccc(O)c(O)c1)[C@@H](O)C2
REMARK SMILES IDX 21 1 19 2 10 3 9 4 7 5 8 6 2 7 3 8 4 9 6 10 20 11 11 13
REMARK SMILES IDX 18 14 12 15 16 16 13 17 14 18 17 19 15 21 5 23 1 25
REMARK H PARENT 20 12 17 20 15 22 5 24 1 26
REMARK Flexibility Score: inf
ROOT
ATOM      1  C   UNL     1     -16.041  59.299  -5.997  1.00  0.00     0.079 C 
ATOM      2  C   UNL     1     -17.227  58.339  -5.790  1.00  0.00     0.164 C 
ATOM      3  C   UNL     1     -18.335  59.044  -4.989  1.00  0.00     0.232 C 
ATOM      4  O   UNL     1     -17.811  59.512  -3.747  1.00  0.00    -0.482 OA
ATOM      5  C   UNL     1     -16.529  60.062  -3.637  1.00  0.00     0.131 A 
ATOM      6  C   UNL     1     -16.153  60.672  -2.438  1.00  0.00     0.093 A 
ATOM      7  C   UNL     1     -14.887  61.243  -2.305  1.00  0.00     0.122 A 
ATOM      8  C   UNL     1     -13.993  61.213  -3.381  1.00  0.00     0.092 A 
ATOM      9  C   UNL     1     -14.353  60.606  -4.590  1.00  0.00     0.126 A 
ATOM     10  C   UNL     1     -15.620  59.988  -4.715  1.00  0.00     0.039 A 
ENDROOT
BRANCH   2  11
ATOM     11  O   UNL     1     -17.730  57.931  -7.036  1.00  0.00    -0.389 OA
ATOM     12  H   UNL     1     -18.091  57.014  -6.912  1.00  0.00     0.211 HD
ENDBRANCH   2  11
BRANCH   3  13
ATOM     13  C   UNL     1     -19.497  58.113  -4.729  1.00  0.00    -0.001 A 
ATOM     14  C   UNL     1     -20.805  58.501  -5.068  1.00  0.00     0.057 A 
ATOM     15  C   UNL     1     -19.279  56.832  -4.194  1.00  0.00     0.012 A 
ATOM     16  C   UNL     1     -21.883  57.629  -4.854  1.00  0.00     0.157 A 
ATOM     17  C   UNL     1     -20.354  55.963  -3.980  1.00  0.00     0.050 A 
ATOM     18  C   UNL     1     -21.656  56.359  -4.308  1.00  0.00     0.157 A 
BRANCH  16  19
ATOM     19  O   UNL     1     -23.180  58.018  -5.185  1.00  0.00    -0.504 OA
ATOM     20  H   UNL     1     -23.542  58.928  -4.929  1.00  0.00     0.293 HD
ENDBRANCH  16  19
BRANCH  18  21
ATOM     21  O   UNL     1     -22.730  55.496  -4.097  1.00  0.00    -0.504 OA
ATOM     22  H   UNL     1     -22.916  55.093  -3.186  1.00  0.00     0.293 HD
ENDBRANCH  18  21
ENDBRANCH   3  13
BRANCH   9  23
ATOM     23  O   UNL     1     -13.437  60.647  -5.643  1.00  0.00    -0.507 OA
ATOM     24  H   UNL     1     -12.674  59.990  -5.743  1.00  0.00     0.293 HD
ENDBRANCH   9  23
BRANCH   7  25
ATOM     25  O   UNL     1     -14.527  61.845  -1.101  1.00  0.00    -0.508 OA
ATOM     26  H   UNL     1     -14.432  62.850  -1.018  1.00  0.00     0.293 HD
ENDBRANCH   7  25
TORSDOF 6
ENDMDL
MODEL 2
REMARK VINA RESULT:    -7.351      3.821      5.365
REMARK INTER + INTRA:          -9.190
REMARK INTER:                  -8.865
REMARK INTRA:                  -0.325
REMARK UNBOUND:                -0.335
REMARK SMILES Oc1cc(O)c2c(c1)O[C@H](c1ccc(O)c(O)c1)[C@@H](O)C2
REMARK SMILES IDX 21 1 19 2 10 3 9 4 7 5 8 6 2 7 3 8 4 9 6 10 20 11 11 13
REMARK SMILES IDX 18 14 12 15 16 16 13 17 14 18 17 19 15 21 5 23 1 25
REMARK H PARENT 20 12 17 20 15 22 5 24 1 26
REMARK Flexibility Score: inf
ROOT
ATOM      1  C   UNL     1     -16.245  60.685  -2.452  1.00  0.00     0.079 C 
ATOM      2  C   UNL     1     -17.305  60.938  -1.364  1.00  0.00     0.164 C 
ATOM      3  C   UNL     1     -18.041  59.628  -1.037  1.00  0.00     0.232 C 
ATOM      4  O   UNL     1     -18.619  59.088  -2.224  1.00  0.00    -0.482 OA
ATOM      5  C   UNL     1     -17.966  59.133  -3.460  1.00  0.00     0.131 A 
ATOM      6  C   UNL     1     -18.501  58.422  -4.537  1.00  0.00     0.093 A 
ATOM      7  C   UNL     1     -17.863  58.435  -5.778  1.00  0.00     0.122 A 
ATOM      8  C   UNL     1     -16.676  59.158  -5.942  1.00  0.00     0.092 A 
ATOM      9  C   UNL     1     -16.125  59.876  -4.874  1.00  0.00     0.126 A 
ATOM     10  C   UNL     1     -16.792  59.900  -3.627  1.00  0.00     0.039 A 
ENDROOT
BRANCH   2  11
ATOM     11  O   UNL     1     -16.688  61.437  -0.206  1.00  0.00    -0.389 OA
ATOM     12  H   UNL     1     -15.892  60.867  -0.038  1.00  0.00     0.211 HD
ENDBRANCH   2  11
BRANCH   3  13
ATOM     13  C   UNL     1     -19.121  59.852  -0.004  1.00  0.00    -0.001 A 
ATOM     14  C   UNL     1     -20.354  60.416  -0.378  1.00  0.00     0.057 A 
ATOM     15  C   UNL     1     -18.927  59.456   1.330  1.00  0.00     0.012 A 
ATOM     16  C   UNL     1     -21.369  60.601   0.572  1.00  0.00     0.157 A 
ATOM     17  C   UNL     1     -19.939  59.641   2.277  1.00  0.00     0.050 A 
ATOM     18  C   UNL     1     -21.160  60.214   1.901  1.00  0.00     0.157 A 
BRANCH  16  19
ATOM     19  O   UNL     1     -22.588  61.166   0.199  1.00  0.00    -0.504 OA
ATOM     20  H   UNL     1     -23.386  60.593  -0.042  1.00  0.00     0.293 HD
ENDBRANCH  16  19
BRANCH  18  21
ATOM     21  O   UNL     1     -22.171  60.400   2.842  1.00  0.00    -0.504 OA
ATOM     22  H   UNL     1     -22.719  59.623   3.192  1.00  0.00     0.293 HD
ENDBRANCH  18  21
ENDBRANCH   3  13
BRANCH   9  23
ATOM     23  O   UNL     1     -14.915  60.541  -5.085  1.00  0.00    -0.507 OA
ATOM     24  H   UNL     1     -14.487  61.147  -4.398  1.00  0.00     0.293 HD
ENDBRANCH   9  23
BRANCH   7  25
ATOM     25  O   UNL     1     -18.412  57.722  -6.841  1.00  0.00    -0.508 OA
ATOM     26  H   UNL     1     -18.147  57.911  -7.800  1.00  0.00     0.293 HD
ENDBRANCH   7  25
TORSDOF 6
ENDMDL
MODEL 3
REMARK VINA RESULT:    -7.260      4.082      5.452
REMARK INTER + INTRA:          -9.081
REMARK INTER:                  -8.777
REMARK INTRA:                  -0.304
REMARK UNBOUND:                -0.335
REMARK SMILES Oc1cc(O)c2c(c1)O[C@H](c1ccc(O)c(O)c1)[C@@H](O)C2
REMARK SMILES IDX 21 1 19 2 10 3 9 4 7 5 8 6 2 7 3 8 4 9 6 10 20 11 11 13
REMARK SMILES IDX 18 14 12 15 16 16 13 17 14 18 17 19 15 21 5 23 1 25
REMARK H PARENT 20 12 17 20 15 22 5 24 1 26
REMARK Flexibility Score: inf
ROOT
ATOM      1  C   UNL     1     -15.847  61.719  -0.867  1.00  0.00     0.079 C 
ATOM      2  C   UNL     1     -17.169  61.698  -0.078  1.00  0.00     0.164 C 
ATOM      3  C   UNL     1     -17.787  60.291  -0.131  1.00  0.00     0.232 C 
ATOM      4  O   UNL     1     -17.974  59.895  -1.489  1.00  0.00    -0.482 OA
ATOM      5  C   UNL     1     -17.044  60.195  -2.490  1.00  0.00     0.131 A 
ATOM      6  C   UNL     1     -17.195  59.617  -3.752  1.00  0.00     0.093 A 
ATOM      7  C   UNL     1     -16.274  59.885  -4.766  1.00  0.00     0.122 A 
ATOM      8  C   UNL     1     -15.188  60.730  -4.512  1.00  0.00     0.092 A 
ATOM      9  C   UNL     1     -15.021  61.318  -3.253  1.00  0.00     0.126 A 
ATOM     10  C   UNL     1     -15.976  61.083  -2.236  1.00  0.00     0.039 A 
ENDROOT
BRANCH   2  11
ATOM     11  O   UNL     1     -16.932  62.062   1.257  1.00  0.00    -0.389 OA
ATOM     12  H   UNL     1     -15.962  62.261   1.330  1.00  0.00     0.211 HD
ENDBRANCH   2  11
BRANCH   3  13
ATOM     13  C   UNL     1     -19.111  60.248   0.597  1.00  0.00    -0.001 A 
ATOM     14  C   UNL     1     -20.283  60.693  -0.040  1.00  0.00     0.057 A 
ATOM     15  C   UNL     1     -19.195  59.721   1.896  1.00  0.00     0.012 A 
ATOM     16  C   UNL     1     -21.518  60.629   0.622  1.00  0.00     0.157 A 
ATOM     17  C   UNL     1     -20.426  59.658   2.556  1.00  0.00     0.050 A 
ATOM     18  C   UNL     1     -21.589  60.113   1.922  1.00  0.00     0.157 A 
BRANCH  16  19
ATOM     19  O   UNL     1     -22.678  61.076  -0.009  1.00  0.00    -0.504 OA
ATOM     20  H   UNL     1     -23.591  60.716   0.241  1.00  0.00     0.293 HD
ENDBRANCH  16  19
BRANCH  18  21
ATOM     21  O   UNL     1     -22.819  60.052   2.576  1.00  0.00    -0.504 OA
ATOM     22  H   UNL     1     -23.486  59.316   2.382  1.00  0.00     0.293 HD
ENDBRANCH  18  21
ENDBRANCH   3  13
BRANCH   9  23
ATOM     23  O   UNL     1     -13.893  62.116  -3.046  1.00  0.00    -0.507 OA
ATOM     24  H   UNL     1     -13.503  62.723  -3.756  1.00  0.00     0.293 HD
ENDBRANCH   9  23
BRANCH   7  25
ATOM     25  O   UNL     1     -16.442  59.301  -6.019  1.00  0.00    -0.508 OA
ATOM     26  H   UNL     1     -17.117  59.657  -6.684  1.00  0.00     0.293 HD
ENDBRANCH   7  25
TORSDOF 6
ENDMDL
MODEL 4
REMARK VINA RESULT:    -6.896      4.543      7.053
REMARK INTER + INTRA:          -8.642
REMARK INTER:                  -8.452
REMARK INTRA:                  -0.190
REMARK UNBOUND:                -0.335
REMARK SMILES Oc1cc(O)c2c(c1)O[C@H](c1ccc(O)c(O)c1)[C@@H](O)C2
REMARK SMILES IDX 21 1 19 2 10 3 9 4 7 5 8 6 2 7 3 8 4 9 6 10 20 11 11 13
REMARK SMILES IDX 18 14 12 15 16 16 13 17 14 18 17 19 15 21 5 23 1 25
REMARK H PARENT 20 12 17 20 15 22 5 24 1 26
REMARK Flexibility Score: inf
ROOT
ATOM      1  C   UNL     1     -17.380  59.488   1.668  1.00  0.00     0.079 C 
ATOM      2  C   UNL     1     -17.049  59.251   0.182  1.00  0.00     0.164 C 
ATOM      3  C   UNL     1     -17.799  60.272  -0.690  1.00  0.00     0.232 C 
ATOM      4  O   UNL     1     -19.201  60.185  -0.439  1.00  0.00    -0.482 OA
ATOM      5  C   UNL     1     -19.720  59.974   0.843  1.00  0.00     0.131 A 
ATOM      6  C   UNL     1     -21.097  60.088   1.045  1.00  0.00     0.093 A 
ATOM      7  C   UNL     1     -21.641  59.898   2.316  1.00  0.00     0.122 A 
ATOM      8  C   UNL     1     -20.801  59.602   3.395  1.00  0.00     0.092 A 
ATOM      9  C   UNL     1     -19.419  59.484   3.211  1.00  0.00     0.126 A 
ATOM     10  C   UNL     1     -18.868  59.632   1.916  1.00  0.00     0.039 A 
ENDROOT
BRANCH   2  11
ATOM     11  O   UNL     1     -15.666  59.379  -0.022  1.00  0.00    -0.389 OA
ATOM     12  H   UNL     1     -15.511  59.277  -0.998  1.00  0.00     0.211 HD
ENDBRANCH   2  11
BRANCH   3  13
ATOM     13  C   UNL     1     -17.531  60.037  -2.158  1.00  0.00    -0.001 A 
ATOM     14  C   UNL     1     -16.449  60.674  -2.791  1.00  0.00     0.057 A 
ATOM     15  C   UNL     1     -18.327  59.145  -2.895  1.00  0.00     0.012 A 
ATOM     16  C   UNL     1     -16.180  60.437  -4.147  1.00  0.00     0.157 A 
ATOM     17  C   UNL     1     -18.059  58.909  -4.247  1.00  0.00     0.050 A 
ATOM     18  C   UNL     1     -16.987  59.554  -4.876  1.00  0.00     0.157 A 
BRANCH  16  19
ATOM     19  O   UNL     1     -15.110  61.074  -4.774  1.00  0.00    -0.504 OA
ATOM     20  H   UNL     1     -15.166  62.041  -5.068  1.00  0.00     0.293 HD
ENDBRANCH  16  19
BRANCH  18  21
ATOM     21  O   UNL     1     -16.716  59.323  -6.223  1.00  0.00    -0.504 OA
ATOM     22  H   UNL     1     -16.136  59.953  -6.764  1.00  0.00     0.293 HD
ENDBRANCH  18  21
ENDBRANCH   3  13
BRANCH   9  23
ATOM     23  O   UNL     1     -18.626  59.231   4.333  1.00  0.00    -0.507 OA
ATOM     24  H   UNL     1     -18.535  59.878   5.106  1.00  0.00     0.293 HD
ENDBRANCH   9  23
BRANCH   7  25
ATOM     25  O   UNL     1     -23.018  60.014   2.499  1.00  0.00    -0.508 OA
ATOM     26  H   UNL     1     -23.572  60.663   1.954  1.00  0.00     0.293 HD
ENDBRANCH   7  25
TORSDOF 6
ENDMDL
MODEL 5
REMARK VINA RESULT:    -6.797      4.810      7.151
REMARK INTER + INTRA:          -8.523
REMARK INTER:                  -8.295
REMARK INTRA:                  -0.228
REMARK UNBOUND:                -0.335
REMARK SMILES Oc1cc(O)c2c(c1)O[C@H](c1ccc(O)c(O)c1)[C@@H](O)C2
REMARK SMILES IDX 21 1 19 2 10 3 9 4 7 5 8 6 2 7 3 8 4 9 6 10 20 11 11 13
REMARK SMILES IDX 18 14 12 15 16 16 13 17 14 18 17 19 15 21 5 23 1 25
REMARK H PARENT 20 12 17 20 15 22 5 24 1 26
REMARK Flexibility Score: inf
ROOT
ATOM      1  C   UNL     1     -17.630  59.405   2.055  1.00  0.00     0.079 C 
ATOM      2  C   UNL     1     -17.219  59.211   0.584  1.00  0.00     0.164 C 
ATOM      3  C   UNL     1     -17.923  60.257  -0.297  1.00  0.00     0.232 C 
ATOM      4  O   UNL     1     -19.336  60.162  -0.125  1.00  0.00    -0.482 OA
ATOM      5  C   UNL     1     -19.922  59.913   1.120  1.00  0.00     0.131 A 
ATOM      6  C   UNL     1     -21.309  60.021   1.251  1.00  0.00     0.093 A 
ATOM      7  C   UNL     1     -21.920  59.794   2.485  1.00  0.00     0.122 A 
ATOM      8  C   UNL     1     -21.139  59.467   3.599  1.00  0.00     0.092 A 
ATOM      9  C   UNL     1     -19.748  59.354   3.486  1.00  0.00     0.126 A 
ATOM     10  C   UNL     1     -19.129  59.541   2.227  1.00  0.00     0.039 A 
ENDROOT
BRANCH   2  11
ATOM     11  O   UNL     1     -15.827  59.346   0.458  1.00  0.00    -0.389 OA
ATOM     12  H   UNL     1     -15.553  58.774  -0.306  1.00  0.00     0.211 HD
ENDBRANCH   2  11
BRANCH   3  13
ATOM     13  C   UNL     1     -17.576  60.065  -1.755  1.00  0.00    -0.001 A 
ATOM     14  C   UNL     1     -18.363  59.230  -2.567  1.00  0.00     0.057 A 
ATOM     15  C   UNL     1     -16.494  60.755  -2.328  1.00  0.00     0.012 A 
ATOM     16  C   UNL     1     -18.060  59.071  -3.927  1.00  0.00     0.157 A 
ATOM     17  C   UNL     1     -16.192  60.596  -3.684  1.00  0.00     0.050 A 
ATOM     18  C   UNL     1     -16.972  59.754  -4.486  1.00  0.00     0.157 A 
BRANCH  16  19
ATOM     19  O   UNL     1     -18.839  58.237  -4.729  1.00  0.00    -0.504 OA
ATOM     20  H   UNL     1     -18.942  57.251  -4.526  1.00  0.00     0.293 HD
ENDBRANCH  16  19
BRANCH  18  21
ATOM     21  O   UNL     1     -16.675  59.592  -5.838  1.00  0.00    -0.504 OA
ATOM     22  H   UNL     1     -16.187  60.308  -6.363  1.00  0.00     0.293 HD
ENDBRANCH  18  21
ENDBRANCH   3  13
BRANCH   9  23
ATOM     23  O   UNL     1     -19.017  59.070   4.641  1.00  0.00    -0.507 OA
ATOM     24  H   UNL     1     -18.285  58.372   4.678  1.00  0.00     0.293 HD
ENDBRANCH   9  23
BRANCH   7  25
ATOM     25  O   UNL     1     -23.305  59.904   2.597  1.00  0.00    -0.508 OA
ATOM     26  H   UNL     1     -23.924  59.183   2.248  1.00  0.00     0.293 HD
ENDBRANCH   7  25
TORSDOF 6
ENDMDL
MODEL 6
REMARK VINA RESULT:    -6.647      2.470      6.721
REMARK INTER + INTRA:          -8.342
REMARK INTER:                  -8.371
REMARK INTRA:                   0.029
REMARK UNBOUND:                -0.335
REMARK SMILES Oc1cc(O)c2c(c1)O[C@H](c1ccc(O)c(O)c1)[C@@H](O)C2
REMARK SMILES IDX 21 1 19 2 10 3 9 4 7 5 8 6 2 7 3 8 4 9 6 10 20 11 11 13
REMARK SMILES IDX 18 14 12 15 16 16 13 17 14 18 17 19 15 21 5 23 1 25
REMARK H PARENT 20 12 17 20 15 22 5 24 1 26
REMARK Flexibility Score: inf
ROOT
ATOM      1  C   UNL     1     -15.449  60.235  -4.649  1.00  0.00     0.079 C 
ATOM      2  C   UNL     1     -15.562  61.228  -3.477  1.00  0.00     0.164 C 
ATOM      3  C   UNL     1     -16.127  60.512  -2.239  1.00  0.00     0.232 C 
ATOM      4  O   UNL     1     -17.386  59.920  -2.555  1.00  0.00    -0.482 OA
ATOM      5  C   UNL     1     -17.635  59.306  -3.786  1.00  0.00     0.131 A 
ATOM      6  C   UNL     1     -18.819  58.584  -3.958  1.00  0.00     0.093 A 
ATOM      7  C   UNL     1     -19.087  57.947  -5.170  1.00  0.00     0.122 A 
ATOM      8  C   UNL     1     -18.160  58.024  -6.216  1.00  0.00     0.092 A 
ATOM      9  C   UNL     1     -16.969  58.742  -6.062  1.00  0.00     0.126 A 
ATOM     10  C   UNL     1     -16.714  59.426  -4.850  1.00  0.00     0.039 A 
ENDROOT
BRANCH   2  11
ATOM     11  O   UNL     1     -14.296  61.760  -3.181  1.00  0.00    -0.389 OA
ATOM     12  H   UNL     1     -13.876  61.996  -4.049  1.00  0.00     0.211 HD
ENDBRANCH   2  11
BRANCH   3  13
ATOM     13  C   UNL     1     -16.293  61.471  -1.083  1.00  0.00    -0.001 A 
ATOM     14  C   UNL     1     -16.413  60.983   0.231  1.00  0.00     0.057 A 
ATOM     15  C   UNL     1     -16.280  62.859  -1.299  1.00  0.00     0.012 A 
ATOM     16  C   UNL     1     -16.540  61.871   1.309  1.00  0.00     0.157 A 
ATOM     17  C   UNL     1     -16.407  63.744  -0.223  1.00  0.00     0.050 A 
ATOM     18  C   UNL     1     -16.538  63.253   1.081  1.00  0.00     0.157 A 
BRANCH  16  19
ATOM     19  O   UNL     1     -16.665  61.384   2.610  1.00  0.00    -0.504 OA
ATOM     20  H   UNL     1     -16.466  61.965   3.415  1.00  0.00     0.293 HD
ENDBRANCH  16  19
BRANCH  18  21
ATOM     21  O   UNL     1     -16.665  64.131   2.156  1.00  0.00    -0.504 OA
ATOM     22  H   UNL     1     -16.034  64.914   2.278  1.00  0.00     0.293 HD
ENDBRANCH  18  21
ENDBRANCH   3  13
BRANCH   9  23
ATOM     23  O   UNL     1     -16.063  58.746  -7.124  1.00  0.00    -0.507 OA
ATOM     24  H   UNL     1     -15.184  58.244  -7.107  1.00  0.00     0.293 HD
ENDBRANCH   9  23
BRANCH   7  25
ATOM     25  O   UNL     1     -20.273  57.232  -5.324  1.00  0.00    -0.508 OA
ATOM     26  H   UNL     1     -21.133  57.687  -5.606  1.00  0.00     0.293 HD
ENDBRANCH   7  25
TORSDOF 6
ENDMDL
MODEL 7
REMARK VINA RESULT:    -6.522      1.384      3.051
REMARK INTER + INTRA:          -8.191
REMARK INTER:                  -8.022
REMARK INTRA:                  -0.169
REMARK UNBOUND:                -0.335
REMARK SMILES Oc1cc(O)c2c(c1)O[C@H](c1ccc(O)c(O)c1)[C@@H](O)C2
REMARK SMILES IDX 21 1 19 2 10 3 9 4 7 5 8 6 2 7 3 8 4 9 6 10 20 11 11 13
REMARK SMILES IDX 18 14 12 15 16 16 13 17 14 18 17 19 15 21 5 23 1 25
REMARK H PARENT 20 12 17 20 15 22 5 24 1 26
REMARK Flexibility Score: inf
ROOT
ATOM      1  C   UNL     1     -16.855  60.319  -1.583  1.00  0.00     0.079 C 
ATOM      2  C   UNL     1     -18.141  59.772  -2.232  1.00  0.00     0.164 C 
ATOM      3  C   UNL     1     -17.781  58.883  -3.434  1.00  0.00     0.232 C 
ATOM      4  O   UNL     1     -16.992  59.623  -4.365  1.00  0.00    -0.482 OA
ATOM      5  C   UNL     1     -16.008  60.530  -3.956  1.00  0.00     0.131 A 
ATOM      6  C   UNL     1     -15.148  61.075  -4.912  1.00  0.00     0.093 A 
ATOM      7  C   UNL     1     -14.147  61.970  -4.531  1.00  0.00     0.122 A 
ATOM      8  C   UNL     1     -13.999  62.314  -3.183  1.00  0.00     0.092 A 
ATOM      9  C   UNL     1     -14.851  61.778  -2.211  1.00  0.00     0.126 A 
ATOM     10  C   UNL     1     -15.895  60.904  -2.599  1.00  0.00     0.039 A 
ENDROOT
BRANCH   2  11
ATOM     11  O   UNL     1     -18.867  59.026  -1.290  1.00  0.00    -0.389 OA
ATOM     12  H   UNL     1     -18.513  59.273  -0.396  1.00  0.00     0.211 HD
ENDBRANCH   2  11
BRANCH   3  13
ATOM     13  C   UNL     1     -19.024  58.367  -4.121  1.00  0.00    -0.001 A 
ATOM     14  C   UNL     1     -19.622  57.167  -3.696  1.00  0.00     0.057 A 
ATOM     15  C   UNL     1     -19.623  59.100  -5.159  1.00  0.00     0.012 A 
ATOM     16  C   UNL     1     -20.791  56.699  -4.313  1.00  0.00     0.157 A 
ATOM     17  C   UNL     1     -20.789  58.633  -5.774  1.00  0.00     0.050 A 
ATOM     18  C   UNL     1     -21.374  57.432  -5.354  1.00  0.00     0.157 A 
BRANCH  16  19
ATOM     19  O   UNL     1     -21.379  55.506  -3.893  1.00  0.00    -0.504 OA
ATOM     20  H   UNL     1     -20.916  54.614  -4.016  1.00  0.00     0.293 HD
ENDBRANCH  16  19
BRANCH  18  21
ATOM     21  O   UNL     1     -22.536  56.962  -5.965  1.00  0.00    -0.504 OA
ATOM     22  H   UNL     1     -23.142  56.293  -5.505  1.00  0.00     0.293 HD
ENDBRANCH  18  21
ENDBRANCH   3  13
BRANCH   9  23
ATOM     23  O   UNL     1     -14.626  62.123  -0.877  1.00  0.00    -0.507 OA
ATOM     24  H   UNL     1     -14.180  62.986  -0.594  1.00  0.00     0.293 HD
ENDBRANCH   9  23
BRANCH   7  25
ATOM     25  O   UNL     1     -13.299  62.505  -5.498  1.00  0.00    -0.508 OA
ATOM     26  H   UNL     1     -12.292  62.430  -5.421  1.00  0.00     0.293 HD
ENDBRANCH   7  25
TORSDOF 6
ENDMDL
MODEL 8
REMARK VINA RESULT:    -6.443     15.533     17.142
REMARK INTER + INTRA:          -8.097
REMARK INTER:                  -7.862
REMARK INTRA:                  -0.235
REMARK UNBOUND:                -0.335
REMARK SMILES Oc1cc(O)c2c(c1)O[C@H](c1ccc(O)c(O)c1)[C@@H](O)C2
REMARK SMILES IDX 21 1 19 2 10 3 9 4 7 5 8 6 2 7 3 8 4 9 6 10 20 11 11 13
REMARK SMILES IDX 18 14 12 15 16 16 13 17 14 18 17 19 15 21 5 23 1 25
REMARK H PARENT 20 12 17 20 15 22 5 24 1 26
REMARK Flexibility Score: inf
ROOT
ATOM      1  C   UNL     1     -18.358  49.631   7.111  1.00  0.00     0.079 C 
ATOM      2  C   UNL     1     -19.688  49.280   7.804  1.00  0.00     0.164 C 
ATOM      3  C   UNL     1     -19.686  49.822   9.243  1.00  0.00     0.232 C 
ATOM      4  O   UNL     1     -18.564  49.302   9.955  1.00  0.00    -0.482 OA
ATOM      5  C   UNL     1     -17.310  49.141   9.358  1.00  0.00     0.131 A 
ATOM      6  C   UNL     1     -16.215  48.807  10.159  1.00  0.00     0.093 A 
ATOM      7  C   UNL     1     -14.948  48.655   9.594  1.00  0.00     0.122 A 
ATOM      8  C   UNL     1     -14.772  48.848   8.219  1.00  0.00     0.092 A 
ATOM      9  C   UNL     1     -15.857  49.182   7.401  1.00  0.00     0.126 A 
ATOM     10  C   UNL     1     -17.151  49.294   7.963  1.00  0.00     0.039 A 
ENDROOT
BRANCH   2  11
ATOM     11  O   UNL     1     -20.758  49.839   7.088  1.00  0.00    -0.389 OA
ATOM     12  H   UNL     1     -21.162  49.103   6.557  1.00  0.00     0.211 HD
ENDBRANCH   2  11
BRANCH   3  13
ATOM     13  C   UNL     1     -20.961  49.455   9.966  1.00  0.00    -0.001 A 
ATOM     14  C   UNL     1     -21.585  50.382  10.819  1.00  0.00     0.057 A 
ATOM     15  C   UNL     1     -21.563  48.203   9.758  1.00  0.00     0.012 A 
ATOM     16  C   UNL     1     -22.782  50.055  11.470  1.00  0.00     0.157 A 
ATOM     17  C   UNL     1     -22.758  47.876  10.408  1.00  0.00     0.050 A 
ATOM     18  C   UNL     1     -23.369  48.799  11.266  1.00  0.00     0.157 A 
BRANCH  16  19
ATOM     19  O   UNL     1     -23.396  50.974  12.320  1.00  0.00    -0.504 OA
ATOM     20  H   UNL     1     -23.175  51.961  12.281  1.00  0.00     0.293 HD
ENDBRANCH  16  19
BRANCH  18  21
ATOM     21  O   UNL     1     -24.559  48.478  11.916  1.00  0.00    -0.504 OA
ATOM     22  H   UNL     1     -24.566  47.933  12.770  1.00  0.00     0.293 HD
ENDBRANCH  18  21
ENDBRANCH   3  13
BRANCH   9  23
ATOM     23  O   UNL     1     -15.613  49.406   6.045  1.00  0.00    -0.507 OA
ATOM     24  H   UNL     1     -15.636  48.674   5.347  1.00  0.00     0.293 HD
ENDBRANCH   9  23
BRANCH   7  25
ATOM     25  O   UNL     1     -13.868  48.321  10.408  1.00  0.00    -0.508 OA
ATOM     26  H   UNL     1     -13.258  49.029  10.798  1.00  0.00     0.293 HD
ENDBRANCH   7  25
TORSDOF 6
ENDMDL
MODEL 9
REMARK VINA RESULT:    -6.437      9.360     11.819
REMARK INTER + INTRA:          -8.089
REMARK INTER:                  -8.158
REMARK INTRA:                   0.069
REMARK UNBOUND:                -0.335
REMARK SMILES Oc1cc(O)c2c(c1)O[C@H](c1ccc(O)c(O)c1)[C@@H](O)C2
REMARK SMILES IDX 21 1 19 2 10 3 9 4 7 5 8 6 2 7 3 8 4 9 6 10 20 11 11 13
REMARK SMILES IDX 18 14 12 15 16 16 13 17 14 18 17 19 15 21 5 23 1 25
REMARK H PARENT 20 12 17 20 15 22 5 24 1 26
REMARK Flexibility Score: inf
ROOT
ATOM      1  C   UNL     1     -20.053  58.562   7.586  1.00  0.00     0.079 C 
ATOM      2  C   UNL     1     -19.330  58.760   6.240  1.00  0.00     0.164 C 
ATOM      3  C   UNL     1     -20.356  59.063   5.135  1.00  0.00     0.232 C 
ATOM      4  O   UNL     1     -21.319  58.013   5.069  1.00  0.00    -0.482 OA
ATOM      5  C   UNL     1     -21.818  57.382   6.214  1.00  0.00     0.131 A 
ATOM      6  C   UNL     1     -22.893  56.499   6.089  1.00  0.00     0.093 A 
ATOM      7  C   UNL     1     -23.421  55.868   7.216  1.00  0.00     0.122 A 
ATOM      8  C   UNL     1     -22.878  56.129   8.479  1.00  0.00     0.092 A 
ATOM      9  C   UNL     1     -21.801  57.011   8.623  1.00  0.00     0.126 A 
ATOM     10  C   UNL     1     -21.234  57.620   7.478  1.00  0.00     0.039 A 
ENDROOT
BRANCH   2  11
ATOM     11  O   UNL     1     -18.417  59.822   6.344  1.00  0.00    -0.389 OA
ATOM     12  H   UNL     1     -17.552  59.491   5.986  1.00  0.00     0.211 HD
ENDBRANCH   2  11
BRANCH   3  13
ATOM     13  C   UNL     1     -19.681  59.218   3.792  1.00  0.00    -0.001 A 
ATOM     14  C   UNL     1     -18.350  58.799   3.615  1.00  0.00     0.057 A 
ATOM     15  C   UNL     1     -20.388  59.734   2.694  1.00  0.00     0.012 A 
ATOM     16  C   UNL     1     -17.730  58.916   2.363  1.00  0.00     0.157 A 
ATOM     17  C   UNL     1     -19.769  59.851   1.445  1.00  0.00     0.050 A 
ATOM     18  C   UNL     1     -18.440  59.443   1.277  1.00  0.00     0.157 A 
BRANCH  16  19
ATOM     19  O   UNL     1     -16.408  58.506   2.192  1.00  0.00    -0.504 OA
ATOM     20  H   UNL     1     -16.136  57.898   1.429  1.00  0.00     0.293 HD
ENDBRANCH  16  19
BRANCH  18  21
ATOM     21  O   UNL     1     -17.818  59.558   0.035  1.00  0.00    -0.504 OA
ATOM     22  H   UNL     1     -17.968  60.364  -0.560  1.00  0.00     0.293 HD
ENDBRANCH  18  21
ENDBRANCH   3  13
BRANCH   9  23
ATOM     23  O   UNL     1     -21.331  57.268   9.912  1.00  0.00    -0.507 OA
ATOM     24  H   UNL     1     -21.160  56.542  10.597  1.00  0.00     0.293 HD
ENDBRANCH   9  23
BRANCH   7  25
ATOM     25  O   UNL     1     -24.492  54.988   7.072  1.00  0.00    -0.508 OA
ATOM     26  H   UNL     1     -24.557  54.138   7.619  1.00  0.00     0.293 HD
ENDBRANCH   7  25
TORSDOF 6
ENDMDL
