MODEL 1
REMARK VINA RESULT:    -3.135      0.000      0.000
REMARK INTER + INTRA:          -3.565
REMARK INTER:                  -3.501
REMARK INTRA:                  -0.063
REMARK UNBOUND:                -0.063
REMARK SMILES CCCC(=O)[O-]
REMARK SMILES IDX 3 1 4 2 5 3 6 4 2 5 1 6
REMARK H PARENT
REMARK Flexibility Score: inf
ROOT
ATOM      1  C   UNL     1       5.975  -9.063 -12.029  1.00  0.00     0.052 C 
ENDROOT
BRANCH   1   2
ATOM      2  C   UNL     1       6.016 -10.006 -10.866  1.00  0.00     0.041 C 
ATOM      3  O   UNL     1       5.046 -10.776 -10.640  1.00  0.00    -0.550 OA
ATOM      4  O   UNL     1       7.111 -10.009 -10.011  1.00  0.00    -0.550 OA
ENDBRANCH   1   2
BRANCH   1   5
ATOM      5  C   UNL     1       4.926  -7.962 -11.832  1.00  0.00     0.003 C 
ATOM      6  C   UNL     1       5.182  -7.133 -10.573  1.00  0.00     0.004 C 
ENDBRANCH   1   5
TORSDOF 2
ENDMDL
MODEL 2
REMARK VINA RESULT:    -3.043      1.126      2.056
REMARK INTER + INTRA:          -3.462
REMARK INTER:                  -3.455
REMARK INTRA:                  -0.007
REMARK UNBOUND:                -0.063
REMARK SMILES CCCC(=O)[O-]
REMARK SMILES IDX 3 1 4 2 5 3 6 4 2 5 1 6
REMARK H PARENT
REMARK Flexibility Score: inf
ROOT
ATOM      1  C   UNL     1       5.633  -8.512 -11.534  1.00  0.00     0.052 C 
ENDROOT
BRANCH   1   2
ATOM      2  C   UNL     1       5.886  -9.809 -10.830  1.00  0.00     0.041 C 
ATOM      3  O   UNL     1       7.023 -10.058 -10.348  1.00  0.00    -0.550 OA
ATOM      4  O   UNL     1       4.876 -10.759 -10.735  1.00  0.00    -0.550 OA
ENDBRANCH   1   2
BRANCH   1   5
ATOM      5  C   UNL     1       4.929  -8.723 -12.880  1.00  0.00     0.003 C 
ATOM      6  C   UNL     1       5.533  -7.867 -13.993  1.00  0.00     0.004 C 
ENDBRANCH   1   5
TORSDOF 2
ENDMDL
MODEL 3
REMARK VINA RESULT:    -2.945      1.466      1.959
REMARK INTER + INTRA:          -3.352
REMARK INTER:                  -3.343
REMARK INTRA:                  -0.009
REMARK UNBOUND:                -0.063
REMARK SMILES CCCC(=O)[O-]
REMARK SMILES IDX 3 1 4 2 5 3 6 4 2 5 1 6
REMARK H PARENT
REMARK Flexibility Score: inf
ROOT
ATOM      1  C   UNL     1       5.552  -9.202 -11.747  1.00  0.00     0.052 C 
ENDROOT
BRANCH   1   2
ATOM      2  C   UNL     1       6.095  -9.002 -10.365  1.00  0.00     0.041 C 
ATOM      3  O   UNL     1       5.702  -8.032  -9.665  1.00  0.00    -0.550 OA
ATOM      4  O   UNL     1       7.059  -9.868  -9.864  1.00  0.00    -0.550 OA
ENDBRANCH   1   2
BRANCH   1   5
ATOM      5  C   UNL     1       5.249  -7.867 -12.438  1.00  0.00     0.003 C 
ATOM      6  C   UNL     1       5.545  -7.907 -13.937  1.00  0.00     0.004 C 
ENDBRANCH   1   5
TORSDOF 2
ENDMDL
MODEL 4
REMARK VINA RESULT:    -2.832      2.417      3.070
REMARK INTER + INTRA:          -3.226
REMARK INTER:                  -3.190
REMARK INTRA:                  -0.036
REMARK UNBOUND:                -0.063
REMARK SMILES CCCC(=O)[O-]
REMARK SMILES IDX 3 1 4 2 5 3 6 4 2 5 1 6
REMARK H PARENT
REMARK Flexibility Score: inf
ROOT
ATOM      1  C   UNL     1       5.120  -9.462 -11.536  1.00  0.00     0.052 C 
ENDROOT
BRANCH   1   2
ATOM      2  C   UNL     1       5.358  -8.163 -12.242  1.00  0.00     0.041 C 
ATOM      3  O   UNL     1       5.238  -7.073 -11.623  1.00  0.00    -0.550 OA
ATOM      4  O   UNL     1       5.681  -8.154 -13.593  1.00  0.00    -0.550 OA
ENDBRANCH   1   2
BRANCH   1   5
ATOM      5  C   UNL     1       6.427 -10.076 -11.020  1.00  0.00     0.003 C 
ATOM      6  C   UNL     1       6.830  -9.524  -9.652  1.00  0.00     0.004 C 
ENDBRANCH   1   5
TORSDOF 2
ENDMDL
MODEL 5
REMARK VINA RESULT:    -2.738     14.193     15.123
REMARK INTER + INTRA:          -3.122
REMARK INTER:                  -3.112
REMARK INTRA:                  -0.010
REMARK UNBOUND:                -0.063
REMARK SMILES CCCC(=O)[O-]
REMARK SMILES IDX 3 1 4 2 5 3 6 4 2 5 1 6
REMARK H PARENT
REMARK Flexibility Score: inf
ROOT
ATOM      1  C   UNL     1      18.221 -16.070 -15.384  1.00  0.00     0.052 C 
ENDROOT
BRANCH   1   2
ATOM      2  C   UNL     1      17.165 -15.074 -15.753  1.00  0.00     0.041 C 
ATOM      3  O   UNL     1      16.937 -14.086 -15.007  1.00  0.00    -0.550 OA
ATOM      4  O   UNL     1      16.409 -15.256 -16.905  1.00  0.00    -0.550 OA
ENDBRANCH   1   2
BRANCH   1   5
ATOM      5  C   UNL     1      19.537 -15.805 -16.127  1.00  0.00     0.003 C 
ATOM      6  C   UNL     1      20.245 -17.096 -16.536  1.00  0.00     0.004 C 
ENDBRANCH   1   5
TORSDOF 2
ENDMDL
MODEL 6
REMARK VINA RESULT:    -2.724     18.494     19.177
REMARK INTER + INTRA:          -3.106
REMARK INTER:                  -3.097
REMARK INTRA:                  -0.009
REMARK UNBOUND:                -0.063
REMARK SMILES CCCC(=O)[O-]
REMARK SMILES IDX 3 1 4 2 5 3 6 4 2 5 1 6
REMARK H PARENT
REMARK Flexibility Score: inf
ROOT
ATOM      1  C   UNL     1      23.258 -13.563  -7.378  1.00  0.00     0.052 C 
ENDROOT
BRANCH   1   2
ATOM      2  C   UNL     1      23.621 -14.437  -8.539  1.00  0.00     0.041 C 
ATOM      3  O   UNL     1      22.904 -15.429  -8.834  1.00  0.00    -0.550 OA
ATOM      4  O   UNL     1      24.771 -14.176  -9.274  1.00  0.00    -0.550 OA
ENDBRANCH   1   2
BRANCH   1   5
ATOM      5  C   UNL     1      24.386 -13.496  -6.342  1.00  0.00     0.003 C 
ATOM      6  C   UNL     1      24.317 -12.231  -5.487  1.00  0.00     0.004 C 
ENDBRANCH   1   5
TORSDOF 2
ENDMDL
MODEL 7
REMARK VINA RESULT:    -2.722      2.368      3.049
REMARK INTER + INTRA:          -3.104
REMARK INTER:                  -3.060
REMARK INTRA:                  -0.043
REMARK UNBOUND:                -0.063
REMARK SMILES CCCC(=O)[O-]
REMARK SMILES IDX 3 1 4 2 5 3 6 4 2 5 1 6
REMARK H PARENT
REMARK Flexibility Score: inf
ROOT
ATOM      1  C   UNL     1       6.376  -9.098  -9.872  1.00  0.00     0.052 C 
ENDROOT
BRANCH   1   2
ATOM      2  C   UNL     1       5.622  -7.875  -9.450  1.00  0.00     0.041 C 
ATOM      3  O   UNL     1       5.299  -7.714  -8.243  1.00  0.00    -0.550 OA
ATOM      4  O   UNL     1       5.248  -6.927 -10.394  1.00  0.00    -0.550 OA
ENDBRANCH   1   2
BRANCH   1   5
ATOM      5  C   UNL     1       6.035  -9.507 -11.310  1.00  0.00     0.003 C 
ATOM      6  C   UNL     1       4.875 -10.500 -11.373  1.00  0.00     0.004 C 
ENDBRANCH   1   5
TORSDOF 2
ENDMDL
MODEL 8
REMARK VINA RESULT:    -2.713     14.840     15.658
REMARK INTER + INTRA:          -3.094
REMARK INTER:                  -3.075
REMARK INTRA:                  -0.019
REMARK UNBOUND:                -0.063
REMARK SMILES CCCC(=O)[O-]
REMARK SMILES IDX 3 1 4 2 5 3 6 4 2 5 1 6
REMARK H PARENT
REMARK Flexibility Score: inf
ROOT
ATOM      1  C   UNL     1      18.354 -16.045 -15.480  1.00  0.00     0.052 C 
ENDROOT
BRANCH   1   2
ATOM      2  C   UNL     1      19.710 -16.142 -16.109  1.00  0.00     0.041 C 
ATOM      3  O   UNL     1      20.455 -15.129 -16.167  1.00  0.00    -0.550 OA
ATOM      4  O   UNL     1      20.138 -17.344 -16.659  1.00  0.00    -0.550 OA
ENDBRANCH   1   2
BRANCH   1   5
ATOM      5  C   UNL     1      17.637 -14.747 -15.872  1.00  0.00     0.003 C 
ATOM      6  C   UNL     1      16.404 -15.001 -16.739  1.00  0.00     0.004 C 
ENDBRANCH   1   5
TORSDOF 2
ENDMDL
MODEL 9
REMARK VINA RESULT:    -2.569     18.879     19.897
REMARK INTER + INTRA:          -2.933
REMARK INTER:                  -2.918
REMARK INTRA:                  -0.015
REMARK UNBOUND:                -0.063
REMARK SMILES CCCC(=O)[O-]
REMARK SMILES IDX 3 1 4 2 5 3 6 4 2 5 1 6
REMARK H PARENT
REMARK Flexibility Score: inf
ROOT
ATOM      1  C   UNL     1      24.824 -15.385  -7.274  1.00  0.00     0.052 C 
ENDROOT
BRANCH   1   2
ATOM      2  C   UNL     1      23.626 -14.724  -7.883  1.00  0.00     0.041 C 
ATOM      3  O   UNL     1      23.290 -13.565  -7.524  1.00  0.00    -0.550 OA
ATOM      4  O   UNL     1      22.861 -15.401  -8.826  1.00  0.00    -0.550 OA
ENDBRANCH   1   2
BRANCH   1   5
ATOM      5  C   UNL     1      24.701 -15.487  -5.748  1.00  0.00     0.003 C 
ATOM      6  C   UNL     1      24.636 -16.936  -5.266  1.00  0.00     0.004 C 
ENDBRANCH   1   5
TORSDOF 2
ENDMDL
