MODEL 1
REMARK VINA RESULT:    -4.547      0.000      0.000
REMARK INTER + INTRA:          -4.909
REMARK INTER:                  -4.813
REMARK INTRA:                  -0.096
REMARK UNBOUND:                -0.096
REMARK SMILES C=C(C)[C@H]1CC=C(C)C(=O)C1
REMARK SMILES IDX 8 1 7 2 6 3 5 4 4 5 11 6 9 7 10 8 2 9 1 10 3 11
REMARK H PARENT
REMARK Flexibility Score: inf
ROOT
ATOM      1  C   UNL     1      17.776  61.476  23.121  1.00  0.00     0.048 C 
ATOM      2  C   UNL     1      16.488  61.297  22.366  1.00  0.00    -0.012 C 
ATOM      3  C   UNL     1      15.328  61.696  22.917  1.00  0.00    -0.019 C 
ATOM      4  C   UNL     1      14.009  61.524  22.213  1.00  0.00     0.036 C 
ATOM      5  C   UNL     1      14.175  61.642  20.686  1.00  0.00     0.025 C 
ATOM      6  C   UNL     1      15.237  60.647  20.186  1.00  0.00     0.089 C 
ATOM      7  C   UNL     1      16.512  60.795  20.970  1.00  0.00     0.158 C 
ATOM      8  O   UNL     1      17.603  60.453  20.438  1.00  0.00    -0.295 OA
ENDROOT
BRANCH   5   9
ATOM      9  C   UNL     1      12.847  61.451  19.965  1.00  0.00    -0.077 C 
ATOM     10  C   UNL     1      12.172  60.298  20.096  1.00  0.00     0.008 C 
ATOM     11  C   UNL     1      12.259  62.536  19.098  1.00  0.00     0.039 C 
ENDBRANCH   5   9
TORSDOF 1
ENDMDL
MODEL 2
REMARK VINA RESULT:    -4.495     15.407     16.851
REMARK INTER + INTRA:          -4.854
REMARK INTER:                  -4.758
REMARK INTRA:                  -0.097
REMARK UNBOUND:                -0.096
REMARK SMILES C=C(C)[C@H]1CC=C(C)C(=O)C1
REMARK SMILES IDX 8 1 7 2 6 3 5 4 4 5 11 6 9 7 10 8 2 9 1 10 3 11
REMARK H PARENT
REMARK Flexibility Score: inf
ROOT
ATOM      1  C   UNL     1      19.301  52.182  32.345  1.00  0.00     0.048 C 
ATOM      2  C   UNL     1      18.225  52.381  33.377  1.00  0.00    -0.012 C 
ATOM      3  C   UNL     1      16.952  52.061  33.086  1.00  0.00    -0.019 C 
ATOM      4  C   UNL     1      15.835  52.256  34.076  1.00  0.00     0.036 C 
ATOM      5  C   UNL     1      16.331  52.055  35.521  1.00  0.00     0.025 C 
ATOM      6  C   UNL     1      17.530  52.977  35.806  1.00  0.00     0.089 C 
ATOM      7  C   UNL     1      18.588  52.811  34.750  1.00  0.00     0.158 C 
ATOM      8  O   UNL     1      19.787  53.078  35.035  1.00  0.00    -0.295 OA
ENDROOT
BRANCH   5   9
ATOM      9  C   UNL     1      15.210  52.269  36.529  1.00  0.00    -0.077 C 
ATOM     10  C   UNL     1      14.516  53.418  36.528  1.00  0.00     0.008 C 
ATOM     11  C   UNL     1      14.850  51.211  37.541  1.00  0.00     0.039 C 
ENDBRANCH   5   9
TORSDOF 1
ENDMDL
MODEL 3
REMARK VINA RESULT:    -4.267     15.579     16.411
REMARK INTER + INTRA:          -4.613
REMARK INTER:                  -4.516
REMARK INTRA:                  -0.097
REMARK UNBOUND:                -0.096
REMARK SMILES C=C(C)[C@H]1CC=C(C)C(=O)C1
REMARK SMILES IDX 8 1 7 2 6 3 5 4 4 5 11 6 9 7 10 8 2 9 1 10 3 11
REMARK H PARENT
REMARK Flexibility Score: inf
ROOT
ATOM      1  C   UNL     1      20.439  52.848  33.078  1.00  0.00     0.048 C 
ATOM      2  C   UNL     1      19.187  52.733  33.902  1.00  0.00    -0.012 C 
ATOM      3  C   UNL     1      19.159  53.237  35.149  1.00  0.00    -0.019 C 
ATOM      4  C   UNL     1      17.938  53.134  36.024  1.00  0.00     0.036 C 
ATOM      5  C   UNL     1      16.647  53.180  35.184  1.00  0.00     0.025 C 
ATOM      6  C   UNL     1      16.679  52.091  34.096  1.00  0.00     0.089 C 
ATOM      7  C   UNL     1      17.950  52.177  33.298  1.00  0.00     0.158 C 
ATOM      8  O   UNL     1      17.965  51.737  32.117  1.00  0.00    -0.295 OA
ENDROOT
BRANCH   5   9
ATOM      9  C   UNL     1      15.408  53.057  36.060  1.00  0.00    -0.077 C 
ATOM     10  C   UNL     1      15.311  52.058  36.952  1.00  0.00     0.008 C 
ATOM     11  C   UNL     1      14.270  54.042  35.956  1.00  0.00     0.039 C 
ENDBRANCH   5   9
TORSDOF 1
ENDMDL
MODEL 4
REMARK VINA RESULT:    -4.247     15.302     15.868
REMARK INTER + INTRA:          -4.591
REMARK INTER:                  -4.493
REMARK INTRA:                  -0.098
REMARK UNBOUND:                -0.096
REMARK SMILES C=C(C)[C@H]1CC=C(C)C(=O)C1
REMARK SMILES IDX 8 1 7 2 6 3 5 4 4 5 11 6 9 7 10 8 2 9 1 10 3 11
REMARK H PARENT
REMARK Flexibility Score: inf
ROOT
ATOM      1  C   UNL     1      14.172  61.010  37.784  1.00  0.00     0.048 C 
ATOM      2  C   UNL     1      13.759  62.368  37.285  1.00  0.00    -0.012 C 
ATOM      3  C   UNL     1      14.679  63.338  37.146  1.00  0.00    -0.019 C 
ATOM      4  C   UNL     1      14.317  64.719  36.668  1.00  0.00     0.036 C 
ATOM      5  C   UNL     1      13.144  64.671  35.670  1.00  0.00     0.025 C 
ATOM      6  C   UNL     1      11.943  63.936  36.292  1.00  0.00     0.089 C 
ATOM      7  C   UNL     1      12.364  62.597  36.831  1.00  0.00     0.158 C 
ATOM      8  O   UNL     1      11.507  61.677  36.927  1.00  0.00    -0.295 OA
ENDROOT
BRANCH   5   9
ATOM      9  C   UNL     1      12.759  66.066  35.196  1.00  0.00    -0.077 C 
ATOM     10  C   UNL     1      11.466  66.396  35.057  1.00  0.00     0.008 C 
ATOM     11  C   UNL     1      13.806  67.105  34.877  1.00  0.00     0.039 C 
ENDBRANCH   5   9
TORSDOF 1
ENDMDL
MODEL 5
REMARK VINA RESULT:    -4.214      1.776      4.810
REMARK INTER + INTRA:          -4.557
REMARK INTER:                  -4.463
REMARK INTRA:                  -0.094
REMARK UNBOUND:                -0.096
REMARK SMILES C=C(C)[C@H]1CC=C(C)C(=O)C1
REMARK SMILES IDX 8 1 7 2 6 3 5 4 4 5 11 6 9 7 10 8 2 9 1 10 3 11
REMARK H PARENT
REMARK Flexibility Score: inf
ROOT
ATOM      1  C   UNL     1      12.734  61.168  19.469  1.00  0.00     0.048 C 
ATOM      2  C   UNL     1      13.968  61.131  20.328  1.00  0.00    -0.012 C 
ATOM      3  C   UNL     1      15.146  60.769  19.792  1.00  0.00    -0.019 C 
ATOM      4  C   UNL     1      16.407  60.697  20.610  1.00  0.00     0.036 C 
ATOM      5  C   UNL     1      16.404  61.756  21.729  1.00  0.00     0.025 C 
ATOM      6  C   UNL     1      15.138  61.616  22.594  1.00  0.00     0.089 C 
ATOM      7  C   UNL     1      13.906  61.610  21.732  1.00  0.00     0.158 C 
ATOM      8  O   UNL     1      12.809  61.983  22.227  1.00  0.00    -0.295 OA
ENDROOT
BRANCH   5   9
ATOM      9  C   UNL     1      17.669  61.678  22.574  1.00  0.00    -0.077 C 
ATOM     10  C   UNL     1      17.933  62.633  23.479  1.00  0.00     0.008 C 
ATOM     11  C   UNL     1      18.645  60.538  22.423  1.00  0.00     0.039 C 
ENDBRANCH   5   9
TORSDOF 1
ENDMDL
MODEL 6
REMARK VINA RESULT:    -4.210     15.532     16.561
REMARK INTER + INTRA:          -4.553
REMARK INTER:                  -4.455
REMARK INTRA:                  -0.098
REMARK UNBOUND:                -0.096
REMARK SMILES C=C(C)[C@H]1CC=C(C)C(=O)C1
REMARK SMILES IDX 8 1 7 2 6 3 5 4 4 5 11 6 9 7 10 8 2 9 1 10 3 11
REMARK H PARENT
REMARK Flexibility Score: inf
ROOT
ATOM      1  C   UNL     1      15.218  52.682  36.876  1.00  0.00     0.048 C 
ATOM      2  C   UNL     1      16.235  52.672  35.768  1.00  0.00    -0.012 C 
ATOM      3  C   UNL     1      17.500  53.051  36.018  1.00  0.00    -0.019 C 
ATOM      4  C   UNL     1      18.553  53.076  34.942  1.00  0.00     0.036 C 
ATOM      5  C   UNL     1      18.311  51.965  33.902  1.00  0.00     0.025 C 
ATOM      6  C   UNL     1      16.887  52.072  33.327  1.00  0.00     0.089 C 
ATOM      7  C   UNL     1      15.872  52.127  34.435  1.00  0.00     0.158 C 
ATOM      8  O   UNL     1      14.694  51.738  34.209  1.00  0.00    -0.295 OA
ENDROOT
BRANCH   5   9
ATOM      9  C   UNL     1      19.361  51.996  32.800  1.00  0.00    -0.077 C 
ATOM     10  C   UNL     1      20.432  52.797  32.913  1.00  0.00     0.008 C 
ATOM     11  C   UNL     1      19.232  51.137  31.567  1.00  0.00     0.039 C 
ENDBRANCH   5   9
TORSDOF 1
ENDMDL
MODEL 7
REMARK VINA RESULT:    -4.162     15.071     16.195
REMARK INTER + INTRA:          -4.502
REMARK INTER:                  -4.411
REMARK INTRA:                  -0.091
REMARK UNBOUND:                -0.096
REMARK SMILES C=C(C)[C@H]1CC=C(C)C(=O)C1
REMARK SMILES IDX 8 1 7 2 6 3 5 4 4 5 11 6 9 7 10 8 2 9 1 10 3 11
REMARK H PARENT
REMARK Flexibility Score: inf
ROOT
ATOM      1  C   UNL     1       9.983  66.261  35.257  1.00  0.00     0.048 C 
ATOM      2  C   UNL     1      11.150  65.351  35.522  1.00  0.00    -0.012 C 
ATOM      3  C   UNL     1      12.387  65.723  35.149  1.00  0.00    -0.019 C 
ATOM      4  C   UNL     1      13.587  64.843  35.374  1.00  0.00     0.036 C 
ATOM      5  C   UNL     1      13.428  64.003  36.656  1.00  0.00     0.025 C 
ATOM      6  C   UNL     1      12.116  63.200  36.609  1.00  0.00     0.089 C 
ATOM      7  C   UNL     1      10.953  64.103  36.301  1.00  0.00     0.158 C 
ATOM      8  O   UNL     1       9.799  63.769  36.682  1.00  0.00    -0.295 OA
ENDROOT
BRANCH   5   9
ATOM      9  C   UNL     1      14.630  63.095  36.880  1.00  0.00    -0.077 C 
ATOM     10  C   UNL     1      14.964  62.717  38.124  1.00  0.00     0.008 C 
ATOM     11  C   UNL     1      15.466  62.599  35.727  1.00  0.00     0.039 C 
ENDBRANCH   5   9
TORSDOF 1
ENDMDL
MODEL 8
REMARK VINA RESULT:    -4.107     14.775     15.795
REMARK INTER + INTRA:          -4.444
REMARK INTER:                  -4.354
REMARK INTRA:                  -0.090
REMARK UNBOUND:                -0.096
REMARK SMILES C=C(C)[C@H]1CC=C(C)C(=O)C1
REMARK SMILES IDX 8 1 7 2 6 3 5 4 4 5 11 6 9 7 10 8 2 9 1 10 3 11
REMARK H PARENT
REMARK Flexibility Score: inf
ROOT
ATOM      1  C   UNL     1      10.176  66.161  34.957  1.00  0.00     0.048 C 
ATOM      2  C   UNL     1      11.361  65.400  35.483  1.00  0.00    -0.012 C 
ATOM      3  C   UNL     1      11.179  64.210  36.082  1.00  0.00    -0.019 C 
ATOM      4  C   UNL     1      12.327  63.415  36.643  1.00  0.00     0.036 C 
ATOM      5  C   UNL     1      13.609  63.632  35.817  1.00  0.00     0.025 C 
ATOM      6  C   UNL     1      13.933  65.134  35.719  1.00  0.00     0.089 C 
ATOM      7  C   UNL     1      12.735  65.903  35.233  1.00  0.00     0.158 C 
ATOM      8  O   UNL     1      12.909  67.002  34.640  1.00  0.00    -0.295 OA
ENDROOT
BRANCH   5   9
ATOM      9  C   UNL     1      14.781  62.846  36.390  1.00  0.00    -0.077 C 
ATOM     10  C   UNL     1      15.692  62.302  35.567  1.00  0.00     0.008 C 
ATOM     11  C   UNL     1      14.952  62.661  37.877  1.00  0.00     0.039 C 
ENDBRANCH   5   9
TORSDOF 1
ENDMDL
MODEL 9
REMARK VINA RESULT:    -4.073      1.397      2.055
REMARK INTER + INTRA:          -4.408
REMARK INTER:                  -4.320
REMARK INTRA:                  -0.088
REMARK UNBOUND:                -0.096
REMARK SMILES C=C(C)[C@H]1CC=C(C)C(=O)C1
REMARK SMILES IDX 8 1 7 2 6 3 5 4 4 5 11 6 9 7 10 8 2 9 1 10 3 11
REMARK H PARENT
REMARK Flexibility Score: inf
ROOT
ATOM      1  C   UNL     1      18.514  60.677  22.338  1.00  0.00     0.048 C 
ATOM      2  C   UNL     1      17.147  60.886  21.748  1.00  0.00    -0.012 C 
ATOM      3  C   UNL     1      16.896  60.496  20.486  1.00  0.00    -0.019 C 
ATOM      4  C   UNL     1      15.551  60.698  19.841  1.00  0.00     0.036 C 
ATOM      5  C   UNL     1      14.417  60.597  20.879  1.00  0.00     0.025 C 
ATOM      6  C   UNL     1      14.663  61.584  22.035  1.00  0.00     0.089 C 
ATOM      7  C   UNL     1      16.046  61.406  22.597  1.00  0.00     0.158 C 
ATOM      8  O   UNL     1      16.270  61.738  23.793  1.00  0.00    -0.295 OA
ENDROOT
BRANCH   5   9
ATOM      9  C   UNL     1      13.054  60.819  20.237  1.00  0.00    -0.077 C 
ATOM     10  C   UNL     1      12.042  59.977  20.500  1.00  0.00     0.008 C 
ATOM     11  C   UNL     1      12.803  61.977  19.304  1.00  0.00     0.039 C 
ENDBRANCH   5   9
TORSDOF 1
ENDMDL
