MODEL 1
REMARK VINA RESULT:    -4.976      0.000      0.000
REMARK INTER + INTRA:          -5.747
REMARK INTER:                  -5.558
REMARK INTRA:                  -0.189
REMARK UNBOUND:                -0.189
REMARK SMILES CC(C)c1ccc(C=O)cc1
REMARK SMILES IDX 4 1 5 2 6 3 7 4 10 5 11 6 2 7 1 8 3 9 8 10 9 11
REMARK H PARENT
REMARK Flexibility Score: inf
ROOT
ATOM      1  C   UNL     1     -11.354  -4.915  -7.953  1.00  0.00    -0.045 A 
ATOM      2  C   UNL     1     -12.237  -4.060  -7.272  1.00  0.00     0.005 A 
ATOM      3  C   UNL     1     -12.780  -4.435  -6.039  1.00  0.00     0.012 A 
ATOM      4  C   UNL     1     -12.450  -5.672  -5.465  1.00  0.00     0.014 A 
ATOM      5  C   UNL     1     -11.571  -6.529  -6.142  1.00  0.00     0.012 A 
ATOM      6  C   UNL     1     -11.026  -6.155  -7.373  1.00  0.00     0.005 A 
ENDROOT
BRANCH   1   7
ATOM      7  C   UNL     1     -10.772  -4.497  -9.290  1.00  0.00     0.013 C 
ATOM      8  C   UNL     1     -11.194  -5.463 -10.403  1.00  0.00     0.012 C 
ATOM      9  C   UNL     1     -11.159  -3.055  -9.636  1.00  0.00     0.012 C 
ENDBRANCH   1   7
BRANCH   4  10
ATOM     10  C   UNL     1     -13.014  -6.085  -4.166  1.00  0.00     0.260 C 
ATOM     11  O   UNL     1     -13.386  -5.230  -3.318  1.00  0.00    -0.298 OA
ENDBRANCH   4  10
TORSDOF 2
ENDMDL
MODEL 2
REMARK VINA RESULT:    -4.698      2.300      4.758
REMARK INTER + INTRA:          -5.437
REMARK INTER:                  -5.251
REMARK INTRA:                  -0.186
REMARK UNBOUND:                -0.189
REMARK SMILES CC(C)c1ccc(C=O)cc1
REMARK SMILES IDX 4 1 5 2 6 3 7 4 10 5 11 6 2 7 1 8 3 9 8 10 9 11
REMARK H PARENT
REMARK Flexibility Score: inf
ROOT
ATOM      1  C   UNL     1     -12.290  -5.973  -5.651  1.00  0.00    -0.045 A 
ATOM      2  C   UNL     1     -12.674  -4.703  -6.114  1.00  0.00     0.005 A 
ATOM      3  C   UNL     1     -12.107  -4.168  -7.275  1.00  0.00     0.012 A 
ATOM      4  C   UNL     1     -11.145  -4.895  -7.994  1.00  0.00     0.014 A 
ATOM      5  C   UNL     1     -10.759  -6.161  -7.535  1.00  0.00     0.012 A 
ATOM      6  C   UNL     1     -11.324  -6.697  -6.376  1.00  0.00     0.005 A 
ENDROOT
BRANCH   1   7
ATOM      7  C   UNL     1     -12.912  -6.542  -4.389  1.00  0.00     0.013 C 
ATOM      8  C   UNL     1     -13.488  -5.428  -3.507  1.00  0.00     0.012 C 
ATOM      9  C   UNL     1     -13.979  -7.590  -4.722  1.00  0.00     0.012 C 
ENDBRANCH   1   7
BRANCH   4  10
ATOM     10  C   UNL     1     -10.537  -4.347  -9.221  1.00  0.00     0.260 C 
ATOM     11  O   UNL     1     -11.184  -3.577  -9.980  1.00  0.00    -0.298 OA
ENDBRANCH   4  10
TORSDOF 2
ENDMDL
MODEL 3
REMARK VINA RESULT:    -4.439      2.109      2.876
REMARK INTER + INTRA:          -5.148
REMARK INTER:                  -4.957
REMARK INTRA:                  -0.191
REMARK UNBOUND:                -0.189
REMARK SMILES CC(C)c1ccc(C=O)cc1
REMARK SMILES IDX 4 1 5 2 6 3 7 4 10 5 11 6 2 7 1 8 3 9 8 10 9 11
REMARK H PARENT
REMARK Flexibility Score: inf
ROOT
ATOM      1  C   UNL     1     -11.168  -4.675  -8.489  1.00  0.00    -0.045 A 
ATOM      2  C   UNL     1     -10.236  -5.722  -8.579  1.00  0.00     0.005 A 
ATOM      3  C   UNL     1      -9.736  -6.329  -7.422  1.00  0.00     0.012 A 
ATOM      4  C   UNL     1     -10.160  -5.900  -6.155  1.00  0.00     0.014 A 
ATOM      5  C   UNL     1     -11.090  -4.855  -6.062  1.00  0.00     0.012 A 
ATOM      6  C   UNL     1     -11.591  -4.247  -7.216  1.00  0.00     0.005 A 
ENDROOT
BRANCH   1   7
ATOM      7  C   UNL     1     -11.703  -4.024  -9.752  1.00  0.00     0.013 C 
ATOM      8  C   UNL     1     -11.389  -2.523  -9.774  1.00  0.00     0.012 C 
ATOM      9  C   UNL     1     -11.161  -4.720 -11.005  1.00  0.00     0.012 C 
ENDBRANCH   1   7
BRANCH   4  10
ATOM     10  C   UNL     1      -9.644  -6.528  -4.924  1.00  0.00     0.260 C 
ATOM     11  O   UNL     1      -9.039  -7.633  -4.963  1.00  0.00    -0.298 OA
ENDBRANCH   4  10
TORSDOF 2
ENDMDL
MODEL 4
REMARK VINA RESULT:    -4.220      2.817      3.755
REMARK INTER + INTRA:          -4.902
REMARK INTER:                  -4.715
REMARK INTRA:                  -0.187
REMARK UNBOUND:                -0.189
REMARK SMILES CC(C)c1ccc(C=O)cc1
REMARK SMILES IDX 4 1 5 2 6 3 7 4 10 5 11 6 2 7 1 8 3 9 8 10 9 11
REMARK H PARENT
REMARK Flexibility Score: inf
ROOT
ATOM      1  C   UNL     1     -11.005  -5.807  -6.824  1.00  0.00    -0.045 A 
ATOM      2  C   UNL     1      -9.600  -5.813  -6.807  1.00  0.00     0.005 A 
ATOM      3  C   UNL     1      -8.902  -6.839  -6.162  1.00  0.00     0.012 A 
ATOM      4  C   UNL     1      -9.597  -7.877  -5.523  1.00  0.00     0.014 A 
ATOM      5  C   UNL     1     -10.999  -7.874  -5.537  1.00  0.00     0.012 A 
ATOM      6  C   UNL     1     -11.698  -6.850  -6.181  1.00  0.00     0.005 A 
ENDROOT
BRANCH   1   7
ATOM      7  C   UNL     1     -11.751  -4.687  -7.527  1.00  0.00     0.013 C 
ATOM      8  C   UNL     1     -12.392  -3.731  -6.515  1.00  0.00     0.012 C 
ATOM      9  C   UNL     1     -10.833  -3.933  -8.495  1.00  0.00     0.012 C 
ENDBRANCH   1   7
BRANCH   4  10
ATOM     10  C   UNL     1      -8.877  -8.967  -4.837  1.00  0.00     0.260 C 
ATOM     11  O   UNL     1      -7.721  -9.311  -5.200  1.00  0.00    -0.298 OA
ENDBRANCH   4  10
TORSDOF 2
ENDMDL
MODEL 5
REMARK VINA RESULT:    -4.167      2.632      4.493
REMARK INTER + INTRA:          -4.843
REMARK INTER:                  -4.665
REMARK INTRA:                  -0.178
REMARK UNBOUND:                -0.189
REMARK SMILES CC(C)c1ccc(C=O)cc1
REMARK SMILES IDX 4 1 5 2 6 3 7 4 10 5 11 6 2 7 1 8 3 9 8 10 9 11
REMARK H PARENT
REMARK Flexibility Score: inf
ROOT
ATOM      1  C   UNL     1     -11.011  -6.203  -6.600  1.00  0.00    -0.045 A 
ATOM      2  C   UNL     1     -11.853  -5.115  -6.315  1.00  0.00     0.005 A 
ATOM      3  C   UNL     1     -12.092  -4.131  -7.279  1.00  0.00     0.012 A 
ATOM      4  C   UNL     1     -11.493  -4.217  -8.545  1.00  0.00     0.014 A 
ATOM      5  C   UNL     1     -10.651  -5.300  -8.833  1.00  0.00     0.012 A 
ATOM      6  C   UNL     1     -10.412  -6.285  -7.871  1.00  0.00     0.005 A 
ENDROOT
BRANCH   1   7
ATOM      7  C   UNL     1     -10.758  -7.265  -5.545  1.00  0.00     0.013 C 
ATOM      8  C   UNL     1     -11.444  -8.585  -5.915  1.00  0.00     0.012 C 
ATOM      9  C   UNL     1      -9.257  -7.469  -5.313  1.00  0.00     0.012 C 
ENDBRANCH   1   7
BRANCH   4  10
ATOM     10  C   UNL     1     -11.734  -3.188  -9.574  1.00  0.00     0.260 C 
ATOM     11  O   UNL     1     -10.807  -2.429  -9.964  1.00  0.00    -0.298 OA
ENDBRANCH   4  10
TORSDOF 2
ENDMDL
MODEL 6
REMARK VINA RESULT:    -4.121      3.602      4.817
REMARK INTER + INTRA:          -4.792
REMARK INTER:                  -4.607
REMARK INTRA:                  -0.185
REMARK UNBOUND:                -0.189
REMARK SMILES CC(C)c1ccc(C=O)cc1
REMARK SMILES IDX 4 1 5 2 6 3 7 4 10 5 11 6 2 7 1 8 3 9 8 10 9 11
REMARK H PARENT
REMARK Flexibility Score: inf
ROOT
ATOM      1  C   UNL     1     -10.561  -6.986  -5.636  1.00  0.00    -0.045 A 
ATOM      2  C   UNL     1     -11.507  -7.969  -5.972  1.00  0.00     0.005 A 
ATOM      3  C   UNL     1     -11.196  -9.327  -5.846  1.00  0.00     0.012 A 
ATOM      4  C   UNL     1      -9.934  -9.726  -5.381  1.00  0.00     0.014 A 
ATOM      5  C   UNL     1      -8.987  -8.748  -5.045  1.00  0.00     0.012 A 
ATOM      6  C   UNL     1      -9.296  -7.391  -5.170  1.00  0.00     0.005 A 
ENDROOT
BRANCH   1   7
ATOM      7  C   UNL     1     -10.910  -5.516  -5.778  1.00  0.00     0.013 C 
ATOM      8  C   UNL     1     -10.620  -5.014  -7.197  1.00  0.00     0.012 C 
ATOM      9  C   UNL     1     -12.368  -5.253  -5.386  1.00  0.00     0.012 C 
ENDBRANCH   1   7
BRANCH   4  10
ATOM     10  C   UNL     1      -9.589 -11.153  -5.241  1.00  0.00     0.260 C 
ATOM     11  O   UNL     1      -8.397 -11.547  -5.351  1.00  0.00    -0.298 OA
ENDBRANCH   4  10
TORSDOF 2
ENDMDL
MODEL 7
REMARK VINA RESULT:    -4.004      3.632      5.440
REMARK INTER + INTRA:          -4.661
REMARK INTER:                  -4.468
REMARK INTRA:                  -0.193
REMARK UNBOUND:                -0.189
REMARK SMILES CC(C)c1ccc(C=O)cc1
REMARK SMILES IDX 4 1 5 2 6 3 7 4 10 5 11 6 2 7 1 8 3 9 8 10 9 11
REMARK H PARENT
REMARK Flexibility Score: inf
ROOT
ATOM      1  C   UNL     1      -9.374  -9.350  -5.284  1.00  0.00    -0.045 A 
ATOM      2  C   UNL     1     -10.702  -9.492  -5.723  1.00  0.00     0.005 A 
ATOM      3  C   UNL     1     -11.512  -8.368  -5.909  1.00  0.00     0.012 A 
ATOM      4  C   UNL     1     -11.009  -7.081  -5.661  1.00  0.00     0.014 A 
ATOM      5  C   UNL     1      -9.686  -6.936  -5.223  1.00  0.00     0.012 A 
ATOM      6  C   UNL     1      -8.874  -8.058  -5.036  1.00  0.00     0.005 A 
ENDROOT
BRANCH   1   7
ATOM      7  C   UNL     1      -8.505 -10.578  -5.085  1.00  0.00     0.013 C 
ATOM      8  C   UNL     1      -8.986 -11.743  -5.957  1.00  0.00     0.012 C 
ATOM      9  C   UNL     1      -7.029 -10.261  -5.353  1.00  0.00     0.012 C 
ENDBRANCH   1   7
BRANCH   4  10
ATOM     10  C   UNL     1     -11.850  -5.884  -5.853  1.00  0.00     0.260 C 
ATOM     11  O   UNL     1     -11.788  -4.912  -5.054  1.00  0.00    -0.298 OA
ENDBRANCH   4  10
TORSDOF 2
ENDMDL
MODEL 8
REMARK VINA RESULT:    -3.954      6.733      8.012
REMARK INTER + INTRA:          -4.605
REMARK INTER:                  -4.416
REMARK INTRA:                  -0.189
REMARK UNBOUND:                -0.189
REMARK SMILES CC(C)c1ccc(C=O)cc1
REMARK SMILES IDX 4 1 5 2 6 3 7 4 10 5 11 6 2 7 1 8 3 9 8 10 9 11
REMARK H PARENT
REMARK Flexibility Score: inf
ROOT
ATOM      1  C   UNL     1      -6.338 -11.151  -6.486  1.00  0.00    -0.045 A 
ATOM      2  C   UNL     1      -6.661 -10.078  -5.639  1.00  0.00     0.005 A 
ATOM      3  C   UNL     1      -7.963  -9.922  -5.155  1.00  0.00     0.012 A 
ATOM      4  C   UNL     1      -8.966 -10.838  -5.508  1.00  0.00     0.014 A 
ATOM      5  C   UNL     1      -8.648 -11.910  -6.354  1.00  0.00     0.012 A 
ATOM      6  C   UNL     1      -7.347 -12.067  -6.839  1.00  0.00     0.005 A 
ENDROOT
BRANCH   1   7
ATOM      7  C   UNL     1      -4.920 -11.309  -7.006  1.00  0.00     0.013 C 
ATOM      8  C   UNL     1      -3.894 -11.065  -5.894  1.00  0.00     0.012 C 
ATOM      9  C   UNL     1      -4.718 -12.683  -7.653  1.00  0.00     0.012 C 
ENDBRANCH   1   7
BRANCH   4  10
ATOM     10  C   UNL     1     -10.345 -10.690  -5.006  1.00  0.00     0.260 C 
ATOM     11  O   UNL     1     -11.188  -9.982  -5.620  1.00  0.00    -0.298 OA
ENDBRANCH   4  10
TORSDOF 2
ENDMDL
MODEL 9
REMARK VINA RESULT:    -3.942      2.960      4.883
REMARK INTER + INTRA:          -4.593
REMARK INTER:                  -4.402
REMARK INTRA:                  -0.190
REMARK UNBOUND:                -0.189
REMARK SMILES CC(C)c1ccc(C=O)cc1
REMARK SMILES IDX 4 1 5 2 6 3 7 4 10 5 11 6 2 7 1 8 3 9 8 10 9 11
REMARK H PARENT
REMARK Flexibility Score: inf
ROOT
ATOM      1  C   UNL     1     -10.096  -7.670  -5.613  1.00  0.00    -0.045 A 
ATOM      2  C   UNL     1      -9.180  -6.863  -6.308  1.00  0.00     0.005 A 
ATOM      3  C   UNL     1      -9.598  -5.677  -6.920  1.00  0.00     0.012 A 
ATOM      4  C   UNL     1     -10.941  -5.276  -6.847  1.00  0.00     0.014 A 
ATOM      5  C   UNL     1     -11.859  -6.079  -6.155  1.00  0.00     0.012 A 
ATOM      6  C   UNL     1     -11.443  -7.264  -5.542  1.00  0.00     0.005 A 
ENDROOT
BRANCH   1   7
ATOM      7  C   UNL     1      -9.630  -8.955  -4.953  1.00  0.00     0.013 C 
ATOM      8  C   UNL     1     -10.405 -10.163  -5.490  1.00  0.00     0.012 C 
ATOM      9  C   UNL     1      -8.119  -9.148  -5.125  1.00  0.00     0.012 C 
ENDBRANCH   1   7
BRANCH   4  10
ATOM     10  C   UNL     1     -11.401  -4.029  -7.486  1.00  0.00     0.260 C 
ATOM     11  O   UNL     1     -10.810  -3.560  -8.495  1.00  0.00    -0.298 OA
ENDBRANCH   4  10
TORSDOF 2
ENDMDL
