MODEL 1
REMARK VINA RESULT:    -4.036      0.000      0.000
REMARK INTER + INTRA:          -7.830
REMARK INTER:                  -6.159
REMARK INTRA:                  -1.671
REMARK UNBOUND:                -1.671
REMARK SMILES CC(=O)CCC=C(C)CCC=C(C)CCC=C(C)C
REMARK SMILES IDX 10 1 11 2 12 3 13 4 14 5 15 6 16 7 18 8 17 9 19 10 9 11 7 12
REMARK SMILES IDX 6 13 8 14 5 15 4 16 2 17 3 18 1 19
REMARK H PARENT
REMARK Flexibility Score: inf
ROOT
ATOM      1  C   UNL     1      11.703   7.833   3.927  1.00  0.00     0.032 C 
ENDROOT
BRANCH   1   2
ATOM      2  C   UNL     1      12.293   7.233   2.673  1.00  0.00    -0.028 C 
ATOM      3  C   UNL     1      11.602   6.970   1.540  1.00  0.00    -0.077 C 
ATOM      4  C   UNL     1      12.363   6.442   0.350  1.00  0.00     0.039 C 
BRANCH   3   5
ATOM      5  C   UNL     1      10.099   7.149   1.428  1.00  0.00     0.034 C 
BRANCH   5   6
ATOM      6  C   UNL     1       9.726   8.264   0.441  1.00  0.00     0.032 C 
BRANCH   6   7
ATOM      7  C   UNL     1      10.081   9.627   0.990  1.00  0.00    -0.028 C 
ATOM      8  C   UNL     1      11.837  10.065  -0.745  1.00  0.00     0.039 C 
ATOM      9  C   UNL     1      11.039  10.435   0.482  1.00  0.00    -0.080 C 
ATOM     10  C   UNL     1      11.351  11.743   1.159  1.00  0.00     0.039 C 
ENDBRANCH   6   7
ENDBRANCH   5   6
ENDBRANCH   3   5
ENDBRANCH   1   2
BRANCH   1  11
ATOM     11  C   UNL     1      12.616   8.914   4.524  1.00  0.00     0.034 C 
BRANCH  11  12
ATOM     12  C   UNL     1      11.820   9.995   5.234  1.00  0.00    -0.077 C 
ATOM     13  C   UNL     1      12.000  10.305   6.538  1.00  0.00    -0.028 C 
ATOM     14  C   UNL     1      10.809  10.787   4.446  1.00  0.00     0.039 C 
BRANCH  13  15
ATOM     15  C   UNL     1      12.916   9.567   7.486  1.00  0.00     0.035 C 
BRANCH  15  16
ATOM     16  C   UNL     1      13.125  10.346   8.792  1.00  0.00     0.079 C 
BRANCH  16  17
ATOM     17  C   UNL     1      12.148   9.921   9.857  1.00  0.00     0.130 C 
ATOM     18  O   UNL     1      12.363   8.911  10.510  1.00  0.00    -0.300 OA
ATOM     19  C   UNL     1      10.905  10.720  10.108  1.00  0.00     0.087 C 
ENDBRANCH  16  17
ENDBRANCH  15  16
ENDBRANCH  13  15
ENDBRANCH  11  12
ENDBRANCH   1  11
TORSDOF 9
ENDMDL
MODEL 2
REMARK VINA RESULT:    -3.812      1.396      2.506
REMARK INTER + INTRA:          -7.488
REMARK INTER:                  -6.615
REMARK INTRA:                  -0.873
REMARK UNBOUND:                -1.671
REMARK SMILES CC(=O)CCC=C(C)CCC=C(C)CCC=C(C)C
REMARK SMILES IDX 10 1 11 2 12 3 13 4 14 5 15 6 16 7 18 8 17 9 19 10 9 11 7 12
REMARK SMILES IDX 6 13 8 14 5 15 4 16 2 17 3 18 1 19
REMARK H PARENT
REMARK Flexibility Score: inf
ROOT
ATOM      1  C   UNL     1      12.330   9.083   4.977  1.00  0.00     0.032 C 
ENDROOT
BRANCH   1   2
ATOM      2  C   UNL     1      12.789   9.533   3.611  1.00  0.00    -0.028 C 
ATOM      3  C   UNL     1      12.687   8.801   2.478  1.00  0.00    -0.077 C 
ATOM      4  C   UNL     1      13.125   9.434   1.182  1.00  0.00     0.039 C 
BRANCH   3   5
ATOM      5  C   UNL     1      12.187   7.368   2.462  1.00  0.00     0.034 C 
BRANCH   5   6
ATOM      6  C   UNL     1      11.810   6.906   1.048  1.00  0.00     0.032 C 
BRANCH   6   7
ATOM      7  C   UNL     1      10.321   6.679   0.922  1.00  0.00    -0.028 C 
ATOM      8  C   UNL     1       9.888   8.912  -0.129  1.00  0.00     0.039 C 
ATOM      9  C   UNL     1       9.446   7.577   0.416  1.00  0.00    -0.080 C 
ATOM     10  C   UNL     1       7.973   7.262   0.406  1.00  0.00     0.039 C 
ENDBRANCH   6   7
ENDBRANCH   5   6
ENDBRANCH   3   5
ENDBRANCH   1   2
BRANCH   1  11
ATOM     11  C   UNL     1      12.769  10.061   6.076  1.00  0.00     0.034 C 
BRANCH  11  12
ATOM     12  C   UNL     1      11.599  10.863   6.619  1.00  0.00    -0.077 C 
ATOM     13  C   UNL     1      11.731  11.789   7.596  1.00  0.00    -0.028 C 
ATOM     14  C   UNL     1      10.233  10.648   6.021  1.00  0.00     0.039 C 
BRANCH  13  15
ATOM     15  C   UNL     1      13.009  12.076   8.350  1.00  0.00     0.035 C 
BRANCH  15  16
ATOM     16  C   UNL     1      12.834  11.861   9.860  1.00  0.00     0.079 C 
BRANCH  16  17
ATOM     17  C   UNL     1      11.869  10.742  10.155  1.00  0.00     0.130 C 
ATOM     18  O   UNL     1      12.252   9.582  10.108  1.00  0.00    -0.300 OA
ATOM     19  C   UNL     1      10.439  11.041  10.488  1.00  0.00     0.087 C 
ENDBRANCH  16  17
ENDBRANCH  15  16
ENDBRANCH  13  15
ENDBRANCH  11  12
ENDBRANCH   1  11
TORSDOF 9
ENDMDL
MODEL 3
REMARK VINA RESULT:    -3.640      1.475      3.201
REMARK INTER + INTRA:          -7.226
REMARK INTER:                  -6.474
REMARK INTRA:                  -0.752
REMARK UNBOUND:                -1.671
REMARK SMILES CC(=O)CCC=C(C)CCC=C(C)CCC=C(C)C
REMARK SMILES IDX 10 1 11 2 12 3 13 4 14 5 15 6 16 7 18 8 17 9 19 10 9 11 7 12
REMARK SMILES IDX 6 13 8 14 5 15 4 16 2 17 3 18 1 19
REMARK H PARENT
REMARK Flexibility Score: inf
ROOT
ATOM      1  C   UNL     1      12.090   8.017   2.918  1.00  0.00     0.032 C 
ENDROOT
BRANCH   1   2
ATOM      2  C   UNL     1      10.781   8.221   2.195  1.00  0.00    -0.028 C 
ATOM      3  C   UNL     1      10.659   8.515   0.879  1.00  0.00    -0.077 C 
ATOM      4  C   UNL     1       9.271   8.610   0.299  1.00  0.00     0.039 C 
BRANCH   3   5
ATOM      5  C   UNL     1      11.850   8.786  -0.021  1.00  0.00     0.034 C 
BRANCH   5   6
ATOM      6  C   UNL     1      12.443   7.492  -0.595  1.00  0.00     0.032 C 
BRANCH   6   7
ATOM      7  C   UNL     1      11.376   6.441  -0.798  1.00  0.00    -0.028 C 
ATOM      8  C   UNL     1      12.970   4.521  -0.571  1.00  0.00     0.039 C 
ATOM      9  C   UNL     1      11.601   5.108  -0.811  1.00  0.00    -0.080 C 
ATOM     10  C   UNL     1      10.466   4.160  -1.092  1.00  0.00     0.039 C 
ENDBRANCH   6   7
ENDBRANCH   5   6
ENDBRANCH   3   5
ENDBRANCH   1   2
BRANCH   1  11
ATOM     11  C   UNL     1      12.006   8.466   4.384  1.00  0.00     0.034 C 
BRANCH  11  12
ATOM     12  C   UNL     1      12.686   9.806   4.603  1.00  0.00    -0.077 C 
ATOM     13  C   UNL     1      13.001  10.280   5.830  1.00  0.00    -0.028 C 
ATOM     14  C   UNL     1      13.063  10.634   3.402  1.00  0.00     0.039 C 
BRANCH  13  15
ATOM     15  C   UNL     1      12.633   9.615   7.136  1.00  0.00     0.035 C 
BRANCH  15  16
ATOM     16  C   UNL     1      11.572  10.420   7.900  1.00  0.00     0.079 C 
BRANCH  16  17
ATOM     17  C   UNL     1      11.702  10.241   9.390  1.00  0.00     0.130 C 
ATOM     18  O   UNL     1      12.532   9.463   9.838  1.00  0.00    -0.300 OA
ATOM     19  C   UNL     1      10.809  10.996  10.326  1.00  0.00     0.087 C 
ENDBRANCH  16  17
ENDBRANCH  15  16
ENDBRANCH  13  15
ENDBRANCH  11  12
ENDBRANCH   1  11
TORSDOF 9
ENDMDL
MODEL 4
REMARK VINA RESULT:    -3.593      2.625      7.681
REMARK INTER + INTRA:          -7.155
REMARK INTER:                  -6.056
REMARK INTRA:                  -1.098
REMARK UNBOUND:                -1.671
REMARK SMILES CC(=O)CCC=C(C)CCC=C(C)CCC=C(C)C
REMARK SMILES IDX 10 1 11 2 12 3 13 4 14 5 15 6 16 7 18 8 17 9 19 10 9 11 7 12
REMARK SMILES IDX 6 13 8 14 5 15 4 16 2 17 3 18 1 19
REMARK H PARENT
REMARK Flexibility Score: inf
ROOT
ATOM      1  C   UNL     1      11.654   9.234   3.855  1.00  0.00     0.032 C 
ENDROOT
BRANCH   1   2
ATOM      2  C   UNL     1      12.434   9.115   5.142  1.00  0.00    -0.028 C 
ATOM      3  C   UNL     1      12.163   9.795   6.279  1.00  0.00    -0.077 C 
ATOM      4  C   UNL     1      12.996   9.499   7.500  1.00  0.00     0.039 C 
BRANCH   3   5
ATOM      5  C   UNL     1      11.085  10.861   6.367  1.00  0.00     0.034 C 
BRANCH   5   6
ATOM      6  C   UNL     1      11.399  11.908   7.445  1.00  0.00     0.032 C 
BRANCH   6   7
ATOM      7  C   UNL     1      10.218  12.125   8.362  1.00  0.00    -0.028 C 
ATOM      8  C   UNL     1      11.492  11.534  10.438  1.00  0.00     0.039 C 
ATOM      9  C   UNL     1      10.239  11.941   9.702  1.00  0.00    -0.080 C 
ATOM     10  C   UNL     1       8.977  12.122  10.502  1.00  0.00     0.039 C 
ENDBRANCH   6   7
ENDBRANCH   5   6
ENDBRANCH   3   5
ENDBRANCH   1   2
BRANCH   1  11
ATOM     11  C   UNL     1      12.326  10.202   2.870  1.00  0.00     0.034 C 
BRANCH  11  12
ATOM     12  C   UNL     1      11.422  10.527   1.693  1.00  0.00    -0.077 C 
ATOM     13  C   UNL     1      11.402   9.795   0.557  1.00  0.00    -0.028 C 
ATOM     14  C   UNL     1      10.477  11.696   1.805  1.00  0.00     0.039 C 
BRANCH  13  15
ATOM     15  C   UNL     1      12.330   8.641   0.252  1.00  0.00     0.035 C 
BRANCH  15  16
ATOM     16  C   UNL     1      11.629   7.556  -0.576  1.00  0.00     0.079 C 
BRANCH  16  17
ATOM     17  C   UNL     1      11.103   6.443   0.293  1.00  0.00     0.130 C 
ATOM     18  O   UNL     1      11.262   6.492   1.504  1.00  0.00    -0.300 OA
ATOM     19  C   UNL     1      10.404   5.268  -0.320  1.00  0.00     0.087 C 
ENDBRANCH  16  17
ENDBRANCH  15  16
ENDBRANCH  13  15
ENDBRANCH  11  12
ENDBRANCH   1  11
TORSDOF 9
ENDMDL
MODEL 5
REMARK VINA RESULT:    -3.446      1.332      3.292
REMARK INTER + INTRA:          -6.930
REMARK INTER:                  -5.782
REMARK INTRA:                  -1.148
REMARK UNBOUND:                -1.671
REMARK SMILES CC(=O)CCC=C(C)CCC=C(C)CCC=C(C)C
REMARK SMILES IDX 10 1 11 2 12 3 13 4 14 5 15 6 16 7 18 8 17 9 19 10 9 11 7 12
REMARK SMILES IDX 6 13 8 14 5 15 4 16 2 17 3 18 1 19
REMARK H PARENT
REMARK Flexibility Score: inf
ROOT
ATOM      1  C   UNL     1      11.648  10.519   2.290  1.00  0.00     0.032 C 
ENDROOT
BRANCH   1   2
ATOM      2  C   UNL     1      10.441   9.720   1.861  1.00  0.00    -0.028 C 
ATOM      3  C   UNL     1      10.228   9.246   0.612  1.00  0.00    -0.077 C 
ATOM      4  C   UNL     1       9.005   8.398   0.372  1.00  0.00     0.039 C 
BRANCH   3   5
ATOM      5  C   UNL     1      11.144   9.559  -0.558  1.00  0.00     0.034 C 
BRANCH   5   6
ATOM      6  C   UNL     1      12.433   8.726  -0.517  1.00  0.00     0.032 C 
BRANCH   6   7
ATOM      7  C   UNL     1      12.222   7.357  -1.121  1.00  0.00    -0.028 C 
ATOM      8  C   UNL     1      11.950   6.223   1.097  1.00  0.00     0.039 C 
ATOM      9  C   UNL     1      12.026   6.224  -0.410  1.00  0.00    -0.080 C 
ATOM     10  C   UNL     1      11.897   4.905  -1.125  1.00  0.00     0.039 C 
ENDBRANCH   6   7
ENDBRANCH   5   6
ENDBRANCH   3   5
ENDBRANCH   1   2
BRANCH   1  11
ATOM     11  C   UNL     1      11.760  10.602   3.820  1.00  0.00     0.034 C 
BRANCH  11  12
ATOM     12  C   UNL     1      12.674   9.525   4.378  1.00  0.00    -0.077 C 
ATOM     13  C   UNL     1      13.095   9.511   5.663  1.00  0.00    -0.028 C 
ATOM     14  C   UNL     1      13.106   8.399   3.474  1.00  0.00     0.039 C 
BRANCH  13  15
ATOM     15  C   UNL     1      12.816  10.595   6.678  1.00  0.00     0.035 C 
BRANCH  15  16
ATOM     16  C   UNL     1      11.643  10.222   7.595  1.00  0.00     0.079 C 
BRANCH  16  17
ATOM     17  C   UNL     1      12.038  10.256   9.048  1.00  0.00     0.130 C 
ATOM     18  O   UNL     1      11.660  11.176   9.759  1.00  0.00    -0.300 OA
ATOM     19  C   UNL     1      12.908   9.180   9.623  1.00  0.00     0.087 C 
ENDBRANCH  16  17
ENDBRANCH  15  16
ENDBRANCH  13  15
ENDBRANCH  11  12
ENDBRANCH   1  11
TORSDOF 9
ENDMDL
MODEL 6
REMARK VINA RESULT:    -3.244      2.703      4.831
REMARK INTER + INTRA:          -6.622
REMARK INTER:                  -5.859
REMARK INTRA:                  -0.763
REMARK UNBOUND:                -1.671
REMARK SMILES CC(=O)CCC=C(C)CCC=C(C)CCC=C(C)C
REMARK SMILES IDX 10 1 11 2 12 3 13 4 14 5 15 6 16 7 18 8 17 9 19 10 9 11 7 12
REMARK SMILES IDX 6 13 8 14 5 15 4 16 2 17 3 18 1 19
REMARK H PARENT
REMARK Flexibility Score: inf
ROOT
ATOM      1  C   UNL     1      12.340   6.568   1.852  1.00  0.00     0.032 C 
ENDROOT
BRANCH   1   2
ATOM      2  C   UNL     1      10.897   6.963   1.650  1.00  0.00    -0.028 C 
ATOM      3  C   UNL     1      10.148   6.637   0.571  1.00  0.00    -0.077 C 
ATOM      4  C   UNL     1       8.698   7.047   0.564  1.00  0.00     0.039 C 
BRANCH   3   5
ATOM      5  C   UNL     1      10.711   5.912  -0.637  1.00  0.00     0.034 C 
BRANCH   5   6
ATOM      6  C   UNL     1      10.201   4.467  -0.729  1.00  0.00     0.032 C 
BRANCH   6   7
ATOM      7  C   UNL     1      11.340   3.494  -0.931  1.00  0.00    -0.028 C 
ATOM      8  C   UNL     1       9.856   1.474  -0.903  1.00  0.00     0.039 C 
ATOM      9  C   UNL     1      11.202   2.150  -0.989  1.00  0.00    -0.080 C 
ATOM     10  C   UNL     1      12.422   1.278  -1.125  1.00  0.00     0.039 C 
ENDBRANCH   6   7
ENDBRANCH   5   6
ENDBRANCH   3   5
ENDBRANCH   1   2
BRANCH   1  11
ATOM     11  C   UNL     1      13.010   7.405   2.952  1.00  0.00     0.034 C 
BRANCH  11  12
ATOM     12  C   UNL     1      13.020   8.885   2.608  1.00  0.00    -0.077 C 
ATOM     13  C   UNL     1      12.972   9.858   3.545  1.00  0.00    -0.028 C 
ATOM     14  C   UNL     1      13.125   9.292   1.161  1.00  0.00     0.039 C 
BRANCH  13  15
ATOM     15  C   UNL     1      12.794   9.626   5.027  1.00  0.00     0.035 C 
BRANCH  15  16
ATOM     16  C   UNL     1      11.461  10.195   5.532  1.00  0.00     0.079 C 
BRANCH  16  17
ATOM     17  C   UNL     1      11.516  10.527   7.000  1.00  0.00     0.130 C 
ATOM     18  O   UNL     1      12.044   9.747   7.780  1.00  0.00    -0.300 OA
ATOM     19  C   UNL     1      10.912  11.799   7.514  1.00  0.00     0.087 C 
ENDBRANCH  16  17
ENDBRANCH  15  16
ENDBRANCH  13  15
ENDBRANCH  11  12
ENDBRANCH   1  11
TORSDOF 9
ENDMDL
