MODEL 1
REMARK VINA RESULT:    -4.512      0.000      0.000
REMARK INTER + INTRA:          -5.809
REMARK INTER:                  -5.303
REMARK INTRA:                  -0.506
REMARK UNBOUND:                -0.506
REMARK SMILES C=C[C@]1(C)CC[C@@H](C(=C)C)C[C@@H]1C(=C)C
REMARK SMILES IDX 7 1 6 2 5 3 3 4 12 5 11 6 4 7 8 8 10 9 9 10 13 11 14 12
REMARK SMILES IDX 15 13 2 14 1 15
REMARK H PARENT
REMARK Flexibility Score: inf
ROOT
ATOM      1  C   UNL     1     133.617 134.137 133.538  1.00  0.00     0.015 C 
ATOM      2  C   UNL     1     133.382 133.728 134.999  1.00  0.00     0.009 C 
ATOM      3  C   UNL     1     134.379 132.655 135.458  1.00  0.00     0.012 C 
ATOM      4  C   UNL     1     135.872 133.065 135.260  1.00  0.00    -0.008 C 
ATOM      5  C   UNL     1     136.136 133.620 133.802  1.00  0.00     0.024 C 
ATOM      6  C   UNL     1     135.061 134.628 133.322  1.00  0.00     0.017 C 
ATOM      7  C   UNL     1     136.234 134.168 136.291  1.00  0.00     0.016 C 
ENDROOT
BRANCH   1   8
ATOM      8  C   UNL     1     132.612 135.195 133.098  1.00  0.00    -0.077 C 
ATOM      9  C   UNL     1     132.235 136.347 133.998  1.00  0.00     0.039 C 
ATOM     10  C   UNL     1     132.044 135.122 131.882  1.00  0.00     0.008 C 
ENDBRANCH   1   8
BRANCH   5  11
ATOM     11  C   UNL     1     136.460 132.587 132.713  1.00  0.00    -0.077 C 
ATOM     12  C   UNL     1     135.576 131.675 132.271  1.00  0.00     0.008 C 
ATOM     13  C   UNL     1     137.847 132.604 132.115  1.00  0.00     0.039 C 
ENDBRANCH   5  11
BRANCH   4  14
ATOM     14  C   UNL     1     136.779 131.865 135.551  1.00  0.00    -0.028 C 
ATOM     15  C   UNL     1     137.878 131.940 136.315  1.00  0.00     0.004 C 
ENDBRANCH   4  14
TORSDOF 3
ENDMDL
MODEL 2
REMARK VINA RESULT:    -4.506      2.878      4.035
REMARK INTER + INTRA:          -5.802
REMARK INTER:                  -5.348
REMARK INTRA:                  -0.454
REMARK UNBOUND:                -0.506
REMARK SMILES C=C[C@]1(C)CC[C@@H](C(=C)C)C[C@@H]1C(=C)C
REMARK SMILES IDX 7 1 6 2 5 3 3 4 12 5 11 6 4 7 8 8 10 9 9 10 13 11 14 12
REMARK SMILES IDX 15 13 2 14 1 15
REMARK H PARENT
REMARK Flexibility Score: inf
ROOT
ATOM      1  C   UNL     1     135.039 133.581 137.172  1.00  0.00     0.015 C 
ATOM      2  C   UNL     1     135.118 133.905 138.672  1.00  0.00     0.009 C 
ATOM      3  C   UNL     1     136.527 133.667 139.231  1.00  0.00     0.012 C 
ATOM      4  C   UNL     1     137.643 134.444 138.466  1.00  0.00    -0.008 C 
ATOM      5  C   UNL     1     137.521 134.248 136.900  1.00  0.00     0.024 C 
ATOM      6  C   UNL     1     136.071 134.395 136.371  1.00  0.00     0.017 C 
ATOM      7  C   UNL     1     137.520 135.957 138.792  1.00  0.00     0.016 C 
ENDROOT
BRANCH   1   8
ATOM      8  C   UNL     1     133.630 133.814 136.637  1.00  0.00    -0.077 C 
ATOM      9  C   UNL     1     132.741 134.896 137.201  1.00  0.00     0.039 C 
ATOM     10  C   UNL     1     133.154 133.053 135.637  1.00  0.00     0.008 C 
ENDBRANCH   1   8
BRANCH   5  11
ATOM     11  C   UNL     1     138.214 133.016 136.298  1.00  0.00    -0.077 C 
ATOM     12  C   UNL     1     137.713 131.771 136.380  1.00  0.00     0.008 C 
ATOM     13  C   UNL     1     139.526 133.226 135.580  1.00  0.00     0.039 C 
ENDBRANCH   5  11
BRANCH   4  14
ATOM     14  C   UNL     1     139.020 133.990 138.958  1.00  0.00    -0.028 C 
ATOM     15  C   UNL     1     139.376 133.983 140.251  1.00  0.00     0.004 C 
ENDBRANCH   4  14
TORSDOF 3
ENDMDL
MODEL 3
REMARK VINA RESULT:    -4.506      5.634      7.723
REMARK INTER + INTRA:          -5.802
REMARK INTER:                  -5.344
REMARK INTRA:                  -0.458
REMARK UNBOUND:                -0.506
REMARK SMILES C=C[C@]1(C)CC[C@@H](C(=C)C)C[C@@H]1C(=C)C
REMARK SMILES IDX 7 1 6 2 5 3 3 4 12 5 11 6 4 7 8 8 10 9 9 10 13 11 14 12
REMARK SMILES IDX 15 13 2 14 1 15
REMARK H PARENT
REMARK Flexibility Score: inf
ROOT
ATOM      1  C   UNL     1     137.589 139.072 137.080  1.00  0.00     0.015 C 
ATOM      2  C   UNL     1     137.562 138.738 138.579  1.00  0.00     0.009 C 
ATOM      3  C   UNL     1     136.171 138.964 139.187  1.00  0.00     0.012 C 
ATOM      4  C   UNL     1     135.035 138.186 138.454  1.00  0.00    -0.008 C 
ATOM      5  C   UNL     1     135.103 138.394 136.887  1.00  0.00     0.024 C 
ATOM      6  C   UNL     1     136.534 138.259 136.308  1.00  0.00     0.017 C 
ATOM      7  C   UNL     1     135.176 136.671 138.765  1.00  0.00     0.016 C 
ENDROOT
BRANCH   1   8
ATOM      8  C   UNL     1     138.980 138.851 136.496  1.00  0.00    -0.077 C 
ATOM      9  C   UNL     1     139.947 137.870 137.113  1.00  0.00     0.039 C 
ATOM     10  C   UNL     1     139.369 139.531 135.404  1.00  0.00     0.008 C 
ENDBRANCH   1   8
BRANCH   5  11
ATOM     11  C   UNL     1     134.383 139.627 136.318  1.00  0.00    -0.077 C 
ATOM     12  C   UNL     1     134.876 140.876 136.402  1.00  0.00     0.008 C 
ATOM     13  C   UNL     1     133.055 139.413 135.631  1.00  0.00     0.039 C 
ENDBRANCH   5  11
BRANCH   4  14
ATOM     14  C   UNL     1     133.672 138.629 138.996  1.00  0.00    -0.028 C 
ATOM     15  C   UNL     1     133.354 138.607 140.298  1.00  0.00     0.004 C 
ENDBRANCH   4  14
TORSDOF 3
ENDMDL
MODEL 4
REMARK VINA RESULT:    -4.505      3.577      5.109
REMARK INTER + INTRA:          -5.801
REMARK INTER:                  -5.317
REMARK INTRA:                  -0.484
REMARK UNBOUND:                -0.506
REMARK SMILES C=C[C@]1(C)CC[C@@H](C(=C)C)C[C@@H]1C(=C)C
REMARK SMILES IDX 7 1 6 2 5 3 3 4 12 5 11 6 4 7 8 8 10 9 9 10 13 11 14 12
REMARK SMILES IDX 15 13 2 14 1 15
REMARK H PARENT
REMARK Flexibility Score: inf
ROOT
ATOM      1  C   UNL     1     133.598 137.603 137.232  1.00  0.00     0.015 C 
ATOM      2  C   UNL     1     133.936 137.543 138.729  1.00  0.00     0.009 C 
ATOM      3  C   UNL     1     133.713 136.137 139.305  1.00  0.00     0.012 C 
ATOM      4  C   UNL     1     134.490 135.019 138.545  1.00  0.00    -0.008 C 
ATOM      5  C   UNL     1     134.279 135.123 136.980  1.00  0.00     0.024 C 
ATOM      6  C   UNL     1     134.411 136.567 136.434  1.00  0.00     0.017 C 
ATOM      7  C   UNL     1     136.006 135.155 138.856  1.00  0.00     0.016 C 
ENDROOT
BRANCH   1   8
ATOM      8  C   UNL     1     133.817 139.008 136.680  1.00  0.00    -0.077 C 
ATOM      9  C   UNL     1     134.884 139.917 137.238  1.00  0.00     0.039 C 
ATOM     10  C   UNL     1     133.056 139.460 135.669  1.00  0.00     0.008 C 
ENDBRANCH   1   8
BRANCH   5  11
ATOM     11  C   UNL     1     133.045 134.415 136.397  1.00  0.00    -0.077 C 
ATOM     12  C   UNL     1     131.793 134.888 136.522  1.00  0.00     0.008 C 
ATOM     13  C   UNL     1     133.263 133.122 135.648  1.00  0.00     0.039 C 
ENDBRANCH   5  11
BRANCH   4  14
ATOM     14  C   UNL     1     134.050 133.644 139.056  1.00  0.00    -0.028 C 
ATOM     15  C   UNL     1     133.832 133.374 140.351  1.00  0.00     0.004 C 
ENDBRANCH   4  14
TORSDOF 3
ENDMDL
MODEL 5
REMARK VINA RESULT:    -4.504      3.675      5.413
REMARK INTER + INTRA:          -5.799
REMARK INTER:                  -5.300
REMARK INTRA:                  -0.499
REMARK UNBOUND:                -0.506
REMARK SMILES C=C[C@]1(C)CC[C@@H](C(=C)C)C[C@@H]1C(=C)C
REMARK SMILES IDX 7 1 6 2 5 3 3 4 12 5 11 6 4 7 8 8 10 9 9 10 13 11 14 12
REMARK SMILES IDX 15 13 2 14 1 15
REMARK H PARENT
REMARK Flexibility Score: inf
ROOT
ATOM      1  C   UNL     1     134.172 139.064 133.558  1.00  0.00     0.015 C 
ATOM      2  C   UNL     1     133.767 139.287 135.022  1.00  0.00     0.009 C 
ATOM      3  C   UNL     1     132.689 138.291 135.472  1.00  0.00     0.012 C 
ATOM      4  C   UNL     1     133.089 136.799 135.260  1.00  0.00    -0.008 C 
ATOM      5  C   UNL     1     133.641 136.546 133.798  1.00  0.00     0.024 C 
ATOM      6  C   UNL     1     134.654 137.620 133.327  1.00  0.00     0.017 C 
ATOM      7  C   UNL     1     134.193 136.420 136.284  1.00  0.00     0.016 C 
ENDROOT
BRANCH   1   8
ATOM      8  C   UNL     1     135.235 140.068 133.126  1.00  0.00    -0.077 C 
ATOM      9  C   UNL     1     136.373 140.452 134.040  1.00  0.00     0.039 C 
ATOM     10  C   UNL     1     135.177 140.628 131.906  1.00  0.00     0.008 C 
ENDBRANCH   1   8
BRANCH   5  11
ATOM     11  C   UNL     1     132.604 136.238 132.707  1.00  0.00    -0.077 C 
ATOM     12  C   UNL     1     131.714 137.140 132.256  1.00  0.00     0.008 C 
ATOM     13  C   UNL     1     132.591 134.847 132.119  1.00  0.00     0.039 C 
ENDBRANCH   5  11
BRANCH   4  14
ATOM     14  C   UNL     1     131.885 135.895 135.543  1.00  0.00    -0.028 C 
ATOM     15  C   UNL     1     131.930 134.848 136.379  1.00  0.00     0.004 C 
ENDBRANCH   4  14
TORSDOF 3
ENDMDL
MODEL 6
REMARK VINA RESULT:    -4.500      3.669      5.399
REMARK INTER + INTRA:          -5.794
REMARK INTER:                  -5.294
REMARK INTRA:                  -0.500
REMARK UNBOUND:                -0.506
REMARK SMILES C=C[C@]1(C)CC[C@@H](C(=C)C)C[C@@H]1C(=C)C
REMARK SMILES IDX 7 1 6 2 5 3 3 4 12 5 11 6 4 7 8 8 10 9 9 10 13 11 14 12
REMARK SMILES IDX 15 13 2 14 1 15
REMARK H PARENT
REMARK Flexibility Score: inf
ROOT
ATOM      1  C   UNL     1     138.515 133.657 133.565  1.00  0.00     0.015 C 
ATOM      2  C   UNL     1     138.915 133.428 135.030  1.00  0.00     0.009 C 
ATOM      3  C   UNL     1     139.971 134.440 135.496  1.00  0.00     0.012 C 
ATOM      4  C   UNL     1     139.546 135.927 135.293  1.00  0.00    -0.008 C 
ATOM      5  C   UNL     1     138.998 136.182 133.830  1.00  0.00     0.024 C 
ATOM      6  C   UNL     1     138.008 135.093 133.343  1.00  0.00     0.017 C 
ATOM      7  C   UNL     1     138.429 136.277 136.313  1.00  0.00     0.016 C 
ENDROOT
BRANCH   1   8
ATOM      8  C   UNL     1     137.473 132.637 133.118  1.00  0.00    -0.077 C 
ATOM      9  C   UNL     1     136.308 132.262 134.002  1.00  0.00     0.039 C 
ATOM     10  C   UNL     1     137.573 132.056 131.911  1.00  0.00     0.008 C 
ENDBRANCH   1   8
BRANCH   5  11
ATOM     11  C   UNL     1     140.037 136.517 132.748  1.00  0.00    -0.077 C 
ATOM     12  C   UNL     1     140.976 135.650 132.329  1.00  0.00     0.008 C 
ATOM     13  C   UNL     1     139.992 137.895 132.131  1.00  0.00     0.039 C 
ENDBRANCH   5  11
BRANCH   4  14
ATOM     14  C   UNL     1     140.731 136.849 135.591  1.00  0.00    -0.028 C 
ATOM     15  C   UNL     1     140.640 137.940 136.365  1.00  0.00     0.004 C 
ENDBRANCH   4  14
TORSDOF 3
ENDMDL
MODEL 7
REMARK VINA RESULT:    -4.497      4.728      7.132
REMARK INTER + INTRA:          -5.791
REMARK INTER:                  -5.335
REMARK INTRA:                  -0.456
REMARK UNBOUND:                -0.506
REMARK SMILES C=C[C@]1(C)CC[C@@H](C(=C)C)C[C@@H]1C(=C)C
REMARK SMILES IDX 7 1 6 2 5 3 3 4 12 5 11 6 4 7 8 8 10 9 9 10 13 11 14 12
REMARK SMILES IDX 15 13 2 14 1 15
REMARK H PARENT
REMARK Flexibility Score: inf
ROOT
ATOM      1  C   UNL     1     139.075 135.065 137.124  1.00  0.00     0.015 C 
ATOM      2  C   UNL     1     138.729 135.099 138.620  1.00  0.00     0.009 C 
ATOM      3  C   UNL     1     138.947 136.494 139.223  1.00  0.00     0.012 C 
ATOM      4  C   UNL     1     138.173 137.625 138.478  1.00  0.00    -0.008 C 
ATOM      5  C   UNL     1     138.394 137.549 136.912  1.00  0.00     0.024 C 
ATOM      6  C   UNL     1     138.266 136.114 136.340  1.00  0.00     0.017 C 
ATOM      7  C   UNL     1     136.656 137.481 138.777  1.00  0.00     0.016 C 
ENDROOT
BRANCH   1   8
ATOM      8  C   UNL     1     138.862 133.670 136.546  1.00  0.00    -0.077 C 
ATOM      9  C   UNL     1     137.894 132.696 137.173  1.00  0.00     0.039 C 
ATOM     10  C   UNL     1     139.536 133.285 135.449  1.00  0.00     0.008 C 
ENDBRANCH   1   8
BRANCH   5  11
ATOM     11  C   UNL     1     139.630 138.268 136.349  1.00  0.00    -0.077 C 
ATOM     12  C   UNL     1     140.882 137.796 136.476  1.00  0.00     0.008 C 
ATOM     13  C   UNL     1     139.414 139.572 135.618  1.00  0.00     0.039 C 
ENDBRANCH   5  11
BRANCH   4  14
ATOM     14  C   UNL     1     138.609 138.991 139.016  1.00  0.00    -0.028 C 
ATOM     15  C   UNL     1     138.420 139.378 140.285  1.00  0.00     0.004 C 
ENDBRANCH   4  14
TORSDOF 3
ENDMDL
MODEL 8
REMARK VINA RESULT:    -4.488      3.002      5.108
REMARK INTER + INTRA:          -5.781
REMARK INTER:                  -5.245
REMARK INTRA:                  -0.536
REMARK UNBOUND:                -0.506
REMARK SMILES C=C[C@]1(C)CC[C@@H](C(=C)C)C[C@@H]1C(=C)C
REMARK SMILES IDX 7 1 6 2 5 3 3 4 12 5 11 6 4 7 8 8 10 9 9 10 13 11 14 12
REMARK SMILES IDX 15 13 2 14 1 15
REMARK H PARENT
REMARK Flexibility Score: inf
ROOT
ATOM      1  C   UNL     1     135.480 134.295 137.449  1.00  0.00     0.015 C 
ATOM      2  C   UNL     1     135.773 133.939 135.985  1.00  0.00     0.009 C 
ATOM      3  C   UNL     1     137.277 133.987 135.678  1.00  0.00     0.012 C 
ATOM      4  C   UNL     1     138.137 133.089 136.620  1.00  0.00    -0.008 C 
ATOM      5  C   UNL     1     137.774 133.326 138.142  1.00  0.00     0.024 C 
ATOM      6  C   UNL     1     136.248 133.372 138.413  1.00  0.00     0.017 C 
ATOM      7  C   UNL     1     137.881 131.598 136.270  1.00  0.00     0.016 C 
ENDROOT
BRANCH   1   8
ATOM      8  C   UNL     1     133.983 134.251 137.733  1.00  0.00    -0.077 C 
ATOM      9  C   UNL     1     132.999 133.755 136.700  1.00  0.00     0.039 C 
ATOM     10  C   UNL     1     133.510 134.651 138.925  1.00  0.00     0.008 C 
ENDBRANCH   1   8
BRANCH   5  11
ATOM     11  C   UNL     1     138.504 134.472 138.860  1.00  0.00    -0.077 C 
ATOM     12  C   UNL     1     138.409 135.760 138.486  1.00  0.00     0.008 C 
ATOM     13  C   UNL     1     139.371 134.120 140.046  1.00  0.00     0.039 C 
ENDBRANCH   5  11
BRANCH   4  14
ATOM     14  C   UNL     1     139.624 133.358 136.374  1.00  0.00    -0.028 C 
ATOM     15  C   UNL     1     140.079 134.144 135.387  1.00  0.00     0.004 C 
ENDBRANCH   4  14
TORSDOF 3
ENDMDL
MODEL 9
REMARK VINA RESULT:    -3.540      5.342      7.524
REMARK INTER + INTRA:          -4.667
REMARK INTER:                  -4.189
REMARK INTRA:                  -0.477
REMARK UNBOUND:                -0.506
REMARK SMILES C=C[C@]1(C)CC[C@@H](C(=C)C)C[C@@H]1C(=C)C
REMARK SMILES IDX 7 1 6 2 5 3 3 4 12 5 11 6 4 7 8 8 10 9 9 10 13 11 14 12
REMARK SMILES IDX 15 13 2 14 1 15
REMARK H PARENT
REMARK Flexibility Score: inf
ROOT
ATOM      1  C   UNL     1     139.050 138.405 133.570  1.00  0.00     0.015 C 
ATOM      2  C   UNL     1     139.250 138.736 135.056  1.00  0.00     0.009 C 
ATOM      3  C   UNL     1     138.240 139.784 135.546  1.00  0.00     0.012 C 
ATOM      4  C   UNL     1     136.753 139.386 135.291  1.00  0.00    -0.008 C 
ATOM      5  C   UNL     1     136.525 138.908 133.800  1.00  0.00     0.024 C 
ATOM      6  C   UNL     1     137.613 137.927 133.293  1.00  0.00     0.017 C 
ATOM      7  C   UNL     1     136.367 138.230 136.253  1.00  0.00     0.016 C 
ENDROOT
BRANCH   1   8
ATOM      8  C   UNL     1     140.067 137.371 133.099  1.00  0.00    -0.077 C 
ATOM      9  C   UNL     1     140.481 136.216 133.979  1.00  0.00     0.039 C 
ATOM     10  C   UNL     1     140.611 137.470 131.875  1.00  0.00     0.008 C 
ENDBRANCH   1   8
BRANCH   5  11
ATOM     11  C   UNL     1     136.226 139.998 132.759  1.00  0.00    -0.077 C 
ATOM     12  C   UNL     1     137.120 140.932 132.388  1.00  0.00     0.008 C 
ATOM     13  C   UNL     1     134.855 140.012 132.127  1.00  0.00     0.039 C 
ENDBRANCH   5  11
BRANCH   4  14
ATOM     14  C   UNL     1     135.838 140.569 135.622  1.00  0.00    -0.028 C 
ATOM     15  C   UNL     1     134.876 140.518 136.555  1.00  0.00     0.004 C 
ENDBRANCH   4  14
TORSDOF 3
ENDMDL
