MODEL 1
REMARK VINA RESULT:    -1.952      0.000      0.000
REMARK INTER + INTRA:          -1.952
REMARK INTER:                  -1.952
REMARK INTRA:                   0.000
REMARK UNBOUND:                 0.000
REMARK SMILES CC(=O)[O-]
REMARK SMILES IDX 1 1 2 2 3 3 4 4
REMARK H PARENT
REMARK Flexibility Score: inf
ROOT
ATOM      1  C   UNL     1      22.692  15.349  43.193  1.00  0.00     0.063 C 
ATOM      2  C   UNL     1      22.640  16.831  43.055  1.00  0.00     0.038 C 
ATOM      3  O   UNL     1      22.287  17.545  44.029  1.00  0.00    -0.550 OA
ATOM      4  O   UNL     1      22.930  17.427  41.834  1.00  0.00    -0.550 OA
ENDROOT
TORSDOF 0
ENDMDL
MODEL 2
REMARK VINA RESULT:    -1.915      1.303      1.700
REMARK INTER + INTRA:          -1.915
REMARK INTER:                  -1.915
REMARK INTRA:                   0.000
REMARK UNBOUND:                 0.000
REMARK SMILES CC(=O)[O-]
REMARK SMILES IDX 1 1 2 2 3 3 4 4
REMARK H PARENT
REMARK Flexibility Score: inf
ROOT
ATOM      1  C   UNL     1      22.350  17.778  44.100  1.00  0.00     0.063 C 
ATOM      2  C   UNL     1      22.628  16.758  43.049  1.00  0.00     0.038 C 
ATOM      3  O   UNL     1      22.611  15.533  43.337  1.00  0.00    -0.550 OA
ATOM      4  O   UNL     1      22.958  17.158  41.761  1.00  0.00    -0.550 OA
ENDROOT
TORSDOF 0
ENDMDL
MODEL 3
REMARK VINA RESULT:    -1.796      1.408      1.779
REMARK INTER + INTRA:          -1.796
REMARK INTER:                  -1.796
REMARK INTRA:                   0.000
REMARK UNBOUND:                 0.000
REMARK SMILES CC(=O)[O-]
REMARK SMILES IDX 1 1 2 2 3 3 4 4
REMARK H PARENT
REMARK Flexibility Score: inf
ROOT
ATOM      1  C   UNL     1      22.988  17.742  41.915  1.00  0.00     0.063 C 
ATOM      2  C   UNL     1      22.598  16.993  43.143  1.00  0.00     0.038 C 
ATOM      3  O   UNL     1      22.344  17.614  44.208  1.00  0.00    -0.550 OA
ATOM      4  O   UNL     1      22.565  15.605  43.131  1.00  0.00    -0.550 OA
ENDROOT
TORSDOF 0
ENDMDL
MODEL 4
REMARK VINA RESULT:    -1.665     13.112     13.442
REMARK INTER + INTRA:          -1.665
REMARK INTER:                  -1.665
REMARK INTRA:                   0.000
REMARK UNBOUND:                 0.000
REMARK SMILES CC(=O)[O-]
REMARK SMILES IDX 1 1 2 2 3 3 4 4
REMARK H PARENT
REMARK Flexibility Score: inf
ROOT
ATOM      1  C   UNL     1      33.124  14.875  52.683  1.00  0.00     0.063 C 
ATOM      2  C   UNL     1      32.395  15.997  52.029  1.00  0.00     0.038 C 
ATOM      3  O   UNL     1      32.789  16.447  50.921  1.00  0.00    -0.550 OA
ATOM      4  O   UNL     1      31.309  16.587  52.664  1.00  0.00    -0.550 OA
ENDROOT
TORSDOF 0
ENDMDL
MODEL 5
REMARK VINA RESULT:    -1.653      9.719     10.108
REMARK INTER + INTRA:          -1.653
REMARK INTER:                  -1.653
REMARK INTRA:                   0.000
REMARK UNBOUND:                 0.000
REMARK SMILES CC(=O)[O-]
REMARK SMILES IDX 1 1 2 2 3 3 4 4
REMARK H PARENT
REMARK Flexibility Score: inf
ROOT
ATOM      1  C   UNL     1      16.708  17.509  52.694  1.00  0.00     0.063 C 
ATOM      2  C   UNL     1      17.660  17.844  51.598  1.00  0.00     0.038 C 
ATOM      3  O   UNL     1      18.878  17.542  51.704  1.00  0.00    -0.550 OA
ATOM      4  O   UNL     1      17.219  18.538  50.479  1.00  0.00    -0.550 OA
ENDROOT
TORSDOF 0
ENDMDL
MODEL 6
REMARK VINA RESULT:    -1.646     18.096     18.204
REMARK INTER + INTRA:          -1.646
REMARK INTER:                  -1.646
REMARK INTRA:                   0.000
REMARK UNBOUND:                 0.000
REMARK SMILES CC(=O)[O-]
REMARK SMILES IDX 1 1 2 2 3 3 4 4
REMARK H PARENT
REMARK Flexibility Score: inf
ROOT
ATOM      1  C   UNL     1      16.167  29.501  54.902  1.00  0.00     0.063 C 
ATOM      2  C   UNL     1      17.553  29.880  54.505  1.00  0.00     0.038 C 
ATOM      3  O   UNL     1      18.534  29.509  55.202  1.00  0.00    -0.550 OA
ATOM      4  O   UNL     1      17.764  30.688  53.396  1.00  0.00    -0.550 OA
ENDROOT
TORSDOF 0
ENDMDL
MODEL 7
REMARK VINA RESULT:    -1.609      8.417      8.943
REMARK INTER + INTRA:          -1.609
REMARK INTER:                  -1.609
REMARK INTRA:                   0.000
REMARK UNBOUND:                 0.000
REMARK SMILES CC(=O)[O-]
REMARK SMILES IDX 1 1 2 2 3 3 4 4
REMARK H PARENT
REMARK Flexibility Score: inf
ROOT
ATOM      1  C   UNL     1      16.081  18.185  46.231  1.00  0.00     0.063 C 
ATOM      2  C   UNL     1      14.710  17.727  46.594  1.00  0.00     0.038 C 
ATOM      3  O   UNL     1      14.325  16.571  46.276  1.00  0.00    -0.550 OA
ATOM      4  O   UNL     1      13.834  18.591  47.238  1.00  0.00    -0.550 OA
ENDROOT
TORSDOF 0
ENDMDL
MODEL 8
REMARK VINA RESULT:    -1.579     20.050     20.620
REMARK INTER + INTRA:          -1.579
REMARK INTER:                  -1.579
REMARK INTRA:                   0.000
REMARK UNBOUND:                 0.000
REMARK SMILES CC(=O)[O-]
REMARK SMILES IDX 1 1 2 2 3 3 4 4
REMARK H PARENT
REMARK Flexibility Score: inf
ROOT
ATOM      1  C   UNL     1      25.646  33.183  52.887  1.00  0.00     0.063 C 
ATOM      2  C   UNL     1      26.600  33.983  53.706  1.00  0.00     0.038 C 
ATOM      3  O   UNL     1      26.271  35.124  54.126  1.00  0.00    -0.550 OA
ATOM      4  O   UNL     1      27.875  33.496  53.964  1.00  0.00    -0.550 OA
ENDROOT
TORSDOF 0
ENDMDL
