MODEL 1
REMARK VINA RESULT:    -7.413      0.000      0.000
REMARK INTER + INTRA:          -8.063
REMARK INTER:                  -8.063
REMARK INTRA:                   0.000
REMARK UNBOUND:                 0.000
REMARK SMILES C[C@@H]1CC[C@H]2[N@@H+](C1)C[C@H]1[C@H]3C[C@H]4[C@@H](C[C@H](O)[C@@H]5C[C@@H](O)CC[C@]45C)[C@H]3CC[C@H]1[C@@]2(C)O
REMARK SMILES IDX 5 1 6 2 8 3 7 4 4 5 29 6 3 7 28 8 30 9 2 10 27 11 9 12 1 13
REMARK SMILES IDX 26 14 10 15 25 16 11 17 13 18 12 19 14 20 23 21 15 22 17 23
REMARK SMILES IDX 22 24 24 25 18 26 21 27 19 28 31 30 16 32 20 34
REMARK H PARENT 6 29 31 31 16 33 20 35
REMARK Flexibility Score: inf
ROOT
ATOM      1  C   UNL     1      44.381  -2.625  24.884  1.00  0.00     0.216 C 
ATOM      2  N   UNL     1      45.377  -3.682  25.272  1.00  0.00    -0.330 N 
ATOM      3  C   UNL     1      45.164  -4.259  26.623  1.00  0.00     0.266 C 
ATOM      4  C   UNL     1      46.781  -3.225  25.147  1.00  0.00     0.265 C 
ATOM      5  C   UNL     1      44.966  -1.611  23.856  1.00  0.00     0.069 C 
ATOM      6  C   UNL     1      43.731  -1.914  26.119  1.00  0.00     0.117 C 
ATOM      7  C   UNL     1      45.946  -2.300  22.908  1.00  0.00     0.015 C 
ATOM      8  C   UNL     1      42.972  -2.987  26.989  1.00  0.00     0.036 C 
ATOM      9  C   UNL     1      42.715  -0.838  25.637  1.00  0.00     0.049 C 
ATOM     10  C   UNL     1      47.143  -2.904  23.677  1.00  0.00     0.041 C 
ATOM     11  C   UNL     1      42.660  -2.482  28.430  1.00  0.00     0.007 C 
ATOM     12  C   UNL     1      43.659  -4.397  26.957  1.00  0.00     0.054 C 
ATOM     13  C   UNL     1      48.369  -1.983  23.617  1.00  0.00     0.013 C 
ATOM     14  C   UNL     1      43.649  -3.030  29.457  1.00  0.00     0.004 C 
ATOM     15  C   UNL     1      43.307  -5.267  28.217  1.00  0.00     0.002 C 
ATOM     16  C   UNL     1      43.446  -4.549  29.588  1.00  0.00    -0.004 C 
ATOM     17  C   UNL     1      44.109  -6.573  28.356  1.00  0.00     0.009 C 
ATOM     18  C   UNL     1      44.502  -5.345  30.396  1.00  0.00    -0.001 C 
ATOM     19  C   UNL     1      45.195  -6.249  29.388  1.00  0.00    -0.001 C 
ATOM     20  C   UNL     1      45.546  -4.577  31.246  1.00  0.00     0.036 C 
ATOM     21  C   UNL     1      45.972  -7.438  30.077  1.00  0.00    -0.024 C 
ATOM     22  C   UNL     1      46.805  -5.441  31.567  1.00  0.00     0.118 C 
ATOM     23  C   UNL     1      46.497  -6.966  31.496  1.00  0.00     0.026 C 
ATOM     24  C   UNL     1      47.154  -7.840  29.139  1.00  0.00     0.010 C 
ATOM     25  C   UNL     1      45.049  -8.670  30.282  1.00  0.00     0.012 C 
ATOM     26  C   UNL     1      47.648  -7.836  32.067  1.00  0.00     0.038 C 
ATOM     27  C   UNL     1      48.167  -8.779  29.797  1.00  0.00     0.032 C 
ATOM     28  C   UNL     1      48.758  -8.138  31.056  1.00  0.00     0.114 C 
ATOM     29  H   UNL     1      45.260  -4.477  24.597  1.00  0.00     0.348 HD
ENDROOT
BRANCH   6  30
ATOM     30  O   UNL     1      44.770  -1.313  26.864  1.00  0.00    -0.384 OA
ATOM     31  H   UNL     1      45.331  -0.756  26.266  1.00  0.00     0.211 HD
ENDBRANCH   6  30
BRANCH  22  32
ATOM     32  O   UNL     1      47.844  -5.120  30.679  1.00  0.00    -0.393 OA
ATOM     33  H   UNL     1      47.759  -5.731  29.900  1.00  0.00     0.210 HD
ENDBRANCH  22  32
BRANCH  28  34
ATOM     34  O   UNL     1      49.681  -9.015  31.645  1.00  0.00    -0.393 OA
ATOM     35  H   UNL     1      49.344  -9.220  32.556  1.00  0.00     0.210 HD
ENDBRANCH  28  34
TORSDOF 3
ENDMDL
MODEL 2
REMARK VINA RESULT:    -7.383      4.649      7.623
REMARK INTER + INTRA:          -8.030
REMARK INTER:                  -8.030
REMARK INTRA:                   0.000
REMARK UNBOUND:                 0.000
REMARK SMILES C[C@@H]1CC[C@H]2[N@@H+](C1)C[C@H]1[C@H]3C[C@H]4[C@@H](C[C@H](O)[C@@H]5C[C@@H](O)CC[C@]45C)[C@H]3CC[C@H]1[C@@]2(C)O
REMARK SMILES IDX 5 1 6 2 8 3 7 4 4 5 29 6 3 7 28 8 30 9 2 10 27 11 9 12 1 13
REMARK SMILES IDX 26 14 10 15 25 16 11 17 13 18 12 19 14 20 23 21 15 22 17 23
REMARK SMILES IDX 22 24 24 25 18 26 21 27 19 28 31 30 16 32 20 34
REMARK H PARENT 6 29 31 31 16 33 20 35
REMARK Flexibility Score: inf
ROOT
ATOM      1  C   UNL     1      45.913  -2.993  24.574  1.00  0.00     0.216 C 
ATOM      2  N   UNL     1      47.189  -2.300  24.182  1.00  0.00    -0.330 N 
ATOM      3  C   UNL     1      48.404  -3.147  24.286  1.00  0.00     0.266 C 
ATOM      4  C   UNL     1      47.408  -1.034  24.920  1.00  0.00     0.265 C 
ATOM      5  C   UNL     1      44.837  -1.995  25.097  1.00  0.00     0.069 C 
ATOM      6  C   UNL     1      46.144  -4.190  25.556  1.00  0.00     0.117 C 
ATOM      7  C   UNL     1      44.935  -0.656  24.368  1.00  0.00     0.015 C 
ATOM      8  C   UNL     1      47.070  -5.257  24.857  1.00  0.00     0.036 C 
ATOM      9  C   UNL     1      44.781  -4.853  25.912  1.00  0.00     0.049 C 
ATOM     10  C   UNL     1      46.312   0.009  24.593  1.00  0.00     0.041 C 
ATOM     11  C   UNL     1      47.701  -6.261  25.869  1.00  0.00     0.007 C 
ATOM     12  C   UNL     1      48.116  -4.614  23.881  1.00  0.00     0.054 C 
ATOM     13  C   UNL     1      46.245   1.078  25.691  1.00  0.00     0.013 C 
ATOM     14  C   UNL     1      49.149  -5.907  26.201  1.00  0.00     0.004 C 
ATOM     15  C   UNL     1      49.373  -5.529  23.658  1.00  0.00     0.002 C 
ATOM     16  C   UNL     1      50.015  -6.113  24.947  1.00  0.00    -0.004 C 
ATOM     17  C   UNL     1      50.532  -4.874  22.885  1.00  0.00     0.009 C 
ATOM     18  C   UNL     1      51.472  -5.585  24.990  1.00  0.00    -0.001 C 
ATOM     19  C   UNL     1      51.532  -4.459  23.969  1.00  0.00    -0.001 C 
ATOM     20  C   UNL     1      52.075  -5.126  26.342  1.00  0.00     0.036 C 
ATOM     21  C   UNL     1      53.011  -4.104  23.547  1.00  0.00    -0.024 C 
ATOM     22  C   UNL     1      53.299  -4.177  26.158  1.00  0.00     0.118 C 
ATOM     23  C   UNL     1      53.982  -4.372  24.771  1.00  0.00     0.026 C 
ATOM     24  C   UNL     1      53.036  -2.601  23.121  1.00  0.00     0.010 C 
ATOM     25  C   UNL     1      53.480  -4.976  22.351  1.00  0.00     0.012 C 
ATOM     26  C   UNL     1      55.348  -3.642  24.668  1.00  0.00     0.038 C 
ATOM     27  C   UNL     1      54.448  -2.033  22.961  1.00  0.00     0.032 C 
ATOM     28  C   UNL     1      55.234  -2.168  24.268  1.00  0.00     0.114 C 
ATOM     29  H   UNL     1      47.102  -2.044  23.168  1.00  0.00     0.348 HD
ENDROOT
BRANCH   6  30
ATOM     30  O   UNL     1      46.763  -3.679  26.718  1.00  0.00    -0.384 OA
ATOM     31  H   UNL     1      47.358  -2.924  26.475  1.00  0.00     0.211 HD
ENDBRANCH   6  30
BRANCH  22  32
ATOM     32  O   UNL     1      52.896  -2.841  26.310  1.00  0.00    -0.393 OA
ATOM     33  H   UNL     1      52.182  -2.675  25.639  1.00  0.00     0.210 HD
ENDBRANCH  22  32
BRANCH  28  34
ATOM     34  O   UNL     1      56.525  -1.643  24.100  1.00  0.00    -0.393 OA
ATOM     35  H   UNL     1      57.067  -1.959  24.869  1.00  0.00     0.210 HD
ENDBRANCH  28  34
TORSDOF 3
ENDMDL
MODEL 3
REMARK VINA RESULT:    -7.205      3.403      7.597
REMARK INTER + INTRA:          -7.836
REMARK INTER:                  -7.836
REMARK INTRA:                   0.000
REMARK UNBOUND:                 0.000
REMARK SMILES C[C@@H]1CC[C@H]2[N@@H+](C1)C[C@H]1[C@H]3C[C@H]4[C@@H](C[C@H](O)[C@@H]5C[C@@H](O)CC[C@]45C)[C@H]3CC[C@H]1[C@@]2(C)O
REMARK SMILES IDX 5 1 6 2 8 3 7 4 4 5 29 6 3 7 28 8 30 9 2 10 27 11 9 12 1 13
REMARK SMILES IDX 26 14 10 15 25 16 11 17 13 18 12 19 14 20 23 21 15 22 17 23
REMARK SMILES IDX 22 24 24 25 18 26 21 27 19 28 31 30 16 32 20 34
REMARK H PARENT 6 29 31 31 16 33 20 35
REMARK Flexibility Score: inf
ROOT
ATOM      1  C   UNL     1      42.030  -3.934  30.999  1.00  0.00     0.216 C 
ATOM      2  N   UNL     1      42.734  -2.706  30.491  1.00  0.00    -0.330 N 
ATOM      3  C   UNL     1      43.218  -2.811  29.091  1.00  0.00     0.266 C 
ATOM      4  C   UNL     1      43.850  -2.278  31.367  1.00  0.00     0.265 C 
ATOM      5  C   UNL     1      42.138  -4.079  32.546  1.00  0.00     0.069 C 
ATOM      6  C   UNL     1      42.456  -5.239  30.246  1.00  0.00     0.117 C 
ATOM      7  C   UNL     1      42.138  -2.709  33.223  1.00  0.00     0.015 C 
ATOM      8  C   UNL     1      42.106  -5.087  28.717  1.00  0.00     0.036 C 
ATOM      9  C   UNL     1      41.685  -6.460  30.826  1.00  0.00     0.049 C 
ATOM     10  C   UNL     1      43.343  -1.855  32.766  1.00  0.00     0.041 C 
ATOM     11  C   UNL     1      42.857  -6.120  27.823  1.00  0.00     0.007 C 
ATOM     12  C   UNL     1      42.233  -3.610  28.204  1.00  0.00     0.054 C 
ATOM     13  C   UNL     1      44.485  -1.905  33.788  1.00  0.00     0.013 C 
ATOM     14  C   UNL     1      44.070  -5.505  27.128  1.00  0.00     0.004 C 
ATOM     15  C   UNL     1      42.478  -3.530  26.654  1.00  0.00     0.002 C 
ATOM     16  C   UNL     1      43.587  -4.468  26.101  1.00  0.00    -0.004 C 
ATOM     17  C   UNL     1      42.822  -2.130  26.117  1.00  0.00     0.009 C 
ATOM     18  C   UNL     1      44.656  -3.551  25.454  1.00  0.00    -0.001 C 
ATOM     19  C   UNL     1      44.345  -2.146  25.946  1.00  0.00    -0.001 C 
ATOM     20  C   UNL     1      46.158  -3.877  25.651  1.00  0.00     0.036 C 
ATOM     21  C   UNL     1      45.026  -1.031  25.060  1.00  0.00    -0.024 C 
ATOM     22  C   UNL     1      47.075  -2.640  25.400  1.00  0.00     0.118 C 
ATOM     23  C   UNL     1      46.391  -1.587  24.478  1.00  0.00     0.026 C 
ATOM     24  C   UNL     1      45.263   0.218  25.968  1.00  0.00     0.010 C 
ATOM     25  C   UNL     1      44.116  -0.624  23.870  1.00  0.00     0.012 C 
ATOM     26  C   UNL     1      47.372  -0.485  23.999  1.00  0.00     0.038 C 
ATOM     27  C   UNL     1      46.172   1.273  25.334  1.00  0.00     0.032 C 
ATOM     28  C   UNL     1      47.537   0.672  24.990  1.00  0.00     0.114 C 
ATOM     29  H   UNL     1      42.033  -1.924  30.496  1.00  0.00     0.348 HD
ENDROOT
BRANCH   6  30
ATOM     30  O   UNL     1      43.848  -5.402  30.425  1.00  0.00    -0.384 OA
ATOM     31  H   UNL     1      44.335  -4.725  29.889  1.00  0.00     0.211 HD
ENDBRANCH   6  30
BRANCH  22  32
ATOM     32  O   UNL     1      47.425  -2.049  26.625  1.00  0.00    -0.393 OA
ATOM     33  H   UNL     1      47.007  -2.596  27.341  1.00  0.00     0.210 HD
ENDBRANCH  22  32
BRANCH  28  34
ATOM     34  O   UNL     1      48.354   1.654  24.408  1.00  0.00    -0.393 OA
ATOM     35  H   UNL     1      48.836   2.104  25.150  1.00  0.00     0.210 HD
ENDBRANCH  28  34
TORSDOF 3
ENDMDL
MODEL 4
REMARK VINA RESULT:    -7.161      3.755      6.615
REMARK INTER + INTRA:          -7.788
REMARK INTER:                  -7.788
REMARK INTRA:                   0.000
REMARK UNBOUND:                 0.000
REMARK SMILES C[C@@H]1CC[C@H]2[N@@H+](C1)C[C@H]1[C@H]3C[C@H]4[C@@H](C[C@H](O)[C@@H]5C[C@@H](O)CC[C@]45C)[C@H]3CC[C@H]1[C@@]2(C)O
REMARK SMILES IDX 5 1 6 2 8 3 7 4 4 5 29 6 3 7 28 8 30 9 2 10 27 11 9 12 1 13
REMARK SMILES IDX 26 14 10 15 25 16 11 17 13 18 12 19 14 20 23 21 15 22 17 23
REMARK SMILES IDX 22 24 24 25 18 26 21 27 19 28 31 30 16 32 20 34
REMARK H PARENT 6 29 31 31 16 33 20 35
REMARK Flexibility Score: inf
ROOT
ATOM      1  C   UNL     1      52.017  -4.156  26.022  1.00  0.00     0.216 C 
ATOM      2  N   UNL     1      51.073  -3.855  27.153  1.00  0.00    -0.330 N 
ATOM      3  C   UNL     1      49.659  -4.221  26.887  1.00  0.00     0.266 C 
ATOM      4  C   UNL     1      51.140  -2.444  27.600  1.00  0.00     0.265 C 
ATOM      5  C   UNL     1      53.257  -3.213  26.021  1.00  0.00     0.069 C 
ATOM      6  C   UNL     1      51.305  -4.207  24.628  1.00  0.00     0.117 C 
ATOM      7  C   UNL     1      53.665  -2.848  27.447  1.00  0.00     0.015 C 
ATOM      8  C   UNL     1      50.212  -5.342  24.651  1.00  0.00     0.036 C 
ATOM      9  C   UNL     1      52.345  -4.523  23.514  1.00  0.00     0.049 C 
ATOM     10  C   UNL     1      52.531  -2.100  28.184  1.00  0.00     0.041 C 
ATOM     11  C   UNL     1      49.175  -5.201  23.496  1.00  0.00     0.007 C 
ATOM     12  C   UNL     1      49.552  -5.528  26.062  1.00  0.00     0.054 C 
ATOM     13  C   UNL     1      52.758  -0.583  28.168  1.00  0.00     0.013 C 
ATOM     14  C   UNL     1      47.866  -4.574  23.972  1.00  0.00     0.004 C 
ATOM     15  C   UNL     1      48.124  -6.176  25.978  1.00  0.00     0.002 C 
ATOM     16  C   UNL     1      47.163  -5.550  24.930  1.00  0.00    -0.004 C 
ATOM     17  C   UNL     1      47.334  -6.194  27.299  1.00  0.00     0.009 C 
ATOM     18  C   UNL     1      45.938  -5.019  25.719  1.00  0.00    -0.001 C 
ATOM     19  C   UNL     1      46.360  -5.016  27.181  1.00  0.00    -0.001 C 
ATOM     20  C   UNL     1      45.316  -3.655  25.329  1.00  0.00     0.036 C 
ATOM     21  C   UNL     1      45.128  -4.943  28.165  1.00  0.00    -0.024 C 
ATOM     22  C   UNL     1      44.467  -3.036  26.482  1.00  0.00     0.118 C 
ATOM     23  C   UNL     1      43.959  -4.120  27.478  1.00  0.00     0.026 C 
ATOM     24  C   UNL     1      45.611  -4.252  29.479  1.00  0.00     0.010 C 
ATOM     25  C   UNL     1      44.593  -6.360  28.505  1.00  0.00     0.012 C 
ATOM     26  C   UNL     1      42.902  -3.572  28.472  1.00  0.00     0.038 C 
ATOM     27  C   UNL     1      44.470  -3.849  30.416  1.00  0.00     0.032 C 
ATOM     28  C   UNL     1      43.504  -2.895  29.708  1.00  0.00     0.114 C 
ATOM     29  H   UNL     1      51.374  -4.442  27.970  1.00  0.00     0.348 HD
ENDROOT
BRANCH   6  30
ATOM     30  O   UNL     1      50.710  -2.946  24.404  1.00  0.00    -0.384 OA
ATOM     31  H   UNL     1      49.823  -2.911  24.847  1.00  0.00     0.211 HD
ENDBRANCH   6  30
BRANCH  22  32
ATOM     32  O   UNL     1      45.225  -2.072  27.168  1.00  0.00    -0.393 OA
ATOM     33  H   UNL     1      46.084  -1.976  26.678  1.00  0.00     0.210 HD
ENDBRANCH  22  32
BRANCH  28  34
ATOM     34  O   UNL     1      42.464  -2.540  30.581  1.00  0.00    -0.393 OA
ATOM     35  H   UNL     1      41.664  -2.365  30.021  1.00  0.00     0.210 HD
ENDBRANCH  28  34
TORSDOF 3
ENDMDL
MODEL 5
REMARK VINA RESULT:    -7.106      4.397      7.604
REMARK INTER + INTRA:          -7.729
REMARK INTER:                  -7.729
REMARK INTRA:                   0.000
REMARK UNBOUND:                 0.000
REMARK SMILES C[C@@H]1CC[C@H]2[N@@H+](C1)C[C@H]1[C@H]3C[C@H]4[C@@H](C[C@H](O)[C@@H]5C[C@@H](O)CC[C@]45C)[C@H]3CC[C@H]1[C@@]2(C)O
REMARK SMILES IDX 5 1 6 2 8 3 7 4 4 5 29 6 3 7 28 8 30 9 2 10 27 11 9 12 1 13
REMARK SMILES IDX 26 14 10 15 25 16 11 17 13 18 12 19 14 20 23 21 15 22 17 23
REMARK SMILES IDX 22 24 24 25 18 26 21 27 19 28 31 30 16 32 20 34
REMARK H PARENT 6 29 31 31 16 33 20 35
REMARK Flexibility Score: inf
ROOT
ATOM      1  C   UNL     1      53.066  -3.351  26.872  1.00  0.00     0.216 C 
ATOM      2  N   UNL     1      51.763  -2.825  27.408  1.00  0.00    -0.330 N 
ATOM      3  C   UNL     1      50.567  -3.588  26.970  1.00  0.00     0.266 C 
ATOM      4  C   UNL     1      51.561  -1.385  27.123  1.00  0.00     0.265 C 
ATOM      5  C   UNL     1      54.151  -2.238  26.763  1.00  0.00     0.069 C 
ATOM      6  C   UNL     1      52.899  -4.154  25.538  1.00  0.00     0.117 C 
ATOM      7  C   UNL     1      53.999  -1.217  27.890  1.00  0.00     0.015 C 
ATOM      8  C   UNL     1      51.957  -5.390  25.797  1.00  0.00     0.036 C 
ATOM      9  C   UNL     1      54.286  -4.663  25.050  1.00  0.00     0.049 C 
ATOM     10  C   UNL     1      52.625  -0.513  27.831  1.00  0.00     0.041 C 
ATOM     11  C   UNL     1      51.389  -6.000  24.480  1.00  0.00     0.007 C 
ATOM     12  C   UNL     1      50.857  -5.106  26.879  1.00  0.00     0.054 C 
ATOM     13  C   UNL     1      52.728   0.860  27.154  1.00  0.00     0.013 C 
ATOM     14  C   UNL     1      49.953  -5.553  24.213  1.00  0.00     0.004 C 
ATOM     15  C   UNL     1      49.604  -6.041  26.723  1.00  0.00     0.002 C 
ATOM     16  C   UNL     1      49.032  -6.162  25.284  1.00  0.00    -0.004 C 
ATOM     17  C   UNL     1      48.402  -5.678  27.612  1.00  0.00     0.009 C 
ATOM     18  C   UNL     1      47.571  -5.647  25.347  1.00  0.00    -0.001 C 
ATOM     19  C   UNL     1      47.447  -4.924  26.680  1.00  0.00    -0.001 C 
ATOM     20  C   UNL     1      47.026  -4.764  24.196  1.00  0.00     0.036 C 
ATOM     21  C   UNL     1      45.945  -4.728  27.123  1.00  0.00    -0.024 C 
ATOM     22  C   UNL     1      45.780  -3.929  24.625  1.00  0.00     0.118 C 
ATOM     23  C   UNL     1      45.036  -4.572  25.833  1.00  0.00     0.026 C 
ATOM     24  C   UNL     1      45.878  -3.452  28.021  1.00  0.00     0.010 C 
ATOM     25  C   UNL     1      45.433  -5.946  27.937  1.00  0.00     0.012 C 
ATOM     26  C   UNL     1      43.657  -3.915  26.105  1.00  0.00     0.038 C 
ATOM     27  C   UNL     1      44.452  -2.966  28.292  1.00  0.00     0.032 C 
ATOM     28  C   UNL     1      43.730  -2.658  26.977  1.00  0.00     0.114 C 
ATOM     29  H   UNL     1      51.799  -2.921  28.453  1.00  0.00     0.348 HD
ENDROOT
BRANCH   6  30
ATOM     30  O   UNL     1      52.328  -3.284  24.582  1.00  0.00    -0.384 OA
ATOM     31  H   UNL     1      51.478  -2.912  24.934  1.00  0.00     0.211 HD
ENDBRANCH   6  30
BRANCH  22  32
ATOM     32  O   UNL     1      46.171  -2.619  24.945  1.00  0.00    -0.393 OA
ATOM     33  H   UNL     1      46.382  -2.161  24.089  1.00  0.00     0.210 HD
ENDBRANCH  22  32
BRANCH  28  34
ATOM     34  O   UNL     1      42.425  -2.217  27.246  1.00  0.00    -0.393 OA
ATOM     35  H   UNL     1      42.077  -1.816  26.408  1.00  0.00     0.210 HD
ENDBRANCH  28  34
TORSDOF 3
ENDMDL
MODEL 6
REMARK VINA RESULT:    -7.085      4.792      8.673
REMARK INTER + INTRA:          -7.706
REMARK INTER:                  -7.706
REMARK INTRA:                   0.000
REMARK UNBOUND:                 0.000
REMARK SMILES C[C@@H]1CC[C@H]2[N@@H+](C1)C[C@H]1[C@H]3C[C@H]4[C@@H](C[C@H](O)[C@@H]5C[C@@H](O)CC[C@]45C)[C@H]3CC[C@H]1[C@@]2(C)O
REMARK SMILES IDX 5 1 6 2 8 3 7 4 4 5 29 6 3 7 28 8 30 9 2 10 27 11 9 12 1 13
REMARK SMILES IDX 26 14 10 15 25 16 11 17 13 18 12 19 14 20 23 21 15 22 17 23
REMARK SMILES IDX 22 24 24 25 18 26 21 27 19 28 31 30 16 32 20 34
REMARK H PARENT 6 29 31 31 16 33 20 35
REMARK Flexibility Score: inf
ROOT
ATOM      1  C   UNL     1      52.765   1.835  25.394  1.00  0.00     0.216 C 
ATOM      2  N   UNL     1      52.102   0.486  25.445  1.00  0.00    -0.330 N 
ATOM      3  C   UNL     1      50.652   0.502  25.127  1.00  0.00     0.266 C 
ATOM      4  C   UNL     1      52.315  -0.213  26.734  1.00  0.00     0.265 C 
ATOM      5  C   UNL     1      54.007   1.918  26.330  1.00  0.00     0.069 C 
ATOM      6  C   UNL     1      51.764   3.017  25.624  1.00  0.00     0.117 C 
ATOM      7  C   UNL     1      54.730   0.574  26.397  1.00  0.00     0.015 C 
ATOM      8  C   UNL     1      50.662   2.984  24.498  1.00  0.00     0.036 C 
ATOM      9  C   UNL     1      52.523   4.374  25.555  1.00  0.00     0.049 C 
ATOM     10  C   UNL     1      53.812  -0.532  26.965  1.00  0.00     0.041 C 
ATOM     11  C   UNL     1      49.404   3.828  24.863  1.00  0.00     0.007 C 
ATOM     12  C   UNL     1      50.321   1.530  24.018  1.00  0.00     0.054 C 
ATOM     13  C   UNL     1      54.084  -0.775  28.455  1.00  0.00     0.013 C 
ATOM     14  C   UNL     1      48.254   2.957  25.364  1.00  0.00     0.004 C 
ATOM     15  C   UNL     1      48.886   1.426  23.385  1.00  0.00     0.002 C 
ATOM     16  C   UNL     1      47.743   2.086  24.204  1.00  0.00    -0.004 C 
ATOM     17  C   UNL     1      48.404  -0.004  23.088  1.00  0.00     0.009 C 
ATOM     18  C   UNL     1      46.739   0.955  24.548  1.00  0.00    -0.001 C 
ATOM     19  C   UNL     1      47.471  -0.346  24.254  1.00  0.00    -0.001 C 
ATOM     20  C   UNL     1      46.096   0.912  25.957  1.00  0.00     0.036 C 
ATOM     21  C   UNL     1      46.487  -1.573  24.110  1.00  0.00    -0.024 C 
ATOM     22  C   UNL     1      45.543  -0.502  26.317  1.00  0.00     0.118 C 
ATOM     23  C   UNL     1      45.226  -1.344  25.045  1.00  0.00     0.026 C 
ATOM     24  C   UNL     1      47.270  -2.860  24.520  1.00  0.00     0.010 C 
ATOM     25  C   UNL     1      45.989  -1.727  22.648  1.00  0.00     0.012 C 
ATOM     26  C   UNL     1      44.432  -2.637  25.365  1.00  0.00     0.038 C 
ATOM     27  C   UNL     1      46.376  -4.088  24.709  1.00  0.00     0.032 C 
ATOM     28  C   UNL     1      45.313  -3.820  25.779  1.00  0.00     0.114 C 
ATOM     29  H   UNL     1      52.553  -0.107  24.706  1.00  0.00     0.348 HD
ENDROOT
BRANCH   6  30
ATOM     30  O   UNL     1      51.179   2.842  26.898  1.00  0.00    -0.384 OA
ATOM     31  H   UNL     1      51.650   2.118  27.385  1.00  0.00     0.211 HD
ENDBRANCH   6  30
BRANCH  22  32
ATOM     32  O   UNL     1      46.466  -1.184  27.126  1.00  0.00    -0.393 OA
ATOM     33  H   UNL     1      47.126  -0.513  27.443  1.00  0.00     0.210 HD
ENDBRANCH  22  32
BRANCH  28  34
ATOM     34  O   UNL     1      44.503  -4.955  25.935  1.00  0.00    -0.393 OA
ATOM     35  H   UNL     1      45.110  -5.739  25.976  1.00  0.00     0.210 HD
ENDBRANCH  28  34
TORSDOF 3
ENDMDL
MODEL 7
REMARK VINA RESULT:    -7.038      5.151      8.545
REMARK INTER + INTRA:          -7.655
REMARK INTER:                  -7.655
REMARK INTRA:                   0.000
REMARK UNBOUND:                 0.000
REMARK SMILES C[C@@H]1CC[C@H]2[N@@H+](C1)C[C@H]1[C@H]3C[C@H]4[C@@H](C[C@H](O)[C@@H]5C[C@@H](O)CC[C@]45C)[C@H]3CC[C@H]1[C@@]2(C)O
REMARK SMILES IDX 5 1 6 2 8 3 7 4 4 5 29 6 3 7 28 8 30 9 2 10 27 11 9 12 1 13
REMARK SMILES IDX 26 14 10 15 25 16 11 17 13 18 12 19 14 20 23 21 15 22 17 23
REMARK SMILES IDX 22 24 24 25 18 26 21 27 19 28 31 30 16 32 20 34
REMARK H PARENT 6 29 31 31 16 33 20 35
REMARK Flexibility Score: inf
ROOT
ATOM      1  C   UNL     1      54.470  -1.860  25.881  1.00  0.00     0.216 C 
ATOM      2  N   UNL     1      53.083  -1.631  26.415  1.00  0.00    -0.330 N 
ATOM      3  C   UNL     1      52.111  -2.702  26.079  1.00  0.00     0.266 C 
ATOM      4  C   UNL     1      52.523  -0.317  26.020  1.00  0.00     0.265 C 
ATOM      5  C   UNL     1      55.240  -0.526  25.647  1.00  0.00     0.069 C 
ATOM      6  C   UNL     1      54.495  -2.792  24.624  1.00  0.00     0.117 C 
ATOM      7  C   UNL     1      54.850   0.520  26.690  1.00  0.00     0.015 C 
ATOM      8  C   UNL     1      53.896  -4.197  25.013  1.00  0.00     0.036 C 
ATOM      9  C   UNL     1      55.960  -2.981  24.133  1.00  0.00     0.049 C 
ATOM     10  C   UNL     1      53.342   0.852  26.619  1.00  0.00     0.041 C 
ATOM     11  C   UNL     1      53.484  -5.041  23.770  1.00  0.00     0.007 C 
ATOM     12  C   UNL     1      52.772  -4.102  26.103  1.00  0.00     0.054 C 
ATOM     13  C   UNL     1      53.090   2.143  25.829  1.00  0.00     0.013 C 
ATOM     14  C   UNL     1      51.979  -4.991  23.514  1.00  0.00     0.004 C 
ATOM     15  C   UNL     1      51.792  -5.329  26.066  1.00  0.00     0.002 C 
ATOM     16  C   UNL     1      51.252  -5.714  24.661  1.00  0.00    -0.004 C 
ATOM     17  C   UNL     1      50.546  -5.200  26.961  1.00  0.00     0.009 C 
ATOM     18  C   UNL     1      49.709  -5.575  24.729  1.00  0.00    -0.001 C 
ATOM     19  C   UNL     1      49.423  -4.793  26.002  1.00  0.00    -0.001 C 
ATOM     20  C   UNL     1      48.947  -4.960  23.528  1.00  0.00     0.036 C 
ATOM     21  C   UNL     1      47.924  -4.938  26.476  1.00  0.00    -0.024 C 
ATOM     22  C   UNL     1      47.537  -4.427  23.928  1.00  0.00     0.118 C 
ATOM     23  C   UNL     1      46.991  -5.126  25.208  1.00  0.00     0.026 C 
ATOM     24  C   UNL     1      47.550  -3.646  27.269  1.00  0.00     0.010 C 
ATOM     25  C   UNL     1      47.744  -6.170  27.403  1.00  0.00     0.012 C 
ATOM     26  C   UNL     1      45.495  -4.812  25.470  1.00  0.00     0.038 C 
ATOM     27  C   UNL     1      46.051  -3.508  27.545  1.00  0.00     0.032 C 
ATOM     28  C   UNL     1      45.260  -3.505  26.234  1.00  0.00     0.114 C 
ATOM     29  H   UNL     1      53.153  -1.622  27.462  1.00  0.00     0.348 HD
ENDROOT
BRANCH   6  30
ATOM     30  O   UNL     1      53.713  -2.179  23.619  1.00  0.00    -0.384 OA
ATOM     31  H   UNL     1      52.750  -2.303  23.823  1.00  0.00     0.211 HD
ENDBRANCH   6  30
BRANCH  22  32
ATOM     32  O   UNL     1      47.590  -3.037  24.127  1.00  0.00    -0.393 OA
ATOM     33  H   UNL     1      46.931  -2.821  24.838  1.00  0.00     0.210 HD
ENDBRANCH  22  32
BRANCH  28  34
ATOM     34  O   UNL     1      43.889  -3.381  26.508  1.00  0.00    -0.393 OA
ATOM     35  H   UNL     1      43.700  -3.956  27.295  1.00  0.00     0.210 HD
ENDBRANCH  28  34
TORSDOF 3
ENDMDL
MODEL 8
REMARK VINA RESULT:    -6.841      5.003      8.506
REMARK INTER + INTRA:          -7.441
REMARK INTER:                  -7.441
REMARK INTRA:                   0.000
REMARK UNBOUND:                 0.000
REMARK SMILES C[C@@H]1CC[C@H]2[N@@H+](C1)C[C@H]1[C@H]3C[C@H]4[C@@H](C[C@H](O)[C@@H]5C[C@@H](O)CC[C@]45C)[C@H]3CC[C@H]1[C@@]2(C)O
REMARK SMILES IDX 5 1 6 2 8 3 7 4 4 5 29 6 3 7 28 8 30 9 2 10 27 11 9 12 1 13
REMARK SMILES IDX 26 14 10 15 25 16 11 17 13 18 12 19 14 20 23 21 15 22 17 23
REMARK SMILES IDX 22 24 24 25 18 26 21 27 19 28 31 30 16 32 20 34
REMARK H PARENT 6 29 31 31 16 33 20 35
REMARK Flexibility Score: inf
ROOT
ATOM      1  C   UNL     1      46.440  -3.331  26.680  1.00  0.00     0.216 C 
ATOM      2  N   UNL     1      47.905  -3.078  26.900  1.00  0.00    -0.330 N 
ATOM      3  C   UNL     1      48.326  -1.672  26.674  1.00  0.00     0.266 C 
ATOM      4  C   UNL     1      48.772  -3.984  26.111  1.00  0.00     0.265 C 
ATOM      5  C   UNL     1      46.151  -4.804  26.263  1.00  0.00     0.069 C 
ATOM      6  C   UNL     1      45.780  -2.296  25.707  1.00  0.00     0.117 C 
ATOM      7  C   UNL     1      47.127  -5.764  26.942  1.00  0.00     0.015 C 
ATOM      8  C   UNL     1      45.927  -0.851  26.318  1.00  0.00     0.036 C 
ATOM      9  C   UNL     1      44.268  -2.624  25.532  1.00  0.00     0.049 C 
ATOM     10  C   UNL     1      48.588  -5.460  26.539  1.00  0.00     0.041 C 
ATOM     11  C   UNL     1      45.696   0.274  25.264  1.00  0.00     0.007 C 
ATOM     12  C   UNL     1      47.246  -0.668  27.147  1.00  0.00     0.054 C 
ATOM     13  C   UNL     1      49.071  -6.403  25.430  1.00  0.00     0.013 C 
ATOM     14  C   UNL     1      47.011   0.862  24.754  1.00  0.00     0.004 C 
ATOM     15  C   UNL     1      47.694   0.835  27.242  1.00  0.00     0.002 C 
ATOM     16  C   UNL     1      47.699   1.619  25.901  1.00  0.00    -0.004 C 
ATOM     17  C   UNL     1      49.086   1.066  27.856  1.00  0.00     0.009 C 
ATOM     18  C   UNL     1      49.158   2.090  25.672  1.00  0.00    -0.001 C 
ATOM     19  C   UNL     1      50.006   1.291  26.651  1.00  0.00    -0.001 C 
ATOM     20  C   UNL     1      49.764   2.024  24.248  1.00  0.00     0.036 C 
ATOM     21  C   UNL     1      51.427   1.937  26.886  1.00  0.00    -0.024 C 
ATOM     22  C   UNL     1      51.324   2.032  24.262  1.00  0.00     0.118 C 
ATOM     23  C   UNL     1      51.891   2.677  25.562  1.00  0.00     0.026 C 
ATOM     24  C   UNL     1      52.414   0.788  27.268  1.00  0.00     0.010 C 
ATOM     25  C   UNL     1      51.390   2.976  28.039  1.00  0.00     0.012 C 
ATOM     26  C   UNL     1      53.418   2.939  25.485  1.00  0.00     0.038 C 
ATOM     27  C   UNL     1      53.884   1.209  27.246  1.00  0.00     0.032 C 
ATOM     28  C   UNL     1      54.275   1.727  25.859  1.00  0.00     0.114 C 
ATOM     29  H   UNL     1      48.104  -3.280  27.911  1.00  0.00     0.348 HD
ENDROOT
BRANCH   6  30
ATOM     30  O   UNL     1      46.451  -2.384  24.467  1.00  0.00    -0.384 OA
ATOM     31  H   UNL     1      47.168  -3.066  24.523  1.00  0.00     0.211 HD
ENDBRANCH   6  30
BRANCH  22  32
ATOM     32  O   UNL     1      51.810   0.722  24.126  1.00  0.00    -0.393 OA
ATOM     33  H   UNL     1      52.741   0.720  24.475  1.00  0.00     0.210 HD
ENDBRANCH  22  32
BRANCH  28  34
ATOM     34  O   UNL     1      55.626   2.110  25.860  1.00  0.00    -0.393 OA
ATOM     35  H   UNL     1      56.162   1.275  25.898  1.00  0.00     0.210 HD
ENDBRANCH  28  34
TORSDOF 3
ENDMDL
MODEL 9
REMARK VINA RESULT:    -6.835      3.539      6.393
REMARK INTER + INTRA:          -7.434
REMARK INTER:                  -7.434
REMARK INTRA:                   0.000
REMARK UNBOUND:                 0.000
REMARK SMILES C[C@@H]1CC[C@H]2[N@@H+](C1)C[C@H]1[C@H]3C[C@H]4[C@@H](C[C@H](O)[C@@H]5C[C@@H](O)CC[C@]45C)[C@H]3CC[C@H]1[C@@]2(C)O
REMARK SMILES IDX 5 1 6 2 8 3 7 4 4 5 29 6 3 7 28 8 30 9 2 10 27 11 9 12 1 13
REMARK SMILES IDX 26 14 10 15 25 16 11 17 13 18 12 19 14 20 23 21 15 22 17 23
REMARK SMILES IDX 22 24 24 25 18 26 21 27 19 28 31 30 16 32 20 34
REMARK H PARENT 6 29 31 31 16 33 20 35
REMARK Flexibility Score: inf
ROOT
ATOM      1  C   UNL     1      49.866   0.080  27.090  1.00  0.00     0.216 C 
ATOM      2  N   UNL     1      49.142  -1.054  27.762  1.00  0.00    -0.330 N 
ATOM      3  C   UNL     1      47.845  -1.413  27.135  1.00  0.00     0.266 C 
ATOM      4  C   UNL     1      48.942  -0.831  29.213  1.00  0.00     0.265 C 
ATOM      5  C   UNL     1      50.794   0.853  28.073  1.00  0.00     0.069 C 
ATOM      6  C   UNL     1      48.908   1.033  26.299  1.00  0.00     0.117 C 
ATOM      7  C   UNL     1      51.393  -0.091  29.114  1.00  0.00     0.015 C 
ATOM      8  C   UNL     1      48.170   0.207  25.178  1.00  0.00     0.036 C 
ATOM      9  C   UNL     1      49.729   2.176  25.634  1.00  0.00     0.049 C 
ATOM     10  C   UNL     1      50.292  -0.760  29.967  1.00  0.00     0.041 C 
ATOM     11  C   UNL     1      46.909   0.936  24.625  1.00  0.00     0.007 C 
ATOM     12  C   UNL     1      47.899  -1.282  25.593  1.00  0.00     0.054 C 
ATOM     13  C   UNL     1      50.116  -0.047  31.314  1.00  0.00     0.013 C 
ATOM     14  C   UNL     1      45.617   0.386  25.227  1.00  0.00     0.004 C 
ATOM     15  C   UNL     1      46.700  -1.918  24.803  1.00  0.00     0.002 C 
ATOM     16  C   UNL     1      45.409  -1.056  24.735  1.00  0.00    -0.004 C 
ATOM     17  C   UNL     1      46.243  -3.299  25.306  1.00  0.00     0.009 C 
ATOM     18  C   UNL     1      44.288  -1.887  25.411  1.00  0.00    -0.001 C 
ATOM     19  C   UNL     1      45.000  -3.008  26.154  1.00  0.00    -0.001 C 
ATOM     20  C   UNL     1      43.270  -1.179  26.339  1.00  0.00     0.036 C 
ATOM     21  C   UNL     1      44.031  -4.199  26.522  1.00  0.00    -0.024 C 
ATOM     22  C   UNL     1      42.561  -2.170  27.312  1.00  0.00     0.118 C 
ATOM     23  C   UNL     1      42.572  -3.629  26.768  1.00  0.00     0.026 C 
ATOM     24  C   UNL     1      44.594  -4.890  27.804  1.00  0.00     0.010 C 
ATOM     25  C   UNL     1      43.962  -5.243  25.375  1.00  0.00     0.012 C 
ATOM     26  C   UNL     1      41.650  -4.578  27.577  1.00  0.00     0.038 C 
ATOM     27  C   UNL     1      43.617  -5.876  28.449  1.00  0.00     0.032 C 
ATOM     28  C   UNL     1      42.311  -5.170  28.825  1.00  0.00     0.114 C 
ATOM     29  H   UNL     1      49.751  -1.904  27.672  1.00  0.00     0.348 HD
ENDROOT
BRANCH   6  30
ATOM     30  O   UNL     1      47.977   1.565  27.219  1.00  0.00    -0.384 OA
ATOM     31  H   UNL     1      48.414   1.694  28.100  1.00  0.00     0.211 HD
ENDBRANCH   6  30
BRANCH  22  32
ATOM     32  O   UNL     1      43.177  -2.125  28.574  1.00  0.00    -0.393 OA
ATOM     33  H   UNL     1      42.693  -2.767  29.156  1.00  0.00     0.210 HD
ENDBRANCH  22  32
BRANCH  28  34
ATOM     34  O   UNL     1      41.428  -6.091  29.412  1.00  0.00    -0.393 OA
ATOM     35  H   UNL     1      40.513  -5.723  29.302  1.00  0.00     0.210 HD
ENDBRANCH  28  34
TORSDOF 3
ENDMDL
