MODEL 1
REMARK VINA RESULT:    -4.136      0.000      0.000
REMARK INTER + INTRA:          -6.852
REMARK INTER:                  -6.312
REMARK INTRA:                  -0.540
REMARK UNBOUND:                -0.540
REMARK SMILES O=C([O-])CCCCCCCCC(=O)[O-]
REMARK SMILES IDX 7 1 6 2 5 3 4 4 2 5 1 6 3 7 8 8 9 9 10 10 11 11 12 12 13 13
REMARK SMILES IDX 14 14
REMARK H PARENT
REMARK Flexibility Score: inf
ROOT
ATOM      1  C   UNL     1      25.584   1.741  43.167  1.00  0.00     0.000 C 
ENDROOT
BRANCH   1   2
ATOM      2  C   UNL     1      26.421   0.658  43.865  1.00  0.00     0.000 C 
BRANCH   2   3
ATOM      3  C   UNL     1      26.408  -0.680  43.109  1.00  0.00     0.006 C 
BRANCH   3   4
ATOM      4  C   UNL     1      27.779  -1.369  43.104  1.00  0.00     0.053 C 
BRANCH   4   5
ATOM      5  C   UNL     1      27.982  -2.136  44.373  1.00  0.00     0.041 C 
ATOM      6  O   UNL     1      28.833  -1.749  45.217  1.00  0.00    -0.550 OA
ATOM      7  O   UNL     1      27.268  -3.305  44.601  1.00  0.00    -0.550 OA
ENDBRANCH   4   5
ENDBRANCH   3   4
ENDBRANCH   2   3
ENDBRANCH   1   2
BRANCH   1   8
ATOM      8  C   UNL     1      26.431   2.992  42.886  1.00  0.00     0.000 C 
BRANCH   8   9
ATOM      9  C   UNL     1      26.239   3.527  41.458  1.00  0.00     0.000 C 
BRANCH   9  10
ATOM     10  C   UNL     1      25.558   2.510  40.529  1.00  0.00     0.006 C 
BRANCH  10  11
ATOM     11  C   UNL     1      26.317   2.383  39.205  1.00  0.00     0.053 C 
BRANCH  11  12
ATOM     12  C   UNL     1      26.499   0.944  38.840  1.00  0.00     0.041 C 
ATOM     13  O   UNL     1      25.713   0.392  38.025  1.00  0.00    -0.550 OA
ATOM     14  O   UNL     1      27.565   0.223  39.362  1.00  0.00    -0.550 OA
ENDBRANCH  11  12
ENDBRANCH  10  11
ENDBRANCH   9  10
ENDBRANCH   8   9
ENDBRANCH   1   8
TORSDOF 9
ENDMDL
MODEL 2
REMARK VINA RESULT:    -4.086      1.216      1.726
REMARK INTER + INTRA:          -6.776
REMARK INTER:                  -6.291
REMARK INTRA:                  -0.485
REMARK UNBOUND:                -0.540
REMARK SMILES O=C([O-])CCCCCCCCC(=O)[O-]
REMARK SMILES IDX 7 1 6 2 5 3 4 4 2 5 1 6 3 7 8 8 9 9 10 10 11 11 12 12 13 13
REMARK SMILES IDX 14 14
REMARK H PARENT
REMARK Flexibility Score: inf
ROOT
ATOM      1  C   UNL     1      26.474   0.559  43.990  1.00  0.00     0.000 C 
ENDROOT
BRANCH   1   2
ATOM      2  C   UNL     1      26.480  -0.712  43.127  1.00  0.00     0.000 C 
BRANCH   2   3
ATOM      3  C   UNL     1      27.825  -1.454  43.173  1.00  0.00     0.006 C 
BRANCH   3   4
ATOM      4  C   UNL     1      28.250  -1.817  44.603  1.00  0.00     0.053 C 
BRANCH   4   5
ATOM      5  C   UNL     1      27.858  -3.226  44.921  1.00  0.00     0.041 C 
ATOM      6  O   UNL     1      27.484  -3.531  46.084  1.00  0.00    -0.550 OA
ATOM      7  O   UNL     1      27.953  -4.211  43.947  1.00  0.00    -0.550 OA
ENDBRANCH   4   5
ENDBRANCH   3   4
ENDBRANCH   2   3
ENDBRANCH   1   2
BRANCH   1   8
ATOM      8  C   UNL     1      25.475   1.589  43.441  1.00  0.00     0.000 C 
BRANCH   8   9
ATOM      9  C   UNL     1      26.163   2.732  42.677  1.00  0.00     0.000 C 
BRANCH   9  10
ATOM     10  C   UNL     1      25.606   2.917  41.257  1.00  0.00     0.006 C 
BRANCH  10  11
ATOM     11  C   UNL     1      26.103   1.809  40.325  1.00  0.00     0.053 C 
BRANCH  11  12
ATOM     12  C   UNL     1      25.609   2.036  38.931  1.00  0.00     0.041 C 
ATOM     13  O   UNL     1      24.455   2.501  38.735  1.00  0.00    -0.550 OA
ATOM     14  O   UNL     1      26.440   1.780  37.848  1.00  0.00    -0.550 OA
ENDBRANCH  11  12
ENDBRANCH  10  11
ENDBRANCH   9  10
ENDBRANCH   8   9
ENDBRANCH   1   8
TORSDOF 9
ENDMDL
MODEL 3
REMARK VINA RESULT:    -3.988      0.558      5.531
REMARK INTER + INTRA:          -6.626
REMARK INTER:                  -6.057
REMARK INTRA:                  -0.569
REMARK UNBOUND:                -0.540
REMARK SMILES O=C([O-])CCCCCCCCC(=O)[O-]
REMARK SMILES IDX 7 1 6 2 5 3 4 4 2 5 1 6 3 7 8 8 9 9 10 10 11 11 12 12 13 13
REMARK SMILES IDX 14 14
REMARK H PARENT
REMARK Flexibility Score: inf
ROOT
ATOM      1  C   UNL     1      26.317   2.759  42.947  1.00  0.00     0.000 C 
ENDROOT
BRANCH   1   2
ATOM      2  C   UNL     1      25.638   3.326  41.691  1.00  0.00     0.000 C 
BRANCH   2   3
ATOM      3  C   UNL     1      26.384   2.963  40.397  1.00  0.00     0.006 C 
BRANCH   3   4
ATOM      4  C   UNL     1      25.509   2.174  39.413  1.00  0.00     0.053 C 
BRANCH   4   5
ATOM      5  C   UNL     1      26.167   0.878  39.055  1.00  0.00     0.041 C 
ATOM      6  O   UNL     1      25.759   0.213  38.068  1.00  0.00    -0.550 OA
ATOM      7  O   UNL     1      27.199   0.382  39.842  1.00  0.00    -0.550 OA
ENDBRANCH   4   5
ENDBRANCH   3   4
ENDBRANCH   2   3
ENDBRANCH   1   2
BRANCH   1   8
ATOM      8  C   UNL     1      25.623   1.469  43.411  1.00  0.00     0.000 C 
BRANCH   8   9
ATOM      9  C   UNL     1      26.620   0.390  43.863  1.00  0.00     0.000 C 
BRANCH   9  10
ATOM     10  C   UNL     1      26.463  -0.926  43.087  1.00  0.00     0.006 C 
BRANCH  10  11
ATOM     11  C   UNL     1      27.746  -1.759  43.156  1.00  0.00     0.053 C 
BRANCH  11  12
ATOM     12  C   UNL     1      27.727  -2.651  44.357  1.00  0.00     0.041 C 
ATOM     13  O   UNL     1      26.931  -3.626  44.411  1.00  0.00    -0.550 OA
ATOM     14  O   UNL     1      28.622  -2.437  45.397  1.00  0.00    -0.550 OA
ENDBRANCH  11  12
ENDBRANCH  10  11
ENDBRANCH   9  10
ENDBRANCH   8   9
ENDBRANCH   1   8
TORSDOF 9
ENDMDL
MODEL 4
REMARK VINA RESULT:    -3.922      6.596      9.150
REMARK INTER + INTRA:          -6.526
REMARK INTER:                  -5.727
REMARK INTRA:                  -0.799
REMARK UNBOUND:                -0.540
REMARK SMILES O=C([O-])CCCCCCCCC(=O)[O-]
REMARK SMILES IDX 7 1 6 2 5 3 4 4 2 5 1 6 3 7 8 8 9 9 10 10 11 11 12 12 13 13
REMARK SMILES IDX 14 14
REMARK H PARENT
REMARK Flexibility Score: inf
ROOT
ATOM      1  C   UNL     1      22.107  -4.886  36.181  1.00  0.00     0.000 C 
ENDROOT
BRANCH   1   2
ATOM      2  C   UNL     1      22.618  -3.584  36.817  1.00  0.00     0.000 C 
BRANCH   2   3
ATOM      3  C   UNL     1      23.771  -2.949  36.025  1.00  0.00     0.006 C 
BRANCH   3   4
ATOM      4  C   UNL     1      23.975  -1.466  36.365  1.00  0.00     0.053 C 
BRANCH   4   5
ATOM      5  C   UNL     1      25.346  -1.243  36.922  1.00  0.00     0.041 C 
ATOM      6  O   UNL     1      25.620  -0.168  37.517  1.00  0.00    -0.550 OA
ATOM      7  O   UNL     1      26.335  -2.200  36.738  1.00  0.00    -0.550 OA
ENDBRANCH   4   5
ENDBRANCH   3   4
ENDBRANCH   2   3
ENDBRANCH   1   2
BRANCH   1   8
ATOM      8  C   UNL     1      22.810  -5.154  34.842  1.00  0.00     0.000 C 
BRANCH   8   9
ATOM      9  C   UNL     1      23.121  -6.644  34.624  1.00  0.00     0.000 C 
BRANCH   9  10
ATOM     10  C   UNL     1      24.618  -6.914  34.412  1.00  0.00     0.006 C 
BRANCH  10  11
ATOM     11  C   UNL     1      25.366  -5.620  34.079  1.00  0.00     0.053 C 
BRANCH  11  12
ATOM     12  C   UNL     1      26.460  -5.377  35.071  1.00  0.00     0.041 C 
ATOM     13  O   UNL     1      27.594  -4.990  34.682  1.00  0.00    -0.550 OA
ATOM     14  O   UNL     1      26.214  -5.529  36.429  1.00  0.00    -0.550 OA
ENDBRANCH  11  12
ENDBRANCH  10  11
ENDBRANCH   9  10
ENDBRANCH   8   9
ENDBRANCH   1   8
TORSDOF 9
ENDMDL
MODEL 5
REMARK VINA RESULT:    -3.892      1.793      3.084
REMARK INTER + INTRA:          -6.480
REMARK INTER:                  -5.887
REMARK INTRA:                  -0.594
REMARK UNBOUND:                -0.540
REMARK SMILES O=C([O-])CCCCCCCCC(=O)[O-]
REMARK SMILES IDX 7 1 6 2 5 3 4 4 2 5 1 6 3 7 8 8 9 9 10 10 11 11 12 12 13 13
REMARK SMILES IDX 14 14
REMARK H PARENT
REMARK Flexibility Score: inf
ROOT
ATOM      1  C   UNL     1      27.555  -1.211  43.165  1.00  0.00     0.000 C 
ENDROOT
BRANCH   1   2
ATOM      2  C   UNL     1      28.194  -1.628  44.499  1.00  0.00     0.000 C 
BRANCH   2   3
ATOM      3  C   UNL     1      27.981  -3.116  44.818  1.00  0.00     0.006 C 
BRANCH   3   4
ATOM      4  C   UNL     1      27.678  -3.952  43.567  1.00  0.00     0.053 C 
BRANCH   4   5
ATOM      5  C   UNL     1      26.373  -4.668  43.721  1.00  0.00     0.041 C 
ATOM      6  O   UNL     1      25.290  -4.065  43.504  1.00  0.00    -0.550 OA
ATOM      7  O   UNL     1      26.352  -5.988  44.154  1.00  0.00    -0.550 OA
ENDBRANCH   4   5
ENDBRANCH   3   4
ENDBRANCH   2   3
ENDBRANCH   1   2
BRANCH   1   8
ATOM      8  C   UNL     1      26.230  -0.470  43.400  1.00  0.00     0.000 C 
BRANCH   8   9
ATOM      9  C   UNL     1      26.436   1.003  43.789  1.00  0.00     0.000 C 
BRANCH   9  10
ATOM     10  C   UNL     1      25.440   1.945  43.095  1.00  0.00     0.006 C 
BRANCH  10  11
ATOM     11  C   UNL     1      26.118   2.719  41.962  1.00  0.00     0.053 C 
BRANCH  11  12
ATOM     12  C   UNL     1      25.810   2.090  40.640  1.00  0.00     0.041 C 
ATOM     13  O   UNL     1      24.890   2.554  39.915  1.00  0.00    -0.550 OA
ATOM     14  O   UNL     1      26.571   1.021  40.184  1.00  0.00    -0.550 OA
ENDBRANCH  11  12
ENDBRANCH  10  11
ENDBRANCH   9  10
ENDBRANCH   8   9
ENDBRANCH   1   8
TORSDOF 9
ENDMDL
MODEL 6
REMARK VINA RESULT:    -3.868      7.513      9.162
REMARK INTER + INTRA:          -6.442
REMARK INTER:                  -5.386
REMARK INTRA:                  -1.057
REMARK UNBOUND:                -0.540
REMARK SMILES O=C([O-])CCCCCCCCC(=O)[O-]
REMARK SMILES IDX 7 1 6 2 5 3 4 4 2 5 1 6 3 7 8 8 9 9 10 10 11 11 12 12 13 13
REMARK SMILES IDX 14 14
REMARK H PARENT
REMARK Flexibility Score: inf
ROOT
ATOM      1  C   UNL     1      24.426  -7.014  34.877  1.00  0.00     0.000 C 
ENDROOT
BRANCH   1   2
ATOM      2  C   UNL     1      24.767  -6.824  36.363  1.00  0.00     0.000 C 
BRANCH   2   3
ATOM      3  C   UNL     1      26.076  -6.048  36.577  1.00  0.00     0.006 C 
BRANCH   3   4
ATOM      4  C   UNL     1      26.698  -5.564  35.260  1.00  0.00     0.053 C 
BRANCH   4   5
ATOM      5  C   UNL     1      27.602  -4.397  35.508  1.00  0.00     0.041 C 
ATOM      6  O   UNL     1      27.590  -3.814  36.624  1.00  0.00    -0.550 OA
ATOM      7  O   UNL     1      28.421  -3.924  34.491  1.00  0.00    -0.550 OA
ENDBRANCH   4   5
ENDBRANCH   3   4
ENDBRANCH   2   3
ENDBRANCH   1   2
BRANCH   1   8
ATOM      8  C   UNL     1      23.175  -6.209  34.494  1.00  0.00     0.000 C 
BRANCH   8   9
ATOM      9  C   UNL     1      22.445  -5.632  35.717  1.00  0.00     0.000 C 
BRANCH   9  10
ATOM     10  C   UNL     1      22.153  -4.130  35.581  1.00  0.00     0.006 C 
BRANCH  10  11
ATOM     11  C   UNL     1      22.885  -3.330  36.661  1.00  0.00     0.053 C 
BRANCH  11  12
ATOM     12  C   UNL     1      24.112  -2.686  36.097  1.00  0.00     0.041 C 
ATOM     13  O   UNL     1      24.428  -2.873  34.891  1.00  0.00    -0.550 OA
ATOM     14  O   UNL     1      24.881  -1.842  36.886  1.00  0.00    -0.550 OA
ENDBRANCH  11  12
ENDBRANCH  10  11
ENDBRANCH   9  10
ENDBRANCH   8   9
ENDBRANCH   1   8
TORSDOF 9
ENDMDL
MODEL 7
REMARK VINA RESULT:    -3.857      7.418      9.310
REMARK INTER + INTRA:          -6.426
REMARK INTER:                  -5.431
REMARK INTRA:                  -0.995
REMARK UNBOUND:                -0.540
REMARK SMILES O=C([O-])CCCCCCCCC(=O)[O-]
REMARK SMILES IDX 7 1 6 2 5 3 4 4 2 5 1 6 3 7 8 8 9 9 10 10 11 11 12 12 13 13
REMARK SMILES IDX 14 14
REMARK H PARENT
REMARK Flexibility Score: inf
ROOT
ATOM      1  C   UNL     1      23.093  -6.218  34.712  1.00  0.00     0.000 C 
ENDROOT
BRANCH   1   2
ATOM      2  C   UNL     1      22.476  -5.603  35.977  1.00  0.00     0.000 C 
BRANCH   2   3
ATOM      3  C   UNL     1      22.077  -4.131  35.788  1.00  0.00     0.006 C 
BRANCH   3   4
ATOM      4  C   UNL     1      22.796  -3.194  36.768  1.00  0.00     0.053 C 
BRANCH   4   5
ATOM      5  C   UNL     1      23.841  -2.395  36.053  1.00  0.00     0.041 C 
ATOM      6  O   UNL     1      24.268  -1.321  36.553  1.00  0.00    -0.550 OA
ATOM      7  O   UNL     1      24.306  -2.811  34.812  1.00  0.00    -0.550 OA
ENDBRANCH   4   5
ENDBRANCH   3   4
ENDBRANCH   2   3
ENDBRANCH   1   2
BRANCH   1   8
ATOM      8  C   UNL     1      24.607  -6.417  34.881  1.00  0.00     0.000 C 
BRANCH   8   9
ATOM      9  C   UNL     1      25.071  -6.224  36.333  1.00  0.00     0.000 C 
BRANCH   9  10
ATOM     10  C   UNL     1      26.539  -5.781  36.434  1.00  0.00     0.006 C 
BRANCH  10  11
ATOM     11  C   UNL     1      26.944  -4.945  35.217  1.00  0.00     0.053 C 
BRANCH  11  12
ATOM     12  C   UNL     1      27.625  -3.685  35.650  1.00  0.00     0.041 C 
ATOM     13  O   UNL     1      28.518  -3.168  34.927  1.00  0.00    -0.550 OA
ATOM     14  O   UNL     1      27.241  -3.055  36.826  1.00  0.00    -0.550 OA
ENDBRANCH  11  12
ENDBRANCH  10  11
ENDBRANCH   9  10
ENDBRANCH   8   9
ENDBRANCH   1   8
TORSDOF 9
ENDMDL
MODEL 8
REMARK VINA RESULT:    -3.811      2.304      7.017
REMARK INTER + INTRA:          -6.357
REMARK INTER:                  -6.031
REMARK INTRA:                  -0.326
REMARK UNBOUND:                -0.540
REMARK SMILES O=C([O-])CCCCCCCCC(=O)[O-]
REMARK SMILES IDX 7 1 6 2 5 3 4 4 2 5 1 6 3 7 8 8 9 9 10 10 11 11 12 12 13 13
REMARK SMILES IDX 14 14
REMARK H PARENT
REMARK Flexibility Score: inf
ROOT
ATOM      1  C   UNL     1      26.391  -0.367  43.139  1.00  0.00     0.000 C 
ENDROOT
BRANCH   1   2
ATOM      2  C   UNL     1      26.352   0.771  44.170  1.00  0.00     0.000 C 
BRANCH   2   3
ATOM      3  C   UNL     1      26.389   2.163  43.519  1.00  0.00     0.006 C 
BRANCH   3   4
ATOM      4  C   UNL     1      25.496   2.256  42.274  1.00  0.00     0.053 C 
BRANCH   4   5
ATOM      5  C   UNL     1      26.178   3.047  41.202  1.00  0.00     0.041 C 
ATOM      6  O   UNL     1      26.774   4.118  41.488  1.00  0.00    -0.550 OA
ATOM      7  O   UNL     1      26.113   2.626  39.880  1.00  0.00    -0.550 OA
ENDBRANCH   4   5
ENDBRANCH   3   4
ENDBRANCH   2   3
ENDBRANCH   1   2
BRANCH   1   8
ATOM      8  C   UNL     1      27.704  -1.156  43.242  1.00  0.00     0.000 C 
BRANCH   8   9
ATOM      9  C   UNL     1      27.570  -2.418  44.110  1.00  0.00     0.000 C 
BRANCH   9  10
ATOM     10  C   UNL     1      28.455  -2.372  45.365  1.00  0.00     0.006 C 
BRANCH  10  11
ATOM     11  C   UNL     1      28.489  -3.735  46.061  1.00  0.00     0.053 C 
BRANCH  11  12
ATOM     12  C   UNL     1      29.878  -4.060  46.511  1.00  0.00     0.041 C 
ATOM     13  O   UNL     1      30.298  -5.247  46.465  1.00  0.00    -0.550 OA
ATOM     14  O   UNL     1      30.726  -3.046  46.936  1.00  0.00    -0.550 OA
ENDBRANCH  11  12
ENDBRANCH  10  11
ENDBRANCH   9  10
ENDBRANCH   8   9
ENDBRANCH   1   8
TORSDOF 9
ENDMDL
MODEL 9
REMARK VINA RESULT:    -3.805      3.399      5.423
REMARK INTER + INTRA:          -6.347
REMARK INTER:                  -5.830
REMARK INTRA:                  -0.517
REMARK UNBOUND:                -0.540
REMARK SMILES O=C([O-])CCCCCCCCC(=O)[O-]
REMARK SMILES IDX 7 1 6 2 5 3 4 4 2 5 1 6 3 7 8 8 9 9 10 10 11 11 12 12 13 13
REMARK SMILES IDX 14 14
REMARK H PARENT
REMARK Flexibility Score: inf
ROOT
ATOM      1  C   UNL     1      27.219  -4.344  43.480  1.00  0.00     0.000 C 
ENDROOT
BRANCH   1   2
ATOM      2  C   UNL     1      25.737  -4.489  43.856  1.00  0.00     0.000 C 
BRANCH   2   3
ATOM      3  C   UNL     1      25.355  -5.932  44.219  1.00  0.00     0.006 C 
BRANCH   3   4
ATOM      4  C   UNL     1      26.080  -6.437  45.474  1.00  0.00     0.053 C 
BRANCH   4   5
ATOM      5  C   UNL     1      25.597  -5.703  46.686  1.00  0.00     0.041 C 
ATOM      6  O   UNL     1      24.448  -5.931  47.147  1.00  0.00    -0.550 OA
ATOM      7  O   UNL     1      26.397  -4.733  47.275  1.00  0.00    -0.550 OA
ENDBRANCH   4   5
ENDBRANCH   3   4
ENDBRANCH   2   3
ENDBRANCH   1   2
BRANCH   1   8
ATOM      8  C   UNL     1      27.858  -3.155  44.214  1.00  0.00     0.000 C 
BRANCH   8   9
ATOM      9  C   UNL     1      27.915  -1.887  43.348  1.00  0.00     0.000 C 
BRANCH   9  10
ATOM     10  C   UNL     1      27.154  -0.707  43.972  1.00  0.00     0.006 C 
BRANCH  10  11
ATOM     11  C   UNL     1      26.432   0.109  42.897  1.00  0.00     0.053 C 
BRANCH  11  12
ATOM     12  C   UNL     1      25.932   1.400  43.466  1.00  0.00     0.041 C 
ATOM     13  O   UNL     1      25.440   1.433  44.625  1.00  0.00    -0.550 OA
ATOM     14  O   UNL     1      26.054   2.575  42.736  1.00  0.00    -0.550 OA
ENDBRANCH  11  12
ENDBRANCH  10  11
ENDBRANCH   9  10
ENDBRANCH   8   9
ENDBRANCH   1   8
TORSDOF 9
ENDMDL
