MODEL 1
REMARK VINA RESULT:    15.826      0.000      0.000
REMARK INTER + INTRA:          17.465
REMARK INTER:                  17.677
REMARK INTRA:                  -0.211
REMARK UNBOUND:                -0.211
REMARK SMILES CC(C)c1ccc(C(=O)[O-])cc1
REMARK SMILES IDX 7 1 6 2 11 3 5 4 12 5 4 6 8 7 9 8 10 9 2 10 1 11 3 12
REMARK H PARENT
REMARK Flexibility Score: inf
ROOT
ATOM      1  C   UNL     1      10.157  75.535   1.245  1.00  0.00    -0.003 A 
ATOM      2  C   UNL     1       9.274  75.816   2.302  1.00  0.00     0.010 A 
ATOM      3  C   UNL     1      11.514  75.869   1.386  1.00  0.00     0.010 A 
ATOM      4  C   UNL     1       9.741  76.419   3.474  1.00  0.00     0.004 A 
ATOM      5  C   UNL     1      11.981  76.471   2.558  1.00  0.00     0.004 A 
ATOM      6  C   UNL     1      11.099  76.753   3.616  1.00  0.00    -0.045 A 
ENDROOT
BRANCH   1   7
ATOM      7  C   UNL     1       9.670  74.898   0.003  1.00  0.00     0.071 C 
ATOM      8  O   UNL     1       8.512  75.142  -0.430  1.00  0.00    -0.545 OA
ATOM      9  O   UNL     1      10.483  74.021  -0.707  1.00  0.00    -0.545 OA
ENDBRANCH   1   7
BRANCH   6  10
ATOM     10  C   UNL     1      11.618  77.407   4.882  1.00  0.00     0.013 C 
ATOM     11  C   UNL     1      12.970  78.089   4.637  1.00  0.00     0.012 C 
ATOM     12  C   UNL     1      11.710  76.394   6.030  1.00  0.00     0.012 C 
ENDBRANCH   6  10
TORSDOF 2
ENDMDL
MODEL 2
REMARK VINA RESULT:    15.999      3.044      5.043
REMARK INTER + INTRA:          17.658
REMARK INTER:                  17.875
REMARK INTRA:                  -0.217
REMARK UNBOUND:                -0.211
REMARK SMILES CC(C)c1ccc(C(=O)[O-])cc1
REMARK SMILES IDX 7 1 6 2 11 3 5 4 12 5 4 6 8 7 9 8 10 9 2 10 1 11 3 12
REMARK H PARENT
REMARK Flexibility Score: inf
ROOT
ATOM      1  C   UNL     1      11.435  76.645   3.555  1.00  0.00    -0.003 A 
ATOM      2  C   UNL     1      10.056  76.457   3.356  1.00  0.00     0.010 A 
ATOM      3  C   UNL     1      12.322  76.324   2.515  1.00  0.00     0.010 A 
ATOM      4  C   UNL     1       9.577  75.958   2.142  1.00  0.00     0.004 A 
ATOM      5  C   UNL     1      11.843  75.826   1.300  1.00  0.00     0.004 A 
ATOM      6  C   UNL     1      10.464  75.637   1.099  1.00  0.00    -0.045 A 
ENDROOT
BRANCH   1   7
ATOM      7  C   UNL     1      11.948  77.173   4.838  1.00  0.00     0.071 C 
ATOM      8  O   UNL     1      11.466  76.775   5.933  1.00  0.00    -0.545 OA
ATOM      9  O   UNL     1      12.970  78.115   4.856  1.00  0.00    -0.545 OA
ENDBRANCH   1   7
BRANCH   6  10
ATOM     10  C   UNL     1       9.957  75.095  -0.224  1.00  0.00     0.013 C 
ATOM     11  C   UNL     1       8.509  74.605  -0.101  1.00  0.00     0.012 C 
ATOM     12  C   UNL     1      10.873  73.985  -0.753  1.00  0.00     0.012 C 
ENDBRANCH   6  10
TORSDOF 2
ENDMDL
MODEL 3
REMARK VINA RESULT:    16.628      6.756      8.156
REMARK INTER + INTRA:          18.361
REMARK INTER:                  18.565
REMARK INTRA:                  -0.204
REMARK UNBOUND:                -0.211
REMARK SMILES CC(C)c1ccc(C(=O)[O-])cc1
REMARK SMILES IDX 7 1 6 2 11 3 5 4 12 5 4 6 8 7 9 8 10 9 2 10 1 11 3 12
REMARK H PARENT
REMARK Flexibility Score: inf
ROOT
ATOM      1  C   UNL     1       9.626  70.660   5.741  1.00  0.00    -0.003 A 
ATOM      2  C   UNL     1      10.905  70.255   5.322  1.00  0.00     0.010 A 
ATOM      3  C   UNL     1       8.535  70.469   4.877  1.00  0.00     0.010 A 
ATOM      4  C   UNL     1      11.087  69.672   4.064  1.00  0.00     0.004 A 
ATOM      5  C   UNL     1       8.717  69.885   3.620  1.00  0.00     0.004 A 
ATOM      6  C   UNL     1       9.995  69.480   3.199  1.00  0.00    -0.045 A 
ENDROOT
BRANCH   1   7
ATOM      7  C   UNL     1       9.427  71.277   7.070  1.00  0.00     0.071 C 
ATOM      8  O   UNL     1       8.914  72.423   7.174  1.00  0.00    -0.545 OA
ATOM      9  O   UNL     1       9.803  70.601   8.226  1.00  0.00    -0.545 OA
ENDBRANCH   1   7
BRANCH   6  10
ATOM     10  C   UNL     1      10.179  68.849   1.832  1.00  0.00     0.013 C 
ATOM     11  C   UNL     1       9.611  69.749   0.727  1.00  0.00     0.012 C 
ATOM     12  C   UNL     1       9.553  67.450   1.781  1.00  0.00     0.012 C 
ENDBRANCH   6  10
TORSDOF 2
ENDMDL
MODEL 4
REMARK VINA RESULT:    16.751      6.034      6.730
REMARK INTER + INTRA:          18.499
REMARK INTER:                  18.702
REMARK INTRA:                  -0.204
REMARK UNBOUND:                -0.211
REMARK SMILES CC(C)c1ccc(C(=O)[O-])cc1
REMARK SMILES IDX 7 1 6 2 11 3 5 4 12 5 4 6 8 7 9 8 10 9 2 10 1 11 3 12
REMARK H PARENT
REMARK Flexibility Score: inf
ROOT
ATOM      1  C   UNL     1       9.890  69.336   2.967  1.00  0.00    -0.003 A 
ATOM      2  C   UNL     1      11.072  69.390   3.725  1.00  0.00     0.010 A 
ATOM      3  C   UNL     1       8.737  69.970   3.460  1.00  0.00     0.010 A 
ATOM      4  C   UNL     1      11.100  70.063   4.949  1.00  0.00     0.004 A 
ATOM      5  C   UNL     1       8.765  70.644   4.684  1.00  0.00     0.004 A 
ATOM      6  C   UNL     1       9.947  70.698   5.443  1.00  0.00    -0.045 A 
ENDROOT
BRANCH   1   7
ATOM      7  C   UNL     1       9.854  68.625   1.671  1.00  0.00     0.071 C 
ATOM      8  O   UNL     1       9.941  67.368   1.627  1.00  0.00    -0.545 OA
ATOM      9  O   UNL     1       9.724  69.332   0.481  1.00  0.00    -0.545 OA
ENDBRANCH   1   7
BRANCH   6  10
ATOM     10  C   UNL     1       9.963  71.433   6.770  1.00  0.00     0.013 C 
ATOM     11  C   UNL     1       9.319  70.587   7.877  1.00  0.00     0.012 C 
ATOM     12  C   UNL     1       9.280  72.801   6.654  1.00  0.00     0.012 C 
ENDBRANCH   6  10
TORSDOF 2
ENDMDL
MODEL 5
REMARK VINA RESULT:    16.811      3.034      5.039
REMARK INTER + INTRA:          18.565
REMARK INTER:                  18.780
REMARK INTRA:                  -0.214
REMARK UNBOUND:                -0.211
REMARK SMILES CC(C)c1ccc(C(=O)[O-])cc1
REMARK SMILES IDX 7 1 6 2 11 3 5 4 12 5 4 6 8 7 9 8 10 9 2 10 1 11 3 12
REMARK H PARENT
REMARK Flexibility Score: inf
ROOT
ATOM      1  C   UNL     1      11.488  76.700   3.469  1.00  0.00    -0.003 A 
ATOM      2  C   UNL     1      10.098  76.491   3.471  1.00  0.00     0.010 A 
ATOM      3  C   UNL     1      12.243  76.240   2.378  1.00  0.00     0.010 A 
ATOM      4  C   UNL     1       9.478  75.836   2.404  1.00  0.00     0.004 A 
ATOM      5  C   UNL     1      11.623  75.586   1.310  1.00  0.00     0.004 A 
ATOM      6  C   UNL     1      10.233  75.376   1.310  1.00  0.00    -0.045 A 
ENDROOT
BRANCH   1   7
ATOM      7  C   UNL     1      12.150  77.392   4.597  1.00  0.00     0.071 C 
ATOM      8  O   UNL     1      13.048  78.250   4.384  1.00  0.00    -0.545 OA
ATOM      9  O   UNL     1      11.788  77.107   5.909  1.00  0.00    -0.545 OA
ENDBRANCH   1   7
BRANCH   6  10
ATOM     10  C   UNL     1       9.573  74.664   0.145  1.00  0.00     0.013 C 
ATOM     11  C   UNL     1      10.602  74.294  -0.931  1.00  0.00     0.012 C 
ATOM     12  C   UNL     1       8.435  75.506  -0.446  1.00  0.00     0.012 C 
ENDBRANCH   6  10
TORSDOF 2
ENDMDL
