MODEL 1
REMARK VINA RESULT:    -5.701      0.000      0.000
REMARK INTER + INTRA:          -5.701
REMARK INTER:                  -5.701
REMARK INTRA:                   0.000
REMARK UNBOUND:                 0.000
REMARK SMILES O=c1ccc2ccccc2o1
REMARK SMILES IDX 7 1 8 2 9 3 10 4 5 5 6 6 4 7 3 8 2 9 1 10 11 11
REMARK H PARENT
REMARK Flexibility Score: inf
ROOT
ATOM      1  C   UNL     1     -40.053  -9.103 -13.590  1.00  0.00     0.001 A 
ATOM      2  C   UNL     1     -40.809  -7.941 -13.406  1.00  0.00     0.004 A 
ATOM      3  C   UNL     1     -40.174  -6.701 -13.278  1.00  0.00     0.048 A 
ATOM      4  C   UNL     1     -38.778  -6.619 -13.335  1.00  0.00     0.138 A 
ATOM      5  C   UNL     1     -38.015  -7.794 -13.521  1.00  0.00     0.018 A 
ATOM      6  C   UNL     1     -38.657  -9.033 -13.649  1.00  0.00     0.012 A 
ATOM      7  C   UNL     1     -36.621  -7.681 -13.573  1.00  0.00     0.019 A 
ATOM      8  C   UNL     1     -36.031  -6.425 -13.441  1.00  0.00     0.094 A 
ATOM      9  C   UNL     1     -36.851  -5.306 -13.258  1.00  0.00     0.336 A 
ATOM     10  O   UNL     1     -36.337  -4.164 -13.138  1.00  0.00    -0.246 OA
ATOM     11  O   UNL     1     -38.174  -5.440 -13.213  1.00  0.00    -0.423 OA
ENDROOT
TORSDOF 0
ENDMDL
MODEL 2
REMARK VINA RESULT:    -5.630      1.680      3.817
REMARK INTER + INTRA:          -5.630
REMARK INTER:                  -5.630
REMARK INTRA:                   0.000
REMARK UNBOUND:                 0.000
REMARK SMILES O=c1ccc2ccccc2o1
REMARK SMILES IDX 7 1 8 2 9 3 10 4 5 5 6 6 4 7 3 8 2 9 1 10 11 11
REMARK H PARENT
REMARK Flexibility Score: inf
ROOT
ATOM      1  C   UNL     1     -35.936  -5.094 -13.479  1.00  0.00     0.001 A 
ATOM      2  C   UNL     1     -37.104  -4.359 -13.253  1.00  0.00     0.004 A 
ATOM      3  C   UNL     1     -38.342  -5.006 -13.191  1.00  0.00     0.048 A 
ATOM      4  C   UNL     1     -38.417  -6.394 -13.354  1.00  0.00     0.138 A 
ATOM      5  C   UNL     1     -37.236  -7.137 -13.582  1.00  0.00     0.018 A 
ATOM      6  C   UNL     1     -35.998  -6.482 -13.643  1.00  0.00     0.012 A 
ATOM      7  C   UNL     1     -37.342  -8.522 -13.742  1.00  0.00     0.019 A 
ATOM      8  C   UNL     1     -38.597  -9.125 -13.672  1.00  0.00     0.094 A 
ATOM      9  C   UNL     1     -39.722  -8.326 -13.444  1.00  0.00     0.336 A 
ATOM     10  O   UNL     1     -40.864  -8.852 -13.378  1.00  0.00    -0.246 OA
ATOM     11  O   UNL     1     -39.595  -7.010 -13.295  1.00  0.00    -0.423 OA
ENDROOT
TORSDOF 0
ENDMDL
MODEL 3
REMARK VINA RESULT:    -5.486      1.870      4.315
REMARK INTER + INTRA:          -5.486
REMARK INTER:                  -5.486
REMARK INTRA:                   0.000
REMARK UNBOUND:                 0.000
REMARK SMILES O=c1ccc2ccccc2o1
REMARK SMILES IDX 7 1 8 2 9 3 10 4 5 5 6 6 4 7 3 8 2 9 1 10 11 11
REMARK H PARENT
REMARK Flexibility Score: inf
ROOT
ATOM      1  C   UNL     1     -36.145  -5.023 -13.755  1.00  0.00     0.001 A 
ATOM      2  C   UNL     1     -35.688  -6.302 -14.088  1.00  0.00     0.004 A 
ATOM      3  C   UNL     1     -36.568  -7.389 -14.076  1.00  0.00     0.048 A 
ATOM      4  C   UNL     1     -37.911  -7.200 -13.731  1.00  0.00     0.138 A 
ATOM      5  C   UNL     1     -38.373  -5.907 -13.395  1.00  0.00     0.018 A 
ATOM      6  C   UNL     1     -37.485  -4.822 -13.409  1.00  0.00     0.012 A 
ATOM      7  C   UNL     1     -39.720  -5.749 -13.054  1.00  0.00     0.019 A 
ATOM      8  C   UNL     1     -40.561  -6.860 -13.055  1.00  0.00     0.094 A 
ATOM      9  C   UNL     1     -40.034  -8.110 -13.398  1.00  0.00     0.336 A 
ATOM     10  O   UNL     1     -40.778  -9.125 -13.406  1.00  0.00    -0.246 OA
ATOM     11  O   UNL     1     -38.749  -8.234 -13.719  1.00  0.00    -0.423 OA
ENDROOT
TORSDOF 0
ENDMDL
MODEL 4
REMARK VINA RESULT:    -5.378      1.028      2.082
REMARK INTER + INTRA:          -5.378
REMARK INTER:                  -5.378
REMARK INTRA:                   0.000
REMARK UNBOUND:                 0.000
REMARK SMILES O=c1ccc2ccccc2o1
REMARK SMILES IDX 7 1 8 2 9 3 10 4 5 5 6 6 4 7 3 8 2 9 1 10 11 11
REMARK H PARENT
REMARK Flexibility Score: inf
ROOT
ATOM      1  C   UNL     1     -40.735  -8.204 -13.348  1.00  0.00     0.001 A 
ATOM      2  C   UNL     1     -39.729  -9.125 -13.656  1.00  0.00     0.004 A 
ATOM      3  C   UNL     1     -38.402  -8.702 -13.782  1.00  0.00     0.048 A 
ATOM      4  C   UNL     1     -38.075  -7.353 -13.600  1.00  0.00     0.138 A 
ATOM      5  C   UNL     1     -39.093  -6.423 -13.288  1.00  0.00     0.018 A 
ATOM      6  C   UNL     1     -40.421  -6.854 -13.163  1.00  0.00     0.012 A 
ATOM      7  C   UNL     1     -38.736  -5.082 -13.111  1.00  0.00     0.019 A 
ATOM      8  C   UNL     1     -37.401  -4.705 -13.246  1.00  0.00     0.094 A 
ATOM      9  C   UNL     1     -36.448  -5.681 -13.557  1.00  0.00     0.336 A 
ATOM     10  O   UNL     1     -35.238  -5.360 -13.683  1.00  0.00    -0.246 OA
ATOM     11  O   UNL     1     -36.812  -6.950 -13.720  1.00  0.00    -0.423 OA
ENDROOT
TORSDOF 0
ENDMDL
MODEL 5
REMARK VINA RESULT:    -5.354      1.888      3.483
REMARK INTER + INTRA:          -5.354
REMARK INTER:                  -5.354
REMARK INTRA:                   0.000
REMARK UNBOUND:                 0.000
REMARK SMILES O=c1ccc2ccccc2o1
REMARK SMILES IDX 7 1 8 2 9 3 10 4 5 5 6 6 4 7 3 8 2 9 1 10 11 11
REMARK H PARENT
REMARK Flexibility Score: inf
ROOT
ATOM      1  C   UNL     1     -40.119  -4.568 -11.966  1.00  0.00     0.001 A 
ATOM      2  C   UNL     1     -38.878  -4.035 -12.330  1.00  0.00     0.004 A 
ATOM      3  C   UNL     1     -37.952  -4.820 -13.024  1.00  0.00     0.048 A 
ATOM      4  C   UNL     1     -38.263  -6.144 -13.357  1.00  0.00     0.138 A 
ATOM      5  C   UNL     1     -39.517  -6.682 -12.988  1.00  0.00     0.018 A 
ATOM      6  C   UNL     1     -40.441  -5.889 -12.292  1.00  0.00     0.012 A 
ATOM      7  C   UNL     1     -39.800  -8.007 -13.334  1.00  0.00     0.019 A 
ATOM      8  C   UNL     1     -38.847  -8.752 -14.025  1.00  0.00     0.094 A 
ATOM      9  C   UNL     1     -37.627  -8.153 -14.357  1.00  0.00     0.336 A 
ATOM     10  O   UNL     1     -36.754  -8.810 -14.982  1.00  0.00    -0.246 OA
ATOM     11  O   UNL     1     -37.381  -6.890 -14.017  1.00  0.00    -0.423 OA
ENDROOT
TORSDOF 0
ENDMDL
MODEL 6
REMARK VINA RESULT:    -5.246      1.455      3.134
REMARK INTER + INTRA:          -5.246
REMARK INTER:                  -5.246
REMARK INTRA:                   0.000
REMARK UNBOUND:                 0.000
REMARK SMILES O=c1ccc2ccccc2o1
REMARK SMILES IDX 7 1 8 2 9 3 10 4 5 5 6 6 4 7 3 8 2 9 1 10 11 11
REMARK H PARENT
REMARK Flexibility Score: inf
ROOT
ATOM      1  C   UNL     1     -37.207  -8.383 -15.234  1.00  0.00     0.001 A 
ATOM      2  C   UNL     1     -36.392  -7.253 -15.122  1.00  0.00     0.004 A 
ATOM      3  C   UNL     1     -36.820  -6.147 -14.379  1.00  0.00     0.048 A 
ATOM      4  C   UNL     1     -38.068  -6.168 -13.745  1.00  0.00     0.138 A 
ATOM      5  C   UNL     1     -38.891  -7.312 -13.859  1.00  0.00     0.018 A 
ATOM      6  C   UNL     1     -38.456  -8.416 -14.605  1.00  0.00     0.012 A 
ATOM      7  C   UNL     1     -40.133  -7.304 -13.215  1.00  0.00     0.019 A 
ATOM      8  C   UNL     1     -40.518  -6.180 -12.486  1.00  0.00     0.094 A 
ATOM      9  C   UNL     1     -39.651  -5.085 -12.418  1.00  0.00     0.336 A 
ATOM     10  O   UNL     1     -39.981  -4.061 -11.764  1.00  0.00    -0.246 OA
ATOM     11  O   UNL     1     -38.475  -5.116 -13.039  1.00  0.00    -0.423 OA
ENDROOT
TORSDOF 0
ENDMDL
MODEL 7
REMARK VINA RESULT:    -5.241      2.942      4.025
REMARK INTER + INTRA:          -5.241
REMARK INTER:                  -5.241
REMARK INTRA:                   0.000
REMARK UNBOUND:                 0.000
REMARK SMILES O=c1ccc2ccccc2o1
REMARK SMILES IDX 7 1 8 2 9 3 10 4 5 5 6 6 4 7 3 8 2 9 1 10 11 11
REMARK H PARENT
REMARK Flexibility Score: inf
ROOT
ATOM      1  C   UNL     1     -36.564  -7.788 -13.284  1.00  0.00     0.001 A 
ATOM      2  C   UNL     1     -36.956  -8.447 -14.454  1.00  0.00     0.004 A 
ATOM      3  C   UNL     1     -36.705  -7.871 -15.704  1.00  0.00     0.048 A 
ATOM      4  C   UNL     1     -36.060  -6.632 -15.788  1.00  0.00     0.138 A 
ATOM      5  C   UNL     1     -35.664  -5.966 -14.605  1.00  0.00     0.018 A 
ATOM      6  C   UNL     1     -35.918  -6.549 -13.356  1.00  0.00     0.012 A 
ATOM      7  C   UNL     1     -35.022  -4.729 -14.721  1.00  0.00     0.019 A 
ATOM      8  C   UNL     1     -34.793  -4.193 -15.988  1.00  0.00     0.094 A 
ATOM      9  C   UNL     1     -35.213  -4.909 -17.114  1.00  0.00     0.336 A 
ATOM     10  O   UNL     1     -35.015  -4.441 -18.265  1.00  0.00    -0.246 OA
ATOM     11  O   UNL     1     -35.822  -6.084 -16.977  1.00  0.00    -0.423 OA
ENDROOT
TORSDOF 0
ENDMDL
MODEL 8
REMARK VINA RESULT:    -5.205      6.217      8.315
REMARK INTER + INTRA:          -5.205
REMARK INTER:                  -5.205
REMARK INTRA:                   0.000
REMARK UNBOUND:                 0.000
REMARK SMILES O=c1ccc2ccccc2o1
REMARK SMILES IDX 7 1 8 2 9 3 10 4 5 5 6 6 4 7 3 8 2 9 1 10 11 11
REMARK H PARENT
REMARK Flexibility Score: inf
ROOT
ATOM      1  C   UNL     1     -30.746  -2.982 -17.503  1.00  0.00     0.001 A 
ATOM      2  C   UNL     1     -31.216  -2.380 -18.674  1.00  0.00     0.004 A 
ATOM      3  C   UNL     1     -32.479  -2.708 -19.176  1.00  0.00     0.048 A 
ATOM      4  C   UNL     1     -33.279  -3.642 -18.507  1.00  0.00     0.138 A 
ATOM      5  C   UNL     1     -32.803  -4.250 -17.322  1.00  0.00     0.018 A 
ATOM      6  C   UNL     1     -31.536  -3.916 -16.825  1.00  0.00     0.012 A 
ATOM      7  C   UNL     1     -33.624  -5.179 -16.675  1.00  0.00     0.019 A 
ATOM      8  C   UNL     1     -34.876  -5.476 -17.211  1.00  0.00     0.094 A 
ATOM      9  C   UNL     1     -35.280  -4.835 -18.387  1.00  0.00     0.336 A 
ATOM     10  O   UNL     1     -36.408  -5.090 -18.886  1.00  0.00    -0.246 OA
ATOM     11  O   UNL     1     -34.481  -3.955 -18.984  1.00  0.00    -0.423 OA
ENDROOT
TORSDOF 0
ENDMDL
MODEL 9
REMARK VINA RESULT:    -5.170      6.127      8.306
REMARK INTER + INTRA:          -5.170
REMARK INTER:                  -5.170
REMARK INTRA:                   0.000
REMARK UNBOUND:                 0.000
REMARK SMILES O=c1ccc2ccccc2o1
REMARK SMILES IDX 7 1 8 2 9 3 10 4 5 5 6 6 4 7 3 8 2 9 1 10 11 11
REMARK H PARENT
REMARK Flexibility Score: inf
ROOT
ATOM      1  C   UNL     1     -31.349  -2.366 -18.895  1.00  0.00     0.001 A 
ATOM      2  C   UNL     1     -30.812  -2.919 -17.729  1.00  0.00     0.004 A 
ATOM      3  C   UNL     1     -31.552  -3.842 -16.981  1.00  0.00     0.048 A 
ATOM      4  C   UNL     1     -32.834  -4.215 -17.400  1.00  0.00     0.138 A 
ATOM      5  C   UNL     1     -33.377  -3.656 -18.579  1.00  0.00     0.018 A 
ATOM      6  C   UNL     1     -32.630  -2.732 -19.323  1.00  0.00     0.012 A 
ATOM      7  C   UNL     1     -34.661  -4.048 -18.972  1.00  0.00     0.019 A 
ATOM      8  C   UNL     1     -35.362  -4.970 -18.197  1.00  0.00     0.094 A 
ATOM      9  C   UNL     1     -34.761  -5.481 -17.041  1.00  0.00     0.336 A 
ATOM     10  O   UNL     1     -35.379  -6.315 -16.329  1.00  0.00    -0.246 OA
ATOM     11  O   UNL     1     -33.539  -5.093 -16.689  1.00  0.00    -0.423 OA
ENDROOT
TORSDOF 0
ENDMDL
