MODEL 1
REMARK VINA RESULT:    -4.238      0.000      0.000
REMARK INTER + INTRA:          -6.088
REMARK INTER:                  -5.725
REMARK INTRA:                  -0.364
REMARK UNBOUND:                -0.364
REMARK SMILES CCCCCCCC(=O)[O-]
REMARK SMILES IDX 5 1 6 2 7 3 8 4 9 5 10 6 4 7 3 8 2 9 1 10
REMARK H PARENT
REMARK Flexibility Score: inf
ROOT
ATOM      1  C   UNL     1       8.480   3.645  19.482  1.00  0.00     0.000 C 
ENDROOT
BRANCH   1   2
ATOM      2  C   UNL     1       8.827   4.462  20.737  1.00  0.00     0.006 C 
BRANCH   2   3
ATOM      3  C   UNL     1       7.948   4.084  21.937  1.00  0.00     0.053 C 
BRANCH   3   4
ATOM      4  C   UNL     1       7.125   5.241  22.412  1.00  0.00     0.041 C 
ATOM      5  O   UNL     1       6.590   5.211  23.552  1.00  0.00    -0.550 OA
ATOM      6  O   UNL     1       6.978   6.367  21.612  1.00  0.00    -0.550 OA
ENDBRANCH   3   4
ENDBRANCH   2   3
ENDBRANCH   1   2
BRANCH   1   7
ATOM      7  C   UNL     1       7.101   4.036  18.937  1.00  0.00     0.000 C 
BRANCH   7   8
ATOM      8  C   UNL     1       7.232   4.880  17.664  1.00  0.00    -0.000 C 
BRANCH   8   9
ATOM      9  C   UNL     1       6.963   6.361  17.955  1.00  0.00    -0.003 C 
ATOM     10  C   UNL     1       7.763   7.262  17.019  1.00  0.00     0.004 C 
ENDBRANCH   8   9
ENDBRANCH   7   8
ENDBRANCH   1   7
TORSDOF 6
ENDMDL
MODEL 2
REMARK VINA RESULT:    -4.219     16.066     17.250
REMARK INTER + INTRA:          -6.063
REMARK INTER:                  -5.736
REMARK INTRA:                  -0.327
REMARK UNBOUND:                -0.364
REMARK SMILES CCCCCCCC(=O)[O-]
REMARK SMILES IDX 5 1 6 2 7 3 8 4 9 5 10 6 4 7 3 8 2 9 1 10
REMARK H PARENT
REMARK Flexibility Score: inf
ROOT
ATOM      1  C   UNL     1      14.548  -2.620   7.754  1.00  0.00     0.000 C 
ENDROOT
BRANCH   1   2
ATOM      2  C   UNL     1      14.772  -3.934   6.989  1.00  0.00     0.006 C 
BRANCH   2   3
ATOM      3  C   UNL     1      16.232  -4.109   6.552  1.00  0.00     0.053 C 
BRANCH   3   4
ATOM      4  C   UNL     1      17.145  -4.304   7.724  1.00  0.00     0.041 C 
ATOM      5  O   UNL     1      18.238  -3.681   7.784  1.00  0.00    -0.550 OA
ATOM      6  O   UNL     1      16.774  -5.146   8.765  1.00  0.00    -0.550 OA
ENDBRANCH   3   4
ENDBRANCH   2   3
ENDBRANCH   1   2
BRANCH   1   7
ATOM      7  C   UNL     1      13.081  -2.182   7.674  1.00  0.00     0.000 C 
BRANCH   7   8
ATOM      8  C   UNL     1      12.336  -2.951   6.576  1.00  0.00    -0.000 C 
BRANCH   8   9
ATOM      9  C   UNL     1      11.076  -3.623   7.133  1.00  0.00    -0.003 C 
ATOM     10  C   UNL     1      10.406  -2.750   8.189  1.00  0.00     0.004 C 
ENDBRANCH   8   9
ENDBRANCH   7   8
ENDBRANCH   1   7
TORSDOF 6
ENDMDL
MODEL 3
REMARK VINA RESULT:    -4.051      2.221      3.891
REMARK INTER + INTRA:          -5.836
REMARK INTER:                  -5.273
REMARK INTRA:                  -0.564
REMARK UNBOUND:                -0.364
REMARK SMILES CCCCCCCC(=O)[O-]
REMARK SMILES IDX 5 1 6 2 7 3 8 4 9 5 10 6 4 7 3 8 2 9 1 10
REMARK H PARENT
REMARK Flexibility Score: inf
ROOT
ATOM      1  C   UNL     1       8.286   3.132  18.680  1.00  0.00     0.000 C 
ENDROOT
BRANCH   1   2
ATOM      2  C   UNL     1       7.724   4.120  17.647  1.00  0.00     0.006 C 
BRANCH   2   3
ATOM      3  C   UNL     1       6.355   4.677  18.060  1.00  0.00     0.053 C 
BRANCH   3   4
ATOM      4  C   UNL     1       6.334   6.175  18.042  1.00  0.00     0.041 C 
ATOM      5  O   UNL     1       5.454   6.803  18.688  1.00  0.00    -0.550 OA
ATOM      6  O   UNL     1       7.306   6.877  17.340  1.00  0.00    -0.550 OA
ENDBRANCH   3   4
ENDBRANCH   2   3
ENDBRANCH   1   2
BRANCH   1   7
ATOM      7  C   UNL     1       7.398   3.080  19.930  1.00  0.00     0.000 C 
BRANCH   7   8
ATOM      8  C   UNL     1       8.185   3.491  21.180  1.00  0.00    -0.000 C 
BRANCH   8   9
ATOM      9  C   UNL     1       8.537   4.983  21.143  1.00  0.00    -0.003 C 
ATOM     10  C   UNL     1       7.361   5.839  21.605  1.00  0.00     0.004 C 
ENDBRANCH   8   9
ENDBRANCH   7   8
ENDBRANCH   1   7
TORSDOF 6
ENDMDL
MODEL 4
REMARK VINA RESULT:    -3.968      1.413      2.510
REMARK INTER + INTRA:          -5.724
REMARK INTER:                  -5.397
REMARK INTRA:                  -0.327
REMARK UNBOUND:                -0.364
REMARK SMILES CCCCCCCC(=O)[O-]
REMARK SMILES IDX 5 1 6 2 7 3 8 4 9 5 10 6 4 7 3 8 2 9 1 10
REMARK H PARENT
REMARK Flexibility Score: inf
ROOT
ATOM      1  C   UNL     1       7.335   5.066  17.664  1.00  0.00     0.000 C 
ENDROOT
BRANCH   1   2
ATOM      2  C   UNL     1       6.992   4.506  19.053  1.00  0.00     0.006 C 
BRANCH   2   3
ATOM      3  C   UNL     1       8.053   4.863  20.102  1.00  0.00     0.053 C 
BRANCH   3   4
ATOM      4  C   UNL     1       7.439   5.418  21.350  1.00  0.00     0.041 C 
ATOM      5  O   UNL     1       6.899   6.556  21.337  1.00  0.00    -0.550 OA
ATOM      6  O   UNL     1       7.433   4.666  22.518  1.00  0.00    -0.550 OA
ENDBRANCH   3   4
ENDBRANCH   2   3
ENDBRANCH   1   2
BRANCH   1   7
ATOM      7  C   UNL     1       7.342   6.600  17.677  1.00  0.00     0.000 C 
BRANCH   7   8
ATOM      8  C   UNL     1       8.192   7.156  16.528  1.00  0.00    -0.000 C 
BRANCH   8   9
ATOM      9  C   UNL     1       8.376   6.109  15.423  1.00  0.00    -0.003 C 
ATOM     10  C   UNL     1       9.631   6.388  14.602  1.00  0.00     0.004 C 
ENDBRANCH   8   9
ENDBRANCH   7   8
ENDBRANCH   1   7
TORSDOF 6
ENDMDL
MODEL 5
REMARK VINA RESULT:    -3.929     15.577     16.819
REMARK INTER + INTRA:          -5.672
REMARK INTER:                  -5.195
REMARK INTRA:                  -0.477
REMARK UNBOUND:                -0.364
REMARK SMILES CCCCCCCC(=O)[O-]
REMARK SMILES IDX 5 1 6 2 7 3 8 4 9 5 10 6 4 7 3 8 2 9 1 10
REMARK H PARENT
REMARK Flexibility Score: inf
ROOT
ATOM      1  C   UNL     1      14.956  -1.409   7.923  1.00  0.00     0.000 C 
ENDROOT
BRANCH   1   2
ATOM      2  C   UNL     1      13.784  -1.556   6.941  1.00  0.00     0.006 C 
BRANCH   2   3
ATOM      3  C   UNL     1      13.162  -2.957   6.984  1.00  0.00     0.053 C 
BRANCH   3   4
ATOM      4  C   UNL     1      11.739  -2.922   7.452  1.00  0.00     0.041 C 
ATOM      5  O   UNL     1      11.292  -1.902   8.040  1.00  0.00    -0.550 OA
ATOM      6  O   UNL     1      10.898  -4.000   7.207  1.00  0.00    -0.550 OA
ENDBRANCH   3   4
ENDBRANCH   2   3
ENDBRANCH   1   2
BRANCH   1   7
ATOM      7  C   UNL     1      15.237  -2.733   8.644  1.00  0.00     0.000 C 
BRANCH   7   8
ATOM      8  C   UNL     1      16.649  -3.242   8.332  1.00  0.00    -0.000 C 
BRANCH   8   9
ATOM      9  C   UNL     1      16.601  -4.468   7.413  1.00  0.00    -0.003 C 
ATOM     10  C   UNL     1      17.192  -4.154   6.042  1.00  0.00     0.004 C 
ENDBRANCH   8   9
ENDBRANCH   7   8
ENDBRANCH   1   7
TORSDOF 6
ENDMDL
MODEL 6
REMARK VINA RESULT:    -3.909      2.242      3.529
REMARK INTER + INTRA:          -5.645
REMARK INTER:                  -5.443
REMARK INTRA:                  -0.202
REMARK UNBOUND:                -0.364
REMARK SMILES CCCCCCCC(=O)[O-]
REMARK SMILES IDX 5 1 6 2 7 3 8 4 9 5 10 6 4 7 3 8 2 9 1 10
REMARK H PARENT
REMARK Flexibility Score: inf
ROOT
ATOM      1  C   UNL     1       8.399   3.222  19.166  1.00  0.00     0.000 C 
ENDROOT
BRANCH   1   2
ATOM      2  C   UNL     1       8.221   4.478  20.034  1.00  0.00     0.006 C 
BRANCH   2   3
ATOM      3  C   UNL     1       8.480   4.198  21.520  1.00  0.00     0.053 C 
BRANCH   3   4
ATOM      4  C   UNL     1       7.602   5.029  22.405  1.00  0.00     0.041 C 
ATOM      5  O   UNL     1       7.469   4.733  23.622  1.00  0.00    -0.550 OA
ATOM      6  O   UNL     1       6.958   6.149  21.894  1.00  0.00    -0.550 OA
ENDBRANCH   3   4
ENDBRANCH   2   3
ENDBRANCH   1   2
BRANCH   1   7
ATOM      7  C   UNL     1       7.258   2.226  19.403  1.00  0.00     0.000 C 
BRANCH   7   8
ATOM      8  C   UNL     1       6.980   1.399  18.142  1.00  0.00    -0.000 C 
BRANCH   8   9
ATOM      9  C   UNL     1       7.104  -0.102  18.430  1.00  0.00    -0.003 C 
ATOM     10  C   UNL     1       8.554  -0.565  18.330  1.00  0.00     0.004 C 
ENDBRANCH   8   9
ENDBRANCH   7   8
ENDBRANCH   1   7
TORSDOF 6
ENDMDL
MODEL 7
REMARK VINA RESULT:    -3.867     14.199     15.442
REMARK INTER + INTRA:          -5.587
REMARK INTER:                  -5.299
REMARK INTRA:                  -0.288
REMARK UNBOUND:                -0.364
REMARK SMILES CCCCCCCC(=O)[O-]
REMARK SMILES IDX 5 1 6 2 7 3 8 4 9 5 10 6 4 7 3 8 2 9 1 10
REMARK H PARENT
REMARK Flexibility Score: inf
ROOT
ATOM      1  C   UNL     1      12.046  -3.239   6.926  1.00  0.00     0.000 C 
ENDROOT
BRANCH   1   2
ATOM      2  C   UNL     1      10.687  -3.458   7.608  1.00  0.00     0.006 C 
BRANCH   2   3
ATOM      3  C   UNL     1      10.255  -2.247   8.446  1.00  0.00     0.053 C 
BRANCH   3   4
ATOM      4  C   UNL     1       9.282  -2.629   9.518  1.00  0.00     0.041 C 
ATOM      5  O   UNL     1       9.082  -3.843   9.787  1.00  0.00    -0.550 OA
ATOM      6  O   UNL     1       8.622  -1.646  10.243  1.00  0.00    -0.550 OA
ENDBRANCH   3   4
ENDBRANCH   2   3
ENDBRANCH   1   2
BRANCH   1   7
ATOM      7  C   UNL     1      12.883  -2.205   7.689  1.00  0.00     0.000 C 
BRANCH   7   8
ATOM      8  C   UNL     1      14.350  -2.643   7.780  1.00  0.00    -0.000 C 
BRANCH   8   9
ATOM      9  C   UNL     1      14.605  -3.889   6.925  1.00  0.00    -0.003 C 
ATOM     10  C   UNL     1      16.098  -4.109   6.702  1.00  0.00     0.004 C 
ENDBRANCH   8   9
ENDBRANCH   7   8
ENDBRANCH   1   7
TORSDOF 6
ENDMDL
MODEL 8
REMARK VINA RESULT:    -3.788     12.661     13.962
REMARK INTER + INTRA:          -5.481
REMARK INTER:                  -5.000
REMARK INTRA:                  -0.481
REMARK UNBOUND:                -0.364
REMARK SMILES CCCCCCCC(=O)[O-]
REMARK SMILES IDX 5 1 6 2 7 3 8 4 9 5 10 6 4 7 3 8 2 9 1 10
REMARK H PARENT
REMARK Flexibility Score: inf
ROOT
ATOM      1  C   UNL     1      21.394   7.200  23.738  1.00  0.00     0.000 C 
ENDROOT
BRANCH   1   2
ATOM      2  C   UNL     1      22.257   7.935  22.701  1.00  0.00     0.006 C 
BRANCH   2   3
ATOM      3  C   UNL     1      21.915   7.522  21.264  1.00  0.00     0.053 C 
BRANCH   3   4
ATOM      4  C   UNL     1      20.981   8.496  20.612  1.00  0.00     0.041 C 
ATOM      5  O   UNL     1      19.755   8.225  20.510  1.00  0.00    -0.550 OA
ATOM      6  O   UNL     1      21.457   9.716  20.150  1.00  0.00    -0.550 OA
ENDBRANCH   3   4
ENDBRANCH   2   3
ENDBRANCH   1   2
BRANCH   1   7
ATOM      7  C   UNL     1      20.548   8.189  24.548  1.00  0.00     0.000 C 
BRANCH   7   8
ATOM      8  C   UNL     1      19.141   8.326  23.953  1.00  0.00    -0.000 C 
BRANCH   8   9
ATOM      9  C   UNL     1      18.325   7.046  24.171  1.00  0.00    -0.003 C 
ATOM     10  C   UNL     1      17.870   6.449  22.844  1.00  0.00     0.004 C 
ENDBRANCH   8   9
ENDBRANCH   7   8
ENDBRANCH   1   7
TORSDOF 6
ENDMDL
MODEL 9
REMARK VINA RESULT:    -3.766     15.447     16.517
REMARK INTER + INTRA:          -5.451
REMARK INTER:                  -5.251
REMARK INTRA:                  -0.200
REMARK UNBOUND:                -0.364
REMARK SMILES CCCCCCCC(=O)[O-]
REMARK SMILES IDX 5 1 6 2 7 3 8 4 9 5 10 6 4 7 3 8 2 9 1 10
REMARK H PARENT
REMARK Flexibility Score: inf
ROOT
ATOM      1  C   UNL     1      15.347  -1.234   7.734  1.00  0.00     0.000 C 
ENDROOT
BRANCH   1   2
ATOM      2  C   UNL     1      14.812  -2.593   8.211  1.00  0.00     0.006 C 
BRANCH   2   3
ATOM      3  C   UNL     1      15.933  -3.622   8.405  1.00  0.00     0.053 C 
BRANCH   3   4
ATOM      4  C   UNL     1      16.383  -4.208   7.102  1.00  0.00     0.041 C 
ATOM      5  O   UNL     1      15.544  -4.451   6.195  1.00  0.00    -0.550 OA
ATOM      6  O   UNL     1      17.731  -4.454   6.877  1.00  0.00    -0.550 OA
ENDBRANCH   3   4
ENDBRANCH   2   3
ENDBRANCH   1   2
BRANCH   1   7
ATOM      7  C   UNL     1      14.763  -0.090   8.571  1.00  0.00     0.000 C 
BRANCH   7   8
ATOM      8  C   UNL     1      15.656   0.221   9.778  1.00  0.00    -0.000 C 
BRANCH   8   9
ATOM      9  C   UNL     1      16.051   1.703   9.803  1.00  0.00    -0.003 C 
ATOM     10  C   UNL     1      16.066   2.246  11.228  1.00  0.00     0.004 C 
ENDBRANCH   8   9
ENDBRANCH   7   8
ENDBRANCH   1   7
TORSDOF 6
ENDMDL
