MODEL 1
REMARK VINA RESULT:    -4.197      0.000      0.000
REMARK INTER + INTRA:          -6.909
REMARK INTER:                  -6.405
REMARK INTRA:                  -0.504
REMARK UNBOUND:                -0.504
REMARK SMILES CCCCCCCCCCC(=O)[O-]
REMARK SMILES IDX 7 1 8 2 9 3 10 4 11 5 12 6 13 7 6 8 5 9 4 10 3 11 2 12 1 13
REMARK H PARENT
REMARK Flexibility Score: inf
ROOT
ATOM      1  C   UNL     1      72.344 -36.952  10.095  1.00  0.00     0.000 C 
ENDROOT
BRANCH   1   2
ATOM      2  C   UNL     1      72.505 -37.872  11.316  1.00  0.00     0.000 C 
BRANCH   2   3
ATOM      3  C   UNL     1      73.965 -37.978  11.789  1.00  0.00     0.006 C 
BRANCH   3   4
ATOM      4  C   UNL     1      74.956 -37.491  10.722  1.00  0.00     0.053 C 
BRANCH   4   5
ATOM      5  C   UNL     1      76.261 -37.070  11.323  1.00  0.00     0.041 C 
ATOM      6  O   UNL     1      76.620 -35.864  11.277  1.00  0.00    -0.550 OA
ATOM      7  O   UNL     1      77.095 -38.013  11.909  1.00  0.00    -0.550 OA
ENDBRANCH   4   5
ENDBRANCH   3   4
ENDBRANCH   2   3
ENDBRANCH   1   2
BRANCH   1   8
ATOM      8  C   UNL     1      70.998 -37.146   9.379  1.00  0.00     0.000 C 
BRANCH   8   9
ATOM      9  C   UNL     1      70.987 -36.427   8.025  1.00  0.00    -0.000 C 
BRANCH   9  10
ATOM     10  C   UNL     1      72.197 -35.490   7.889  1.00  0.00    -0.000 C 
BRANCH  10  11
ATOM     11  C   UNL     1      72.571 -35.213   6.425  1.00  0.00    -0.000 C 
BRANCH  11  12
ATOM     12  C   UNL     1      72.587 -33.713   6.093  1.00  0.00    -0.003 C 
ATOM     13  C   UNL     1      71.463 -32.978   6.815  1.00  0.00     0.004 C 
ENDBRANCH  11  12
ENDBRANCH  10  11
ENDBRANCH   9  10
ENDBRANCH   8   9
ENDBRANCH   1   8
TORSDOF 9
ENDMDL
MODEL 2
REMARK VINA RESULT:    -4.175     10.689     13.041
REMARK INTER + INTRA:          -6.875
REMARK INTER:                  -6.022
REMARK INTRA:                  -0.853
REMARK UNBOUND:                -0.504
REMARK SMILES CCCCCCCCCCC(=O)[O-]
REMARK SMILES IDX 7 1 8 2 9 3 10 4 11 5 12 6 13 7 6 8 5 9 4 10 3 11 2 12 1 13
REMARK H PARENT
REMARK Flexibility Score: inf
ROOT
ATOM      1  C   UNL     1      72.143 -32.298  21.884  1.00  0.00     0.000 C 
ENDROOT
BRANCH   1   2
ATOM      2  C   UNL     1      71.838 -32.674  20.425  1.00  0.00     0.000 C 
BRANCH   2   3
ATOM      3  C   UNL     1      71.673 -31.442  19.518  1.00  0.00     0.006 C 
BRANCH   3   4
ATOM      4  C   UNL     1      72.822 -31.309  18.509  1.00  0.00     0.053 C 
BRANCH   4   5
ATOM      5  C   UNL     1      72.619 -30.150  17.583  1.00  0.00     0.041 C 
ATOM      6  O   UNL     1      71.664 -30.154  16.762  1.00  0.00    -0.550 OA
ATOM      7  O   UNL     1      73.502 -29.078  17.605  1.00  0.00    -0.550 OA
ENDBRANCH   4   5
ENDBRANCH   3   4
ENDBRANCH   2   3
ENDBRANCH   1   2
BRANCH   1   8
ATOM      8  C   UNL     1      73.615 -31.914  22.102  1.00  0.00     0.000 C 
BRANCH   8   9
ATOM      9  C   UNL     1      74.552 -32.946  21.463  1.00  0.00    -0.000 C 
BRANCH   9  10
ATOM     10  C   UNL     1      75.346 -33.706  22.536  1.00  0.00    -0.000 C 
BRANCH  10  11
ATOM     11  C   UNL     1      75.109 -35.223  22.486  1.00  0.00    -0.000 C 
BRANCH  11  12
ATOM     12  C   UNL     1      73.670 -35.609  22.859  1.00  0.00    -0.003 C 
ATOM     13  C   UNL     1      73.004 -36.398  21.735  1.00  0.00     0.004 C 
ENDBRANCH  11  12
ENDBRANCH  10  11
ENDBRANCH   9  10
ENDBRANCH   8   9
ENDBRANCH   1   8
TORSDOF 9
ENDMDL
MODEL 3
REMARK VINA RESULT:    -4.041     11.229     12.399
REMARK INTER + INTRA:          -6.672
REMARK INTER:                  -6.160
REMARK INTRA:                  -0.512
REMARK UNBOUND:                -0.504
REMARK SMILES CCCCCCCCCCC(=O)[O-]
REMARK SMILES IDX 7 1 8 2 9 3 10 4 11 5 12 6 13 7 6 8 5 9 4 10 3 11 2 12 1 13
REMARK H PARENT
REMARK Flexibility Score: inf
ROOT
ATOM      1  C   UNL     1      62.073 -32.482  15.516  1.00  0.00     0.000 C 
ENDROOT
BRANCH   1   2
ATOM      2  C   UNL     1      62.668 -33.335  14.384  1.00  0.00     0.000 C 
BRANCH   2   3
ATOM      3  C   UNL     1      63.410 -34.578  14.906  1.00  0.00     0.006 C 
BRANCH   3   4
ATOM      4  C   UNL     1      63.737 -35.571  13.782  1.00  0.00     0.053 C 
BRANCH   4   5
ATOM      5  C   UNL     1      65.061 -35.278  13.147  1.00  0.00     0.041 C 
ATOM      6  O   UNL     1      66.130 -35.532  13.762  1.00  0.00    -0.550 OA
ATOM      7  O   UNL     1      65.115 -34.696  11.886  1.00  0.00    -0.550 OA
ENDBRANCH   4   5
ENDBRANCH   3   4
ENDBRANCH   2   3
ENDBRANCH   1   2
BRANCH   1   8
ATOM      8  C   UNL     1      62.007 -30.988  15.162  1.00  0.00     0.000 C 
BRANCH   8   9
ATOM      9  C   UNL     1      62.677 -30.714  13.810  1.00  0.00    -0.000 C 
BRANCH   9  10
ATOM     10  C   UNL     1      63.183 -29.266  13.729  1.00  0.00    -0.000 C 
BRANCH  10  11
ATOM     11  C   UNL     1      62.851 -28.451  14.988  1.00  0.00    -0.000 C 
BRANCH  11  12
ATOM     12  C   UNL     1      62.153 -27.122  14.666  1.00  0.00    -0.003 C 
ATOM     13  C   UNL     1      62.544 -26.617  13.281  1.00  0.00     0.004 C 
ENDBRANCH  11  12
ENDBRANCH  10  11
ENDBRANCH   9  10
ENDBRANCH   8   9
ENDBRANCH   1   8
TORSDOF 9
ENDMDL
MODEL 4
REMARK VINA RESULT:    -4.032     11.102     12.761
REMARK INTER + INTRA:          -6.658
REMARK INTER:                  -5.951
REMARK INTRA:                  -0.707
REMARK UNBOUND:                -0.504
REMARK SMILES CCCCCCCCCCC(=O)[O-]
REMARK SMILES IDX 7 1 8 2 9 3 10 4 11 5 12 6 13 7 6 8 5 9 4 10 3 11 2 12 1 13
REMARK H PARENT
REMARK Flexibility Score: inf
ROOT
ATOM      1  C   UNL     1      62.083 -33.245  13.012  1.00  0.00     0.000 C 
ENDROOT
BRANCH   1   2
ATOM      2  C   UNL     1      62.842 -31.921  12.828  1.00  0.00     0.000 C 
BRANCH   2   3
ATOM      3  C   UNL     1      62.487 -30.880  13.905  1.00  0.00     0.006 C 
BRANCH   3   4
ATOM      4  C   UNL     1      63.280 -29.578  13.734  1.00  0.00     0.053 C 
BRANCH   4   5
ATOM      5  C   UNL     1      63.136 -28.677  14.922  1.00  0.00     0.041 C 
ATOM      6  O   UNL     1      63.252 -29.141  16.087  1.00  0.00    -0.550 OA
ATOM      7  O   UNL     1      62.843 -27.331  14.745  1.00  0.00    -0.550 OA
ENDBRANCH   4   5
ENDBRANCH   3   4
ENDBRANCH   2   3
ENDBRANCH   1   2
BRANCH   1   8
ATOM      8  C   UNL     1      61.849 -33.594  14.490  1.00  0.00     0.000 C 
BRANCH   8   9
ATOM      9  C   UNL     1      63.109 -34.203  15.117  1.00  0.00    -0.000 C 
BRANCH   9  10
ATOM     10  C   UNL     1      63.729 -35.260  14.192  1.00  0.00    -0.000 C 
BRANCH  10  11
ATOM     11  C   UNL     1      65.204 -35.542  14.517  1.00  0.00    -0.000 C 
BRANCH  11  12
ATOM     12  C   UNL     1      66.112 -35.436  13.283  1.00  0.00    -0.003 C 
ATOM     13  C   UNL     1      65.384 -34.771  12.120  1.00  0.00     0.004 C 
ENDBRANCH  11  12
ENDBRANCH  10  11
ENDBRANCH   9  10
ENDBRANCH   8   9
ENDBRANCH   1   8
TORSDOF 9
ENDMDL
MODEL 5
REMARK VINA RESULT:    -4.027     10.585     13.009
REMARK INTER + INTRA:          -6.651
REMARK INTER:                  -6.057
REMARK INTRA:                  -0.594
REMARK UNBOUND:                -0.504
REMARK SMILES CCCCCCCCCCC(=O)[O-]
REMARK SMILES IDX 7 1 8 2 9 3 10 4 11 5 12 6 13 7 6 8 5 9 4 10 3 11 2 12 1 13
REMARK H PARENT
REMARK Flexibility Score: inf
ROOT
ATOM      1  C   UNL     1      72.811 -32.541  20.727  1.00  0.00     0.000 C 
ENDROOT
BRANCH   1   2
ATOM      2  C   UNL     1      71.680 -31.901  19.905  1.00  0.00     0.000 C 
BRANCH   2   3
ATOM      3  C   UNL     1      72.116 -30.598  19.212  1.00  0.00     0.006 C 
BRANCH   3   4
ATOM      4  C   UNL     1      71.228 -30.257  18.008  1.00  0.00     0.053 C 
BRANCH   4   5
ATOM      5  C   UNL     1      72.038 -29.971  16.781  1.00  0.00     0.041 C 
ATOM      6  O   UNL     1      72.643 -30.904  16.189  1.00  0.00    -0.550 OA
ATOM      7  O   UNL     1      72.149 -28.670  16.308  1.00  0.00    -0.550 OA
ENDBRANCH   4   5
ENDBRANCH   3   4
ENDBRANCH   2   3
ENDBRANCH   1   2
BRANCH   1   8
ATOM      8  C   UNL     1      72.513 -32.555  22.234  1.00  0.00     0.000 C 
BRANCH   8   9
ATOM      9  C   UNL     1      73.690 -33.146  23.021  1.00  0.00    -0.000 C 
BRANCH   9  10
ATOM     10  C   UNL     1      74.736 -33.751  22.074  1.00  0.00    -0.000 C 
BRANCH  10  11
ATOM     11  C   UNL     1      75.073 -35.210  22.417  1.00  0.00    -0.000 C 
BRANCH  11  12
ATOM     12  C   UNL     1      73.852 -35.999  22.912  1.00  0.00    -0.003 C 
ATOM     13  C   UNL     1      72.990 -36.467  21.744  1.00  0.00     0.004 C 
ENDBRANCH  11  12
ENDBRANCH  10  11
ENDBRANCH   9  10
ENDBRANCH   8   9
ENDBRANCH   1   8
TORSDOF 9
ENDMDL
MODEL 6
REMARK VINA RESULT:    -4.018      1.757      2.769
REMARK INTER + INTRA:          -6.637
REMARK INTER:                  -5.739
REMARK INTRA:                  -0.898
REMARK UNBOUND:                -0.504
REMARK SMILES CCCCCCCCCCC(=O)[O-]
REMARK SMILES IDX 7 1 8 2 9 3 10 4 11 5 12 6 13 7 6 8 5 9 4 10 3 11 2 12 1 13
REMARK H PARENT
REMARK Flexibility Score: inf
ROOT
ATOM      1  C   UNL     1      70.862 -39.545  11.141  1.00  0.00     0.000 C 
ENDROOT
BRANCH   1   2
ATOM      2  C   UNL     1      71.322 -38.213  11.758  1.00  0.00     0.000 C 
BRANCH   2   3
ATOM      3  C   UNL     1      72.850 -38.037  11.716  1.00  0.00     0.006 C 
BRANCH   3   4
ATOM      4  C   UNL     1      73.304 -37.211  10.505  1.00  0.00     0.053 C 
BRANCH   4   5
ATOM      5  C   UNL     1      74.785 -37.290  10.299  1.00  0.00     0.041 C 
ATOM      6  O   UNL     1      75.511 -37.886  11.139  1.00  0.00    -0.550 OA
ATOM      7  O   UNL     1      75.369 -36.681   9.196  1.00  0.00    -0.550 OA
ENDBRANCH   4   5
ENDBRANCH   3   4
ENDBRANCH   2   3
ENDBRANCH   1   2
BRANCH   1   8
ATOM      8  C   UNL     1      69.806 -39.355  10.041  1.00  0.00     0.000 C 
BRANCH   8   9
ATOM      9  C   UNL     1      69.022 -38.054  10.251  1.00  0.00    -0.000 C 
BRANCH   9  10
ATOM     10  C   UNL     1      69.003 -37.210   8.968  1.00  0.00    -0.000 C 
BRANCH  10  11
ATOM     11  C   UNL     1      70.266 -37.400   8.114  1.00  0.00    -0.000 C 
BRANCH  11  12
ATOM     12  C   UNL     1      70.985 -36.075   7.818  1.00  0.00    -0.003 C 
ATOM     13  C   UNL     1      70.041 -35.072   7.162  1.00  0.00     0.004 C 
ENDBRANCH  11  12
ENDBRANCH  10  11
ENDBRANCH   9  10
ENDBRANCH   8   9
ENDBRANCH   1   8
TORSDOF 9
ENDMDL
MODEL 7
REMARK VINA RESULT:    -3.989      2.685      4.006
REMARK INTER + INTRA:          -6.592
REMARK INTER:                  -5.655
REMARK INTRA:                  -0.937
REMARK UNBOUND:                -0.504
REMARK SMILES CCCCCCCCCCC(=O)[O-]
REMARK SMILES IDX 7 1 8 2 9 3 10 4 11 5 12 6 13 7 6 8 5 9 4 10 3 11 2 12 1 13
REMARK H PARENT
REMARK Flexibility Score: inf
ROOT
ATOM      1  C   UNL     1      69.526 -35.883   6.576  1.00  0.00     0.000 C 
ENDROOT
BRANCH   1   2
ATOM      2  C   UNL     1      70.412 -36.973   7.201  1.00  0.00     0.000 C 
BRANCH   2   3
ATOM      3  C   UNL     1      70.945 -36.579   8.589  1.00  0.00     0.006 C 
BRANCH   3   4
ATOM      4  C   UNL     1      70.441 -37.520   9.691  1.00  0.00     0.053 C 
BRANCH   4   5
ATOM      5  C   UNL     1      71.512 -37.833  10.690  1.00  0.00     0.041 C 
ATOM      6  O   UNL     1      72.513 -37.078  10.804  1.00  0.00    -0.550 OA
ATOM      7  O   UNL     1      71.419 -38.975  11.476  1.00  0.00    -0.550 OA
ENDBRANCH   4   5
ENDBRANCH   3   4
ENDBRANCH   2   3
ENDBRANCH   1   2
BRANCH   1   8
ATOM      8  C   UNL     1      69.394 -34.641   7.470  1.00  0.00     0.000 C 
BRANCH   8   9
ATOM      9  C   UNL     1      69.913 -33.390   6.752  1.00  0.00    -0.000 C 
BRANCH   9  10
ATOM     10  C   UNL     1      71.446 -33.321   6.805  1.00  0.00    -0.000 C 
BRANCH  10  11
ATOM     11  C   UNL     1      72.076 -33.046   5.431  1.00  0.00    -0.000 C 
BRANCH  11  12
ATOM     12  C   UNL     1      73.268 -33.967   5.132  1.00  0.00    -0.003 C 
ATOM     13  C   UNL     1      73.351 -35.105   6.143  1.00  0.00     0.004 C 
ENDBRANCH  11  12
ENDBRANCH  10  11
ENDBRANCH   9  10
ENDBRANCH   8   9
ENDBRANCH   1   8
TORSDOF 9
ENDMDL
MODEL 8
REMARK VINA RESULT:    -3.915      3.208      6.262
REMARK INTER + INTRA:          -6.480
REMARK INTER:                  -5.991
REMARK INTRA:                  -0.489
REMARK UNBOUND:                -0.504
REMARK SMILES CCCCCCCCCCC(=O)[O-]
REMARK SMILES IDX 7 1 8 2 9 3 10 4 11 5 12 6 13 7 6 8 5 9 4 10 3 11 2 12 1 13
REMARK H PARENT
REMARK Flexibility Score: inf
ROOT
ATOM      1  C   UNL     1      68.788 -36.010   7.882  1.00  0.00     0.000 C 
ENDROOT
BRANCH   1   2
ATOM      2  C   UNL     1      68.932 -34.534   7.476  1.00  0.00     0.000 C 
BRANCH   2   3
ATOM      3  C   UNL     1      69.901 -34.337   6.296  1.00  0.00     0.006 C 
BRANCH   3   4
ATOM      4  C   UNL     1      70.777 -33.089   6.470  1.00  0.00     0.053 C 
BRANCH   4   5
ATOM      5  C   UNL     1      72.161 -33.301   5.939  1.00  0.00     0.041 C 
ATOM      6  O   UNL     1      72.573 -32.631   4.956  1.00  0.00    -0.550 OA
ATOM      7  O   UNL     1      72.987 -34.261   6.511  1.00  0.00    -0.550 OA
ENDBRANCH   4   5
ENDBRANCH   3   4
ENDBRANCH   2   3
ENDBRANCH   1   2
BRANCH   1   8
ATOM      8  C   UNL     1      70.131 -36.657   8.254  1.00  0.00     0.000 C 
BRANCH   8   9
ATOM      9  C   UNL     1      69.916 -38.007   8.950  1.00  0.00    -0.000 C 
BRANCH   9  10
ATOM     10  C   UNL     1      69.958 -37.852  10.477  1.00  0.00    -0.000 C 
BRANCH  10  11
ATOM     11  C   UNL     1      71.049 -38.713  11.131  1.00  0.00    -0.000 C 
BRANCH  11  12
ATOM     12  C   UNL     1      72.117 -37.872  11.846  1.00  0.00    -0.003 C 
ATOM     13  C   UNL     1      73.220 -37.449  10.881  1.00  0.00     0.004 C 
ENDBRANCH  11  12
ENDBRANCH  10  11
ENDBRANCH   9  10
ENDBRANCH   8   9
ENDBRANCH   1   8
TORSDOF 9
ENDMDL
MODEL 9
REMARK VINA RESULT:    -3.902      1.120      2.019
REMARK INTER + INTRA:          -6.459
REMARK INTER:                  -6.024
REMARK INTRA:                  -0.435
REMARK UNBOUND:                -0.504
REMARK SMILES CCCCCCCCCCC(=O)[O-]
REMARK SMILES IDX 7 1 8 2 9 3 10 4 11 5 12 6 13 7 6 8 5 9 4 10 3 11 2 12 1 13
REMARK H PARENT
REMARK Flexibility Score: inf
ROOT
ATOM      1  C   UNL     1      72.189 -35.950   8.520  1.00  0.00     0.000 C 
ENDROOT
BRANCH   1   2
ATOM      2  C   UNL     1      71.985 -37.123   9.493  1.00  0.00     0.000 C 
BRANCH   2   3
ATOM      3  C   UNL     1      73.004 -37.119  10.646  1.00  0.00     0.006 C 
BRANCH   3   4
ATOM      4  C   UNL     1      74.451 -37.190  10.139  1.00  0.00     0.053 C 
BRANCH   4   5
ATOM      5  C   UNL     1      75.421 -37.425  11.256  1.00  0.00     0.041 C 
ATOM      6  O   UNL     1      76.537 -36.843  11.259  1.00  0.00    -0.550 OA
ATOM      7  O   UNL     1      75.105 -38.311  12.278  1.00  0.00    -0.550 OA
ENDBRANCH   4   5
ENDBRANCH   3   4
ENDBRANCH   2   3
ENDBRANCH   1   2
BRANCH   1   8
ATOM      8  C   UNL     1      72.942 -36.360   7.245  1.00  0.00     0.000 C 
BRANCH   8   9
ATOM      9  C   UNL     1      72.424 -35.584   6.028  1.00  0.00    -0.000 C 
BRANCH   9  10
ATOM     10  C   UNL     1      72.835 -34.106   6.101  1.00  0.00    -0.000 C 
BRANCH  10  11
ATOM     11  C   UNL     1      71.673 -33.152   5.789  1.00  0.00    -0.000 C 
BRANCH  11  12
ATOM     12  C   UNL     1      70.822 -32.831   7.026  1.00  0.00    -0.003 C 
ATOM     13  C   UNL     1      69.541 -33.659   7.042  1.00  0.00     0.004 C 
ENDBRANCH  11  12
ENDBRANCH  10  11
ENDBRANCH   9  10
ENDBRANCH   8   9
ENDBRANCH   1   8
TORSDOF 9
ENDMDL
