MODEL 1
REMARK VINA RESULT:    -5.317      0.000      0.000
REMARK INTER + INTRA:          -5.857
REMARK INTER:                  -5.783
REMARK INTRA:                  -0.074
REMARK UNBOUND:                -0.074
REMARK SMILES CCc1cccc(O)c1
REMARK SMILES IDX 3 1 9 2 7 3 6 4 5 5 4 6 2 7 1 8 8 9
REMARK H PARENT 8 10
REMARK Flexibility Score: inf
ROOT
ATOM      1  C   UNL     1       9.424  23.324   7.876  1.00  0.00    -0.045 A 
ATOM      2  C   UNL     1      10.690  22.877   7.459  1.00  0.00     0.049 A 
ATOM      3  C   UNL     1      11.131  21.590   7.792  1.00  0.00     0.115 A 
ATOM      4  C   UNL     1      10.302  20.740   8.535  1.00  0.00     0.046 A 
ATOM      5  C   UNL     1       9.036  21.173   8.939  1.00  0.00     0.004 A 
ATOM      6  C   UNL     1       8.596  22.458   8.608  1.00  0.00     0.004 A 
ENDROOT
BRANCH   1   7
ATOM      7  C   UNL     1       8.938  24.694   7.490  1.00  0.00     0.032 C 
ATOM      8  C   UNL     1       7.414  24.754   7.515  1.00  0.00     0.009 C 
ENDBRANCH   1   7
BRANCH   3   9
ATOM      9  O   UNL     1      12.391  21.168   7.376  1.00  0.00    -0.508 OA
ATOM     10  H   UNL     1      13.217  21.331   7.941  1.00  0.00     0.293 HD
ENDBRANCH   3   9
TORSDOF 2
ENDMDL
MODEL 2
REMARK VINA RESULT:    -5.263     10.224     11.089
REMARK INTER + INTRA:          -5.799
REMARK INTER:                  -5.731
REMARK INTRA:                  -0.068
REMARK UNBOUND:                -0.074
REMARK SMILES CCc1cccc(O)c1
REMARK SMILES IDX 3 1 9 2 7 3 6 4 5 5 4 6 2 7 1 8 8 9
REMARK H PARENT 8 10
REMARK Flexibility Score: inf
ROOT
ATOM      1  C   UNL     1      11.758  21.246  17.919  1.00  0.00    -0.045 A 
ATOM      2  C   UNL     1      11.071  21.987  18.895  1.00  0.00     0.049 A 
ATOM      3  C   UNL     1       9.705  21.770  19.115  1.00  0.00     0.115 A 
ATOM      4  C   UNL     1       9.023  20.804  18.365  1.00  0.00     0.046 A 
ATOM      5  C   UNL     1       9.705  20.053  17.404  1.00  0.00     0.004 A 
ATOM      6  C   UNL     1      11.069  20.269  17.183  1.00  0.00     0.004 A 
ENDROOT
BRANCH   1   7
ATOM      7  C   UNL     1      13.233  21.456  17.706  1.00  0.00     0.032 C 
ATOM      8  C   UNL     1      13.985  20.132  17.793  1.00  0.00     0.009 C 
ENDBRANCH   1   7
BRANCH   3   9
ATOM      9  O   UNL     1       9.038  22.519  20.082  1.00  0.00    -0.508 OA
ATOM     10  H   UNL     1       8.043  22.410  20.244  1.00  0.00     0.293 HD
ENDBRANCH   3   9
TORSDOF 2
ENDMDL
MODEL 3
REMARK VINA RESULT:    -5.178      2.485      3.809
REMARK INTER + INTRA:          -5.706
REMARK INTER:                  -5.634
REMARK INTRA:                  -0.072
REMARK UNBOUND:                -0.074
REMARK SMILES CCc1cccc(O)c1
REMARK SMILES IDX 3 1 9 2 7 3 6 4 5 5 4 6 2 7 1 8 8 9
REMARK H PARENT 8 10
REMARK Flexibility Score: inf
ROOT
ATOM      1  C   UNL     1       9.538  22.818   8.002  1.00  0.00    -0.045 A 
ATOM      2  C   UNL     1       8.828  23.963   7.603  1.00  0.00     0.049 A 
ATOM      3  C   UNL     1       7.459  24.077   7.874  1.00  0.00     0.115 A 
ATOM      4  C   UNL     1       6.796  23.049   8.556  1.00  0.00     0.046 A 
ATOM      5  C   UNL     1       7.499  21.914   8.969  1.00  0.00     0.004 A 
ATOM      6  C   UNL     1       8.866  21.799   8.698  1.00  0.00     0.004 A 
ENDROOT
BRANCH   1   7
ATOM      7  C   UNL     1      11.016  22.710   7.740  1.00  0.00     0.032 C 
ATOM      8  C   UNL     1      11.450  21.249   7.684  1.00  0.00     0.009 C 
ENDBRANCH   1   7
BRANCH   3   9
ATOM      9  O   UNL     1       6.771  25.216   7.464  1.00  0.00    -0.508 OA
ATOM     10  H   UNL     1       6.085  25.664   8.061  1.00  0.00     0.293 HD
ENDBRANCH   3   9
TORSDOF 2
ENDMDL
MODEL 4
REMARK VINA RESULT:    -5.119      9.573     10.476
REMARK INTER + INTRA:          -5.642
REMARK INTER:                  -5.572
REMARK INTRA:                  -0.070
REMARK UNBOUND:                -0.074
REMARK SMILES CCc1cccc(O)c1
REMARK SMILES IDX 3 1 9 2 7 3 6 4 5 5 4 6 2 7 1 8 8 9
REMARK H PARENT 8 10
REMARK Flexibility Score: inf
ROOT
ATOM      1  C   UNL     1      10.996  21.028  18.717  1.00  0.00    -0.045 A 
ATOM      2  C   UNL     1      12.181  21.724  18.423  1.00  0.00     0.049 A 
ATOM      3  C   UNL     1      12.783  21.595  17.165  1.00  0.00     0.115 A 
ATOM      4  C   UNL     1      12.196  20.777  16.192  1.00  0.00     0.046 A 
ATOM      5  C   UNL     1      11.009  20.094  16.473  1.00  0.00     0.004 A 
ATOM      6  C   UNL     1      10.408  20.222  17.729  1.00  0.00     0.004 A 
ENDROOT
BRANCH   1   7
ATOM      7  C   UNL     1      10.331  21.192  20.057  1.00  0.00     0.032 C 
ATOM      8  C   UNL     1       8.836  21.447  19.891  1.00  0.00     0.009 C 
ENDBRANCH   1   7
BRANCH   3   9
ATOM      9  O   UNL     1      13.961  22.287  16.895  1.00  0.00    -0.508 OA
ATOM     10  H   UNL     1      14.794  22.156  17.459  1.00  0.00     0.293 HD
ENDBRANCH   3   9
TORSDOF 2
ENDMDL
MODEL 5
REMARK VINA RESULT:    -5.087     10.145     11.033
REMARK INTER + INTRA:          -5.607
REMARK INTER:                  -5.545
REMARK INTRA:                  -0.062
REMARK UNBOUND:                -0.074
REMARK SMILES CCc1cccc(O)c1
REMARK SMILES IDX 3 1 9 2 7 3 6 4 5 5 4 6 2 7 1 8 8 9
REMARK H PARENT 8 10
REMARK Flexibility Score: inf
ROOT
ATOM      1  C   UNL     1      11.625  20.734  18.243  1.00  0.00    -0.045 A 
ATOM      2  C   UNL     1      10.536  20.198  17.535  1.00  0.00     0.049 A 
ATOM      3  C   UNL     1       9.227  20.409  17.985  1.00  0.00     0.115 A 
ATOM      4  C   UNL     1       9.001  21.169  19.140  1.00  0.00     0.046 A 
ATOM      5  C   UNL     1      10.079  21.718  19.839  1.00  0.00     0.004 A 
ATOM      6  C   UNL     1      11.387  21.506  19.392  1.00  0.00     0.004 A 
ENDROOT
BRANCH   1   7
ATOM      7  C   UNL     1      13.030  20.534  17.741  1.00  0.00     0.032 C 
ATOM      8  C   UNL     1      13.635  21.858  17.287  1.00  0.00     0.009 C 
ENDBRANCH   1   7
BRANCH   3   9
ATOM      9  O   UNL     1       8.160  19.864  17.274  1.00  0.00    -0.508 OA
ATOM     10  H   UNL     1       7.969  20.134  16.316  1.00  0.00     0.293 HD
ENDBRANCH   3   9
TORSDOF 2
ENDMDL
MODEL 6
REMARK VINA RESULT:    -5.040     10.566     12.156
REMARK INTER + INTRA:          -5.557
REMARK INTER:                  -5.483
REMARK INTRA:                  -0.074
REMARK UNBOUND:                -0.074
REMARK SMILES CCc1cccc(O)c1
REMARK SMILES IDX 3 1 9 2 7 3 6 4 5 5 4 6 2 7 1 8 8 9
REMARK H PARENT 8 10
REMARK Flexibility Score: inf
ROOT
ATOM      1  C   UNL     1      19.644  18.558  11.567  1.00  0.00    -0.045 A 
ATOM      2  C   UNL     1      20.736  17.692  11.741  1.00  0.00     0.049 A 
ATOM      3  C   UNL     1      22.045  18.189  11.712  1.00  0.00     0.115 A 
ATOM      4  C   UNL     1      22.266  19.558  11.519  1.00  0.00     0.046 A 
ATOM      5  C   UNL     1      21.183  20.427  11.361  1.00  0.00     0.004 A 
ATOM      6  C   UNL     1      19.876  19.932  11.389  1.00  0.00     0.004 A 
ENDROOT
BRANCH   1   7
ATOM      7  C   UNL     1      18.236  18.029  11.632  1.00  0.00     0.032 C 
ATOM      8  C   UNL     1      17.272  19.114  12.098  1.00  0.00     0.009 C 
ENDBRANCH   1   7
BRANCH   3   9
ATOM      9  O   UNL     1      23.115  17.313  11.879  1.00  0.00    -0.508 OA
ATOM     10  H   UNL     1      23.787  17.151  11.138  1.00  0.00     0.293 HD
ENDBRANCH   3   9
TORSDOF 2
ENDMDL
MODEL 7
REMARK VINA RESULT:    -5.038      2.329      4.106
REMARK INTER + INTRA:          -5.554
REMARK INTER:                  -5.503
REMARK INTRA:                  -0.051
REMARK UNBOUND:                -0.074
REMARK SMILES CCc1cccc(O)c1
REMARK SMILES IDX 3 1 9 2 7 3 6 4 5 5 4 6 2 7 1 8 8 9
REMARK H PARENT 8 10
REMARK Flexibility Score: inf
ROOT
ATOM      1  C   UNL     1       9.375  23.318   7.880  1.00  0.00    -0.045 A 
ATOM      2  C   UNL     1       8.408  22.601   8.604  1.00  0.00     0.049 A 
ATOM      3  C   UNL     1       7.088  23.066   8.674  1.00  0.00     0.115 A 
ATOM      4  C   UNL     1       6.729  24.245   8.009  1.00  0.00     0.046 A 
ATOM      5  C   UNL     1       7.683  24.954   7.274  1.00  0.00     0.004 A 
ATOM      6  C   UNL     1       9.001  24.491   7.205  1.00  0.00     0.004 A 
ENDROOT
BRANCH   1   7
ATOM      7  C   UNL     1      10.785  22.801   7.778  1.00  0.00     0.032 C 
ATOM      8  C   UNL     1      10.811  21.279   7.881  1.00  0.00     0.009 C 
ENDBRANCH   1   7
BRANCH   3   9
ATOM      9  O   UNL     1       6.145  22.346   9.403  1.00  0.00    -0.508 OA
ATOM     10  H   UNL     1       6.264  22.169  10.394  1.00  0.00     0.293 HD
ENDBRANCH   3   9
TORSDOF 2
ENDMDL
MODEL 8
REMARK VINA RESULT:    -5.013      2.154      2.814
REMARK INTER + INTRA:          -5.527
REMARK INTER:                  -5.462
REMARK INTRA:                  -0.065
REMARK UNBOUND:                -0.074
REMARK SMILES CCc1cccc(O)c1
REMARK SMILES IDX 3 1 9 2 7 3 6 4 5 5 4 6 2 7 1 8 8 9
REMARK H PARENT 8 10
REMARK Flexibility Score: inf
ROOT
ATOM      1  C   UNL     1       8.337  23.903   7.707  1.00  0.00    -0.045 A 
ATOM      2  C   UNL     1       7.535  23.013   8.442  1.00  0.00     0.049 A 
ATOM      3  C   UNL     1       8.111  21.916   9.094  1.00  0.00     0.115 A 
ATOM      4  C   UNL     1       9.494  21.711   9.023  1.00  0.00     0.046 A 
ATOM      5  C   UNL     1      10.299  22.601   8.307  1.00  0.00     0.004 A 
ATOM      6  C   UNL     1       9.724  23.696   7.654  1.00  0.00     0.004 A 
ENDROOT
BRANCH   1   7
ATOM      7  C   UNL     1       7.722  25.100   7.034  1.00  0.00     0.032 C 
ATOM      8  C   UNL     1       8.188  25.203   5.585  1.00  0.00     0.009 C 
ENDBRANCH   1   7
BRANCH   3   9
ATOM      9  O   UNL     1       7.299  21.041   9.812  1.00  0.00    -0.508 OA
ATOM     10  H   UNL     1       6.322  21.247   9.986  1.00  0.00     0.293 HD
ENDBRANCH   3   9
TORSDOF 2
ENDMDL
MODEL 9
REMARK VINA RESULT:    -4.945      9.715     11.183
REMARK INTER + INTRA:          -5.453
REMARK INTER:                  -5.396
REMARK INTRA:                  -0.057
REMARK UNBOUND:                -0.074
REMARK SMILES CCc1cccc(O)c1
REMARK SMILES IDX 3 1 9 2 7 3 6 4 5 5 4 6 2 7 1 8 8 9
REMARK H PARENT 8 10
REMARK Flexibility Score: inf
ROOT
ATOM      1  C   UNL     1      14.272  18.978  17.749  1.00  0.00    -0.045 A 
ATOM      2  C   UNL     1      13.345  20.034  17.766  1.00  0.00     0.049 A 
ATOM      3  C   UNL     1      12.726  20.451  16.582  1.00  0.00     0.115 A 
ATOM      4  C   UNL     1      13.025  19.805  15.375  1.00  0.00     0.046 A 
ATOM      5  C   UNL     1      13.934  18.744  15.354  1.00  0.00     0.004 A 
ATOM      6  C   UNL     1      14.554  18.328  16.537  1.00  0.00     0.004 A 
ENDROOT
BRANCH   1   7
ATOM      7  C   UNL     1      14.912  18.508  19.028  1.00  0.00     0.032 C 
ATOM      8  C   UNL     1      16.404  18.824  19.033  1.00  0.00     0.009 C 
ENDBRANCH   1   7
BRANCH   3   9
ATOM      9  O   UNL     1      11.816  21.504  16.617  1.00  0.00    -0.508 OA
ATOM     10  H   UNL     1      12.074  22.416  16.978  1.00  0.00     0.293 HD
ENDBRANCH   3   9
TORSDOF 2
ENDMDL
