MODEL 1
REMARK VINA RESULT:    -7.166      0.000      0.000
REMARK INTER + INTRA:          -8.939
REMARK INTER:                  -8.632
REMARK INTRA:                  -0.307
REMARK UNBOUND:                -0.307
REMARK SMILES O=c1c(O)c(-c2ccc(O)cc2O)oc2cc(O)cc(O)c12
REMARK SMILES IDX 5 1 3 2 2 3 1 4 22 5 20 6 19 7 17 8 16 9 15 10 14 11 6 12
REMARK SMILES IDX 8 13 7 14 9 15 11 16 12 17 10 18 13 20 4 22 21 24 18 26
REMARK H PARENT 10 19 13 21 4 23 21 25 18 27
REMARK Flexibility Score: inf
ROOT
ATOM      1  C   UNL     1      98.062 104.194 116.131  1.00  0.00     0.184 A 
ATOM      2  C   UNL     1      98.254 103.000 115.418  1.00  0.00     0.208 A 
ATOM      3  C   UNL     1      98.361 101.794 116.128  1.00  0.00     0.238 A 
ATOM      4  O   UNL     1      98.608 100.738 115.489  1.00  0.00    -0.285 OA
ATOM      5  C   UNL     1      98.219 101.791 117.537  1.00  0.00     0.111 A 
ATOM      6  C   UNL     1      98.265 100.622 118.356  1.00  0.00     0.134 A 
ATOM      7  C   UNL     1      98.218 100.752 119.750  1.00  0.00     0.093 A 
ATOM      8  C   UNL     1      98.062 101.999 120.352  1.00  0.00     0.123 A 
ATOM      9  C   UNL     1      97.960 103.143 119.560  1.00  0.00     0.094 A 
ATOM     10  C   UNL     1      98.043 103.051 118.169  1.00  0.00     0.146 A 
ATOM     11  O   UNL     1      97.963 104.166 117.454  1.00  0.00    -0.451 OA
ENDROOT
BRANCH   1  12
ATOM     12  C   UNL     1      97.949 105.498 115.446  1.00  0.00     0.063 A 
ATOM     13  C   UNL     1      98.921 107.667 114.935  1.00  0.00     0.047 A 
ATOM     14  C   UNL     1      98.993 106.427 115.574  1.00  0.00     0.020 A 
ATOM     15  C   UNL     1      97.813 107.989 114.149  1.00  0.00     0.119 A 
ATOM     16  C   UNL     1      96.775 107.061 113.995  1.00  0.00     0.093 A 
ATOM     17  C   UNL     1      96.842 105.811 114.629  1.00  0.00     0.130 A 
BRANCH  15  18
ATOM     18  O   UNL     1      97.753 109.231 113.520  1.00  0.00    -0.508 OA
ATOM     19  H   UNL     1      97.957 109.336 112.533  1.00  0.00     0.293 HD
ENDBRANCH  15  18
BRANCH  17  20
ATOM     20  O   UNL     1      95.826 104.875 114.429  1.00  0.00    -0.507 OA
ATOM     21  H   UNL     1      95.570 104.559 113.501  1.00  0.00     0.293 HD
ENDBRANCH  17  20
ENDBRANCH   1  12
BRANCH   2  22
ATOM     22  O   UNL     1      98.320 103.021 114.023  1.00  0.00    -0.502 OA
ATOM     23  H   UNL     1      98.754 102.279 113.487  1.00  0.00     0.293 HD
ENDBRANCH   2  22
BRANCH   6  24
ATOM     24  O   UNL     1      98.331  99.318 117.856  1.00  0.00    -0.507 OA
ATOM     25  H   UNL     1      98.210  99.062 116.889  1.00  0.00     0.293 HD
ENDBRANCH   6  24
BRANCH   8  26
ATOM     26  O   UNL     1      98.001 102.089 121.741  1.00  0.00    -0.508 OA
ATOM     27  H   UNL     1      98.466 101.414 122.337  1.00  0.00     0.293 HD
ENDBRANCH   8  26
TORSDOF 6
ENDMDL
MODEL 2
REMARK VINA RESULT:    -7.138     11.267     12.695
REMARK INTER + INTRA:          -8.906
REMARK INTER:                  -8.606
REMARK INTRA:                  -0.300
REMARK UNBOUND:                -0.307
REMARK SMILES O=c1c(O)c(-c2ccc(O)cc2O)oc2cc(O)cc(O)c12
REMARK SMILES IDX 5 1 3 2 2 3 1 4 22 5 20 6 19 7 17 8 16 9 15 10 14 11 6 12
REMARK SMILES IDX 8 13 7 14 9 15 11 16 12 17 10 18 13 20 4 22 21 24 18 26
REMARK H PARENT 10 19 13 21 4 23 21 25 18 27
REMARK Flexibility Score: inf
ROOT
ATOM      1  C   UNL     1     109.361 103.179 116.261  1.00  0.00     0.184 A 
ATOM      2  C   UNL     1     109.184 104.380 115.555  1.00  0.00     0.208 A 
ATOM      3  C   UNL     1     109.081 105.582 116.273  1.00  0.00     0.238 A 
ATOM      4  O   UNL     1     108.848 106.644 115.640  1.00  0.00    -0.285 OA
ATOM      5  C   UNL     1     109.212 105.574 117.683  1.00  0.00     0.111 A 
ATOM      6  C   UNL     1     109.169 106.737 118.510  1.00  0.00     0.134 A 
ATOM      7  C   UNL     1     109.204 106.596 119.903  1.00  0.00     0.093 A 
ATOM      8  C   UNL     1     109.346 105.343 120.498  1.00  0.00     0.123 A 
ATOM      9  C   UNL     1     109.444 104.204 119.698  1.00  0.00     0.094 A 
ATOM     10  C   UNL     1     109.373 104.307 118.307  1.00  0.00     0.146 A 
ATOM     11  O   UNL     1     109.450 103.196 117.585  1.00  0.00    -0.451 OA
ENDROOT
BRANCH   1  12
ATOM     12  C   UNL     1     109.469 101.879 115.567  1.00  0.00     0.063 A 
ATOM     13  C   UNL     1     108.489  99.717 115.042  1.00  0.00     0.047 A 
ATOM     14  C   UNL     1     108.421 100.954 115.690  1.00  0.00     0.020 A 
ATOM     15  C   UNL     1     109.595  99.396 114.253  1.00  0.00     0.119 A 
ATOM     16  C   UNL     1     110.636 100.322 114.105  1.00  0.00     0.093 A 
ATOM     17  C   UNL     1     110.574 101.568 114.747  1.00  0.00     0.130 A 
BRANCH  15  18
ATOM     18  O   UNL     1     109.650  98.158 113.617  1.00  0.00    -0.508 OA
ATOM     19  H   UNL     1     110.421  97.519 113.768  1.00  0.00     0.293 HD
ENDBRANCH  15  18
BRANCH  17  20
ATOM     20  O   UNL     1     111.593 102.501 114.552  1.00  0.00    -0.507 OA
ATOM     21  H   UNL     1     112.561 102.282 114.755  1.00  0.00     0.293 HD
ENDBRANCH  17  20
ENDBRANCH   1  12
BRANCH   2  22
ATOM     22  O   UNL     1     109.129 104.369 114.159  1.00  0.00    -0.502 OA
ATOM     23  H   UNL     1     108.309 104.668 113.645  1.00  0.00     0.293 HD
ENDBRANCH   2  22
BRANCH   6  24
ATOM     24  O   UNL     1     109.117 108.045 118.020  1.00  0.00    -0.507 OA
ATOM     25  H   UNL     1     109.848 108.732 118.126  1.00  0.00     0.293 HD
ENDBRANCH   6  24
BRANCH   8  26
ATOM     26  O   UNL     1     109.394 105.243 121.887  1.00  0.00    -0.508 OA
ATOM     27  H   UNL     1     110.256 105.391 122.399  1.00  0.00     0.293 HD
ENDBRANCH   8  26
TORSDOF 6
ENDMDL
MODEL 3
REMARK VINA RESULT:    -6.812     11.712     12.960
REMARK INTER + INTRA:          -8.514
REMARK INTER:                  -8.098
REMARK INTRA:                  -0.416
REMARK UNBOUND:                -0.307
REMARK SMILES O=c1c(O)c(-c2ccc(O)cc2O)oc2cc(O)cc(O)c12
REMARK SMILES IDX 5 1 3 2 2 3 1 4 22 5 20 6 19 7 17 8 16 9 15 10 14 11 6 12
REMARK SMILES IDX 8 13 7 14 9 15 11 16 12 17 10 18 13 20 4 22 21 24 18 26
REMARK H PARENT 10 19 13 21 4 23 21 25 18 27
REMARK Flexibility Score: inf
ROOT
ATOM      1  C   UNL     1     109.697 104.157 118.323  1.00  0.00     0.184 A 
ATOM      2  C   UNL     1     110.910 104.673 117.841  1.00  0.00     0.208 A 
ATOM      3  C   UNL     1     111.535 104.041 116.755  1.00  0.00     0.238 A 
ATOM      4  O   UNL     1     112.658 104.463 116.375  1.00  0.00    -0.285 OA
ATOM      5  C   UNL     1     110.910 102.933 116.130  1.00  0.00     0.111 A 
ATOM      6  C   UNL     1     111.430 102.241 114.994  1.00  0.00     0.134 A 
ATOM      7  C   UNL     1     110.779 101.093 114.526  1.00  0.00     0.093 A 
ATOM      8  C   UNL     1     109.593 100.649 115.111  1.00  0.00     0.123 A 
ATOM      9  C   UNL     1     109.047 101.349 116.187  1.00  0.00     0.094 A 
ATOM     10  C   UNL     1     109.693 102.475 116.701  1.00  0.00     0.146 A 
ATOM     11  O   UNL     1     109.149 103.099 117.738  1.00  0.00    -0.451 OA
ENDROOT
BRANCH   1  12
ATOM     12  C   UNL     1     108.992 104.770 119.467  1.00  0.00     0.063 A 
ATOM     13  C   UNL     1     107.692 106.623 120.355  1.00  0.00     0.047 A 
ATOM     14  C   UNL     1     108.373 106.018 119.295  1.00  0.00     0.020 A 
ATOM     15  C   UNL     1     107.610 105.985 121.594  1.00  0.00     0.119 A 
ATOM     16  C   UNL     1     108.205 104.729 121.770  1.00  0.00     0.093 A 
ATOM     17  C   UNL     1     108.885 104.112 120.710  1.00  0.00     0.130 A 
BRANCH  15  18
ATOM     18  O   UNL     1     106.932 106.603 122.642  1.00  0.00    -0.508 OA
ATOM     19  H   UNL     1     106.140 107.213 122.475  1.00  0.00     0.293 HD
ENDBRANCH  15  18
BRANCH  17  20
ATOM     20  O   UNL     1     109.431 102.839 120.882  1.00  0.00    -0.507 OA
ATOM     21  H   UNL     1     110.341 102.704 121.307  1.00  0.00     0.293 HD
ENDBRANCH  17  20
ENDBRANCH   1  12
BRANCH   2  22
ATOM     22  O   UNL     1     111.469 105.810 118.429  1.00  0.00    -0.502 OA
ATOM     23  H   UNL     1     110.903 106.549 118.830  1.00  0.00     0.293 HD
ENDBRANCH   2  22
BRANCH   6  24
ATOM     24  O   UNL     1     112.559 102.649 114.278  1.00  0.00    -0.507 OA
ATOM     25  H   UNL     1     112.992 102.126 113.533  1.00  0.00     0.293 HD
ENDBRANCH   6  24
BRANCH   8  26
ATOM     26  O   UNL     1     108.963  99.512 114.608  1.00  0.00    -0.508 OA
ATOM     27  H   UNL     1     108.546  98.822 115.221  1.00  0.00     0.293 HD
ENDBRANCH   8  26
TORSDOF 6
ENDMDL
MODEL 4
REMARK VINA RESULT:    -6.787      5.830      8.194
REMARK INTER + INTRA:          -8.483
REMARK INTER:                  -8.223
REMARK INTRA:                  -0.259
REMARK UNBOUND:                -0.307
REMARK SMILES O=c1c(O)c(-c2ccc(O)cc2O)oc2cc(O)cc(O)c12
REMARK SMILES IDX 5 1 3 2 2 3 1 4 22 5 20 6 19 7 17 8 16 9 15 10 14 11 6 12
REMARK SMILES IDX 8 13 7 14 9 15 11 16 12 17 10 18 13 20 4 22 21 24 18 26
REMARK H PARENT 10 19 13 21 4 23 21 25 18 27
REMARK Flexibility Score: inf
ROOT
ATOM      1  C   UNL     1     101.006 104.909 111.479  1.00  0.00     0.184 A 
ATOM      2  C   UNL     1     101.141 103.582 111.917  1.00  0.00     0.208 A 
ATOM      3  C   UNL     1     102.055 102.740 111.265  1.00  0.00     0.238 A 
ATOM      4  O   UNL     1     102.117 101.532 111.614  1.00  0.00    -0.285 OA
ATOM      5  C   UNL     1     102.862 103.252 110.220  1.00  0.00     0.111 A 
ATOM      6  C   UNL     1     103.854 102.501 109.517  1.00  0.00     0.134 A 
ATOM      7  C   UNL     1     104.518 103.083 108.430  1.00  0.00     0.093 A 
ATOM      8  C   UNL     1     104.275 104.405 108.059  1.00  0.00     0.123 A 
ATOM      9  C   UNL     1     103.348 105.165 108.773  1.00  0.00     0.094 A 
ATOM     10  C   UNL     1     102.641 104.602 109.838  1.00  0.00     0.146 A 
ATOM     11  O   UNL     1     101.753 105.354 110.477  1.00  0.00    -0.451 OA
ENDROOT
BRANCH   1  12
ATOM     12  C   UNL     1     100.057 105.845 112.117  1.00  0.00     0.063 A 
ATOM     13  C   UNL     1      97.784 106.336 112.825  1.00  0.00     0.047 A 
ATOM     14  C   UNL     1      98.706 105.477 112.222  1.00  0.00     0.020 A 
ATOM     15  C   UNL     1      98.200 107.565 113.341  1.00  0.00     0.119 A 
ATOM     16  C   UNL     1      99.550 107.931 113.262  1.00  0.00     0.093 A 
ATOM     17  C   UNL     1     100.484 107.073 112.664  1.00  0.00     0.130 A 
BRANCH  15  18
ATOM     18  O   UNL     1      97.267 108.412 113.936  1.00  0.00    -0.508 OA
ATOM     19  H   UNL     1      97.455 109.400 114.062  1.00  0.00     0.293 HD
ENDBRANCH  15  18
BRANCH  17  20
ATOM     20  O   UNL     1     101.833 107.426 112.635  1.00  0.00    -0.507 OA
ATOM     21  H   UNL     1     102.131 108.393 112.695  1.00  0.00     0.293 HD
ENDBRANCH  17  20
ENDBRANCH   1  12
BRANCH   2  22
ATOM     22  O   UNL     1     100.384 103.122 112.997  1.00  0.00    -0.502 OA
ATOM     23  H   UNL     1     100.562 103.416 113.951  1.00  0.00     0.293 HD
ENDBRANCH   2  22
BRANCH   6  24
ATOM     24  O   UNL     1     104.240 101.202 109.858  1.00  0.00    -0.507 OA
ATOM     25  H   UNL     1     105.191 100.899 109.996  1.00  0.00     0.293 HD
ENDBRANCH   6  24
BRANCH   8  26
ATOM     26  O   UNL     1     104.967 104.955 106.983  1.00  0.00    -0.508 OA
ATOM     27  H   UNL     1     104.495 105.211 106.124  1.00  0.00     0.293 HD
ENDBRANCH   8  26
TORSDOF 6
ENDMDL
MODEL 5
REMARK VINA RESULT:    -6.764      1.860      6.666
REMARK INTER + INTRA:          -8.455
REMARK INTER:                  -8.040
REMARK INTRA:                  -0.415
REMARK UNBOUND:                -0.307
REMARK SMILES O=c1c(O)c(-c2ccc(O)cc2O)oc2cc(O)cc(O)c12
REMARK SMILES IDX 5 1 3 2 2 3 1 4 22 5 20 6 19 7 17 8 16 9 15 10 14 11 6 12
REMARK SMILES IDX 8 13 7 14 9 15 11 16 12 17 10 18 13 20 4 22 21 24 18 26
REMARK H PARENT 10 19 13 21 4 23 21 25 18 27
REMARK Flexibility Score: inf
ROOT
ATOM      1  C   UNL     1      97.900 103.022 118.208  1.00  0.00     0.184 A 
ATOM      2  C   UNL     1      96.656 102.550 117.762  1.00  0.00     0.208 A 
ATOM      3  C   UNL     1      96.003 103.230 116.723  1.00  0.00     0.238 A 
ATOM      4  O   UNL     1      94.855 102.847 116.378  1.00  0.00    -0.285 OA
ATOM      5  C   UNL     1      96.630 104.341 116.104  1.00  0.00     0.111 A 
ATOM      6  C   UNL     1      96.081 105.079 115.012  1.00  0.00     0.134 A 
ATOM      7  C   UNL     1      96.742 106.225 114.551  1.00  0.00     0.093 A 
ATOM      8  C   UNL     1      97.962 106.622 115.098  1.00  0.00     0.123 A 
ATOM      9  C   UNL     1      98.534 105.877 116.129  1.00  0.00     0.094 A 
ATOM     10  C   UNL     1      97.881 104.752 116.637  1.00  0.00     0.146 A 
ATOM     11  O   UNL     1      98.451 104.084 117.632  1.00  0.00    -0.451 OA
ENDROOT
BRANCH   1  12
ATOM     12  C   UNL     1      98.636 102.357 119.304  1.00  0.00     0.063 A 
ATOM     13  C   UNL     1     100.274 100.701 119.999  1.00  0.00     0.047 A 
ATOM     14  C   UNL     1      99.558 101.346 118.988  1.00  0.00     0.020 A 
ATOM     15  C   UNL     1     100.091 101.066 121.334  1.00  0.00     0.119 A 
ATOM     16  C   UNL     1      99.190 102.090 121.658  1.00  0.00     0.093 A 
ATOM     17  C   UNL     1      98.471 102.746 120.649  1.00  0.00     0.130 A 
BRANCH  15  18
ATOM     18  O   UNL     1     100.810 100.411 122.332  1.00  0.00    -0.508 OA
ATOM     19  H   UNL     1     101.799 100.581 122.470  1.00  0.00     0.293 HD
ENDBRANCH  15  18
BRANCH  17  20
ATOM     20  O   UNL     1      97.614 103.797 120.978  1.00  0.00    -0.507 OA
ATOM     21  H   UNL     1      97.408 104.033 121.942  1.00  0.00     0.293 HD
ENDBRANCH  17  20
ENDBRANCH   1  12
BRANCH   2  22
ATOM     22  O   UNL     1      96.092 101.410 118.340  1.00  0.00    -0.502 OA
ATOM     23  H   UNL     1      96.653 100.635 118.673  1.00  0.00     0.293 HD
ENDBRANCH   2  22
BRANCH   6  24
ATOM     24  O   UNL     1      94.913 104.721 114.333  1.00  0.00    -0.507 OA
ATOM     25  H   UNL     1      94.619 105.103 113.448  1.00  0.00     0.293 HD
ENDBRANCH   6  24
BRANCH   8  26
ATOM     26  O   UNL     1      98.600 107.757 114.603  1.00  0.00    -0.508 OA
ATOM     27  H   UNL     1      98.897 107.819 113.636  1.00  0.00     0.293 HD
ENDBRANCH   8  26
TORSDOF 6
ENDMDL
MODEL 6
REMARK VINA RESULT:    -6.752      1.956      2.385
REMARK INTER + INTRA:          -8.441
REMARK INTER:                  -8.026
REMARK INTRA:                  -0.415
REMARK UNBOUND:                -0.307
REMARK SMILES O=c1c(O)c(-c2ccc(O)cc2O)oc2cc(O)cc(O)c12
REMARK SMILES IDX 5 1 3 2 2 3 1 4 22 5 20 6 19 7 17 8 16 9 15 10 14 11 6 12
REMARK SMILES IDX 8 13 7 14 9 15 11 16 12 17 10 18 13 20 4 22 21 24 18 26
REMARK H PARENT 10 19 13 21 4 23 21 25 18 27
REMARK Flexibility Score: inf
ROOT
ATOM      1  C   UNL     1      98.581 103.912 116.072  1.00  0.00     0.184 A 
ATOM      2  C   UNL     1      97.248 103.503 116.234  1.00  0.00     0.208 A 
ATOM      3  C   UNL     1      96.949 102.524 117.194  1.00  0.00     0.238 A 
ATOM      4  O   UNL     1      95.764 102.108 117.283  1.00  0.00    -0.285 OA
ATOM      5  C   UNL     1      97.979 102.007 118.018  1.00  0.00     0.111 A 
ATOM      6  C   UNL     1      97.784 101.044 119.054  1.00  0.00     0.134 A 
ATOM      7  C   UNL     1      98.894 100.527 119.734  1.00  0.00     0.093 A 
ATOM      8  C   UNL     1     100.183 100.983 119.462  1.00  0.00     0.123 A 
ATOM      9  C   UNL     1     100.379 101.964 118.490  1.00  0.00     0.094 A 
ATOM     10  C   UNL     1      99.298 102.472 117.767  1.00  0.00     0.146 A 
ATOM     11  O   UNL     1      99.532 103.389 116.837  1.00  0.00    -0.451 OA
ENDROOT
BRANCH   1  12
ATOM     12  C   UNL     1      98.965 104.933 115.075  1.00  0.00     0.063 A 
ATOM     13  C   UNL     1      99.355 107.272 114.542  1.00  0.00     0.047 A 
ATOM     14  C   UNL     1      98.991 106.283 115.459  1.00  0.00     0.020 A 
ATOM     15  C   UNL     1      99.710 106.926 113.237  1.00  0.00     0.119 A 
ATOM     16  C   UNL     1      99.710 105.579 112.850  1.00  0.00     0.093 A 
ATOM     17  C   UNL     1      99.351 104.579 113.766  1.00  0.00     0.130 A 
BRANCH  15  18
ATOM     18  O   UNL     1     100.067 107.924 112.333  1.00  0.00    -0.508 OA
ATOM     19  H   UNL     1      99.716 107.928 111.382  1.00  0.00     0.293 HD
ENDBRANCH  15  18
BRANCH  17  20
ATOM     20  O   UNL     1      99.402 103.238 113.384  1.00  0.00    -0.507 OA
ATOM     21  H   UNL     1      98.640 102.800 112.878  1.00  0.00     0.293 HD
ENDBRANCH  17  20
ENDBRANCH   1  12
BRANCH   2  22
ATOM     22  O   UNL     1      96.240 104.081 115.458  1.00  0.00    -0.502 OA
ATOM     23  H   UNL     1      95.304 104.239 115.812  1.00  0.00     0.293 HD
ENDBRANCH   2  22
BRANCH   6  24
ATOM     24  O   UNL     1      96.532 100.583 119.469  1.00  0.00    -0.507 OA
ATOM     25  H   UNL     1      95.664 100.751 118.985  1.00  0.00     0.293 HD
ENDBRANCH   6  24
BRANCH   8  26
ATOM     26  O   UNL     1     101.262 100.459 120.170  1.00  0.00    -0.508 OA
ATOM     27  H   UNL     1     101.868  99.753 119.768  1.00  0.00     0.293 HD
ENDBRANCH   8  26
TORSDOF 6
ENDMDL
MODEL 7
REMARK VINA RESULT:    -6.751      9.179     11.740
REMARK INTER + INTRA:          -8.439
REMARK INTER:                  -8.161
REMARK INTRA:                  -0.278
REMARK UNBOUND:                -0.307
REMARK SMILES O=c1c(O)c(-c2ccc(O)cc2O)oc2cc(O)cc(O)c12
REMARK SMILES IDX 5 1 3 2 2 3 1 4 22 5 20 6 19 7 17 8 16 9 15 10 14 11 6 12
REMARK SMILES IDX 8 13 7 14 9 15 11 16 12 17 10 18 13 20 4 22 21 24 18 26
REMARK H PARENT 10 19 13 21 4 23 21 25 18 27
REMARK Flexibility Score: inf
ROOT
ATOM      1  C   UNL     1     106.386 102.483 111.498  1.00  0.00     0.184 A 
ATOM      2  C   UNL     1     106.231 103.791 111.981  1.00  0.00     0.208 A 
ATOM      3  C   UNL     1     105.328 104.652 111.337  1.00  0.00     0.238 A 
ATOM      4  O   UNL     1     105.249 105.846 111.728  1.00  0.00    -0.285 OA
ATOM      5  C   UNL     1     104.551 104.174 110.254  1.00  0.00     0.111 A 
ATOM      6  C   UNL     1     103.573 104.944 109.554  1.00  0.00     0.134 A 
ATOM      7  C   UNL     1     102.939 104.400 108.429  1.00  0.00     0.093 A 
ATOM      8  C   UNL     1     103.201 103.094 108.017  1.00  0.00     0.123 A 
ATOM      9  C   UNL     1     104.115 102.313 108.726  1.00  0.00     0.094 A 
ATOM     10  C   UNL     1     104.791 102.840 109.828  1.00  0.00     0.146 A 
ATOM     11  O   UNL     1     105.667 102.070 110.461  1.00  0.00    -0.451 OA
ENDROOT
BRANCH   1  12
ATOM     12  C   UNL     1     107.325 101.529 112.125  1.00  0.00     0.063 A 
ATOM     13  C   UNL     1     109.589 101.014 112.845  1.00  0.00     0.047 A 
ATOM     14  C   UNL     1     108.676 101.889 112.252  1.00  0.00     0.020 A 
ATOM     15  C   UNL     1     109.163  99.776 113.330  1.00  0.00     0.119 A 
ATOM     16  C   UNL     1     107.813  99.417 113.230  1.00  0.00     0.093 A 
ATOM     17  C   UNL     1     106.888 100.292 112.641  1.00  0.00     0.130 A 
BRANCH  15  18
ATOM     18  O   UNL     1     110.086  98.912 113.915  1.00  0.00    -0.508 OA
ATOM     19  H   UNL     1     110.374  98.055 113.457  1.00  0.00     0.293 HD
ENDBRANCH  15  18
BRANCH  17  20
ATOM     20  O   UNL     1     105.537  99.944 112.590  1.00  0.00    -0.507 OA
ATOM     21  H   UNL     1     105.089  99.677 111.722  1.00  0.00     0.293 HD
ENDBRANCH  17  20
ENDBRANCH   1  12
BRANCH   2  22
ATOM     22  O   UNL     1     106.958 104.216 113.096  1.00  0.00    -0.502 OA
ATOM     23  H   UNL     1     107.944 104.017 113.210  1.00  0.00     0.293 HD
ENDBRANCH   2  22
BRANCH   6  24
ATOM     24  O   UNL     1     103.169 106.228 109.933  1.00  0.00    -0.507 OA
ATOM     25  H   UNL     1     103.726 106.875 110.469  1.00  0.00     0.293 HD
ENDBRANCH   6  24
BRANCH   8  26
ATOM     26  O   UNL     1     102.540 102.579 106.904  1.00  0.00    -0.508 OA
ATOM     27  H   UNL     1     101.970 103.168 106.306  1.00  0.00     0.293 HD
ENDBRANCH   8  26
TORSDOF 6
ENDMDL
MODEL 8
REMARK VINA RESULT:    -6.662      5.059      7.206
REMARK INTER + INTRA:          -8.332
REMARK INTER:                  -7.898
REMARK INTRA:                  -0.435
REMARK UNBOUND:                -0.307
REMARK SMILES O=c1c(O)c(-c2ccc(O)cc2O)oc2cc(O)cc(O)c12
REMARK SMILES IDX 5 1 3 2 2 3 1 4 22 5 20 6 19 7 17 8 16 9 15 10 14 11 6 12
REMARK SMILES IDX 8 13 7 14 9 15 11 16 12 17 10 18 13 20 4 22 21 24 18 26
REMARK H PARENT 10 19 13 21 4 23 21 25 18 27
REMARK Flexibility Score: inf
ROOT
ATOM      1  C   UNL     1     101.085 105.283 111.617  1.00  0.00     0.184 A 
ATOM      2  C   UNL     1     100.650 104.135 112.298  1.00  0.00     0.208 A 
ATOM      3  C   UNL     1      99.721 104.274 113.341  1.00  0.00     0.238 A 
ATOM      4  O   UNL     1      99.392 103.251 113.996  1.00  0.00    -0.285 OA
ATOM      5  C   UNL     1      99.197 105.554 113.652  1.00  0.00     0.111 A 
ATOM      6  C   UNL     1      98.217 105.807 114.659  1.00  0.00     0.134 A 
ATOM      7  C   UNL     1      97.851 107.128 114.950  1.00  0.00     0.093 A 
ATOM      8  C   UNL     1      98.380 108.197 114.229  1.00  0.00     0.123 A 
ATOM      9  C   UNL     1      99.297 107.957 113.206  1.00  0.00     0.094 A 
ATOM     10  C   UNL     1      99.711 106.655 112.917  1.00  0.00     0.146 A 
ATOM     11  O   UNL     1     100.601 106.473 111.949  1.00  0.00    -0.451 OA
ENDROOT
BRANCH   1  12
ATOM     12  C   UNL     1     102.068 105.207 110.516  1.00  0.00     0.063 A 
ATOM     13  C   UNL     1     102.531 104.741 108.176  1.00  0.00     0.047 A 
ATOM     14  C   UNL     1     101.630 104.817 109.240  1.00  0.00     0.020 A 
ATOM     15  C   UNL     1     103.876 105.065 108.367  1.00  0.00     0.119 A 
ATOM     16  C   UNL     1     104.318 105.477 109.631  1.00  0.00     0.093 A 
ATOM     17  C   UNL     1     103.419 105.562 110.704  1.00  0.00     0.130 A 
BRANCH  15  18
ATOM     18  O   UNL     1     104.764 104.980 107.297  1.00  0.00    -0.508 OA
ATOM     19  H   UNL     1     105.739 104.742 107.435  1.00  0.00     0.293 HD
ENDBRANCH  15  18
BRANCH  17  20
ATOM     20  O   UNL     1     103.861 106.021 111.946  1.00  0.00    -0.507 OA
ATOM     21  H   UNL     1     103.212 106.343 112.655  1.00  0.00     0.293 HD
ENDBRANCH  17  20
ENDBRANCH   1  12
BRANCH   2  22
ATOM     22  O   UNL     1     101.128 102.877 111.925  1.00  0.00    -0.502 OA
ATOM     23  H   UNL     1     100.568 102.215 111.401  1.00  0.00     0.293 HD
ENDBRANCH   2  22
BRANCH   6  24
ATOM     24  O   UNL     1      97.558 104.807 115.380  1.00  0.00    -0.507 OA
ATOM     25  H   UNL     1      97.800 104.513 116.314  1.00  0.00     0.293 HD
ENDBRANCH   6  24
BRANCH   8  26
ATOM     26  O   UNL     1      97.980 109.497 114.534  1.00  0.00    -0.508 OA
ATOM     27  H   UNL     1      97.956 109.833 115.490  1.00  0.00     0.293 HD
ENDBRANCH   8  26
TORSDOF 6
ENDMDL
MODEL 9
REMARK VINA RESULT:    -6.654     10.509     11.715
REMARK INTER + INTRA:          -8.322
REMARK INTER:                  -7.888
REMARK INTRA:                  -0.435
REMARK UNBOUND:                -0.307
REMARK SMILES O=c1c(O)c(-c2ccc(O)cc2O)oc2cc(O)cc(O)c12
REMARK SMILES IDX 5 1 3 2 2 3 1 4 22 5 20 6 19 7 17 8 16 9 15 10 14 11 6 12
REMARK SMILES IDX 8 13 7 14 9 15 11 16 12 17 10 18 13 20 4 22 21 24 18 26
REMARK H PARENT 10 19 13 21 4 23 21 25 18 27
REMARK Flexibility Score: inf
ROOT
ATOM      1  C   UNL     1     108.766 103.642 116.187  1.00  0.00     0.184 A 
ATOM      2  C   UNL     1     110.087 104.080 116.373  1.00  0.00     0.208 A 
ATOM      3  C   UNL     1     110.356 105.021 117.378  1.00  0.00     0.238 A 
ATOM      4  O   UNL     1     111.529 105.465 117.491  1.00  0.00    -0.285 OA
ATOM      5  C   UNL     1     109.310 105.471 118.221  1.00  0.00     0.111 A 
ATOM      6  C   UNL     1     109.476 106.390 119.302  1.00  0.00     0.134 A 
ATOM      7  C   UNL     1     108.350 106.844 120.001  1.00  0.00     0.093 A 
ATOM      8  C   UNL     1     107.075 106.365 119.702  1.00  0.00     0.123 A 
ATOM      9  C   UNL     1     106.908 105.426 118.685  1.00  0.00     0.094 A 
ATOM     10  C   UNL     1     108.005 104.982 117.944  1.00  0.00     0.146 A 
ATOM     11  O   UNL     1     107.799 104.103 116.971  1.00  0.00    -0.451 OA
ENDROOT
BRANCH   1  12
ATOM     12  C   UNL     1     108.413 102.659 115.141  1.00  0.00     0.063 A 
ATOM     13  C   UNL     1     108.326 100.341 114.415  1.00  0.00     0.047 A 
ATOM     14  C   UNL     1     108.653 101.297 115.380  1.00  0.00     0.020 A 
ATOM     15  C   UNL     1     107.744 100.731 113.208  1.00  0.00     0.119 A 
ATOM     16  C   UNL     1     107.478 102.086 112.969  1.00  0.00     0.093 A 
ATOM     17  C   UNL     1     107.798 103.052 113.934  1.00  0.00     0.130 A 
BRANCH  15  18
ATOM     18  O   UNL     1     107.426  99.767 112.253  1.00  0.00    -0.508 OA
ATOM     19  H   UNL     1     108.069  99.018 112.023  1.00  0.00     0.293 HD
ENDBRANCH  15  18
BRANCH  17  20
ATOM     20  O   UNL     1     107.485 104.392 113.706  1.00  0.00    -0.507 OA
ATOM     21  H   UNL     1     107.758 104.864 112.852  1.00  0.00     0.293 HD
ENDBRANCH  17  20
ENDBRANCH   1  12
BRANCH   2  22
ATOM     22  O   UNL     1     111.112 103.567 115.574  1.00  0.00    -0.502 OA
ATOM     23  H   UNL     1     111.183 103.769 114.584  1.00  0.00     0.293 HD
ENDBRANCH   2  22
BRANCH   6  24
ATOM     24  O   UNL     1     110.714 106.865 119.743  1.00  0.00    -0.507 OA
ATOM     25  H   UNL     1     110.844 107.558 120.464  1.00  0.00     0.293 HD
ENDBRANCH   6  24
BRANCH   8  26
ATOM     26  O   UNL     1     105.980 106.827 120.430  1.00  0.00    -0.508 OA
ATOM     27  H   UNL     1     105.325 107.493 120.038  1.00  0.00     0.293 HD
ENDBRANCH   8  26
TORSDOF 6
ENDMDL
