MODEL 1
REMARK VINA RESULT:    -4.191      0.000      0.000
REMARK INTER + INTRA:          -9.305
REMARK INTER:                  -7.375
REMARK INTRA:                  -1.930
REMARK UNBOUND:                -1.930
REMARK SMILES CCCCCCC=CCCCCCCCC(=O)[O-]
REMARK SMILES IDX 10 1 11 2 12 3 13 4 14 5 15 6 16 7 17 8 18 9 9 10 8 11 7 12
REMARK SMILES IDX 6 13 5 14 4 15 3 16 2 17 1 18
REMARK H PARENT
REMARK Flexibility Score: inf
ROOT
ATOM      1  C   UNL     1      28.179  33.852  19.850  1.00  0.00     0.004 C 
ENDROOT
BRANCH   1   2
ATOM      2  C   UNL     1      27.787  32.583  20.616  1.00  0.00     0.000 C 
BRANCH   2   3
ATOM      3  C   UNL     1      26.362  32.141  20.255  1.00  0.00     0.000 C 
BRANCH   3   4
ATOM      4  C   UNL     1      26.019  32.372  18.774  1.00  0.00     0.000 C 
BRANCH   4   5
ATOM      5  C   UNL     1      24.773  33.242  18.515  1.00  0.00     0.006 C 
BRANCH   5   6
ATOM      6  C   UNL     1      24.055  33.709  19.795  1.00  0.00     0.053 C 
BRANCH   6   7
ATOM      7  C   UNL     1      22.673  33.141  19.923  1.00  0.00     0.041 C 
ATOM      8  O   UNL     1      22.432  32.241  20.771  1.00  0.00    -0.550 OA
ATOM      9  O   UNL     1      21.642  33.633  19.135  1.00  0.00    -0.550 OA
ENDBRANCH   6   7
ENDBRANCH   5   6
ENDBRANCH   4   5
ENDBRANCH   3   4
ENDBRANCH   2   3
ENDBRANCH   1   2
BRANCH   1  10
ATOM     10  C   UNL     1      27.779  35.110  20.628  1.00  0.00     0.027 C 
BRANCH  10  11
ATOM     11  C   UNL     1      28.151  34.979  22.083  1.00  0.00    -0.031 C 
ATOM     12  C   UNL     1      29.333  35.353  22.607  1.00  0.00    -0.031 C 
BRANCH  12  13
ATOM     13  C   UNL     1      30.431  36.049  21.840  1.00  0.00     0.027 C 
BRANCH  13  14
ATOM     14  C   UNL     1      31.411  35.050  21.209  1.00  0.00     0.004 C 
BRANCH  14  15
ATOM     15  C   UNL     1      31.795  33.923  22.183  1.00  0.00     0.000 C 
BRANCH  15  16
ATOM     16  C   UNL     1      31.450  32.528  21.638  1.00  0.00    -0.000 C 
BRANCH  16  17
ATOM     17  C   UNL     1      31.519  32.458  20.105  1.00  0.00    -0.003 C 
ATOM     18  C   UNL     1      32.429  31.321  19.648  1.00  0.00     0.004 C 
ENDBRANCH  16  17
ENDBRANCH  15  16
ENDBRANCH  14  15
ENDBRANCH  13  14
ENDBRANCH  12  13
ENDBRANCH  10  11
ENDBRANCH   1  10
TORSDOF 13
ENDMDL
MODEL 2
REMARK VINA RESULT:    -4.170     10.788     12.918
REMARK INTER + INTRA:          -9.270
REMARK INTER:                  -7.028
REMARK INTRA:                  -2.242
REMARK UNBOUND:                -1.930
REMARK SMILES CCCCCCC=CCCCCCCCC(=O)[O-]
REMARK SMILES IDX 10 1 11 2 12 3 13 4 14 5 15 6 16 7 17 8 18 9 9 10 8 11 7 12
REMARK SMILES IDX 6 13 5 14 4 15 3 16 2 17 1 18
REMARK H PARENT
REMARK Flexibility Score: inf
ROOT
ATOM      1  C   UNL     1      22.652  23.548  22.397  1.00  0.00     0.004 C 
ENDROOT
BRANCH   1   2
ATOM      2  C   UNL     1      22.777  24.651  23.455  1.00  0.00     0.000 C 
BRANCH   2   3
ATOM      3  C   UNL     1      21.769  24.438  24.593  1.00  0.00     0.000 C 
BRANCH   3   4
ATOM      4  C   UNL     1      20.573  23.564  24.181  1.00  0.00     0.000 C 
BRANCH   4   5
ATOM      5  C   UNL     1      19.201  24.265  24.222  1.00  0.00     0.006 C 
BRANCH   5   6
ATOM      6  C   UNL     1      19.241  25.750  23.816  1.00  0.00     0.053 C 
BRANCH   6   7
ATOM      7  C   UNL     1      18.935  26.670  24.959  1.00  0.00     0.041 C 
ATOM      8  O   UNL     1      17.876  27.353  24.959  1.00  0.00    -0.550 OA
ATOM      9  O   UNL     1      19.798  26.745  26.044  1.00  0.00    -0.550 OA
ENDBRANCH   6   7
ENDBRANCH   5   6
ENDBRANCH   4   5
ENDBRANCH   3   4
ENDBRANCH   2   3
ENDBRANCH   1   2
BRANCH   1  10
ATOM     10  C   UNL     1      22.762  24.127  20.982  1.00  0.00     0.027 C 
BRANCH  10  11
ATOM     11  C   UNL     1      21.895  25.351  20.838  1.00  0.00    -0.031 C 
ATOM     12  C   UNL     1      20.595  25.330  20.487  1.00  0.00    -0.031 C 
BRANCH  12  13
ATOM     13  C   UNL     1      19.782  24.076  20.278  1.00  0.00     0.027 C 
BRANCH  13  14
ATOM     14  C   UNL     1      20.008  23.472  18.884  1.00  0.00     0.004 C 
BRANCH  14  15
ATOM     15  C   UNL     1      19.926  21.936  18.900  1.00  0.00     0.000 C 
BRANCH  15  16
ATOM     16  C   UNL     1      21.282  21.275  19.196  1.00  0.00    -0.000 C 
BRANCH  16  17
ATOM     17  C   UNL     1      21.329  20.621  20.585  1.00  0.00    -0.003 C 
ATOM     18  C   UNL     1      19.932  20.518  21.192  1.00  0.00     0.004 C 
ENDBRANCH  16  17
ENDBRANCH  15  16
ENDBRANCH  14  15
ENDBRANCH  13  14
ENDBRANCH  12  13
ENDBRANCH  10  11
ENDBRANCH   1  10
TORSDOF 13
ENDMDL
MODEL 3
REMARK VINA RESULT:    -4.084     10.508     13.277
REMARK INTER + INTRA:          -9.117
REMARK INTER:                  -6.649
REMARK INTRA:                  -2.468
REMARK UNBOUND:                -1.930
REMARK SMILES CCCCCCC=CCCCCCCCC(=O)[O-]
REMARK SMILES IDX 10 1 11 2 12 3 13 4 14 5 15 6 16 7 17 8 18 9 9 10 8 11 7 12
REMARK SMILES IDX 6 13 5 14 4 15 3 16 2 17 1 18
REMARK H PARENT
REMARK Flexibility Score: inf
ROOT
ATOM      1  C   UNL     1      22.346  23.487  22.373  1.00  0.00     0.004 C 
ENDROOT
BRANCH   1   2
ATOM      2  C   UNL     1      22.637  24.967  22.096  1.00  0.00     0.000 C 
BRANCH   2   3
ATOM      3  C   UNL     1      21.981  25.419  20.784  1.00  0.00     0.000 C 
BRANCH   3   4
ATOM      4  C   UNL     1      20.585  26.030  20.990  1.00  0.00     0.000 C 
BRANCH   4   5
ATOM      5  C   UNL     1      20.455  26.982  22.195  1.00  0.00     0.006 C 
BRANCH   5   6
ATOM      6  C   UNL     1      19.363  26.577  23.202  1.00  0.00     0.053 C 
BRANCH   6   7
ATOM      7  C   UNL     1      19.860  26.556  24.617  1.00  0.00     0.041 C 
ATOM      8  O   UNL     1      20.756  25.741  24.963  1.00  0.00    -0.550 OA
ATOM      9  O   UNL     1      19.364  27.463  25.544  1.00  0.00    -0.550 OA
ENDBRANCH   6   7
ENDBRANCH   5   6
ENDBRANCH   4   5
ENDBRANCH   3   4
ENDBRANCH   2   3
ENDBRANCH   1   2
BRANCH   1  10
ATOM     10  C   UNL     1      22.782  22.610  21.194  1.00  0.00     0.027 C 
BRANCH  10  11
ATOM     11  C   UNL     1      21.890  21.400  21.072  1.00  0.00    -0.031 C 
ATOM     12  C   UNL     1      20.743  21.365  20.369  1.00  0.00    -0.031 C 
BRANCH  12  13
ATOM     13  C   UNL     1      20.221  22.496  19.518  1.00  0.00     0.027 C 
BRANCH  13  14
ATOM     14  C   UNL     1      18.821  22.948  19.961  1.00  0.00     0.004 C 
BRANCH  14  15
ATOM     15  C   UNL     1      18.409  22.319  21.303  1.00  0.00     0.000 C 
BRANCH  15  16
ATOM     16  C   UNL     1      18.413  23.334  22.457  1.00  0.00    -0.000 C 
BRANCH  16  17
ATOM     17  C   UNL     1      19.138  22.807  23.705  1.00  0.00    -0.003 C 
ATOM     18  C   UNL     1      18.334  21.697  24.378  1.00  0.00     0.004 C 
ENDBRANCH  16  17
ENDBRANCH  15  16
ENDBRANCH  14  15
ENDBRANCH  13  14
ENDBRANCH  12  13
ENDBRANCH  10  11
ENDBRANCH   1  10
TORSDOF 13
ENDMDL
MODEL 4
REMARK VINA RESULT:    -4.074     10.741     12.913
REMARK INTER + INTRA:          -9.100
REMARK INTER:                  -6.723
REMARK INTRA:                  -2.377
REMARK UNBOUND:                -1.930
REMARK SMILES CCCCCCC=CCCCCCCCC(=O)[O-]
REMARK SMILES IDX 10 1 11 2 12 3 13 4 14 5 15 6 16 7 17 8 18 9 9 10 8 11 7 12
REMARK SMILES IDX 6 13 5 14 4 15 3 16 2 17 1 18
REMARK H PARENT
REMARK Flexibility Score: inf
ROOT
ATOM      1  C   UNL     1      20.486  21.044  20.876  1.00  0.00     0.004 C 
ENDROOT
BRANCH   1   2
ATOM      2  C   UNL     1      19.548  21.098  22.087  1.00  0.00     0.000 C 
BRANCH   2   3
ATOM      3  C   UNL     1      18.767  22.420  22.119  1.00  0.00     0.000 C 
BRANCH   3   4
ATOM      4  C   UNL     1      18.852  23.134  23.478  1.00  0.00     0.000 C 
BRANCH   4   5
ATOM      5  C   UNL     1      18.951  24.671  23.408  1.00  0.00     0.006 C 
BRANCH   5   6
ATOM      6  C   UNL     1      18.829  25.372  24.774  1.00  0.00     0.053 C 
BRANCH   6   7
ATOM      7  C   UNL     1      19.578  26.670  24.826  1.00  0.00     0.041 C 
ATOM      8  O   UNL     1      20.390  26.972  23.912  1.00  0.00    -0.550 OA
ATOM      9  O   UNL     1      19.349  27.565  25.862  1.00  0.00    -0.550 OA
ENDBRANCH   6   7
ENDBRANCH   5   6
ENDBRANCH   4   5
ENDBRANCH   3   4
ENDBRANCH   2   3
ENDBRANCH   1   2
BRANCH   1  10
ATOM     10  C   UNL     1      19.764  21.491  19.600  1.00  0.00     0.027 C 
BRANCH  10  11
ATOM     11  C   UNL     1      20.684  22.303  18.724  1.00  0.00    -0.031 C 
ATOM     12  C   UNL     1      20.768  23.647  18.742  1.00  0.00    -0.031 C 
BRANCH  12  13
ATOM     13  C   UNL     1      20.027  24.541  19.706  1.00  0.00     0.027 C 
BRANCH  13  14
ATOM     14  C   UNL     1      20.986  25.409  20.534  1.00  0.00     0.004 C 
BRANCH  14  15
ATOM     15  C   UNL     1      22.353  24.732  20.733  1.00  0.00     0.000 C 
BRANCH  15  16
ATOM     16  C   UNL     1      22.427  23.922  22.037  1.00  0.00    -0.000 C 
BRANCH  16  17
ATOM     17  C   UNL     1      22.814  24.785  23.248  1.00  0.00    -0.003 C 
ATOM     18  C   UNL     1      22.422  24.104  24.556  1.00  0.00     0.004 C 
ENDBRANCH  16  17
ENDBRANCH  15  16
ENDBRANCH  14  15
ENDBRANCH  13  14
ENDBRANCH  12  13
ENDBRANCH  10  11
ENDBRANCH   1  10
TORSDOF 13
ENDMDL
MODEL 5
REMARK VINA RESULT:    -3.952      3.206      7.169
REMARK INTER + INTRA:          -8.885
REMARK INTER:                  -7.475
REMARK INTRA:                  -1.410
REMARK UNBOUND:                -1.930
REMARK SMILES CCCCCCC=CCCCCCCCC(=O)[O-]
REMARK SMILES IDX 10 1 11 2 12 3 13 4 14 5 15 6 16 7 17 8 18 9 9 10 8 11 7 12
REMARK SMILES IDX 6 13 5 14 4 15 3 16 2 17 1 18
REMARK H PARENT
REMARK Flexibility Score: inf
ROOT
ATOM      1  C   UNL     1      28.006  34.764  22.530  1.00  0.00     0.004 C 
ENDROOT
BRANCH   1   2
ATOM      2  C   UNL     1      29.263  35.596  22.249  1.00  0.00     0.000 C 
BRANCH   2   3
ATOM      3  C   UNL     1      29.330  36.009  20.772  1.00  0.00     0.000 C 
BRANCH   3   4
ATOM      4  C   UNL     1      30.671  35.653  20.110  1.00  0.00     0.000 C 
BRANCH   4   5
ATOM      5  C   UNL     1      31.741  35.078  21.059  1.00  0.00     0.006 C 
BRANCH   5   6
ATOM      6  C   UNL     1      32.121  33.615  20.764  1.00  0.00     0.053 C 
BRANCH   6   7
ATOM      7  C   UNL     1      31.586  32.661  21.791  1.00  0.00     0.041 C 
ATOM      8  O   UNL     1      30.392  32.265  21.729  1.00  0.00    -0.550 OA
ATOM      9  O   UNL     1      32.417  32.177  22.793  1.00  0.00    -0.550 OA
ENDBRANCH   6   7
ENDBRANCH   5   6
ENDBRANCH   4   5
ENDBRANCH   3   4
ENDBRANCH   2   3
ENDBRANCH   1   2
BRANCH   1  10
ATOM     10  C   UNL     1      27.213  34.514  21.242  1.00  0.00     0.027 C 
BRANCH  10  11
ATOM     11  C   UNL     1      27.139  33.039  20.939  1.00  0.00    -0.031 C 
ATOM     12  C   UNL     1      26.910  32.520  19.718  1.00  0.00    -0.031 C 
BRANCH  12  13
ATOM     13  C   UNL     1      26.790  33.329  18.450  1.00  0.00     0.027 C 
BRANCH  13  14
ATOM     14  C   UNL     1      25.379  33.909  18.273  1.00  0.00     0.004 C 
BRANCH  14  15
ATOM     15  C   UNL     1      24.289  32.935  18.750  1.00  0.00     0.000 C 
BRANCH  15  16
ATOM     16  C   UNL     1      23.461  33.499  19.916  1.00  0.00    -0.000 C 
BRANCH  16  17
ATOM     17  C   UNL     1      22.424  32.496  20.445  1.00  0.00    -0.003 C 
ATOM     18  C   UNL     1      21.769  31.730  19.299  1.00  0.00     0.004 C 
ENDBRANCH  16  17
ENDBRANCH  15  16
ENDBRANCH  14  15
ENDBRANCH  13  14
ENDBRANCH  12  13
ENDBRANCH  10  11
ENDBRANCH   1  10
TORSDOF 13
ENDMDL
MODEL 6
REMARK VINA RESULT:    -3.904     14.009     16.737
REMARK INTER + INTRA:          -8.800
REMARK INTER:                  -6.662
REMARK INTRA:                  -2.138
REMARK UNBOUND:                -1.930
REMARK SMILES CCCCCCC=CCCCCCCCC(=O)[O-]
REMARK SMILES IDX 10 1 11 2 12 3 13 4 14 5 15 6 16 7 17 8 18 9 9 10 8 11 7 12
REMARK SMILES IDX 6 13 5 14 4 15 3 16 2 17 1 18
REMARK H PARENT
REMARK Flexibility Score: inf
ROOT
ATOM      1  C   UNL     1      36.001  26.487  30.534  1.00  0.00     0.004 C 
ENDROOT
BRANCH   1   2
ATOM      2  C   UNL     1      37.291  25.976  31.185  1.00  0.00     0.000 C 
BRANCH   2   3
ATOM      3  C   UNL     1      36.990  25.243  32.500  1.00  0.00     0.000 C 
BRANCH   3   4
ATOM      4  C   UNL     1      37.282  23.735  32.428  1.00  0.00     0.000 C 
BRANCH   4   5
ATOM      5  C   UNL     1      36.039  22.824  32.411  1.00  0.00     0.006 C 
BRANCH   5   6
ATOM      6  C   UNL     1      34.727  23.545  32.774  1.00  0.00     0.053 C 
BRANCH   6   7
ATOM      7  C   UNL     1      34.178  23.112  34.101  1.00  0.00     0.041 C 
ATOM      8  O   UNL     1      34.947  22.655  34.988  1.00  0.00    -0.550 OA
ATOM      9  O   UNL     1      32.823  23.250  34.373  1.00  0.00    -0.550 OA
ENDBRANCH   6   7
ENDBRANCH   5   6
ENDBRANCH   4   5
ENDBRANCH   3   4
ENDBRANCH   2   3
ENDBRANCH   1   2
BRANCH   1  10
ATOM     10  C   UNL     1      35.356  25.403  29.663  1.00  0.00     0.027 C 
BRANCH  10  11
ATOM     11  C   UNL     1      36.077  25.278  28.346  1.00  0.00    -0.031 C 
ATOM     12  C   UNL     1      36.841  24.228  27.988  1.00  0.00    -0.031 C 
BRANCH  12  13
ATOM     13  C   UNL     1      37.015  22.974  28.809  1.00  0.00     0.027 C 
BRANCH  13  14
ATOM     14  C   UNL     1      36.072  21.853  28.349  1.00  0.00     0.004 C 
BRANCH  14  15
ATOM     15  C   UNL     1      35.995  21.755  26.816  1.00  0.00     0.000 C 
BRANCH  15  16
ATOM     16  C   UNL     1      34.551  21.649  26.302  1.00  0.00    -0.000 C 
BRANCH  16  17
ATOM     17  C   UNL     1      33.950  23.016  25.941  1.00  0.00    -0.003 C 
ATOM     18  C   UNL     1      34.731  23.678  24.810  1.00  0.00     0.004 C 
ENDBRANCH  16  17
ENDBRANCH  15  16
ENDBRANCH  14  15
ENDBRANCH  13  14
ENDBRANCH  12  13
ENDBRANCH  10  11
ENDBRANCH   1  10
TORSDOF 13
ENDMDL
MODEL 7
REMARK VINA RESULT:    -3.830     10.630     12.774
REMARK INTER + INTRA:          -8.671
REMARK INTER:                  -6.058
REMARK INTRA:                  -2.612
REMARK UNBOUND:                -1.930
REMARK SMILES CCCCCCC=CCCCCCCCC(=O)[O-]
REMARK SMILES IDX 10 1 11 2 12 3 13 4 14 5 15 6 16 7 17 8 18 9 9 10 8 11 7 12
REMARK SMILES IDX 6 13 5 14 4 15 3 16 2 17 1 18
REMARK H PARENT
REMARK Flexibility Score: inf
ROOT
ATOM      1  C   UNL     1      19.486  23.195  23.923  1.00  0.00     0.004 C 
ENDROOT
BRANCH   1   2
ATOM      2  C   UNL     1      19.288  22.515  22.563  1.00  0.00     0.000 C 
BRANCH   2   3
ATOM      3  C   UNL     1      18.095  23.125  21.813  1.00  0.00     0.000 C 
BRANCH   3   4
ATOM      4  C   UNL     1      18.492  23.757  20.468  1.00  0.00     0.000 C 
BRANCH   4   5
ATOM      5  C   UNL     1      18.818  22.757  19.342  1.00  0.00     0.006 C 
BRANCH   5   6
ATOM      6  C   UNL     1      20.241  22.896  18.771  1.00  0.00     0.053 C 
BRANCH   6   7
ATOM      7  C   UNL     1      21.029  21.623  18.864  1.00  0.00     0.041 C 
ATOM      8  O   UNL     1      21.101  20.846  17.875  1.00  0.00    -0.550 OA
ATOM      9  O   UNL     1      21.717  21.314  20.030  1.00  0.00    -0.550 OA
ENDBRANCH   6   7
ENDBRANCH   5   6
ENDBRANCH   4   5
ENDBRANCH   3   4
ENDBRANCH   2   3
ENDBRANCH   1   2
BRANCH   1  10
ATOM     10  C   UNL     1      18.522  24.375  24.094  1.00  0.00     0.027 C 
BRANCH  10  11
ATOM     11  C   UNL     1      19.241  25.572  24.660  1.00  0.00    -0.031 C 
ATOM     12  C   UNL     1      19.824  26.534  23.920  1.00  0.00    -0.031 C 
BRANCH  12  13
ATOM     13  C   UNL     1      19.766  26.613  22.414  1.00  0.00     0.027 C 
BRANCH  13  14
ATOM     14  C   UNL     1      21.165  26.740  21.793  1.00  0.00     0.004 C 
BRANCH  14  15
ATOM     15  C   UNL     1      21.540  25.506  20.955  1.00  0.00     0.000 C 
BRANCH  15  16
ATOM     16  C   UNL     1      22.334  24.465  21.760  1.00  0.00    -0.000 C 
BRANCH  16  17
ATOM     17  C   UNL     1      22.991  25.062  23.013  1.00  0.00    -0.003 C 
ATOM     18  C   UNL     1      22.852  24.120  24.207  1.00  0.00     0.004 C 
ENDBRANCH  16  17
ENDBRANCH  15  16
ENDBRANCH  14  15
ENDBRANCH  13  14
ENDBRANCH  12  13
ENDBRANCH  10  11
ENDBRANCH   1  10
TORSDOF 13
ENDMDL
MODEL 8
REMARK VINA RESULT:    -3.828     10.538     12.582
REMARK INTER + INTRA:          -8.667
REMARK INTER:                  -6.411
REMARK INTRA:                  -2.256
REMARK UNBOUND:                -1.930
REMARK SMILES CCCCCCC=CCCCCCCCC(=O)[O-]
REMARK SMILES IDX 10 1 11 2 12 3 13 4 14 5 15 6 16 7 17 8 18 9 9 10 8 11 7 12
REMARK SMILES IDX 6 13 5 14 4 15 3 16 2 17 1 18
REMARK H PARENT
REMARK Flexibility Score: inf
ROOT
ATOM      1  C   UNL     1      21.475  24.392  24.677  1.00  0.00     0.004 C 
ENDROOT
BRANCH   1   2
ATOM      2  C   UNL     1      20.496  25.571  24.632  1.00  0.00     0.000 C 
BRANCH   2   3
ATOM      3  C   UNL     1      19.064  25.084  24.367  1.00  0.00     0.000 C 
BRANCH   3   4
ATOM      4  C   UNL     1      19.003  23.898  23.391  1.00  0.00     0.000 C 
BRANCH   4   5
ATOM      5  C   UNL     1      18.580  24.250  21.952  1.00  0.00     0.006 C 
BRANCH   5   6
ATOM      6  C   UNL     1      18.094  25.701  21.777  1.00  0.00     0.053 C 
BRANCH   6   7
ATOM      7  C   UNL     1      18.844  26.437  20.706  1.00  0.00     0.041 C 
ATOM      8  O   UNL     1      18.469  26.368  19.506  1.00  0.00    -0.550 OA
ATOM      9  O   UNL     1      19.933  27.231  21.039  1.00  0.00    -0.550 OA
ENDBRANCH   6   7
ENDBRANCH   5   6
ENDBRANCH   4   5
ENDBRANCH   3   4
ENDBRANCH   2   3
ENDBRANCH   1   2
BRANCH   1  10
ATOM     10  C   UNL     1      22.767  24.721  23.919  1.00  0.00     0.027 C 
BRANCH  10  11
ATOM     11  C   UNL     1      22.458  25.242  22.539  1.00  0.00    -0.031 C 
ATOM     12  C   UNL     1      22.467  24.493  21.420  1.00  0.00    -0.031 C 
BRANCH  12  13
ATOM     13  C   UNL     1      22.692  23.001  21.386  1.00  0.00     0.027 C 
BRANCH  13  14
ATOM     14  C   UNL     1      21.395  22.233  21.099  1.00  0.00     0.004 C 
BRANCH  14  15
ATOM     15  C   UNL     1      21.587  21.158  20.015  1.00  0.00     0.000 C 
BRANCH  15  16
ATOM     16  C   UNL     1      20.900  21.527  18.690  1.00  0.00    -0.000 C 
BRANCH  16  17
ATOM     17  C   UNL     1      20.366  22.967  18.681  1.00  0.00    -0.003 C 
ATOM     18  C   UNL     1      18.864  22.994  18.416  1.00  0.00     0.004 C 
ENDBRANCH  16  17
ENDBRANCH  15  16
ENDBRANCH  14  15
ENDBRANCH  13  14
ENDBRANCH  12  13
ENDBRANCH  10  11
ENDBRANCH   1  10
TORSDOF 13
ENDMDL
MODEL 9
REMARK VINA RESULT:    -3.825      1.225      2.337
REMARK INTER + INTRA:          -8.661
REMARK INTER:                  -6.725
REMARK INTRA:                  -1.937
REMARK UNBOUND:                -1.930
REMARK SMILES CCCCCCC=CCCCCCCCC(=O)[O-]
REMARK SMILES IDX 10 1 11 2 12 3 13 4 14 5 15 6 16 7 17 8 18 9 9 10 8 11 7 12
REMARK SMILES IDX 6 13 5 14 4 15 3 16 2 17 1 18
REMARK H PARENT
REMARK Flexibility Score: inf
ROOT
ATOM      1  C   UNL     1      28.438  35.143  22.784  1.00  0.00     0.004 C 
ENDROOT
BRANCH   1   2
ATOM      2  C   UNL     1      27.632  34.671  21.568  1.00  0.00     0.000 C 
BRANCH   2   3
ATOM      3  C   UNL     1      27.950  33.206  21.233  1.00  0.00     0.000 C 
BRANCH   3   4
ATOM      4  C   UNL     1      27.168  32.685  20.017  1.00  0.00     0.000 C 
BRANCH   4   5
ATOM      5  C   UNL     1      25.911  33.496  19.645  1.00  0.00     0.006 C 
BRANCH   5   6
ATOM      6  C   UNL     1      24.642  32.643  19.465  1.00  0.00     0.053 C 
BRANCH   6   7
ATOM      7  C   UNL     1      23.384  33.415  19.730  1.00  0.00     0.041 C 
ATOM      8  O   UNL     1      23.234  34.570  19.251  1.00  0.00    -0.550 OA
ATOM      9  O   UNL     1      22.359  32.842  20.471  1.00  0.00    -0.550 OA
ENDBRANCH   6   7
ENDBRANCH   5   6
ENDBRANCH   4   5
ENDBRANCH   3   4
ENDBRANCH   2   3
ENDBRANCH   1   2
BRANCH   1  10
ATOM     10  C   UNL     1      29.869  35.519  22.383  1.00  0.00     0.027 C 
BRANCH  10  11
ATOM     11  C   UNL     1      29.861  36.574  21.307  1.00  0.00    -0.031 C 
ATOM     12  C   UNL     1      30.594  36.520  20.178  1.00  0.00    -0.031 C 
BRANCH  12  13
ATOM     13  C   UNL     1      31.460  35.353  19.772  1.00  0.00     0.027 C 
BRANCH  13  14
ATOM     14  C   UNL     1      30.669  34.298  18.985  1.00  0.00     0.004 C 
BRANCH  14  15
ATOM     15  C   UNL     1      31.082  32.865  19.362  1.00  0.00     0.000 C 
BRANCH  15  16
ATOM     16  C   UNL     1      32.100  32.828  20.513  1.00  0.00    -0.000 C 
BRANCH  16  17
ATOM     17  C   UNL     1      31.498  32.281  21.816  1.00  0.00    -0.003 C 
ATOM     18  C   UNL     1      32.594  31.870  22.796  1.00  0.00     0.004 C 
ENDBRANCH  16  17
ENDBRANCH  15  16
ENDBRANCH  14  15
ENDBRANCH  13  14
ENDBRANCH  12  13
ENDBRANCH  10  11
ENDBRANCH   1  10
TORSDOF 13
ENDMDL
