MODEL 1
REMARK VINA RESULT:    -4.741      0.000      0.000
REMARK INTER + INTRA:          -8.677
REMARK INTER:                  -8.067
REMARK INTRA:                  -0.610
REMARK UNBOUND:                -0.610
REMARK SMILES CCCCCCCCCCCCCC(=O)[O-]
REMARK SMILES IDX 8 1 9 2 10 3 11 4 12 5 13 6 14 7 15 8 16 9 7 10 6 11 5 12
REMARK SMILES IDX 4 13 3 14 2 15 1 16
REMARK H PARENT
REMARK Flexibility Score: inf
ROOT
ATOM      1  C   UNL     1      -3.991   1.270  11.468  1.00  0.00     0.000 C 
ENDROOT
BRANCH   1   2
ATOM      2  C   UNL     1      -3.247   0.179  10.679  1.00  0.00     0.000 C 
BRANCH   2   3
ATOM      3  C   UNL     1      -3.822  -0.005   9.258  1.00  0.00     0.000 C 
BRANCH   3   4
ATOM      4  C   UNL     1      -4.249  -1.450   8.950  1.00  0.00     0.000 C 
BRANCH   4   5
ATOM      5  C   UNL     1      -3.156  -2.479   9.280  1.00  0.00     0.006 C 
BRANCH   5   6
ATOM      6  C   UNL     1      -3.632  -3.920   9.060  1.00  0.00     0.053 C 
BRANCH   6   7
ATOM      7  C   UNL     1      -4.416  -4.432  10.230  1.00  0.00     0.041 C 
ATOM      8  O   UNL     1      -5.439  -5.141  10.045  1.00  0.00    -0.550 OA
ATOM      9  O   UNL     1      -4.037  -4.093  11.523  1.00  0.00    -0.550 OA
ENDBRANCH   6   7
ENDBRANCH   5   6
ENDBRANCH   4   5
ENDBRANCH   3   4
ENDBRANCH   2   3
ENDBRANCH   1   2
BRANCH   1  10
ATOM     10  C   UNL     1      -4.803   0.700  12.643  1.00  0.00     0.000 C 
BRANCH  10  11
ATOM     11  C   UNL     1      -5.477   1.799  13.482  1.00  0.00    -0.000 C 
BRANCH  11  12
ATOM     12  C   UNL     1      -4.801   1.999  14.849  1.00  0.00    -0.000 C 
BRANCH  12  13
ATOM     13  C   UNL     1      -5.358   3.215  15.610  1.00  0.00    -0.000 C 
BRANCH  13  14
ATOM     14  C   UNL     1      -6.645   2.887  16.385  1.00  0.00    -0.000 C 
BRANCH  14  15
ATOM     15  C   UNL     1      -7.692   4.008  16.295  1.00  0.00    -0.003 C 
ATOM     16  C   UNL     1      -8.283   4.095  14.890  1.00  0.00     0.004 C 
ENDBRANCH  14  15
ENDBRANCH  13  14
ENDBRANCH  12  13
ENDBRANCH  11  12
ENDBRANCH  10  11
ENDBRANCH   1  10
TORSDOF 12
ENDMDL
MODEL 2
REMARK VINA RESULT:    -4.700      3.823      8.131
REMARK INTER + INTRA:          -8.608
REMARK INTER:                  -7.850
REMARK INTRA:                  -0.757
REMARK UNBOUND:                -0.610
REMARK SMILES CCCCCCCCCCCCCC(=O)[O-]
REMARK SMILES IDX 8 1 9 2 10 3 11 4 12 5 13 6 14 7 15 8 16 9 7 10 6 11 5 12
REMARK SMILES IDX 4 13 3 14 2 15 1 16
REMARK H PARENT
REMARK Flexibility Score: inf
ROOT
ATOM      1  C   UNL     1      -4.063   0.477  12.227  1.00  0.00     0.000 C 
ENDROOT
BRANCH   1   2
ATOM      2  C   UNL     1      -5.347   0.798  13.012  1.00  0.00     0.000 C 
BRANCH   2   3
ATOM      3  C   UNL     1      -5.305   2.205  13.645  1.00  0.00     0.000 C 
BRANCH   3   4
ATOM      4  C   UNL     1      -4.650   2.234  15.036  1.00  0.00     0.000 C 
BRANCH   4   5
ATOM      5  C   UNL     1      -5.350   3.202  16.005  1.00  0.00     0.006 C 
BRANCH   5   6
ATOM      6  C   UNL     1      -6.818   2.826  16.239  1.00  0.00     0.053 C 
BRANCH   6   7
ATOM      7  C   UNL     1      -7.741   3.967  15.936  1.00  0.00     0.041 C 
ATOM      8  O   UNL     1      -8.436   3.957  14.887  1.00  0.00    -0.550 OA
ATOM      9  O   UNL     1      -7.803   5.058  16.794  1.00  0.00    -0.550 OA
ENDBRANCH   6   7
ENDBRANCH   5   6
ENDBRANCH   4   5
ENDBRANCH   3   4
ENDBRANCH   2   3
ENDBRANCH   1   2
BRANCH   1  10
ATOM     10  C   UNL     1      -4.043   1.126  10.834  1.00  0.00     0.000 C 
BRANCH  10  11
ATOM     11  C   UNL     1      -3.598   0.147   9.734  1.00  0.00    -0.000 C 
BRANCH  11  12
ATOM     12  C   UNL     1      -3.728  -1.325  10.161  1.00  0.00    -0.000 C 
BRANCH  12  13
ATOM     13  C   UNL     1      -2.397  -2.089  10.058  1.00  0.00    -0.000 C 
BRANCH  13  14
ATOM     14  C   UNL     1      -2.484  -3.508  10.642  1.00  0.00    -0.000 C 
BRANCH  14  15
ATOM     15  C   UNL     1      -3.718  -3.706  11.535  1.00  0.00    -0.003 C 
ATOM     16  C   UNL     1      -4.558  -4.889  11.056  1.00  0.00     0.004 C 
ENDBRANCH  14  15
ENDBRANCH  13  14
ENDBRANCH  12  13
ENDBRANCH  11  12
ENDBRANCH  10  11
ENDBRANCH   1  10
TORSDOF 12
ENDMDL
MODEL 3
REMARK VINA RESULT:    -4.650      6.239      8.930
REMARK INTER + INTRA:          -8.521
REMARK INTER:                  -7.746
REMARK INTRA:                  -0.776
REMARK UNBOUND:                -0.610
REMARK SMILES CCCCCCCCCCCCCC(=O)[O-]
REMARK SMILES IDX 8 1 9 2 10 3 11 4 12 5 13 6 14 7 15 8 16 9 7 10 6 11 5 12
REMARK SMILES IDX 4 13 3 14 2 15 1 16
REMARK H PARENT
REMARK Flexibility Score: inf
ROOT
ATOM      1  C   UNL     1      -2.474   3.420  15.544  1.00  0.00     0.000 C 
ENDROOT
BRANCH   1   2
ATOM      2  C   UNL     1      -3.907   3.755  15.994  1.00  0.00     0.000 C 
BRANCH   2   3
ATOM      3  C   UNL     1      -4.933   2.718  15.487  1.00  0.00     0.000 C 
BRANCH   3   4
ATOM      4  C   UNL     1      -6.251   2.719  16.279  1.00  0.00     0.000 C 
BRANCH   4   5
ATOM      5  C   UNL     1      -7.311   3.653  15.672  1.00  0.00     0.006 C 
BRANCH   5   6
ATOM      6  C   UNL     1      -7.787   4.715  16.671  1.00  0.00     0.053 C 
BRANCH   6   7
ATOM      7  C   UNL     1      -6.916   5.934  16.645  1.00  0.00     0.041 C 
ATOM      8  O   UNL     1      -6.741   6.610  17.692  1.00  0.00    -0.550 OA
ATOM      9  O   UNL     1      -6.328   6.343  15.454  1.00  0.00    -0.550 OA
ENDBRANCH   6   7
ENDBRANCH   5   6
ENDBRANCH   4   5
ENDBRANCH   3   4
ENDBRANCH   2   3
ENDBRANCH   1   2
BRANCH   1  10
ATOM     10  C   UNL     1      -2.391   2.091  14.777  1.00  0.00     0.000 C 
BRANCH  10  11
ATOM     11  C   UNL     1      -1.614   1.011  15.550  1.00  0.00    -0.000 C 
BRANCH  11  12
ATOM     12  C   UNL     1      -0.405   1.580  16.310  1.00  0.00    -0.000 C 
BRANCH  12  13
ATOM     13  C   UNL     1      -0.590   1.528  17.837  1.00  0.00    -0.000 C 
BRANCH  13  14
ATOM     14  C   UNL     1      -0.212   0.162  18.431  1.00  0.00    -0.000 C 
BRANCH  14  15
ATOM     15  C   UNL     1      -0.112   0.189  19.963  1.00  0.00    -0.003 C 
ATOM     16  C   UNL     1       1.339   0.329  20.416  1.00  0.00     0.004 C 
ENDBRANCH  14  15
ENDBRANCH  13  14
ENDBRANCH  12  13
ENDBRANCH  11  12
ENDBRANCH  10  11
ENDBRANCH   1  10
TORSDOF 12
ENDMDL
MODEL 4
REMARK VINA RESULT:    -4.565      1.163      1.610
REMARK INTER + INTRA:          -8.377
REMARK INTER:                  -7.484
REMARK INTRA:                  -0.893
REMARK UNBOUND:                -0.610
REMARK SMILES CCCCCCCCCCCCCC(=O)[O-]
REMARK SMILES IDX 8 1 9 2 10 3 11 4 12 5 13 6 14 7 15 8 16 9 7 10 6 11 5 12
REMARK SMILES IDX 4 13 3 14 2 15 1 16
REMARK H PARENT
REMARK Flexibility Score: inf
ROOT
ATOM      1  C   UNL     1      -4.285   1.759  10.415  1.00  0.00     0.000 C 
ENDROOT
BRANCH   1   2
ATOM      2  C   UNL     1      -3.178   0.753  10.059  1.00  0.00     0.000 C 
BRANCH   2   3
ATOM      3  C   UNL     1      -3.668  -0.708  10.148  1.00  0.00     0.000 C 
BRANCH   3   4
ATOM      4  C   UNL     1      -3.136  -1.461  11.378  1.00  0.00     0.000 C 
BRANCH   4   5
ATOM      5  C   UNL     1      -2.674  -2.891  11.050  1.00  0.00     0.006 C 
BRANCH   5   6
ATOM      6  C   UNL     1      -3.720  -3.942  11.443  1.00  0.00     0.053 C 
BRANCH   6   7
ATOM      7  C   UNL     1      -4.401  -4.525  10.243  1.00  0.00     0.041 C 
ATOM      8  O   UNL     1      -3.987  -4.254   9.086  1.00  0.00    -0.550 OA
ATOM      9  O   UNL     1      -5.517  -5.337  10.403  1.00  0.00    -0.550 OA
ENDBRANCH   6   7
ENDBRANCH   5   6
ENDBRANCH   4   5
ENDBRANCH   3   4
ENDBRANCH   2   3
ENDBRANCH   1   2
BRANCH   1  10
ATOM     10  C   UNL     1      -4.241   2.190  11.889  1.00  0.00     0.000 C 
BRANCH  10  11
ATOM     11  C   UNL     1      -5.094   1.285  12.795  1.00  0.00    -0.000 C 
BRANCH  11  12
ATOM     12  C   UNL     1      -4.723   1.415  14.282  1.00  0.00    -0.000 C 
BRANCH  12  13
ATOM     13  C   UNL     1      -4.368   2.858  14.677  1.00  0.00    -0.000 C 
BRANCH  13  14
ATOM     14  C   UNL     1      -5.064   3.303  15.974  1.00  0.00    -0.000 C 
BRANCH  14  15
ATOM     15  C   UNL     1      -6.568   2.995  15.974  1.00  0.00    -0.003 C 
ATOM     16  C   UNL     1      -7.319   3.927  15.025  1.00  0.00     0.004 C 
ENDBRANCH  14  15
ENDBRANCH  13  14
ENDBRANCH  12  13
ENDBRANCH  11  12
ENDBRANCH  10  11
ENDBRANCH   1  10
TORSDOF 12
ENDMDL
MODEL 5
REMARK VINA RESULT:    -4.553      3.747      8.209
REMARK INTER + INTRA:          -8.357
REMARK INTER:                  -7.544
REMARK INTRA:                  -0.813
REMARK UNBOUND:                -0.610
REMARK SMILES CCCCCCCCCCCCCC(=O)[O-]
REMARK SMILES IDX 8 1 9 2 10 3 11 4 12 5 13 6 14 7 15 8 16 9 7 10 6 11 5 12
REMARK SMILES IDX 4 13 3 14 2 15 1 16
REMARK H PARENT
REMARK Flexibility Score: inf
ROOT
ATOM      1  C   UNL     1      -5.227   1.362  12.820  1.00  0.00     0.000 C 
ENDROOT
BRANCH   1   2
ATOM      2  C   UNL     1      -4.784   1.421  14.292  1.00  0.00     0.000 C 
BRANCH   2   3
ATOM      3  C   UNL     1      -4.206   2.801  14.670  1.00  0.00     0.000 C 
BRANCH   3   4
ATOM      4  C   UNL     1      -4.838   3.407  15.935  1.00  0.00     0.000 C 
BRANCH   4   5
ATOM      5  C   UNL     1      -6.271   2.909  16.183  1.00  0.00     0.006 C 
BRANCH   5   6
ATOM      6  C   UNL     1      -7.280   4.062  16.256  1.00  0.00     0.053 C 
BRANCH   6   7
ATOM      7  C   UNL     1      -7.762   4.468  14.897  1.00  0.00     0.041 C 
ATOM      8  O   UNL     1      -7.085   5.267  14.198  1.00  0.00    -0.550 OA
ATOM      9  O   UNL     1      -8.976   3.993  14.418  1.00  0.00    -0.550 OA
ENDBRANCH   6   7
ENDBRANCH   5   6
ENDBRANCH   4   5
ENDBRANCH   3   4
ENDBRANCH   2   3
ENDBRANCH   1   2
BRANCH   1  10
ATOM     10  C   UNL     1      -4.346   0.429  11.974  1.00  0.00     0.000 C 
BRANCH  10  11
ATOM     11  C   UNL     1      -3.947   1.055  10.626  1.00  0.00    -0.000 C 
BRANCH  11  12
ATOM     12  C   UNL     1      -3.240   0.056   9.695  1.00  0.00    -0.000 C 
BRANCH  12  13
ATOM     13  C   UNL     1      -4.224  -0.908   9.009  1.00  0.00    -0.000 C 
BRANCH  13  14
ATOM     14  C   UNL     1      -3.777  -2.376   9.108  1.00  0.00    -0.000 C 
BRANCH  14  15
ATOM     15  C   UNL     1      -2.824  -2.626  10.285  1.00  0.00    -0.003 C 
ATOM     16  C   UNL     1      -3.453  -3.567  11.310  1.00  0.00     0.004 C 
ENDBRANCH  14  15
ENDBRANCH  13  14
ENDBRANCH  12  13
ENDBRANCH  11  12
ENDBRANCH  10  11
ENDBRANCH   1  10
TORSDOF 12
ENDMDL
MODEL 6
REMARK VINA RESULT:    -4.501      3.540      7.494
REMARK INTER + INTRA:          -8.269
REMARK INTER:                  -6.951
REMARK INTRA:                  -1.318
REMARK UNBOUND:                -0.610
REMARK SMILES CCCCCCCCCCCCCC(=O)[O-]
REMARK SMILES IDX 8 1 9 2 10 3 11 4 12 5 13 6 14 7 15 8 16 9 7 10 6 11 5 12
REMARK SMILES IDX 4 13 3 14 2 15 1 16
REMARK H PARENT
REMARK Flexibility Score: inf
ROOT
ATOM      1  C   UNL     1      -2.524  -0.085   8.956  1.00  0.00     0.000 C 
ENDROOT
BRANCH   1   2
ATOM      2  C   UNL     1      -3.911  -0.002   9.616  1.00  0.00     0.000 C 
BRANCH   2   3
ATOM      3  C   UNL     1      -3.819   0.106  11.153  1.00  0.00     0.000 C 
BRANCH   3   4
ATOM      4  C   UNL     1      -4.328   1.447  11.708  1.00  0.00     0.000 C 
BRANCH   4   5
ATOM      5  C   UNL     1      -4.166   1.562  13.232  1.00  0.00     0.006 C 
BRANCH   5   6
ATOM      6  C   UNL     1      -5.475   1.962  13.924  1.00  0.00     0.053 C 
BRANCH   6   7
ATOM      7  C   UNL     1      -5.226   2.729  15.187  1.00  0.00     0.041 C 
ATOM      8  O   UNL     1      -4.242   3.510  15.270  1.00  0.00    -0.550 OA
ATOM      9  O   UNL     1      -6.058   2.552  16.285  1.00  0.00    -0.550 OA
ENDBRANCH   6   7
ENDBRANCH   5   6
ENDBRANCH   4   5
ENDBRANCH   3   4
ENDBRANCH   2   3
ENDBRANCH   1   2
BRANCH   1  10
ATOM     10  C   UNL     1      -2.244  -1.466   8.341  1.00  0.00     0.000 C 
BRANCH  10  11
ATOM     11  C   UNL     1      -3.423  -2.439   8.514  1.00  0.00    -0.000 C 
BRANCH  11  12
ATOM     12  C   UNL     1      -2.976  -3.834   8.982  1.00  0.00    -0.000 C 
BRANCH  12  13
ATOM     13  C   UNL     1      -3.664  -4.267  10.288  1.00  0.00    -0.000 C 
BRANCH  13  14
ATOM     14  C   UNL     1      -3.295  -3.363  11.476  1.00  0.00    -0.000 C 
BRANCH  14  15
ATOM     15  C   UNL     1      -1.840  -3.548  11.931  1.00  0.00    -0.003 C 
ATOM     16  C   UNL     1      -1.074  -2.229  11.871  1.00  0.00     0.004 C 
ENDBRANCH  14  15
ENDBRANCH  13  14
ENDBRANCH  12  13
ENDBRANCH  11  12
ENDBRANCH  10  11
ENDBRANCH   1  10
TORSDOF 12
ENDMDL
MODEL 7
REMARK VINA RESULT:    -4.472      4.329      7.296
REMARK INTER + INTRA:          -8.220
REMARK INTER:                  -6.515
REMARK INTRA:                  -1.704
REMARK UNBOUND:                -0.610
REMARK SMILES CCCCCCCCCCCCCC(=O)[O-]
REMARK SMILES IDX 8 1 9 2 10 3 11 4 12 5 13 6 14 7 15 8 16 9 7 10 6 11 5 12
REMARK SMILES IDX 4 13 3 14 2 15 1 16
REMARK H PARENT
REMARK Flexibility Score: inf
ROOT
ATOM      1  C   UNL     1      -2.694   0.978  12.822  1.00  0.00     0.000 C 
ENDROOT
BRANCH   1   2
ATOM      2  C   UNL     1      -3.508   1.405  14.056  1.00  0.00     0.000 C 
BRANCH   2   3
ATOM      3  C   UNL     1      -5.013   1.540  13.741  1.00  0.00     0.000 C 
BRANCH   3   4
ATOM      4  C   UNL     1      -5.619   2.878  14.199  1.00  0.00     0.000 C 
BRANCH   4   5
ATOM      5  C   UNL     1      -5.539   3.079  15.721  1.00  0.00     0.006 C 
BRANCH   5   6
ATOM      6  C   UNL     1      -6.903   2.906  16.401  1.00  0.00     0.053 C 
BRANCH   6   7
ATOM      7  C   UNL     1      -7.805   4.074  16.143  1.00  0.00     0.041 C 
ATOM      8  O   UNL     1      -7.709   5.115  16.845  1.00  0.00    -0.550 OA
ATOM      9  O   UNL     1      -8.777   3.998  15.154  1.00  0.00    -0.550 OA
ENDBRANCH   6   7
ENDBRANCH   5   6
ENDBRANCH   4   5
ENDBRANCH   3   4
ENDBRANCH   2   3
ENDBRANCH   1   2
BRANCH   1  10
ATOM     10  C   UNL     1      -3.501   0.093  11.859  1.00  0.00     0.000 C 
BRANCH  10  11
ATOM     11  C   UNL     1      -3.772   0.784  10.510  1.00  0.00    -0.000 C 
BRANCH  11  12
ATOM     12  C   UNL     1      -2.952   2.072  10.329  1.00  0.00    -0.000 C 
BRANCH  12  13
ATOM     13  C   UNL     1      -3.838   3.301  10.057  1.00  0.00    -0.000 C 
BRANCH  13  14
ATOM     14  C   UNL     1      -3.715   4.371  11.154  1.00  0.00    -0.000 C 
BRANCH  14  15
ATOM     15  C   UNL     1      -2.320   4.403  11.796  1.00  0.00    -0.003 C 
ATOM     16  C   UNL     1      -2.407   4.763  13.277  1.00  0.00     0.004 C 
ENDBRANCH  14  15
ENDBRANCH  13  14
ENDBRANCH  12  13
ENDBRANCH  11  12
ENDBRANCH  10  11
ENDBRANCH   1  10
TORSDOF 12
ENDMDL
MODEL 8
REMARK VINA RESULT:    -4.461      7.174      8.991
REMARK INTER + INTRA:          -8.200
REMARK INTER:                  -6.179
REMARK INTRA:                  -2.021
REMARK UNBOUND:                -0.610
REMARK SMILES CCCCCCCCCCCCCC(=O)[O-]
REMARK SMILES IDX 8 1 9 2 10 3 11 4 12 5 13 6 14 7 15 8 16 9 7 10 6 11 5 12
REMARK SMILES IDX 4 13 3 14 2 15 1 16
REMARK H PARENT
REMARK Flexibility Score: inf
ROOT
ATOM      1  C   UNL     1      -3.810   5.393  12.774  1.00  0.00     0.000 C 
ENDROOT
BRANCH   1   2
ATOM      2  C   UNL     1      -4.423   6.677  13.360  1.00  0.00     0.000 C 
BRANCH   2   3
ATOM      3  C   UNL     1      -5.915   6.499  13.715  1.00  0.00     0.000 C 
BRANCH   3   4
ATOM      4  C   UNL     1      -6.313   7.162  15.045  1.00  0.00     0.000 C 
BRANCH   4   5
ATOM      5  C   UNL     1      -5.511   6.627  16.242  1.00  0.00     0.006 C 
BRANCH   5   6
ATOM      6  C   UNL     1      -6.338   6.611  17.533  1.00  0.00     0.053 C 
BRANCH   6   7
ATOM      7  C   UNL     1      -6.030   7.790  18.406  1.00  0.00     0.041 C 
ATOM      8  O   UNL     1      -5.694   7.617  19.607  1.00  0.00    -0.550 OA
ATOM      9  O   UNL     1      -6.150   9.079  17.903  1.00  0.00    -0.550 OA
ENDBRANCH   6   7
ENDBRANCH   5   6
ENDBRANCH   4   5
ENDBRANCH   3   4
ENDBRANCH   2   3
ENDBRANCH   1   2
BRANCH   1  10
ATOM     10  C   UNL     1      -4.451   4.118  13.345  1.00  0.00     0.000 C 
BRANCH  10  11
ATOM     11  C   UNL     1      -3.794   3.665  14.660  1.00  0.00    -0.000 C 
BRANCH  11  12
ATOM     12  C   UNL     1      -4.700   2.738  15.488  1.00  0.00    -0.000 C 
BRANCH  12  13
ATOM     13  C   UNL     1      -6.186   2.880  15.114  1.00  0.00    -0.000 C 
BRANCH  13  14
ATOM     14  C   UNL     1      -7.080   3.137  16.339  1.00  0.00    -0.000 C 
BRANCH  14  15
ATOM     15  C   UNL     1      -8.329   3.962  15.997  1.00  0.00    -0.003 C 
ATOM     16  C   UNL     1      -8.493   4.109  14.486  1.00  0.00     0.004 C 
ENDBRANCH  14  15
ENDBRANCH  13  14
ENDBRANCH  12  13
ENDBRANCH  11  12
ENDBRANCH  10  11
ENDBRANCH   1  10
TORSDOF 12
ENDMDL
MODEL 9
REMARK VINA RESULT:    -4.419      4.019      5.187
REMARK INTER + INTRA:          -8.129
REMARK INTER:                  -6.167
REMARK INTRA:                  -1.962
REMARK UNBOUND:                -0.610
REMARK SMILES CCCCCCCCCCCCCC(=O)[O-]
REMARK SMILES IDX 8 1 9 2 10 3 11 4 12 5 13 6 14 7 15 8 16 9 7 10 6 11 5 12
REMARK SMILES IDX 4 13 3 14 2 15 1 16
REMARK H PARENT
REMARK Flexibility Score: inf
ROOT
ATOM      1  C   UNL     1      -3.622   3.577  15.148  1.00  0.00     0.000 C 
ENDROOT
BRANCH   1   2
ATOM      2  C   UNL     1      -3.379   2.168  14.581  1.00  0.00     0.000 C 
BRANCH   2   3
ATOM      3  C   UNL     1      -4.690   1.367  14.433  1.00  0.00     0.000 C 
BRANCH   3   4
ATOM      4  C   UNL     1      -5.161   1.222  12.977  1.00  0.00     0.000 C 
BRANCH   4   5
ATOM      5  C   UNL     1      -3.997   1.209  11.972  1.00  0.00     0.006 C 
BRANCH   5   6
ATOM      6  C   UNL     1      -4.351   1.936  10.668  1.00  0.00     0.053 C 
BRANCH   6   7
ATOM      7  C   UNL     1      -3.456   3.113  10.426  1.00  0.00     0.041 C 
ATOM      8  O   UNL     1      -2.348   3.197  11.017  1.00  0.00    -0.550 OA
ATOM      9  O   UNL     1      -3.865   4.135   9.579  1.00  0.00    -0.550 OA
ENDBRANCH   6   7
ENDBRANCH   5   6
ENDBRANCH   4   5
ENDBRANCH   3   4
ENDBRANCH   2   3
ENDBRANCH   1   2
BRANCH   1  10
ATOM     10  C   UNL     1      -3.465   4.677  14.086  1.00  0.00     0.000 C 
BRANCH  10  11
ATOM     11  C   UNL     1      -4.781   4.977  13.348  1.00  0.00    -0.000 C 
BRANCH  11  12
ATOM     12  C   UNL     1      -5.687   5.949  14.123  1.00  0.00    -0.000 C 
BRANCH  12  13
ATOM     13  C   UNL     1      -7.164   5.519  14.105  1.00  0.00    -0.000 C 
BRANCH  13  14
ATOM     14  C   UNL     1      -7.379   4.123  14.714  1.00  0.00    -0.000 C 
BRANCH  14  15
ATOM     15  C   UNL     1      -7.160   4.100  16.233  1.00  0.00    -0.003 C 
ATOM     16  C   UNL     1      -7.003   2.669  16.743  1.00  0.00     0.004 C 
ENDBRANCH  14  15
ENDBRANCH  13  14
ENDBRANCH  12  13
ENDBRANCH  11  12
ENDBRANCH  10  11
ENDBRANCH   1  10
TORSDOF 12
ENDMDL
