MODEL 1
REMARK VINA RESULT:    -3.559      0.000      0.000
REMARK INTER + INTRA:          -4.289
REMARK INTER:                  -4.287
REMARK INTRA:                  -0.003
REMARK UNBOUND:                -0.003
REMARK SMILES OCC(O)CO
REMARK SMILES IDX 3 1 5 2 6 3 2 5 1 6 4 8
REMARK H PARENT 6 4 1 7 4 9
REMARK Flexibility Score: inf
ROOT
ATOM      1  C   UNL     1     -12.658   2.832 -17.691  1.00  0.00     0.165 C 
ENDROOT
BRANCH   1   2
ATOM      2  C   UNL     1     -13.521   4.029 -17.258  1.00  0.00     0.190 C 
BRANCH   2   3
ATOM      3  O   UNL     1     -13.776   3.977 -15.881  1.00  0.00    -0.394 OA
ATOM      4  H   UNL     1     -13.547   4.872 -15.515  1.00  0.00     0.210 HD
ENDBRANCH   2   3
ENDBRANCH   1   2
BRANCH   1   5
ATOM      5  C   UNL     1     -11.557   3.267 -18.673  1.00  0.00     0.190 C 
BRANCH   5   6
ATOM      6  O   UNL     1     -10.326   2.705 -18.308  1.00  0.00    -0.394 OA
ATOM      7  H   UNL     1      -9.955   3.275 -17.585  1.00  0.00     0.210 HD
ENDBRANCH   5   6
ENDBRANCH   1   5
BRANCH   1   8
ATOM      8  O   UNL     1     -12.102   2.189 -16.570  1.00  0.00    -0.388 OA
ATOM      9  H   UNL     1     -11.133   2.408 -16.551  1.00  0.00     0.211 HD
ENDBRANCH   1   8
TORSDOF 5
ENDMDL
MODEL 2
REMARK VINA RESULT:    -3.542      0.862      2.748
REMARK INTER + INTRA:          -4.269
REMARK INTER:                  -4.046
REMARK INTRA:                  -0.224
REMARK UNBOUND:                -0.003
REMARK SMILES OCC(O)CO
REMARK SMILES IDX 3 1 5 2 6 3 2 5 1 6 4 8
REMARK H PARENT 6 4 1 7 4 9
REMARK Flexibility Score: inf
ROOT
ATOM      1  C   UNL     1     -12.720   3.209 -18.001  1.00  0.00     0.165 C 
ENDROOT
BRANCH   1   2
ATOM      2  C   UNL     1     -12.758   1.887 -17.217  1.00  0.00     0.190 C 
BRANCH   2   3
ATOM      3  O   UNL     1     -11.731   1.852 -16.264  1.00  0.00    -0.394 OA
ATOM      4  H   UNL     1     -11.161   2.649 -16.432  1.00  0.00     0.210 HD
ENDBRANCH   2   3
ENDBRANCH   1   2
BRANCH   1   5
ATOM      5  C   UNL     1     -13.519   4.307 -17.277  1.00  0.00     0.190 C 
BRANCH   5   6
ATOM      6  O   UNL     1     -13.766   3.935 -15.948  1.00  0.00    -0.394 OA
ATOM      7  H   UNL     1     -12.988   4.246 -15.414  1.00  0.00     0.210 HD
ENDBRANCH   5   6
ENDBRANCH   1   5
BRANCH   1   8
ATOM      8  O   UNL     1     -11.393   3.619 -18.219  1.00  0.00    -0.388 OA
ATOM      9  H   UNL     1     -11.362   4.605 -18.106  1.00  0.00     0.211 HD
ENDBRANCH   1   8
TORSDOF 5
ENDMDL
MODEL 3
REMARK VINA RESULT:    -3.480      1.365      2.350
REMARK INTER + INTRA:          -4.194
REMARK INTER:                  -3.973
REMARK INTRA:                  -0.222
REMARK UNBOUND:                -0.003
REMARK SMILES OCC(O)CO
REMARK SMILES IDX 3 1 5 2 6 3 2 5 1 6 4 8
REMARK H PARENT 6 4 1 7 4 9
REMARK Flexibility Score: inf
ROOT
ATOM      1  C   UNL     1     -13.836   3.667 -17.266  1.00  0.00     0.165 C 
ENDROOT
BRANCH   1   2
ATOM      2  C   UNL     1     -13.272   4.708 -18.247  1.00  0.00     0.190 C 
BRANCH   2   3
ATOM      3  O   UNL     1     -12.225   4.156 -18.999  1.00  0.00    -0.394 OA
ATOM      4  H   UNL     1     -11.383   4.542 -18.640  1.00  0.00     0.210 HD
ENDBRANCH   2   3
ENDBRANCH   1   2
BRANCH   1   5
ATOM      5  C   UNL     1     -13.113   2.317 -17.412  1.00  0.00     0.190 C 
BRANCH   5   6
ATOM      6  O   UNL     1     -11.925   2.315 -16.668  1.00  0.00    -0.394 OA
ATOM      7  H   UNL     1     -12.066   1.692 -15.907  1.00  0.00     0.210 HD
ENDBRANCH   5   6
ENDBRANCH   1   5
BRANCH   1   8
ATOM      8  O   UNL     1     -13.754   4.136 -15.943  1.00  0.00    -0.388 OA
ATOM      9  H   UNL     1     -14.623   3.942 -15.502  1.00  0.00     0.211 HD
ENDBRANCH   1   8
TORSDOF 5
ENDMDL
MODEL 4
REMARK VINA RESULT:    -3.456      1.221      1.864
REMARK INTER + INTRA:          -4.166
REMARK INTER:                  -3.949
REMARK INTRA:                  -0.217
REMARK UNBOUND:                -0.003
REMARK SMILES OCC(O)CO
REMARK SMILES IDX 3 1 5 2 6 3 2 5 1 6 4 8
REMARK H PARENT 6 4 1 7 4 9
REMARK Flexibility Score: inf
ROOT
ATOM      1  C   UNL     1     -12.444   3.483 -17.762  1.00  0.00     0.165 C 
ENDROOT
BRANCH   1   2
ATOM      2  C   UNL     1     -13.843   3.770 -17.191  1.00  0.00     0.190 C 
BRANCH   2   3
ATOM      3  O   UNL     1     -13.772   3.987 -15.808  1.00  0.00    -0.394 OA
ATOM      4  H   UNL     1     -13.459   3.136 -15.402  1.00  0.00     0.210 HD
ENDBRANCH   2   3
ENDBRANCH   1   2
BRANCH   1   5
ATOM      5  C   UNL     1     -12.093   1.990 -17.647  1.00  0.00     0.190 C 
BRANCH   5   6
ATOM      6  O   UNL     1     -11.940   1.625 -16.302  1.00  0.00    -0.394 OA
ATOM      7  H   UNL     1     -12.116   0.650 -16.248  1.00  0.00     0.210 HD
ENDBRANCH   5   6
ENDBRANCH   1   5
BRANCH   1   8
ATOM      8  O   UNL     1     -12.355   3.915 -19.097  1.00  0.00    -0.388 OA
ATOM      9  H   UNL     1     -12.817   4.793 -19.160  1.00  0.00     0.211 HD
ENDBRANCH   1   8
TORSDOF 5
ENDMDL
MODEL 5
REMARK VINA RESULT:    -3.391      1.293      3.188
REMARK INTER + INTRA:          -4.087
REMARK INTER:                  -4.075
REMARK INTRA:                  -0.012
REMARK UNBOUND:                -0.003
REMARK SMILES OCC(O)CO
REMARK SMILES IDX 3 1 5 2 6 3 2 5 1 6 4 8
REMARK H PARENT 6 4 1 7 4 9
REMARK Flexibility Score: inf
ROOT
ATOM      1  C   UNL     1     -13.033   3.618 -18.088  1.00  0.00     0.165 C 
ENDROOT
BRANCH   1   2
ATOM      2  C   UNL     1     -11.587   3.391 -18.558  1.00  0.00     0.190 C 
BRANCH   2   3
ATOM      3  O   UNL     1     -10.983   2.371 -17.811  1.00  0.00    -0.394 OA
ATOM      4  H   UNL     1     -10.322   2.810 -17.212  1.00  0.00     0.210 HD
ENDBRANCH   2   3
ENDBRANCH   1   2
BRANCH   1   5
ATOM      5  C   UNL     1     -13.196   3.261 -16.601  1.00  0.00     0.190 C 
BRANCH   5   6
ATOM      6  O   UNL     1     -13.852   4.295 -15.918  1.00  0.00    -0.394 OA
ATOM      7  H   UNL     1     -13.685   5.128 -16.433  1.00  0.00     0.210 HD
ENDBRANCH   5   6
ENDBRANCH   1   5
BRANCH   1   8
ATOM      8  O   UNL     1     -13.431   4.945 -18.329  1.00  0.00    -0.388 OA
ATOM      9  H   UNL     1     -14.321   5.072 -17.906  1.00  0.00     0.211 HD
ENDBRANCH   1   8
TORSDOF 5
ENDMDL
MODEL 6
REMARK VINA RESULT:    -3.356      1.484      1.649
REMARK INTER + INTRA:          -4.045
REMARK INTER:                  -4.036
REMARK INTRA:                  -0.009
REMARK UNBOUND:                -0.003
REMARK SMILES OCC(O)CO
REMARK SMILES IDX 3 1 5 2 6 3 2 5 1 6 4 8
REMARK H PARENT 6 4 1 7 4 9
REMARK Flexibility Score: inf
ROOT
ATOM      1  C   UNL     1     -12.580   3.918 -17.988  1.00  0.00     0.165 C 
ENDROOT
BRANCH   1   2
ATOM      2  C   UNL     1     -13.738   3.354 -17.149  1.00  0.00     0.190 C 
BRANCH   2   3
ATOM      3  O   UNL     1     -13.856   4.055 -15.942  1.00  0.00    -0.394 OA
ATOM      4  H   UNL     1     -14.828   4.177 -15.777  1.00  0.00     0.210 HD
ENDBRANCH   2   3
ENDBRANCH   1   2
BRANCH   1   5
ATOM      5  C   UNL     1     -11.827   2.794 -18.721  1.00  0.00     0.190 C 
BRANCH   5   6
ATOM      6  O   UNL     1     -10.838   2.246 -17.892  1.00  0.00    -0.394 OA
ATOM      7  H   UNL     1     -11.117   2.427 -16.956  1.00  0.00     0.210 HD
ENDBRANCH   5   6
ENDBRANCH   1   5
BRANCH   1   8
ATOM      8  O   UNL     1     -13.049   4.881 -18.899  1.00  0.00    -0.388 OA
ATOM      9  H   UNL     1     -13.653   4.419 -19.539  1.00  0.00     0.211 HD
ENDBRANCH   1   8
TORSDOF 5
ENDMDL
MODEL 7
REMARK VINA RESULT:    -3.332      1.759      2.622
REMARK INTER + INTRA:          -4.016
REMARK INTER:                  -3.802
REMARK INTRA:                  -0.214
REMARK UNBOUND:                -0.003
REMARK SMILES OCC(O)CO
REMARK SMILES IDX 3 1 5 2 6 3 2 5 1 6 4 8
REMARK H PARENT 6 4 1 7 4 9
REMARK Flexibility Score: inf
ROOT
ATOM      1  C   UNL     1     -12.339   3.150 -18.094  1.00  0.00     0.165 C 
ENDROOT
BRANCH   1   2
ATOM      2  C   UNL     1     -12.346   4.349 -19.056  1.00  0.00     0.190 C 
BRANCH   2   3
ATOM      3  O   UNL     1     -13.417   5.205 -18.763  1.00  0.00    -0.394 OA
ATOM      4  H   UNL     1     -13.020   6.071 -18.481  1.00  0.00     0.210 HD
ENDBRANCH   2   3
ENDBRANCH   1   2
BRANCH   1   5
ATOM      5  C   UNL     1     -13.475   3.257 -17.063  1.00  0.00     0.190 C 
BRANCH   5   6
ATOM      6  O   UNL     1     -13.073   4.042 -15.973  1.00  0.00    -0.394 OA
ATOM      7  H   UNL     1     -13.253   3.507 -15.155  1.00  0.00     0.210 HD
ENDBRANCH   5   6
ENDBRANCH   1   5
BRANCH   1   8
ATOM      8  O   UNL     1     -12.425   1.941 -18.808  1.00  0.00    -0.388 OA
ATOM      9  H   UNL     1     -12.072   2.107 -19.722  1.00  0.00     0.211 HD
ENDBRANCH   1   8
TORSDOF 5
ENDMDL
MODEL 8
REMARK VINA RESULT:    -3.251      1.490      2.126
REMARK INTER + INTRA:          -3.918
REMARK INTER:                  -3.697
REMARK INTRA:                  -0.222
REMARK UNBOUND:                -0.003
REMARK SMILES OCC(O)CO
REMARK SMILES IDX 3 1 5 2 6 3 2 5 1 6 4 8
REMARK H PARENT 6 4 1 7 4 9
REMARK Flexibility Score: inf
ROOT
ATOM      1  C   UNL     1     -11.314   2.671 -18.784  1.00  0.00     0.165 C 
ENDROOT
BRANCH   1   2
ATOM      2  C   UNL     1     -12.524   2.475 -17.856  1.00  0.00     0.190 C 
BRANCH   2   3
ATOM      3  O   UNL     1     -12.446   3.343 -16.758  1.00  0.00    -0.394 OA
ATOM      4  H   UNL     1     -12.972   4.152 -16.997  1.00  0.00     0.210 HD
ENDBRANCH   2   3
ENDBRANCH   1   2
BRANCH   1   5
ATOM      5  C   UNL     1     -11.260   4.109 -19.329  1.00  0.00     0.190 C 
BRANCH   5   6
ATOM      6  O   UNL     1     -12.534   4.691 -19.301  1.00  0.00    -0.394 OA
ATOM      7  H   UNL     1     -13.190   3.946 -19.343  1.00  0.00     0.210 HD
ENDBRANCH   5   6
ENDBRANCH   1   5
BRANCH   1   8
ATOM      8  O   UNL     1     -10.119   2.345 -18.118  1.00  0.00    -0.388 OA
ATOM      9  H   UNL     1      -9.429   2.167 -18.810  1.00  0.00     0.211 HD
ENDBRANCH   1   8
TORSDOF 5
ENDMDL
MODEL 9
REMARK VINA RESULT:    -3.239      1.656      3.442
REMARK INTER + INTRA:          -3.904
REMARK INTER:                  -3.682
REMARK INTRA:                  -0.222
REMARK UNBOUND:                -0.003
REMARK SMILES OCC(O)CO
REMARK SMILES IDX 3 1 5 2 6 3 2 5 1 6 4 8
REMARK H PARENT 6 4 1 7 4 9
REMARK Flexibility Score: inf
ROOT
ATOM      1  C   UNL     1     -11.614   3.387 -19.479  1.00  0.00     0.165 C 
ENDROOT
BRANCH   1   2
ATOM      2  C   UNL     1     -10.145   3.480 -19.036  1.00  0.00     0.190 C 
BRANCH   2   3
ATOM      3  O   UNL     1      -9.813   2.399 -18.208  1.00  0.00    -0.394 OA
ATOM      4  H   UNL     1      -9.711   1.608 -18.801  1.00  0.00     0.210 HD
ENDBRANCH   2   3
ENDBRANCH   1   2
BRANCH   1   5
ATOM      5  C   UNL     1     -12.552   3.997 -18.423  1.00  0.00     0.190 C 
BRANCH   5   6
ATOM      6  O   UNL     1     -12.301   3.436 -17.163  1.00  0.00    -0.394 OA
ATOM      7  H   UNL     1     -11.711   4.072 -16.680  1.00  0.00     0.210 HD
ENDBRANCH   5   6
ENDBRANCH   1   5
BRANCH   1   8
ATOM      8  O   UNL     1     -11.797   4.009 -20.727  1.00  0.00    -0.388 OA
ATOM      9  H   UNL     1     -12.413   3.438 -21.258  1.00  0.00     0.211 HD
ENDBRANCH   1   8
TORSDOF 5
ENDMDL
