MODEL 1
REMARK VINA RESULT:    -3.736      0.000      0.000
REMARK INTER + INTRA:          -9.877
REMARK INTER:                  -7.230
REMARK INTRA:                  -2.647
REMARK UNBOUND:                -2.647
REMARK SMILES CCCCCCCCCCCCCCCCCC(=O)[O-]
REMARK SMILES IDX 10 1 11 2 12 3 13 4 14 5 15 6 16 7 17 8 18 9 19 10 20 11
REMARK SMILES IDX 9 12 8 13 7 14 6 15 5 16 4 17 3 18 2 19 1 20
REMARK H PARENT
REMARK Flexibility Score: inf
ROOT
ATOM      1  C   UNL     1     -22.342  30.821 -36.880  1.00  0.00     0.000 C 
ENDROOT
BRANCH   1   2
ATOM      2  C   UNL     1     -23.516  30.913 -37.868  1.00  0.00     0.000 C 
BRANCH   2   3
ATOM      3  C   UNL     1     -23.133  30.440 -39.282  1.00  0.00     0.000 C 
BRANCH   3   4
ATOM      4  C   UNL     1     -23.555  31.436 -40.378  1.00  0.00     0.000 C 
BRANCH   4   5
ATOM      5  C   UNL     1     -23.641  30.845 -41.799  1.00  0.00     0.000 C 
BRANCH   5   6
ATOM      6  C   UNL     1     -23.343  29.336 -41.901  1.00  0.00     0.000 C 
BRANCH   6   7
ATOM      7  C   UNL     1     -24.587  28.430 -41.994  1.00  0.00     0.006 C 
BRANCH   7   8
ATOM      8  C   UNL     1     -25.925  29.172 -41.850  1.00  0.00     0.053 C 
BRANCH   8   9
ATOM      9  C   UNL     1     -27.057  28.235 -41.564  1.00  0.00     0.041 C 
ATOM     10  O   UNL     1     -27.518  27.501 -42.478  1.00  0.00    -0.550 OA
ATOM     11  O   UNL     1     -27.627  28.196 -40.298  1.00  0.00    -0.550 OA
ENDBRANCH   8   9
ENDBRANCH   7   8
ENDBRANCH   6   7
ENDBRANCH   5   6
ENDBRANCH   4   5
ENDBRANCH   3   4
ENDBRANCH   2   3
ENDBRANCH   1   2
BRANCH   1  12
ATOM     12  C   UNL     1     -21.637  32.170 -36.671  1.00  0.00     0.000 C 
BRANCH  12  13
ATOM     13  C   UNL     1     -22.577  33.337 -37.014  1.00  0.00    -0.000 C 
BRANCH  13  14
ATOM     14  C   UNL     1     -21.934  34.353 -37.973  1.00  0.00    -0.000 C 
BRANCH  14  15
ATOM     15  C   UNL     1     -20.581  33.873 -38.525  1.00  0.00    -0.000 C 
BRANCH  15  16
ATOM     16  C   UNL     1     -20.662  33.404 -39.988  1.00  0.00    -0.000 C 
BRANCH  16  17
ATOM     17  C   UNL     1     -19.519  32.478 -40.441  1.00  0.00    -0.000 C 
BRANCH  17  18
ATOM     18  C   UNL     1     -20.000  31.339 -41.358  1.00  0.00    -0.000 C 
BRANCH  18  19
ATOM     19  C   UNL     1     -19.786  29.952 -40.733  1.00  0.00    -0.003 C 
ATOM     20  C   UNL     1     -19.490  30.019 -39.235  1.00  0.00     0.004 C 
ENDBRANCH  18  19
ENDBRANCH  17  18
ENDBRANCH  16  17
ENDBRANCH  15  16
ENDBRANCH  14  15
ENDBRANCH  13  14
ENDBRANCH  12  13
ENDBRANCH   1  12
TORSDOF 16
ENDMDL
MODEL 2
REMARK VINA RESULT:    -3.661      1.461      2.893
REMARK INTER + INTRA:          -9.732
REMARK INTER:                  -6.704
REMARK INTRA:                  -3.027
REMARK UNBOUND:                -2.647
REMARK SMILES CCCCCCCCCCCCCCCCCC(=O)[O-]
REMARK SMILES IDX 10 1 11 2 12 3 13 4 14 5 15 6 16 7 17 8 18 9 19 10 20 11
REMARK SMILES IDX 9 12 8 13 7 14 6 15 5 16 4 17 3 18 2 19 1 20
REMARK H PARENT
REMARK Flexibility Score: inf
ROOT
ATOM      1  C   UNL     1     -21.142  28.952 -40.098  1.00  0.00     0.000 C 
ENDROOT
BRANCH   1   2
ATOM      2  C   UNL     1     -20.702  30.003 -41.131  1.00  0.00     0.000 C 
BRANCH   2   3
ATOM      3  C   UNL     1     -21.677  30.106 -42.317  1.00  0.00     0.000 C 
BRANCH   3   4
ATOM      4  C   UNL     1     -22.826  31.098 -42.060  1.00  0.00     0.000 C 
BRANCH   4   5
ATOM      5  C   UNL     1     -24.174  30.453 -41.679  1.00  0.00     0.000 C 
BRANCH   5   6
ATOM      6  C   UNL     1     -24.284  28.943 -41.972  1.00  0.00     0.000 C 
BRANCH   6   7
ATOM      7  C   UNL     1     -25.645  28.310 -41.623  1.00  0.00     0.006 C 
BRANCH   7   8
ATOM      8  C   UNL     1     -26.513  29.152 -40.675  1.00  0.00     0.053 C 
BRANCH   8   9
ATOM      9  C   UNL     1     -27.781  29.605 -41.331  1.00  0.00     0.041 C 
ATOM     10  O   UNL     1     -27.738  30.354 -42.342  1.00  0.00    -0.550 OA
ATOM     11  O   UNL     1     -29.011  29.229 -40.806  1.00  0.00    -0.550 OA
ENDBRANCH   8   9
ENDBRANCH   7   8
ENDBRANCH   6   7
ENDBRANCH   5   6
ENDBRANCH   4   5
ENDBRANCH   3   4
ENDBRANCH   2   3
ENDBRANCH   1   2
BRANCH   1  12
ATOM     12  C   UNL     1     -21.513  29.574 -38.743  1.00  0.00     0.000 C 
BRANCH  12  13
ATOM     13  C   UNL     1     -23.003  29.360 -38.434  1.00  0.00    -0.000 C 
BRANCH  13  14
ATOM     14  C   UNL     1     -23.735  30.672 -38.106  1.00  0.00    -0.000 C 
BRANCH  14  15
ATOM     15  C   UNL     1     -22.768  31.836 -37.827  1.00  0.00    -0.000 C 
BRANCH  15  16
ATOM     16  C   UNL     1     -22.821  32.931 -38.906  1.00  0.00    -0.000 C 
BRANCH  16  17
ATOM     17  C   UNL     1     -21.453  33.361 -39.467  1.00  0.00    -0.000 C 
BRANCH  17  18
ATOM     18  C   UNL     1     -20.337  33.330 -38.408  1.00  0.00    -0.000 C 
BRANCH  18  19
ATOM     19  C   UNL     1     -19.183  32.393 -38.797  1.00  0.00    -0.003 C 
ATOM     20  C   UNL     1     -18.455  32.847 -40.062  1.00  0.00     0.004 C 
ENDBRANCH  18  19
ENDBRANCH  17  18
ENDBRANCH  16  17
ENDBRANCH  15  16
ENDBRANCH  14  15
ENDBRANCH  13  14
ENDBRANCH  12  13
ENDBRANCH   1  12
TORSDOF 16
ENDMDL
MODEL 3
REMARK VINA RESULT:    -3.646      1.828      3.912
REMARK INTER + INTRA:          -9.703
REMARK INTER:                  -6.808
REMARK INTRA:                  -2.895
REMARK UNBOUND:                -2.647
REMARK SMILES CCCCCCCCCCCCCCCCCC(=O)[O-]
REMARK SMILES IDX 10 1 11 2 12 3 13 4 14 5 15 6 16 7 17 8 18 9 19 10 20 11
REMARK SMILES IDX 9 12 8 13 7 14 6 15 5 16 4 17 3 18 2 19 1 20
REMARK H PARENT
REMARK Flexibility Score: inf
ROOT
ATOM      1  C   UNL     1     -19.513  32.258 -38.189  1.00  0.00     0.000 C 
ENDROOT
BRANCH   1   2
ATOM      2  C   UNL     1     -19.944  33.427 -39.089  1.00  0.00     0.000 C 
BRANCH   2   3
ATOM      3  C   UNL     1     -21.449  33.401 -39.407  1.00  0.00     0.000 C 
BRANCH   3   4
ATOM      4  C   UNL     1     -22.303  34.060 -38.309  1.00  0.00     0.000 C 
BRANCH   4   5
ATOM      5  C   UNL     1     -23.141  33.085 -37.458  1.00  0.00     0.000 C 
BRANCH   5   6
ATOM      6  C   UNL     1     -23.250  31.653 -38.019  1.00  0.00     0.000 C 
BRANCH   6   7
ATOM      7  C   UNL     1     -24.603  31.312 -38.675  1.00  0.00     0.006 C 
BRANCH   7   8
ATOM      8  C   UNL     1     -24.565  31.242 -40.210  1.00  0.00     0.053 C 
BRANCH   8   9
ATOM      9  C   UNL     1     -24.991  29.900 -40.720  1.00  0.00     0.041 C 
ATOM     10  O   UNL     1     -24.833  29.605 -41.934  1.00  0.00    -0.550 OA
ATOM     11  O   UNL     1     -25.593  28.987 -39.863  1.00  0.00    -0.550 OA
ENDBRANCH   8   9
ENDBRANCH   7   8
ENDBRANCH   6   7
ENDBRANCH   5   6
ENDBRANCH   4   5
ENDBRANCH   3   4
ENDBRANCH   2   3
ENDBRANCH   1   2
BRANCH   1  12
ATOM     12  C   UNL     1     -18.135  31.693 -38.571  1.00  0.00     0.000 C 
BRANCH  12  13
ATOM     13  C   UNL     1     -17.658  32.277 -39.911  1.00  0.00    -0.000 C 
BRANCH  13  14
ATOM     14  C   UNL     1     -17.075  31.206 -40.850  1.00  0.00    -0.000 C 
BRANCH  14  15
ATOM     15  C   UNL     1     -17.641  31.300 -42.278  1.00  0.00    -0.000 C 
BRANCH  15  16
ATOM     16  C   UNL     1     -19.131  31.681 -42.308  1.00  0.00    -0.000 C 
BRANCH  16  17
ATOM     17  C   UNL     1     -20.093  30.524 -42.634  1.00  0.00    -0.000 C 
BRANCH  17  18
ATOM     18  C   UNL     1     -21.226  30.380 -41.601  1.00  0.00    -0.000 C 
BRANCH  18  19
ATOM     19  C   UNL     1     -20.774  29.643 -40.331  1.00  0.00    -0.003 C 
ATOM     20  C   UNL     1     -21.729  28.518 -39.931  1.00  0.00     0.004 C 
ENDBRANCH  18  19
ENDBRANCH  17  18
ENDBRANCH  16  17
ENDBRANCH  15  16
ENDBRANCH  14  15
ENDBRANCH  13  14
ENDBRANCH  12  13
ENDBRANCH   1  12
TORSDOF 16
ENDMDL
MODEL 4
REMARK VINA RESULT:    -3.622      1.628      3.822
REMARK INTER + INTRA:          -9.656
REMARK INTER:                  -7.357
REMARK INTRA:                  -2.299
REMARK UNBOUND:                -2.647
REMARK SMILES CCCCCCCCCCCCCCCCCC(=O)[O-]
REMARK SMILES IDX 10 1 11 2 12 3 13 4 14 5 15 6 16 7 17 8 18 9 19 10 20 11
REMARK SMILES IDX 9 12 8 13 7 14 6 15 5 16 4 17 3 18 2 19 1 20
REMARK H PARENT
REMARK Flexibility Score: inf
ROOT
ATOM      1  C   UNL     1     -21.473  29.692 -41.074  1.00  0.00     0.000 C 
ENDROOT
BRANCH   1   2
ATOM      2  C   UNL     1     -22.993  29.472 -41.138  1.00  0.00     0.000 C 
BRANCH   2   3
ATOM      3  C   UNL     1     -23.757  30.750 -41.528  1.00  0.00     0.000 C 
BRANCH   3   4
ATOM      4  C   UNL     1     -24.217  31.567 -40.307  1.00  0.00     0.000 C 
BRANCH   4   5
ATOM      5  C   UNL     1     -24.402  30.755 -39.009  1.00  0.00     0.000 C 
BRANCH   5   6
ATOM      6  C   UNL     1     -25.844  30.288 -38.729  1.00  0.00     0.000 C 
BRANCH   6   7
ATOM      7  C   UNL     1     -26.163  28.849 -39.184  1.00  0.00     0.006 C 
BRANCH   7   8
ATOM      8  C   UNL     1     -27.439  28.719 -40.030  1.00  0.00     0.053 C 
BRANCH   8   9
ATOM      9  C   UNL     1     -27.155  28.846 -41.495  1.00  0.00     0.041 C 
ATOM     10  O   UNL     1     -26.922  27.820 -42.186  1.00  0.00    -0.550 OA
ATOM     11  O   UNL     1     -27.114  30.101 -42.091  1.00  0.00    -0.550 OA
ENDBRANCH   8   9
ENDBRANCH   7   8
ENDBRANCH   6   7
ENDBRANCH   5   6
ENDBRANCH   4   5
ENDBRANCH   3   4
ENDBRANCH   2   3
ENDBRANCH   1   2
BRANCH   1  12
ATOM     12  C   UNL     1     -20.947  30.532 -42.248  1.00  0.00     0.000 C 
BRANCH  12  13
ATOM     13  C   UNL     1     -19.419  30.410 -42.365  1.00  0.00    -0.000 C 
BRANCH  13  14
ATOM     14  C   UNL     1     -18.781  31.616 -43.076  1.00  0.00    -0.000 C 
BRANCH  14  15
ATOM     15  C   UNL     1     -17.705  32.306 -42.220  1.00  0.00    -0.000 C 
BRANCH  15  16
ATOM     16  C   UNL     1     -17.828  31.976 -40.722  1.00  0.00    -0.000 C 
BRANCH  16  17
ATOM     17  C   UNL     1     -18.518  33.058 -39.870  1.00  0.00    -0.000 C 
BRANCH  17  18
ATOM     18  C   UNL     1     -19.836  32.573 -39.241  1.00  0.00    -0.000 C 
BRANCH  18  19
ATOM     19  C   UNL     1     -21.058  33.340 -39.770  1.00  0.00    -0.003 C 
ATOM     20  C   UNL     1     -21.857  34.016 -38.656  1.00  0.00     0.004 C 
ENDBRANCH  18  19
ENDBRANCH  17  18
ENDBRANCH  16  17
ENDBRANCH  15  16
ENDBRANCH  14  15
ENDBRANCH  13  14
ENDBRANCH  12  13
ENDBRANCH   1  12
TORSDOF 16
ENDMDL
MODEL 5
REMARK VINA RESULT:    -3.614      2.711      5.252
REMARK INTER + INTRA:          -9.641
REMARK INTER:                  -7.091
REMARK INTRA:                  -2.550
REMARK UNBOUND:                -2.647
REMARK SMILES CCCCCCCCCCCCCCCCCC(=O)[O-]
REMARK SMILES IDX 10 1 11 2 12 3 13 4 14 5 15 6 16 7 17 8 18 9 19 10 20 11
REMARK SMILES IDX 9 12 8 13 7 14 6 15 5 16 4 17 3 18 2 19 1 20
REMARK H PARENT
REMARK Flexibility Score: inf
ROOT
ATOM      1  C   UNL     1     -19.009  32.998 -39.666  1.00  0.00     0.000 C 
ENDROOT
BRANCH   1   2
ATOM      2  C   UNL     1     -19.457  32.069 -38.526  1.00  0.00     0.000 C 
BRANCH   2   3
ATOM      3  C   UNL     1     -20.706  32.593 -37.796  1.00  0.00     0.000 C 
BRANCH   3   4
ATOM      4  C   UNL     1     -21.162  33.971 -38.308  1.00  0.00     0.000 C 
BRANCH   4   5
ATOM      5  C   UNL     1     -22.683  34.122 -38.512  1.00  0.00     0.000 C 
BRANCH   5   6
ATOM      6  C   UNL     1     -23.556  33.581 -37.362  1.00  0.00     0.000 C 
BRANCH   6   7
ATOM      7  C   UNL     1     -25.027  34.039 -37.389  1.00  0.00     0.006 C 
BRANCH   7   8
ATOM      8  C   UNL     1     -25.998  33.023 -38.009  1.00  0.00     0.053 C 
BRANCH   8   9
ATOM      9  C   UNL     1     -27.395  33.200 -37.500  1.00  0.00     0.041 C 
ATOM     10  O   UNL     1     -28.179  32.216 -37.445  1.00  0.00    -0.550 OA
ATOM     11  O   UNL     1     -27.843  34.458 -37.116  1.00  0.00    -0.550 OA
ENDBRANCH   8   9
ENDBRANCH   7   8
ENDBRANCH   6   7
ENDBRANCH   5   6
ENDBRANCH   4   5
ENDBRANCH   3   4
ENDBRANCH   2   3
ENDBRANCH   1   2
BRANCH   1  12
ATOM     12  C   UNL     1     -17.917  32.370 -40.547  1.00  0.00     0.000 C 
BRANCH  12  13
ATOM     13  C   UNL     1     -18.442  31.111 -41.254  1.00  0.00    -0.000 C 
BRANCH  13  14
ATOM     14  C   UNL     1     -19.300  31.437 -42.488  1.00  0.00    -0.000 C 
BRANCH  14  15
ATOM     15  C   UNL     1     -20.581  30.588 -42.560  1.00  0.00    -0.000 C 
BRANCH  15  16
ATOM     16  C   UNL     1     -21.364  30.570 -41.235  1.00  0.00    -0.000 C 
BRANCH  16  17
ATOM     17  C   UNL     1     -22.610  31.472 -41.202  1.00  0.00    -0.000 C 
BRANCH  17  18
ATOM     18  C   UNL     1     -23.631  31.042 -40.133  1.00  0.00    -0.000 C 
BRANCH  18  19
ATOM     19  C   UNL     1     -23.146  29.840 -39.306  1.00  0.00    -0.003 C 
ATOM     20  C   UNL     1     -23.385  30.022 -37.807  1.00  0.00     0.004 C 
ENDBRANCH  18  19
ENDBRANCH  17  18
ENDBRANCH  16  17
ENDBRANCH  15  16
ENDBRANCH  14  15
ENDBRANCH  13  14
ENDBRANCH  12  13
ENDBRANCH   1  12
TORSDOF 16
ENDMDL
MODEL 6
REMARK VINA RESULT:    -3.607      1.152      2.641
REMARK INTER + INTRA:          -9.628
REMARK INTER:                  -6.646
REMARK INTRA:                  -2.982
REMARK UNBOUND:                -2.647
REMARK SMILES CCCCCCCCCCCCCCCCCC(=O)[O-]
REMARK SMILES IDX 10 1 11 2 12 3 13 4 14 5 15 6 16 7 17 8 18 9 19 10 20 11
REMARK SMILES IDX 9 12 8 13 7 14 6 15 5 16 4 17 3 18 2 19 1 20
REMARK H PARENT
REMARK Flexibility Score: inf
ROOT
ATOM      1  C   UNL     1     -21.770  34.148 -37.985  1.00  0.00     0.000 C 
ENDROOT
BRANCH   1   2
ATOM      2  C   UNL     1     -22.978  33.572 -38.741  1.00  0.00     0.000 C 
BRANCH   2   3
ATOM      3  C   UNL     1     -23.441  32.221 -38.167  1.00  0.00     0.000 C 
BRANCH   3   4
ATOM      4  C   UNL     1     -23.745  31.180 -39.260  1.00  0.00     0.000 C 
BRANCH   4   5
ATOM      5  C   UNL     1     -23.336  31.594 -40.688  1.00  0.00     0.000 C 
BRANCH   5   6
ATOM      6  C   UNL     1     -23.898  30.704 -41.814  1.00  0.00     0.000 C 
BRANCH   6   7
ATOM      7  C   UNL     1     -23.667  29.191 -41.626  1.00  0.00     0.006 C 
BRANCH   7   8
ATOM      8  C   UNL     1     -24.881  28.316 -41.973  1.00  0.00     0.053 C 
BRANCH   8   9
ATOM      9  C   UNL     1     -26.117  28.763 -41.256  1.00  0.00     0.041 C 
ATOM     10  O   UNL     1     -26.208  28.630 -40.007  1.00  0.00    -0.550 OA
ATOM     11  O   UNL     1     -27.183  29.296 -41.970  1.00  0.00    -0.550 OA
ENDBRANCH   8   9
ENDBRANCH   7   8
ENDBRANCH   6   7
ENDBRANCH   5   6
ENDBRANCH   4   5
ENDBRANCH   3   4
ENDBRANCH   2   3
ENDBRANCH   1   2
BRANCH   1  12
ATOM     12  C   UNL     1     -20.445  33.487 -38.393  1.00  0.00     0.000 C 
BRANCH  12  13
ATOM     13  C   UNL     1     -20.347  33.358 -39.922  1.00  0.00    -0.000 C 
BRANCH  13  14
ATOM     14  C   UNL     1     -19.097  32.584 -40.373  1.00  0.00    -0.000 C 
BRANCH  14  15
ATOM     15  C   UNL     1     -19.292  31.881 -41.728  1.00  0.00    -0.000 C 
BRANCH  15  16
ATOM     16  C   UNL     1     -19.920  30.483 -41.593  1.00  0.00    -0.000 C 
BRANCH  16  17
ATOM     17  C   UNL     1     -19.487  29.691 -40.346  1.00  0.00    -0.000 C 
BRANCH  17  18
ATOM     18  C   UNL     1     -20.678  29.232 -39.486  1.00  0.00    -0.000 C 
BRANCH  18  19
ATOM     19  C   UNL     1     -20.549  29.673 -38.019  1.00  0.00    -0.003 C 
ATOM     20  C   UNL     1     -19.124  30.088 -37.652  1.00  0.00     0.004 C 
ENDBRANCH  18  19
ENDBRANCH  17  18
ENDBRANCH  16  17
ENDBRANCH  15  16
ENDBRANCH  14  15
ENDBRANCH  13  14
ENDBRANCH  12  13
ENDBRANCH   1  12
TORSDOF 16
ENDMDL
MODEL 7
REMARK VINA RESULT:    -3.594      1.531      3.983
REMARK INTER + INTRA:          -9.603
REMARK INTER:                  -7.023
REMARK INTRA:                  -2.580
REMARK UNBOUND:                -2.647
REMARK SMILES CCCCCCCCCCCCCCCCCC(=O)[O-]
REMARK SMILES IDX 10 1 11 2 12 3 13 4 14 5 15 6 16 7 17 8 18 9 19 10 20 11
REMARK SMILES IDX 9 12 8 13 7 14 6 15 5 16 4 17 3 18 2 19 1 20
REMARK H PARENT
REMARK Flexibility Score: inf
ROOT
ATOM      1  C   UNL     1     -22.077  29.455 -42.863  1.00  0.00     0.000 C 
ENDROOT
BRANCH   1   2
ATOM      2  C   UNL     1     -23.130  29.180 -41.778  1.00  0.00     0.000 C 
BRANCH   2   3
ATOM      3  C   UNL     1     -22.499  28.785 -40.431  1.00  0.00     0.000 C 
BRANCH   3   4
ATOM      4  C   UNL     1     -22.559  29.918 -39.389  1.00  0.00     0.000 C 
BRANCH   4   5
ATOM      5  C   UNL     1     -23.546  31.055 -39.717  1.00  0.00     0.000 C 
BRANCH   5   6
ATOM      6  C   UNL     1     -24.793  31.122 -38.812  1.00  0.00     0.000 C 
BRANCH   6   7
ATOM      7  C   UNL     1     -26.139  30.947 -39.544  1.00  0.00     0.006 C 
BRANCH   7   8
ATOM      8  C   UNL     1     -26.077  31.206 -41.058  1.00  0.00     0.053 C 
BRANCH   8   9
ATOM      9  C   UNL     1     -26.928  30.242 -41.826  1.00  0.00     0.041 C 
ATOM     10  O   UNL     1     -27.928  30.653 -42.469  1.00  0.00    -0.550 OA
ATOM     11  O   UNL     1     -26.636  28.883 -41.803  1.00  0.00    -0.550 OA
ENDBRANCH   8   9
ENDBRANCH   7   8
ENDBRANCH   6   7
ENDBRANCH   5   6
ENDBRANCH   4   5
ENDBRANCH   3   4
ENDBRANCH   2   3
ENDBRANCH   1   2
BRANCH   1  12
ATOM     12  C   UNL     1     -21.378  30.811 -42.679  1.00  0.00     0.000 C 
BRANCH  12  13
ATOM     13  C   UNL     1     -19.871  30.623 -42.443  1.00  0.00    -0.000 C 
BRANCH  13  14
ATOM     14  C   UNL     1     -19.222  31.839 -41.761  1.00  0.00    -0.000 C 
BRANCH  14  15
ATOM     15  C   UNL     1     -19.689  32.022 -40.307  1.00  0.00    -0.000 C 
BRANCH  15  16
ATOM     16  C   UNL     1     -20.536  33.290 -40.104  1.00  0.00    -0.000 C 
BRANCH  16  17
ATOM     17  C   UNL     1     -20.709  33.731 -38.639  1.00  0.00    -0.000 C 
BRANCH  17  18
ATOM     18  C   UNL     1     -20.551  32.570 -37.642  1.00  0.00    -0.000 C 
BRANCH  18  19
ATOM     19  C   UNL     1     -21.691  32.519 -36.613  1.00  0.00    -0.003 C 
ATOM     20  C   UNL     1     -22.764  33.578 -36.869  1.00  0.00     0.004 C 
ENDBRANCH  18  19
ENDBRANCH  17  18
ENDBRANCH  16  17
ENDBRANCH  15  16
ENDBRANCH  14  15
ENDBRANCH  13  14
ENDBRANCH  12  13
ENDBRANCH   1  12
TORSDOF 16
ENDMDL
MODEL 8
REMARK VINA RESULT:    -3.590      1.317      3.286
REMARK INTER + INTRA:          -9.595
REMARK INTER:                  -6.708
REMARK INTRA:                  -2.887
REMARK UNBOUND:                -2.647
REMARK SMILES CCCCCCCCCCCCCCCCCC(=O)[O-]
REMARK SMILES IDX 10 1 11 2 12 3 13 4 14 5 15 6 16 7 17 8 18 9 19 10 20 11
REMARK SMILES IDX 9 12 8 13 7 14 6 15 5 16 4 17 3 18 2 19 1 20
REMARK H PARENT
REMARK Flexibility Score: inf
ROOT
ATOM      1  C   UNL     1     -19.408  32.431 -40.584  1.00  0.00     0.000 C 
ENDROOT
BRANCH   1   2
ATOM      2  C   UNL     1     -19.231  30.998 -40.056  1.00  0.00     0.000 C 
BRANCH   2   3
ATOM      3  C   UNL     1     -20.319  30.041 -40.574  1.00  0.00     0.000 C 
BRANCH   3   4
ATOM      4  C   UNL     1     -20.797  30.394 -41.995  1.00  0.00     0.000 C 
BRANCH   4   5
ATOM      5  C   UNL     1     -22.321  30.306 -42.212  1.00  0.00     0.000 C 
BRANCH   5   6
ATOM      6  C   UNL     1     -23.121  31.541 -41.752  1.00  0.00     0.000 C 
BRANCH   6   7
ATOM      7  C   UNL     1     -24.599  31.268 -41.407  1.00  0.00     0.006 C 
BRANCH   7   8
ATOM      8  C   UNL     1     -24.861  29.888 -40.783  1.00  0.00     0.053 C 
BRANCH   8   9
ATOM      9  C   UNL     1     -25.974  29.163 -41.475  1.00  0.00     0.041 C 
ATOM     10  O   UNL     1     -25.732  28.129 -42.150  1.00  0.00    -0.550 OA
ATOM     11  O   UNL     1     -27.274  29.648 -41.402  1.00  0.00    -0.550 OA
ENDBRANCH   8   9
ENDBRANCH   7   8
ENDBRANCH   6   7
ENDBRANCH   5   6
ENDBRANCH   4   5
ENDBRANCH   3   4
ENDBRANCH   2   3
ENDBRANCH   1   2
BRANCH   1  12
ATOM     12  C   UNL     1     -19.789  33.426 -39.477  1.00  0.00     0.000 C 
BRANCH  12  13
ATOM     13  C   UNL     1     -21.289  33.757 -39.532  1.00  0.00    -0.000 C 
BRANCH  13  14
ATOM     14  C   UNL     1     -21.839  34.244 -38.181  1.00  0.00    -0.000 C 
BRANCH  14  15
ATOM     15  C   UNL     1     -22.891  33.288 -37.590  1.00  0.00    -0.000 C 
BRANCH  15  16
ATOM     16  C   UNL     1     -22.772  31.855 -38.137  1.00  0.00    -0.000 C 
BRANCH  16  17
ATOM     17  C   UNL     1     -22.501  30.773 -37.076  1.00  0.00    -0.000 C 
BRANCH  17  18
ATOM     18  C   UNL     1     -21.001  30.488 -36.882  1.00  0.00    -0.000 C 
BRANCH  18  19
ATOM     19  C   UNL     1     -20.303  31.561 -36.032  1.00  0.00    -0.003 C 
ATOM     20  C   UNL     1     -18.820  31.711 -36.373  1.00  0.00     0.004 C 
ENDBRANCH  18  19
ENDBRANCH  17  18
ENDBRANCH  16  17
ENDBRANCH  15  16
ENDBRANCH  14  15
ENDBRANCH  13  14
ENDBRANCH  12  13
ENDBRANCH   1  12
TORSDOF 16
ENDMDL
MODEL 9
REMARK VINA RESULT:    -3.556      1.564      2.245
REMARK INTER + INTRA:          -9.528
REMARK INTER:                  -6.493
REMARK INTRA:                  -3.035
REMARK UNBOUND:                -2.647
REMARK SMILES CCCCCCCCCCCCCCCCCC(=O)[O-]
REMARK SMILES IDX 10 1 11 2 12 3 13 4 14 5 15 6 16 7 17 8 18 9 19 10 20 11
REMARK SMILES IDX 9 12 8 13 7 14 6 15 5 16 4 17 3 18 2 19 1 20
REMARK H PARENT
REMARK Flexibility Score: inf
ROOT
ATOM      1  C   UNL     1     -22.797  29.625 -38.357  1.00  0.00     0.000 C 
ENDROOT
BRANCH   1   2
ATOM      2  C   UNL     1     -21.383  29.950 -38.866  1.00  0.00     0.000 C 
BRANCH   2   3
ATOM      3  C   UNL     1     -21.092  29.315 -40.238  1.00  0.00     0.000 C 
BRANCH   3   4
ATOM      4  C   UNL     1     -22.267  29.455 -41.222  1.00  0.00     0.000 C 
BRANCH   4   5
ATOM      5  C   UNL     1     -22.404  30.841 -41.884  1.00  0.00     0.000 C 
BRANCH   5   6
ATOM      6  C   UNL     1     -23.729  31.575 -41.599  1.00  0.00     0.000 C 
BRANCH   6   7
ATOM      7  C   UNL     1     -24.889  30.671 -41.136  1.00  0.00     0.006 C 
BRANCH   7   8
ATOM      8  C   UNL     1     -26.283  31.296 -41.293  1.00  0.00     0.053 C 
BRANCH   8   9
ATOM      9  C   UNL     1     -27.251  30.353 -41.939  1.00  0.00     0.041 C 
ATOM     10  O   UNL     1     -28.271  30.796 -42.527  1.00  0.00    -0.550 OA
ATOM     11  O   UNL     1     -27.043  28.981 -41.863  1.00  0.00    -0.550 OA
ENDBRANCH   8   9
ENDBRANCH   7   8
ENDBRANCH   6   7
ENDBRANCH   5   6
ENDBRANCH   4   5
ENDBRANCH   3   4
ENDBRANCH   2   3
ENDBRANCH   1   2
BRANCH   1  12
ATOM     12  C   UNL     1     -23.489  30.839 -37.718  1.00  0.00     0.000 C 
BRANCH  12  13
ATOM     13  C   UNL     1     -22.500  32.004 -37.547  1.00  0.00    -0.000 C 
BRANCH  13  14
ATOM     14  C   UNL     1     -22.850  33.213 -38.431  1.00  0.00    -0.000 C 
BRANCH  14  15
ATOM     15  C   UNL     1     -21.636  33.746 -39.212  1.00  0.00    -0.000 C 
BRANCH  15  16
ATOM     16  C   UNL     1     -20.309  33.559 -38.457  1.00  0.00    -0.000 C 
BRANCH  16  17
ATOM     17  C   UNL     1     -19.166  32.951 -39.289  1.00  0.00    -0.000 C 
BRANCH  17  18
ATOM     18  C   UNL     1     -19.579  32.647 -40.740  1.00  0.00    -0.000 C 
BRANCH  18  19
ATOM     19  C   UNL     1     -18.553  31.768 -41.473  1.00  0.00    -0.003 C 
ATOM     20  C   UNL     1     -18.887  31.580 -42.953  1.00  0.00     0.004 C 
ENDBRANCH  18  19
ENDBRANCH  17  18
ENDBRANCH  16  17
ENDBRANCH  15  16
ENDBRANCH  14  15
ENDBRANCH  13  14
ENDBRANCH  12  13
ENDBRANCH   1  12
TORSDOF 16
ENDMDL
