MODEL 1
REMARK VINA RESULT:    -4.058      0.000      0.000
REMARK INTER + INTRA:          -4.875
REMARK INTER:                  -4.889
REMARK INTRA:                   0.013
REMARK UNBOUND:                 0.013
REMARK SMILES O=c1c(O)c(-c2ccc(O)c(O)c2)oc2cc(O)cc(O)c12
REMARK SMILES IDX 5 1 3 2 2 3 1 4 22 5 20 6 19 7 17 8 16 9 15 10 14 11 6 12
REMARK SMILES IDX 7 13 8 14 9 15 13 16 11 17 10 18 12 20 4 22 21 24 18 26
REMARK H PARENT 10 19 12 21 4 23 21 25 18 27
REMARK Flexibility Score: inf
ROOT
ATOM      1  C   UNL     1       5.174  -5.676 -14.473  1.00  0.00     0.180 A 
ATOM      2  C   UNL     1       6.547  -5.531 -14.209  1.00  0.00     0.208 A 
ATOM      3  C   UNL     1       6.984  -5.491 -12.876  1.00  0.00     0.238 A 
ATOM      4  O   UNL     1       8.208  -5.308 -12.646  1.00  0.00    -0.285 OA
ATOM      5  C   UNL     1       6.046  -5.613 -11.823  1.00  0.00     0.111 A 
ATOM      6  C   UNL     1       6.381  -5.625 -10.436  1.00  0.00     0.134 A 
ATOM      7  C   UNL     1       5.359  -5.619  -9.478  1.00  0.00     0.093 A 
ATOM      8  C   UNL     1       4.018  -5.666  -9.856  1.00  0.00     0.123 A 
ATOM      9  C   UNL     1       3.680  -5.713 -11.209  1.00  0.00     0.094 A 
ATOM     10  C   UNL     1       4.676  -5.684 -12.188  1.00  0.00     0.146 A 
ATOM     11  O   UNL     1       4.312  -5.721 -13.464  1.00  0.00    -0.452 OA
ENDROOT
BRANCH   1  12
ATOM     12  C   UNL     1       4.641  -5.751 -15.852  1.00  0.00     0.025 A 
ATOM     13  C   UNL     1       3.500  -5.007 -16.194  1.00  0.00     0.016 A 
ATOM     14  C   UNL     1       2.967  -5.080 -17.484  1.00  0.00     0.051 A 
ATOM     15  C   UNL     1       3.557  -5.908 -18.445  1.00  0.00     0.157 A 
ATOM     16  C   UNL     1       5.218  -6.598 -16.816  1.00  0.00     0.062 A 
ATOM     17  C   UNL     1       4.682  -6.673 -18.110  1.00  0.00     0.158 A 
BRANCH  15  18
ATOM     18  O   UNL     1       3.031  -5.982 -19.733  1.00  0.00    -0.504 OA
ATOM     19  H   UNL     1       2.663  -6.849 -20.107  1.00  0.00     0.293 HD
ENDBRANCH  15  18
BRANCH  17  20
ATOM     20  O   UNL     1       5.259  -7.507 -19.066  1.00  0.00    -0.504 OA
ATOM     21  H   UNL     1       4.738  -8.265 -19.492  1.00  0.00     0.293 HD
ENDBRANCH  17  20
ENDBRANCH   1  12
BRANCH   2  22
ATOM     22  O   UNL     1       7.454  -5.392 -15.264  1.00  0.00    -0.502 OA
ATOM     23  H   UNL     1       8.403  -5.745 -15.215  1.00  0.00     0.293 HD
ENDBRANCH   2  22
BRANCH   6  24
ATOM     24  O   UNL     1       7.690  -5.674  -9.950  1.00  0.00    -0.507 OA
ATOM     25  H   UNL     1       8.443  -6.194 -10.376  1.00  0.00     0.293 HD
ENDBRANCH   6  24
BRANCH   8  26
ATOM     26  O   UNL     1       3.028  -5.674  -8.876  1.00  0.00    -0.508 OA
ATOM     27  H   UNL     1       2.848  -6.495  -8.311  1.00  0.00     0.293 HD
ENDBRANCH   8  26
TORSDOF 6
ENDMDL
MODEL 2
REMARK VINA RESULT:    -1.245      1.205      2.958
REMARK INTER + INTRA:          -1.486
REMARK INTER:                  -1.493
REMARK INTRA:                   0.007
REMARK UNBOUND:                 0.013
REMARK SMILES O=c1c(O)c(-c2ccc(O)c(O)c2)oc2cc(O)cc(O)c12
REMARK SMILES IDX 5 1 3 2 2 3 1 4 22 5 20 6 19 7 17 8 16 9 15 10 14 11 6 12
REMARK SMILES IDX 7 13 8 14 9 15 13 16 11 17 10 18 12 20 4 22 21 24 18 26
REMARK H PARENT 10 19 12 21 4 23 21 25 18 27
REMARK Flexibility Score: inf
ROOT
ATOM      1  C   UNL     1       4.907  -5.552 -14.398  1.00  0.00     0.180 A 
ATOM      2  C   UNL     1       4.036  -5.636 -13.298  1.00  0.00     0.208 A 
ATOM      3  C   UNL     1       4.560  -5.496 -12.003  1.00  0.00     0.238 A 
ATOM      4  O   UNL     1       3.784  -5.625 -11.020  1.00  0.00    -0.285 OA
ATOM      5  C   UNL     1       5.944  -5.257 -11.825  1.00  0.00     0.111 A 
ATOM      6  C   UNL     1       6.576  -5.060 -10.560  1.00  0.00     0.134 A 
ATOM      7  C   UNL     1       7.972  -4.963 -10.494  1.00  0.00     0.093 A 
ATOM      8  C   UNL     1       8.751  -4.990 -11.649  1.00  0.00     0.123 A 
ATOM      9  C   UNL     1       8.139  -5.124 -12.896  1.00  0.00     0.094 A 
ATOM     10  C   UNL     1       6.752  -5.260 -12.991  1.00  0.00     0.146 A 
ATOM     11  O   UNL     1       6.209  -5.394 -14.196  1.00  0.00    -0.452 OA
ENDROOT
BRANCH   1  12
ATOM     12  C   UNL     1       4.425  -5.665 -15.794  1.00  0.00     0.025 A 
ATOM     13  C   UNL     1       3.344  -4.876 -16.218  1.00  0.00     0.016 A 
ATOM     14  C   UNL     1       2.860  -4.981 -17.525  1.00  0.00     0.051 A 
ATOM     15  C   UNL     1       3.439  -5.888 -18.420  1.00  0.00     0.157 A 
ATOM     16  C   UNL     1       4.990  -6.589 -16.691  1.00  0.00     0.062 A 
ATOM     17  C   UNL     1       4.503  -6.698 -18.002  1.00  0.00     0.158 A 
BRANCH  15  18
ATOM     18  O   UNL     1       2.960  -5.995 -19.725  1.00  0.00    -0.504 OA
ATOM     19  H   UNL     1       2.855  -5.181 -20.319  1.00  0.00     0.293 HD
ENDBRANCH  15  18
BRANCH  17  20
ATOM     20  O   UNL     1       5.068  -7.609 -18.892  1.00  0.00    -0.504 OA
ATOM     21  H   UNL     1       5.510  -8.461 -18.568  1.00  0.00     0.293 HD
ENDBRANCH  17  20
ENDBRANCH   1  12
BRANCH   2  22
ATOM     22  O   UNL     1       2.676  -5.893 -13.496  1.00  0.00    -0.502 OA
ATOM     23  H   UNL     1       2.031  -5.183 -13.823  1.00  0.00     0.293 HD
ENDBRANCH   2  22
BRANCH   6  24
ATOM     24  O   UNL     1       5.884  -4.925  -9.354  1.00  0.00    -0.507 OA
ATOM     25  H   UNL     1       6.248  -4.473  -8.529  1.00  0.00     0.293 HD
ENDBRANCH   6  24
BRANCH   8  26
ATOM     26  O   UNL     1      10.136  -4.875 -11.546  1.00  0.00    -0.508 OA
ATOM     27  H   UNL     1      10.748  -5.664 -11.724  1.00  0.00     0.293 HD
ENDBRANCH   8  26
TORSDOF 6
ENDMDL
