MODEL 1
REMARK VINA RESULT:    -0.782      0.000      0.000
REMARK INTER + INTRA:          -1.002
REMARK INTER:                  -0.873
REMARK INTRA:                  -0.129
REMARK UNBOUND:                -0.129
REMARK SMILES O=C([O-])C=Cc1ccccc1
REMARK SMILES IDX 4 1 5 2 2 3 1 4 3 5 6 6 7 7 11 8 8 9 10 10 9 11
REMARK H PARENT
REMARK Flexibility Score: inf
ROOT
ATOM      1  C   UNL     1      -8.015  -6.153  21.043  1.00  0.00     0.025 C 
ATOM      2  C   UNL     1      -8.839  -7.137  21.433  1.00  0.00     0.010 C 
ENDROOT
BRANCH   1   3
ATOM      3  C   UNL     1      -8.189  -5.447  19.762  1.00  0.00     0.064 C 
ATOM      4  O   UNL     1      -9.114  -5.758  18.964  1.00  0.00    -0.545 OA
ATOM      5  O   UNL     1      -7.319  -4.418  19.426  1.00  0.00    -0.545 OA
ENDBRANCH   1   3
BRANCH   2   6
ATOM      6  C   UNL     1      -8.718  -7.890  22.712  1.00  0.00    -0.026 A 
ATOM      7  C   UNL     1      -9.124  -7.369  23.960  1.00  0.00     0.008 A 
ATOM      8  C   UNL     1      -8.173  -9.187  22.669  1.00  0.00     0.008 A 
ATOM      9  C   UNL     1      -8.982  -8.131  25.125  1.00  0.00     0.001 A 
ATOM     10  C   UNL     1      -8.035  -9.943  23.837  1.00  0.00     0.001 A 
ATOM     11  C   UNL     1      -8.439  -9.415  25.064  1.00  0.00     0.000 A 
ENDBRANCH   2   6
TORSDOF 2
ENDMDL
MODEL 2
REMARK VINA RESULT:    -0.258      3.046      5.467
REMARK INTER + INTRA:          -0.417
REMARK INTER:                  -0.288
REMARK INTRA:                  -0.130
REMARK UNBOUND:                -0.129
REMARK SMILES O=C([O-])C=Cc1ccccc1
REMARK SMILES IDX 4 1 5 2 2 3 1 4 3 5 6 6 7 7 11 8 8 9 10 10 9 11
REMARK H PARENT
REMARK Flexibility Score: inf
ROOT
ATOM      1  C   UNL     1      -8.450  -8.163  22.818  1.00  0.00     0.025 C 
ATOM      2  C   UNL     1      -8.688  -6.873  22.538  1.00  0.00     0.010 C 
ENDROOT
BRANCH   1   3
ATOM      3  C   UNL     1      -8.707  -8.736  24.151  1.00  0.00     0.064 C 
ATOM      4  O   UNL     1      -9.124  -8.021  25.101  1.00  0.00    -0.545 OA
ATOM      5  O   UNL     1      -8.487 -10.090  24.365  1.00  0.00    -0.545 OA
ENDBRANCH   1   3
BRANCH   2   6
ATOM      6  C   UNL     1      -8.449  -6.232  21.216  1.00  0.00    -0.026 A 
ATOM      7  C   UNL     1      -9.123  -6.615  20.035  1.00  0.00     0.008 A 
ATOM      8  C   UNL     1      -7.505  -5.190  21.144  1.00  0.00     0.008 A 
ATOM      9  C   UNL     1      -8.852  -5.970  18.824  1.00  0.00     0.001 A 
ATOM     10  C   UNL     1      -7.239  -4.550  19.930  1.00  0.00     0.001 A 
ATOM     11  C   UNL     1      -7.912  -4.940  18.771  1.00  0.00     0.000 A 
ENDBRANCH   2   6
TORSDOF 2
ENDMDL
MODEL 3
REMARK VINA RESULT:    -0.026      3.046      5.397
REMARK INTER + INTRA:          -0.158
REMARK INTER:                  -0.020
REMARK INTRA:                  -0.138
REMARK UNBOUND:                -0.129
REMARK SMILES O=C([O-])C=Cc1ccccc1
REMARK SMILES IDX 4 1 5 2 2 3 1 4 3 5 6 6 7 7 11 8 8 9 10 10 9 11
REMARK H PARENT
REMARK Flexibility Score: inf
ROOT
ATOM      1  C   UNL     1      -8.529  -8.073  22.810  1.00  0.00     0.025 C 
ATOM      2  C   UNL     1      -8.500  -6.747  22.608  1.00  0.00     0.010 C 
ENDROOT
BRANCH   1   3
ATOM      3  C   UNL     1      -8.720  -8.657  24.149  1.00  0.00     0.064 C 
ATOM      4  O   UNL     1      -9.122  -7.956  25.116  1.00  0.00    -0.545 OA
ATOM      5  O   UNL     1      -8.455 -10.005  24.350  1.00  0.00    -0.545 OA
ENDBRANCH   1   3
BRANCH   2   6
ATOM      6  C   UNL     1      -8.309  -6.093  21.284  1.00  0.00    -0.026 A 
ATOM      7  C   UNL     1      -7.352  -5.082  21.049  1.00  0.00     0.008 A 
ATOM      8  C   UNL     1      -9.125  -6.509  20.214  1.00  0.00     0.008 A 
ATOM      9  C   UNL     1      -7.225  -4.509  19.779  1.00  0.00     0.001 A 
ATOM     10  C   UNL     1      -8.992  -5.932  18.948  1.00  0.00     0.001 A 
ATOM     11  C   UNL     1      -8.043  -4.933  18.731  1.00  0.00     0.000 A 
ENDBRANCH   2   6
TORSDOF 2
ENDMDL
