MODEL 1
REMARK VINA RESULT:    36.689      0.000      0.000
REMARK INTER + INTRA:          39.906
REMARK INTER:                  39.906
REMARK INTRA:                   0.000
REMARK UNBOUND:                 0.000
REMARK SMILES Cc1cc(O)c2c(c1)C(=O)c1cc(O)cc(O)c1C2=O
REMARK SMILES IDX 1 1 2 2 8 3 7 4 6 5 4 6 3 7 19 8 20 9 18 10 11 11 9 12 10 13
REMARK SMILES IDX 12 14 13 15 15 16 16 17 5 18 17 20 14 22
REMARK H PARENT 5 19 17 21 14 23
REMARK Flexibility Score: inf
ROOT
ATOM      1  C   UNL     1      13.419  40.965   9.587  1.00  0.00     0.044 C 
ATOM      2  C   UNL     1      14.908  40.929   9.767  1.00  0.00    -0.047 A 
ATOM      3  C   UNL     1      15.584  42.047  10.267  1.00  0.00     0.016 A 
ATOM      4  C   UNL     1      16.975  42.014  10.466  1.00  0.00     0.038 A 
ATOM      5  C   UNL     1      17.702  40.841  10.160  1.00  0.00     0.076 A 
ATOM      6  C   UNL     1      16.998  39.684   9.734  1.00  0.00     0.127 A 
ATOM      7  C   UNL     1      15.618  39.748   9.525  1.00  0.00     0.050 A 
ATOM      8  C   UNL     1      19.183  40.891  10.242  1.00  0.00     0.201 C 
ATOM      9  O   UNL     1      19.878  40.161   9.485  1.00  0.00    -0.288 OA
ATOM     10  C   UNL     1      19.842  41.931  11.074  1.00  0.00     0.076 A 
ATOM     11  C   UNL     1      19.112  43.102  11.382  1.00  0.00     0.041 A 
ATOM     12  C   UNL     1      17.683  43.201  11.003  1.00  0.00     0.194 C 
ATOM     13  O   UNL     1      17.062  44.288  11.161  1.00  0.00    -0.289 OA
ATOM     14  C   UNL     1      19.744  44.164  12.048  1.00  0.00     0.059 A 
ATOM     15  C   UNL     1      21.086  44.068  12.425  1.00  0.00     0.120 A 
ATOM     16  C   UNL     1      21.798  42.898  12.159  1.00  0.00     0.093 A 
ATOM     17  C   UNL     1      21.187  41.818  11.516  1.00  0.00     0.131 A 
ENDROOT
BRANCH   6  18
ATOM     18  O   UNL     1      17.623  38.450   9.545  1.00  0.00    -0.507 OA
ATOM     19  H   UNL     1      17.186  37.563   9.757  1.00  0.00     0.293 HD
ENDBRANCH   6  18
BRANCH  17  20
ATOM     20  O   UNL     1      21.935  40.649  11.367  1.00  0.00    -0.507 OA
ATOM     21  H   UNL     1      22.938  40.637  11.245  1.00  0.00     0.293 HD
ENDBRANCH  17  20
BRANCH  15  22
ATOM     22  O   UNL     1      21.721  45.124  13.075  1.00  0.00    -0.508 OA
ATOM     23  H   UNL     1      22.372  44.964  13.836  1.00  0.00     0.293 HD
ENDBRANCH  15  22
TORSDOF 3
ENDMDL
MODEL 2
REMARK VINA RESULT:    37.566      1.270      6.267
REMARK INTER + INTRA:          40.860
REMARK INTER:                  40.860
REMARK INTRA:                   0.000
REMARK UNBOUND:                 0.000
REMARK SMILES Cc1cc(O)c2c(c1)C(=O)c1cc(O)cc(O)c1C2=O
REMARK SMILES IDX 1 1 2 2 8 3 7 4 6 5 4 6 3 7 19 8 20 9 18 10 11 11 9 12 10 13
REMARK SMILES IDX 12 14 13 15 15 16 16 17 5 18 17 20 14 22
REMARK H PARENT 5 19 17 21 14 23
REMARK Flexibility Score: inf
ROOT
ATOM      1  C   UNL     1      23.051  43.152  13.125  1.00  0.00     0.044 C 
ATOM      2  C   UNL     1      21.704  43.085  12.468  1.00  0.00    -0.047 A 
ATOM      3  C   UNL     1      21.323  41.943  11.755  1.00  0.00     0.016 A 
ATOM      4  C   UNL     1      20.053  41.859  11.161  1.00  0.00     0.038 A 
ATOM      5  C   UNL     1      19.147  42.937  11.281  1.00  0.00     0.076 A 
ATOM      6  C   UNL     1      19.507  44.056  12.076  1.00  0.00     0.127 A 
ATOM      7  C   UNL     1      20.784  44.125  12.641  1.00  0.00     0.050 A 
ATOM      8  C   UNL     1      17.875  42.875  10.518  1.00  0.00     0.201 C 
ATOM      9  O   UNL     1      17.331  43.938  10.119  1.00  0.00    -0.288 OA
ATOM     10  C   UNL     1      17.351  41.560  10.064  1.00  0.00     0.076 A 
ATOM     11  C   UNL     1      18.258  40.483   9.946  1.00  0.00     0.041 A 
ATOM     12  C   UNL     1      19.656  40.642  10.413  1.00  0.00     0.194 C 
ATOM     13  O   UNL     1      20.501  39.730  10.197  1.00  0.00    -0.289 OA
ATOM     14  C   UNL     1      17.830  39.266   9.391  1.00  0.00     0.059 A 
ATOM     15  C   UNL     1      16.509  39.105   8.968  1.00  0.00     0.120 A 
ATOM     16  C   UNL     1      15.600  40.152   9.119  1.00  0.00     0.093 A 
ATOM     17  C   UNL     1      15.995  41.366   9.687  1.00  0.00     0.131 A 
ENDROOT
BRANCH   6  18
ATOM     18  O   UNL     1      18.620  45.097  12.359  1.00  0.00    -0.507 OA
ATOM     19  H   UNL     1      18.137  45.196  13.241  1.00  0.00     0.293 HD
ENDBRANCH   6  18
BRANCH  17  20
ATOM     20  O   UNL     1      15.010  42.335   9.890  1.00  0.00    -0.507 OA
ATOM     21  H   UNL     1      14.263  42.519   9.236  1.00  0.00     0.293 HD
ENDBRANCH  17  20
BRANCH  15  22
ATOM     22  O   UNL     1      16.083  37.903   8.406  1.00  0.00    -0.508 OA
ATOM     23  H   UNL     1      15.193  37.829   7.925  1.00  0.00     0.293 HD
ENDBRANCH  15  22
TORSDOF 3
ENDMDL
