MODEL 1
REMARK VINA RESULT:    -3.730      0.000      0.000
REMARK INTER + INTRA:          -4.972
REMARK INTER:                  -4.820
REMARK INTRA:                  -0.152
REMARK UNBOUND:                -0.152
REMARK SMILES CCCCCCC(=O)[O-]
REMARK SMILES IDX 5 1 6 2 7 3 8 4 9 5 4 6 3 7 2 8 1 9
REMARK H PARENT
REMARK Flexibility Score: inf
ROOT
ATOM      1  C   UNL     1       0.462   3.127   6.572  1.00  0.00     0.006 C 
ENDROOT
BRANCH   1   2
ATOM      2  C   UNL     1      -1.068   3.208   6.652  1.00  0.00     0.053 C 
BRANCH   2   3
ATOM      3  C   UNL     1      -1.717   2.791   5.367  1.00  0.00     0.041 C 
ATOM      4  O   UNL     1      -2.753   2.078   5.384  1.00  0.00    -0.550 OA
ATOM      5  O   UNL     1      -1.191   3.214   4.153  1.00  0.00    -0.550 OA
ENDBRANCH   2   3
ENDBRANCH   1   2
BRANCH   1   6
ATOM      6  C   UNL     1       0.981   1.697   6.794  1.00  0.00     0.000 C 
BRANCH   6   7
ATOM      7  C   UNL     1       2.502   1.641   7.035  1.00  0.00    -0.000 C 
BRANCH   7   8
ATOM      8  C   UNL     1       3.193   0.367   6.519  1.00  0.00    -0.003 C 
ATOM      9  C   UNL     1       2.220  -0.787   6.280  1.00  0.00     0.004 C 
ENDBRANCH   7   8
ENDBRANCH   6   7
ENDBRANCH   1   6
TORSDOF 5
ENDMDL
MODEL 2
REMARK VINA RESULT:    -3.654      0.737      1.597
REMARK INTER + INTRA:          -4.874
REMARK INTER:                  -4.731
REMARK INTRA:                  -0.143
REMARK UNBOUND:                -0.152
REMARK SMILES CCCCCCC(=O)[O-]
REMARK SMILES IDX 5 1 6 2 7 3 8 4 9 5 4 6 3 7 2 8 1 9
REMARK H PARENT
REMARK Flexibility Score: inf
ROOT
ATOM      1  C   UNL     1       0.554   2.564   6.451  1.00  0.00     0.006 C 
ENDROOT
BRANCH   1   2
ATOM      2  C   UNL     1      -0.945   2.736   6.731  1.00  0.00     0.053 C 
BRANCH   2   3
ATOM      3  C   UNL     1      -1.756   2.697   5.472  1.00  0.00     0.041 C 
ATOM      4  O   UNL     1      -1.253   3.077   4.383  1.00  0.00    -0.550 OA
ATOM      5  O   UNL     1      -3.058   2.212   5.498  1.00  0.00    -0.550 OA
ENDBRANCH   2   3
ENDBRANCH   1   2
BRANCH   1   6
ATOM      6  C   UNL     1       1.188   1.477   7.336  1.00  0.00     0.000 C 
BRANCH   6   7
ATOM      7  C   UNL     1       1.812   0.330   6.520  1.00  0.00    -0.000 C 
BRANCH   7   8
ATOM      8  C   UNL     1       3.323   0.126   6.738  1.00  0.00    -0.003 C 
ATOM      9  C   UNL     1       4.082   1.440   6.922  1.00  0.00     0.004 C 
ENDBRANCH   7   8
ENDBRANCH   6   7
ENDBRANCH   1   6
TORSDOF 5
ENDMDL
MODEL 3
REMARK VINA RESULT:    -3.551      2.940      4.841
REMARK INTER + INTRA:          -4.741
REMARK INTER:                  -4.651
REMARK INTRA:                  -0.090
REMARK UNBOUND:                -0.152
REMARK SMILES CCCCCCC(=O)[O-]
REMARK SMILES IDX 5 1 6 2 7 3 8 4 9 5 4 6 3 7 2 8 1 9
REMARK H PARENT
REMARK Flexibility Score: inf
ROOT
ATOM      1  C   UNL     1       1.261   2.378   6.788  1.00  0.00     0.006 C 
ENDROOT
BRANCH   1   2
ATOM      2  C   UNL     1       1.510   0.921   7.199  1.00  0.00     0.053 C 
BRANCH   2   3
ATOM      3  C   UNL     1       2.574   0.279   6.361  1.00  0.00     0.041 C 
ATOM      4  O   UNL     1       3.730   0.773   6.319  1.00  0.00    -0.550 OA
ATOM      5  O   UNL     1       2.293  -0.881   5.650  1.00  0.00    -0.550 OA
ENDBRANCH   2   3
ENDBRANCH   1   2
BRANCH   1   6
ATOM      6  C   UNL     1      -0.237   2.727   6.767  1.00  0.00     0.000 C 
BRANCH   6   7
ATOM      7  C   UNL     1      -0.841   2.689   5.350  1.00  0.00    -0.000 C 
BRANCH   7   8
ATOM      8  C   UNL     1      -1.028   4.066   4.688  1.00  0.00    -0.003 C 
ATOM      9  C   UNL     1      -0.420   5.208   5.502  1.00  0.00     0.004 C 
ENDBRANCH   7   8
ENDBRANCH   6   7
ENDBRANCH   1   6
TORSDOF 5
ENDMDL
MODEL 4
REMARK VINA RESULT:    -3.532     12.569     13.235
REMARK INTER + INTRA:          -4.717
REMARK INTER:                  -4.501
REMARK INTRA:                  -0.216
REMARK UNBOUND:                -0.152
REMARK SMILES CCCCCCC(=O)[O-]
REMARK SMILES IDX 5 1 6 2 7 3 8 4 9 5 4 6 3 7 2 8 1 9
REMARK H PARENT
REMARK Flexibility Score: inf
ROOT
ATOM      1  C   UNL     1      -2.618  -4.105  -5.426  1.00  0.00     0.006 C 
ENDROOT
BRANCH   1   2
ATOM      2  C   UNL     1      -3.066  -4.960  -4.234  1.00  0.00     0.053 C 
BRANCH   2   3
ATOM      3  C   UNL     1      -4.533  -4.818  -3.964  1.00  0.00     0.041 C 
ATOM      4  O   UNL     1      -5.119  -3.732  -4.207  1.00  0.00    -0.550 OA
ATOM      5  O   UNL     1      -5.257  -5.897  -3.471  1.00  0.00    -0.550 OA
ENDBRANCH   2   3
ENDBRANCH   1   2
BRANCH   1   6
ATOM      6  C   UNL     1      -1.625  -3.006  -5.013  1.00  0.00     0.000 C 
BRANCH   6   7
ATOM      7  C   UNL     1      -1.837  -1.687  -5.782  1.00  0.00    -0.000 C 
BRANCH   7   8
ATOM      8  C   UNL     1      -3.258  -1.103  -5.686  1.00  0.00    -0.003 C 
ATOM      9  C   UNL     1      -3.321   0.378  -6.062  1.00  0.00     0.004 C 
ENDBRANCH   7   8
ENDBRANCH   6   7
ENDBRANCH   1   6
TORSDOF 5
ENDMDL
MODEL 5
REMARK VINA RESULT:    -3.411      2.957      5.047
REMARK INTER + INTRA:          -4.560
REMARK INTER:                  -4.454
REMARK INTRA:                  -0.106
REMARK UNBOUND:                -0.152
REMARK SMILES CCCCCCC(=O)[O-]
REMARK SMILES IDX 5 1 6 2 7 3 8 4 9 5 4 6 3 7 2 8 1 9
REMARK H PARENT
REMARK Flexibility Score: inf
ROOT
ATOM      1  C   UNL     1       0.717   1.798   6.764  1.00  0.00     0.006 C 
ENDROOT
BRANCH   1   2
ATOM      2  C   UNL     1       2.231   1.993   6.916  1.00  0.00     0.053 C 
BRANCH   2   3
ATOM      3  C   UNL     1       2.990   0.741   6.601  1.00  0.00     0.041 C 
ATOM      4  O   UNL     1       4.180   0.608   6.989  1.00  0.00    -0.550 OA
ATOM      5  O   UNL     1       2.373  -0.290   5.904  1.00  0.00    -0.550 OA
ENDBRANCH   2   3
ENDBRANCH   1   2
BRANCH   1   6
ATOM      6  C   UNL     1       0.034   3.021   6.129  1.00  0.00     0.000 C 
BRANCH   6   7
ATOM      7  C   UNL     1      -1.250   2.658   5.359  1.00  0.00    -0.000 C 
BRANCH   7   8
ATOM      8  C   UNL     1      -2.547   3.238   5.952  1.00  0.00    -0.003 C 
ATOM      9  C   UNL     1      -3.668   2.205   6.064  1.00  0.00     0.004 C 
ENDBRANCH   7   8
ENDBRANCH   6   7
ENDBRANCH   1   6
TORSDOF 5
ENDMDL
MODEL 6
REMARK VINA RESULT:    -3.402     12.601     13.322
REMARK INTER + INTRA:          -4.549
REMARK INTER:                  -4.270
REMARK INTRA:                  -0.279
REMARK UNBOUND:                -0.152
REMARK SMILES CCCCCCC(=O)[O-]
REMARK SMILES IDX 5 1 6 2 7 3 8 4 9 5 4 6 3 7 2 8 1 9
REMARK H PARENT
REMARK Flexibility Score: inf
ROOT
ATOM      1  C   UNL     1      -2.464  -3.672  -5.719  1.00  0.00     0.006 C 
ENDROOT
BRANCH   1   2
ATOM      2  C   UNL     1      -2.934  -4.529  -4.537  1.00  0.00     0.053 C 
BRANCH   2   3
ATOM      3  C   UNL     1      -4.398  -4.356  -4.269  1.00  0.00     0.041 C 
ATOM      4  O   UNL     1      -4.968  -5.056  -3.392  1.00  0.00    -0.550 OA
ATOM      5  O   UNL     1      -5.125  -3.401  -4.968  1.00  0.00    -0.550 OA
ENDBRANCH   2   3
ENDBRANCH   1   2
BRANCH   1   6
ATOM      6  C   UNL     1      -1.721  -2.406  -5.261  1.00  0.00     0.000 C 
BRANCH   6   7
ATOM      7  C   UNL     1      -2.037  -1.176  -6.133  1.00  0.00    -0.000 C 
BRANCH   7   8
ATOM      8  C   UNL     1      -3.265  -0.363  -5.686  1.00  0.00    -0.003 C 
ATOM      9  C   UNL     1      -4.301  -0.185  -6.796  1.00  0.00     0.004 C 
ENDBRANCH   7   8
ENDBRANCH   6   7
ENDBRANCH   1   6
TORSDOF 5
ENDMDL
MODEL 7
REMARK VINA RESULT:    -3.393     12.668     13.245
REMARK INTER + INTRA:          -4.537
REMARK INTER:                  -4.306
REMARK INTRA:                  -0.231
REMARK UNBOUND:                -0.152
REMARK SMILES CCCCCCC(=O)[O-]
REMARK SMILES IDX 5 1 6 2 7 3 8 4 9 5 4 6 3 7 2 8 1 9
REMARK H PARENT
REMARK Flexibility Score: inf
ROOT
ATOM      1  C   UNL     1      -4.073  -3.392  -5.772  1.00  0.00     0.006 C 
ENDROOT
BRANCH   1   2
ATOM      2  C   UNL     1      -4.892  -3.772  -4.532  1.00  0.00     0.053 C 
BRANCH   2   3
ATOM      3  C   UNL     1      -4.381  -5.023  -3.886  1.00  0.00     0.041 C 
ATOM      4  O   UNL     1      -3.144  -5.203  -3.746  1.00  0.00    -0.550 OA
ATOM      5  O   UNL     1      -5.275  -5.977  -3.414  1.00  0.00    -0.550 OA
ENDBRANCH   2   3
ENDBRANCH   1   2
BRANCH   1   6
ATOM      6  C   UNL     1      -4.016  -1.871  -5.988  1.00  0.00     0.000 C 
BRANCH   6   7
ATOM      7  C   UNL     1      -2.628  -1.274  -5.689  1.00  0.00    -0.000 C 
BRANCH   7   8
ATOM      8  C   UNL     1      -1.531  -2.309  -5.379  1.00  0.00    -0.003 C 
ATOM      9  C   UNL     1      -0.175  -1.940  -5.978  1.00  0.00     0.004 C 
ENDBRANCH   7   8
ENDBRANCH   6   7
ENDBRANCH   1   6
TORSDOF 5
ENDMDL
MODEL 8
REMARK VINA RESULT:    -3.287     12.167     13.530
REMARK INTER + INTRA:          -4.399
REMARK INTER:                  -4.208
REMARK INTRA:                  -0.191
REMARK UNBOUND:                -0.152
REMARK SMILES CCCCCCC(=O)[O-]
REMARK SMILES IDX 5 1 6 2 7 3 8 4 9 5 4 6 3 7 2 8 1 9
REMARK H PARENT
REMARK Flexibility Score: inf
ROOT
ATOM      1  C   UNL     1      -1.875  -1.840  -5.657  1.00  0.00     0.006 C 
ENDROOT
BRANCH   1   2
ATOM      2  C   UNL     1      -1.997  -3.369  -5.621  1.00  0.00     0.053 C 
BRANCH   2   3
ATOM      3  C   UNL     1      -1.564  -3.933  -4.303  1.00  0.00     0.041 C 
ATOM      4  O   UNL     1      -2.142  -4.944  -3.827  1.00  0.00    -0.550 OA
ATOM      5  O   UNL     1      -0.501  -3.359  -3.615  1.00  0.00    -0.550 OA
ENDBRANCH   2   3
ENDBRANCH   1   2
BRANCH   1   6
ATOM      6  C   UNL     1      -3.243  -1.145  -5.561  1.00  0.00     0.000 C 
BRANCH   6   7
ATOM      7  C   UNL     1      -3.406   0.001  -6.577  1.00  0.00    -0.000 C 
BRANCH   7   8
ATOM      8  C   UNL     1      -4.755   0.023  -7.319  1.00  0.00    -0.003 C 
ATOM      9  C   UNL     1      -5.594  -1.230  -7.070  1.00  0.00     0.004 C 
ENDBRANCH   7   8
ENDBRANCH   6   7
ENDBRANCH   1   6
TORSDOF 5
ENDMDL
MODEL 9
REMARK VINA RESULT:    -3.267     12.072     13.199
REMARK INTER + INTRA:          -4.374
REMARK INTER:                  -4.076
REMARK INTRA:                  -0.298
REMARK UNBOUND:                -0.152
REMARK SMILES CCCCCCC(=O)[O-]
REMARK SMILES IDX 5 1 6 2 7 3 8 4 9 5 4 6 3 7 2 8 1 9
REMARK H PARENT
REMARK Flexibility Score: inf
ROOT
ATOM      1  C   UNL     1      -1.740  -1.975  -5.494  1.00  0.00     0.006 C 
ENDROOT
BRANCH   1   2
ATOM      2  C   UNL     1      -0.352  -2.624  -5.550  1.00  0.00     0.053 C 
BRANCH   2   3
ATOM      3  C   UNL     1      -0.209  -3.725  -4.544  1.00  0.00     0.041 C 
ATOM      4  O   UNL     1       0.479  -4.744  -4.814  1.00  0.00    -0.550 OA
ATOM      5  O   UNL     1      -0.812  -3.612  -3.298  1.00  0.00    -0.550 OA
ENDBRANCH   2   3
ENDBRANCH   1   2
BRANCH   1   6
ATOM      6  C   UNL     1      -2.825  -2.869  -6.119  1.00  0.00     0.000 C 
BRANCH   6   7
ATOM      7  C   UNL     1      -4.238  -2.551  -5.596  1.00  0.00    -0.000 C 
BRANCH   7   8
ATOM      8  C   UNL     1      -4.872  -3.655  -4.729  1.00  0.00    -0.003 C 
ATOM      9  C   UNL     1      -3.924  -4.825  -4.465  1.00  0.00     0.004 C 
ENDBRANCH   7   8
ENDBRANCH   6   7
ENDBRANCH   1   6
TORSDOF 5
ENDMDL
