MODEL 1
REMARK VINA RESULT:    -5.247      0.000      0.000
REMARK INTER + INTRA:          -7.449
REMARK INTER:                  -6.627
REMARK INTRA:                  -0.822
REMARK UNBOUND:                -0.822
REMARK SMILES Oc1ccc(CCc2cc(O)cc(O)c2)cc1
REMARK SMILES IDX 6 1 5 2 4 3 3 4 2 5 16 6 17 7 1 8 7 10 8 11 15 12 9 13 13 14
REMARK SMILES IDX 10 15 12 16 14 17 11 19
REMARK H PARENT 1 9 14 18 11 20
REMARK Flexibility Score: inf
ROOT
ATOM      1  C   UNL     1     161.211 177.047 188.140  1.00  0.00     0.040 C 
ENDROOT
BRANCH   1   2
ATOM      2  C   UNL     1     161.155 175.586 187.784  1.00  0.00    -0.047 A 
ATOM      3  C   UNL     1     159.922 174.968 187.517  1.00  0.00     0.007 A 
ATOM      4  C   UNL     1     159.875 173.618 187.154  1.00  0.00     0.046 A 
ATOM      5  C   UNL     1     161.055 172.877 187.044  1.00  0.00     0.115 A 
ATOM      6  C   UNL     1     162.340 174.842 187.659  1.00  0.00     0.007 A 
ATOM      7  C   UNL     1     162.289 173.492 187.296  1.00  0.00     0.046 A 
BRANCH   5   8
ATOM      8  O   UNL     1     160.993 171.533 186.681  1.00  0.00    -0.508 OA
ATOM      9  H   UNL     1     160.644 170.828 187.319  1.00  0.00     0.293 HD
ENDBRANCH   5   8
ENDBRANCH   1   2
BRANCH   1  10
ATOM     10  C   UNL     1     160.716 177.906 186.973  1.00  0.00     0.040 C 
BRANCH  10  11
ATOM     11  C   UNL     1     161.724 177.912 185.857  1.00  0.00    -0.040 A 
ATOM     12  C   UNL     1     161.354 177.498 184.566  1.00  0.00     0.050 A 
ATOM     13  C   UNL     1     163.056 178.280 186.108  1.00  0.00     0.050 A 
ATOM     14  C   UNL     1     162.299 177.472 183.534  1.00  0.00     0.119 A 
ATOM     15  C   UNL     1     164.003 178.254 185.075  1.00  0.00     0.119 A 
ATOM     16  C   UNL     1     163.622 177.853 183.790  1.00  0.00     0.092 A 
BRANCH  14  17
ATOM     17  O   UNL     1     161.911 177.064 182.259  1.00  0.00    -0.508 OA
ATOM     18  H   UNL     1     161.021 176.607 182.098  1.00  0.00     0.293 HD
ENDBRANCH  14  17
BRANCH  15  19
ATOM     19  O   UNL     1     165.325 178.623 185.315  1.00  0.00    -0.508 OA
ATOM     20  H   UNL     1     165.654 178.835 186.249  1.00  0.00     0.293 HD
ENDBRANCH  15  19
ENDBRANCH  10  11
ENDBRANCH   1  10
TORSDOF 6
ENDMDL
MODEL 2
REMARK VINA RESULT:    -5.243     10.094     12.559
REMARK INTER + INTRA:          -7.444
REMARK INTER:                  -6.636
REMARK INTRA:                  -0.808
REMARK UNBOUND:                -0.822
REMARK SMILES Oc1ccc(CCc2cc(O)cc(O)c2)cc1
REMARK SMILES IDX 6 1 5 2 4 3 3 4 2 5 16 6 17 7 1 8 7 10 8 11 15 12 9 13 13 14
REMARK SMILES IDX 10 15 12 16 14 17 11 19
REMARK H PARENT 1 9 14 18 11 20
REMARK Flexibility Score: inf
ROOT
ATOM      1  C   UNL     1     174.387 179.378 188.263  1.00  0.00     0.040 C 
ENDROOT
BRANCH   1   2
ATOM      2  C   UNL     1     172.985 179.050 187.824  1.00  0.00    -0.047 A 
ATOM      3  C   UNL     1     172.575 177.712 187.702  1.00  0.00     0.007 A 
ATOM      4  C   UNL     1     171.263 177.409 187.326  1.00  0.00     0.046 A 
ATOM      5  C   UNL     1     170.346 178.435 187.079  1.00  0.00     0.115 A 
ATOM      6  C   UNL     1     172.058 180.078 187.587  1.00  0.00     0.007 A 
ATOM      7  C   UNL     1     170.747 179.772 187.212  1.00  0.00     0.046 A 
BRANCH   5   8
ATOM      8  O   UNL     1     169.042 178.118 186.706  1.00  0.00    -0.508 OA
ATOM      9  H   UNL     1     168.326 178.831 186.627  1.00  0.00     0.293 HD
ENDBRANCH   5   8
ENDBRANCH   1   2
BRANCH   1  10
ATOM     10  C   UNL     1     175.138 180.125 187.158  1.00  0.00     0.040 C 
BRANCH  10  11
ATOM     11  C   UNL     1     175.376 179.224 185.977  1.00  0.00    -0.040 A 
ATOM     12  C   UNL     1     176.129 178.047 186.124  1.00  0.00     0.050 A 
ATOM     13  C   UNL     1     174.894 179.580 184.706  1.00  0.00     0.050 A 
ATOM     14  C   UNL     1     176.379 177.225 185.019  1.00  0.00     0.119 A 
ATOM     15  C   UNL     1     175.143 178.757 183.600  1.00  0.00     0.119 A 
ATOM     16  C   UNL     1     175.882 177.581 183.758  1.00  0.00     0.092 A 
BRANCH  14  17
ATOM     17  O   UNL     1     177.122 176.059 185.186  1.00  0.00    -0.508 OA
ATOM     18  H   UNL     1     178.088 176.086 185.491  1.00  0.00     0.293 HD
ENDBRANCH  14  17
BRANCH  15  19
ATOM     19  O   UNL     1     174.663 179.101 182.337  1.00  0.00    -0.508 OA
ATOM     20  H   UNL     1     174.218 178.418 181.736  1.00  0.00     0.293 HD
ENDBRANCH  15  19
ENDBRANCH  10  11
ENDBRANCH   1  10
TORSDOF 6
ENDMDL
MODEL 3
REMARK VINA RESULT:    -5.226      0.220      2.359
REMARK INTER + INTRA:          -7.423
REMARK INTER:                  -6.617
REMARK INTRA:                  -0.806
REMARK UNBOUND:                -0.822
REMARK SMILES Oc1ccc(CCc2cc(O)cc(O)c2)cc1
REMARK SMILES IDX 6 1 5 2 4 3 3 4 2 5 16 6 17 7 1 8 7 10 8 11 15 12 9 13 13 14
REMARK SMILES IDX 10 15 12 16 14 17 11 19
REMARK H PARENT 1 9 14 18 11 20
REMARK Flexibility Score: inf
ROOT
ATOM      1  C   UNL     1     161.454 177.035 188.138  1.00  0.00     0.040 C 
ENDROOT
BRANCH   1   2
ATOM      2  C   UNL     1     161.297 175.579 187.788  1.00  0.00    -0.047 A 
ATOM      3  C   UNL     1     162.419 174.733 187.758  1.00  0.00     0.007 A 
ATOM      4  C   UNL     1     162.267 173.374 187.465  1.00  0.00     0.046 A 
ATOM      5  C   UNL     1     160.998 172.846 187.212  1.00  0.00     0.115 A 
ATOM      6  C   UNL     1     160.023 175.042 187.547  1.00  0.00     0.007 A 
ATOM      7  C   UNL     1     159.875 173.683 187.255  1.00  0.00     0.046 A 
BRANCH   5   8
ATOM      8  O   UNL     1     160.863 171.489 186.922  1.00  0.00    -0.508 OA
ATOM      9  H   UNL     1     160.848 171.151 185.967  1.00  0.00     0.293 HD
ENDBRANCH   5   8
ENDBRANCH   1   2
BRANCH   1  10
ATOM     10  C   UNL     1     160.999 177.921 186.976  1.00  0.00     0.040 C 
BRANCH  10  11
ATOM     11  C   UNL     1     161.989 177.859 185.844  1.00  0.00    -0.040 A 
ATOM     12  C   UNL     1     163.329 178.224 186.055  1.00  0.00     0.050 A 
ATOM     13  C   UNL     1     161.569 177.490 184.556  1.00  0.00     0.050 A 
ATOM     14  C   UNL     1     164.243 178.199 184.996  1.00  0.00     0.119 A 
ATOM     15  C   UNL     1     162.484 177.465 183.494  1.00  0.00     0.119 A 
ATOM     16  C   UNL     1     163.818 177.816 183.716  1.00  0.00     0.092 A 
BRANCH  14  17
ATOM     17  O   UNL     1     165.570 178.557 185.226  1.00  0.00    -0.508 OA
ATOM     18  H   UNL     1     166.324 177.888 185.124  1.00  0.00     0.293 HD
ENDBRANCH  14  17
BRANCH  15  19
ATOM     19  O   UNL     1     162.075 177.094 182.214  1.00  0.00    -0.508 OA
ATOM     20  H   UNL     1     161.151 176.717 182.042  1.00  0.00     0.293 HD
ENDBRANCH  15  19
ENDBRANCH  10  11
ENDBRANCH   1  10
TORSDOF 6
ENDMDL
MODEL 4
REMARK VINA RESULT:    -5.198      2.049      2.927
REMARK INTER + INTRA:          -7.387
REMARK INTER:                  -6.676
REMARK INTRA:                  -0.712
REMARK UNBOUND:                -0.822
REMARK SMILES Oc1ccc(CCc2cc(O)cc(O)c2)cc1
REMARK SMILES IDX 6 1 5 2 4 3 3 4 2 5 16 6 17 7 1 8 7 10 8 11 15 12 9 13 13 14
REMARK SMILES IDX 10 15 12 16 14 17 11 19
REMARK H PARENT 1 9 14 18 11 20
REMARK Flexibility Score: inf
ROOT
ATOM      1  C   UNL     1     160.693 177.278 187.198  1.00  0.00     0.040 C 
ENDROOT
BRANCH   1   2
ATOM      2  C   UNL     1     160.491 175.859 186.740  1.00  0.00    -0.047 A 
ATOM      3  C   UNL     1     160.816 175.485 185.425  1.00  0.00     0.007 A 
ATOM      4  C   UNL     1     160.659 174.159 185.010  1.00  0.00     0.046 A 
ATOM      5  C   UNL     1     160.188 173.193 185.904  1.00  0.00     0.115 A 
ATOM      6  C   UNL     1     160.030 174.883 187.639  1.00  0.00     0.007 A 
ATOM      7  C   UNL     1     159.875 173.558 187.221  1.00  0.00     0.046 A 
BRANCH   5   8
ATOM      8  O   UNL     1     160.037 171.875 185.477  1.00  0.00    -0.508 OA
ATOM      9  H   UNL     1     159.123 171.446 185.397  1.00  0.00     0.293 HD
ENDBRANCH   5   8
ENDBRANCH   1   2
BRANCH   1  10
ATOM     10  C   UNL     1     161.837 177.361 188.211  1.00  0.00     0.040 C 
BRANCH  10  11
ATOM     11  C   UNL     1     163.154 177.061 187.548  1.00  0.00    -0.040 A 
ATOM     12  C   UNL     1     163.793 175.830 187.769  1.00  0.00     0.050 A 
ATOM     13  C   UNL     1     163.780 178.030 186.748  1.00  0.00     0.050 A 
ATOM     14  C   UNL     1     165.034 175.562 187.179  1.00  0.00     0.119 A 
ATOM     15  C   UNL     1     165.023 177.763 186.157  1.00  0.00     0.119 A 
ATOM     16  C   UNL     1     165.646 176.530 186.371  1.00  0.00     0.092 A 
BRANCH  14  17
ATOM     17  O   UNL     1     165.650 174.333 187.405  1.00  0.00    -0.508 OA
ATOM     18  H   UNL     1     166.330 174.210 188.146  1.00  0.00     0.293 HD
ENDBRANCH  14  17
BRANCH  15  19
ATOM     19  O   UNL     1     165.648 178.718 185.357  1.00  0.00    -0.508 OA
ATOM     20  H   UNL     1     166.528 178.525 184.892  1.00  0.00     0.293 HD
ENDBRANCH  15  19
ENDBRANCH  10  11
ENDBRANCH   1  10
TORSDOF 6
ENDMDL
MODEL 5
REMARK VINA RESULT:    -5.129      9.902     12.299
REMARK INTER + INTRA:          -7.300
REMARK INTER:                  -6.528
REMARK INTRA:                  -0.773
REMARK UNBOUND:                -0.822
REMARK SMILES Oc1ccc(CCc2cc(O)cc(O)c2)cc1
REMARK SMILES IDX 6 1 5 2 4 3 3 4 2 5 16 6 17 7 1 8 7 10 8 11 15 12 9 13 13 14
REMARK SMILES IDX 10 15 12 16 14 17 11 19
REMARK H PARENT 1 9 14 18 11 20
REMARK Flexibility Score: inf
ROOT
ATOM      1  C   UNL     1     174.022 179.125 188.108  1.00  0.00     0.040 C 
ENDROOT
BRANCH   1   2
ATOM      2  C   UNL     1     172.590 178.985 187.669  1.00  0.00    -0.047 A 
ATOM      3  C   UNL     1     172.023 177.710 187.496  1.00  0.00     0.007 A 
ATOM      4  C   UNL     1     170.682 177.581 187.119  1.00  0.00     0.046 A 
ATOM      5  C   UNL     1     169.893 178.719 186.924  1.00  0.00     0.115 A 
ATOM      6  C   UNL     1     171.791 180.124 187.484  1.00  0.00     0.007 A 
ATOM      7  C   UNL     1     170.450 179.991 187.108  1.00  0.00     0.046 A 
BRANCH   5   8
ATOM      8  O   UNL     1     168.559 178.574 186.549  1.00  0.00    -0.508 OA
ATOM      9  H   UNL     1     167.876 179.299 186.735  1.00  0.00     0.293 HD
ENDBRANCH   5   8
ENDBRANCH   1   2
BRANCH   1  10
ATOM     10  C   UNL     1     174.817 179.960 187.101  1.00  0.00     0.040 C 
BRANCH  10  11
ATOM     11  C   UNL     1     175.236 179.116 185.928  1.00  0.00    -0.040 A 
ATOM     12  C   UNL     1     174.828 179.457 184.628  1.00  0.00     0.050 A 
ATOM     13  C   UNL     1     175.993 177.950 186.130  1.00  0.00     0.050 A 
ATOM     14  C   UNL     1     175.189 178.654 183.540  1.00  0.00     0.119 A 
ATOM     15  C   UNL     1     176.356 177.146 185.041  1.00  0.00     0.119 A 
ATOM     16  C   UNL     1     175.957 177.500 183.749  1.00  0.00     0.092 A 
BRANCH  14  17
ATOM     17  O   UNL     1     174.780 179.013 182.257  1.00  0.00    -0.508 OA
ATOM     18  H   UNL     1     175.243 178.648 181.433  1.00  0.00     0.293 HD
ENDBRANCH  14  17
BRANCH  15  19
ATOM     19  O   UNL     1     177.112 175.991 185.232  1.00  0.00    -0.508 OA
ATOM     20  H   UNL     1     177.634 175.835 186.087  1.00  0.00     0.293 HD
ENDBRANCH  15  19
ENDBRANCH  10  11
ENDBRANCH   1  10
TORSDOF 6
ENDMDL
MODEL 6
REMARK VINA RESULT:    -5.092      9.799     12.502
REMARK INTER + INTRA:          -7.254
REMARK INTER:                  -6.536
REMARK INTRA:                  -0.718
REMARK UNBOUND:                -0.822
REMARK SMILES Oc1ccc(CCc2cc(O)cc(O)c2)cc1
REMARK SMILES IDX 6 1 5 2 4 3 3 4 2 5 16 6 17 7 1 8 7 10 8 11 15 12 9 13 13 14
REMARK SMILES IDX 10 15 12 16 14 17 11 19
REMARK H PARENT 1 9 14 18 11 20
REMARK Flexibility Score: inf
ROOT
ATOM      1  C   UNL     1     174.259 180.120 187.084  1.00  0.00     0.040 C 
ENDROOT
BRANCH   1   2
ATOM      2  C   UNL     1     172.836 179.855 186.674  1.00  0.00    -0.047 A 
ATOM      3  C   UNL     1     172.546 179.398 185.377  1.00  0.00     0.007 A 
ATOM      4  C   UNL     1     171.226 179.120 185.007  1.00  0.00     0.046 A 
ATOM      5  C   UNL     1     170.187 179.285 185.928  1.00  0.00     0.115 A 
ATOM      6  C   UNL     1     171.791 180.007 187.600  1.00  0.00     0.007 A 
ATOM      7  C   UNL     1     170.473 179.728 187.226  1.00  0.00     0.046 A 
BRANCH   5   8
ATOM      8  O   UNL     1     168.877 179.004 185.545  1.00  0.00    -0.508 OA
ATOM      9  H   UNL     1     168.110 179.058 186.204  1.00  0.00     0.293 HD
ENDBRANCH   5   8
ENDBRANCH   1   2
BRANCH   1  10
ATOM     10  C   UNL     1     174.706 179.124 188.158  1.00  0.00     0.040 C 
BRANCH  10  11
ATOM     11  C   UNL     1     174.882 177.752 187.566  1.00  0.00    -0.040 A 
ATOM     12  C   UNL     1     176.010 177.459 186.782  1.00  0.00     0.050 A 
ATOM     13  C   UNL     1     173.893 176.771 187.747  1.00  0.00     0.050 A 
ATOM     14  C   UNL     1     176.158 176.194 186.203  1.00  0.00     0.119 A 
ATOM     15  C   UNL     1     174.042 175.503 187.168  1.00  0.00     0.119 A 
ATOM     16  C   UNL     1     175.174 175.216 186.400  1.00  0.00     0.092 A 
BRANCH  14  17
ATOM     17  O   UNL     1     177.287 175.919 185.434  1.00  0.00    -0.508 OA
ATOM     18  H   UNL     1     177.296 175.166 184.757  1.00  0.00     0.293 HD
ENDBRANCH  14  17
BRANCH  15  19
ATOM     19  O   UNL     1     173.068 174.523 187.348  1.00  0.00    -0.508 OA
ATOM     20  H   UNL     1     172.083 174.725 187.222  1.00  0.00     0.293 HD
ENDBRANCH  15  19
ENDBRANCH  10  11
ENDBRANCH   1  10
TORSDOF 6
ENDMDL
MODEL 7
REMARK VINA RESULT:    -5.039      3.097      6.227
REMARK INTER + INTRA:          -7.186
REMARK INTER:                  -6.647
REMARK INTRA:                  -0.539
REMARK UNBOUND:                -0.822
REMARK SMILES Oc1ccc(CCc2cc(O)cc(O)c2)cc1
REMARK SMILES IDX 6 1 5 2 4 3 3 4 2 5 16 6 17 7 1 8 7 10 8 11 15 12 9 13 13 14
REMARK SMILES IDX 10 15 12 16 14 17 11 19
REMARK H PARENT 1 9 14 18 11 20
REMARK Flexibility Score: inf
ROOT
ATOM      1  C   UNL     1     161.600 176.272 182.803  1.00  0.00     0.040 C 
ENDROOT
BRANCH   1   2
ATOM      2  C   UNL     1     161.437 176.890 181.440  1.00  0.00    -0.047 A 
ATOM      3  C   UNL     1     161.557 178.280 181.273  1.00  0.00     0.007 A 
ATOM      4  C   UNL     1     161.439 178.848 180.001  1.00  0.00     0.046 A 
ATOM      5  C   UNL     1     161.212 178.037 178.885  1.00  0.00     0.115 A 
ATOM      6  C   UNL     1     161.222 176.077 180.316  1.00  0.00     0.007 A 
ATOM      7  C   UNL     1     161.105 176.649 179.045  1.00  0.00     0.046 A 
BRANCH   5   8
ATOM      8  O   UNL     1     161.097 178.618 177.624  1.00  0.00    -0.508 OA
ATOM      9  H   UNL     1     161.719 179.360 177.324  1.00  0.00     0.293 HD
ENDBRANCH   5   8
ENDBRANCH   1   2
BRANCH   1  10
ATOM     10  C   UNL     1     160.834 177.079 183.855  1.00  0.00     0.040 C 
BRANCH  10  11
ATOM     11  C   UNL     1     161.759 177.531 184.952  1.00  0.00    -0.040 A 
ATOM     12  C   UNL     1     163.085 177.885 184.658  1.00  0.00     0.050 A 
ATOM     13  C   UNL     1     161.319 177.549 186.286  1.00  0.00     0.050 A 
ATOM     14  C   UNL     1     163.957 178.275 185.682  1.00  0.00     0.119 A 
ATOM     15  C   UNL     1     162.190 177.939 187.312  1.00  0.00     0.119 A 
ATOM     16  C   UNL     1     163.506 178.303 187.009  1.00  0.00     0.092 A 
BRANCH  14  17
ATOM     17  O   UNL     1     165.268 178.629 185.370  1.00  0.00    -0.508 OA
ATOM     18  H   UNL     1     165.811 178.103 184.696  1.00  0.00     0.293 HD
ENDBRANCH  14  17
BRANCH  15  19
ATOM     19  O   UNL     1     161.760 177.966 188.638  1.00  0.00    -0.508 OA
ATOM     20  H   UNL     1     161.474 177.121 189.118  1.00  0.00     0.293 HD
ENDBRANCH  15  19
ENDBRANCH  10  11
ENDBRANCH   1  10
TORSDOF 6
ENDMDL
MODEL 8
REMARK VINA RESULT:    -5.019      3.095      6.121
REMARK INTER + INTRA:          -7.161
REMARK INTER:                  -6.621
REMARK INTRA:                  -0.540
REMARK UNBOUND:                -0.822
REMARK SMILES Oc1ccc(CCc2cc(O)cc(O)c2)cc1
REMARK SMILES IDX 6 1 5 2 4 3 3 4 2 5 16 6 17 7 1 8 7 10 8 11 15 12 9 13 13 14
REMARK SMILES IDX 10 15 12 16 14 17 11 19
REMARK H PARENT 1 9 14 18 11 20
REMARK Flexibility Score: inf
ROOT
ATOM      1  C   UNL     1     161.466 176.224 182.899  1.00  0.00     0.040 C 
ENDROOT
BRANCH   1   2
ATOM      2  C   UNL     1     161.406 176.813 181.515  1.00  0.00    -0.047 A 
ATOM      3  C   UNL     1     161.450 178.206 181.335  1.00  0.00     0.007 A 
ATOM      4  C   UNL     1     161.428 178.750 180.047  1.00  0.00     0.046 A 
ATOM      5  C   UNL     1     161.374 177.913 178.929  1.00  0.00     0.115 A 
ATOM      6  C   UNL     1     161.366 175.974 180.389  1.00  0.00     0.007 A 
ATOM      7  C   UNL     1     161.345 176.523 179.103  1.00  0.00     0.046 A 
BRANCH   5   8
ATOM      8  O   UNL     1     161.354 178.470 177.653  1.00  0.00    -0.508 OA
ATOM      9  H   UNL     1     161.940 178.111 176.909  1.00  0.00     0.293 HD
ENDBRANCH   5   8
ENDBRANCH   1   2
BRANCH   1  10
ATOM     10  C   UNL     1     160.792 177.154 183.910  1.00  0.00     0.040 C 
BRANCH  10  11
ATOM     11  C   UNL     1     161.752 177.529 185.006  1.00  0.00    -0.040 A 
ATOM     12  C   UNL     1     161.324 177.556 186.344  1.00  0.00     0.050 A 
ATOM     13  C   UNL     1     163.069 177.907 184.695  1.00  0.00     0.050 A 
ATOM     14  C   UNL     1     162.208 177.936 187.361  1.00  0.00     0.119 A 
ATOM     15  C   UNL     1     163.954 178.288 185.713  1.00  0.00     0.119 A 
ATOM     16  C   UNL     1     163.523 178.299 187.043  1.00  0.00     0.092 A 
BRANCH  14  17
ATOM     17  O   UNL     1     161.766 177.950 188.683  1.00  0.00    -0.508 OA
ATOM     18  H   UNL     1     160.854 178.314 188.932  1.00  0.00     0.293 HD
ENDBRANCH  14  17
BRANCH  15  19
ATOM     19  O   UNL     1     165.263 178.659 185.413  1.00  0.00    -0.508 OA
ATOM     20  H   UNL     1     165.858 179.106 186.101  1.00  0.00     0.293 HD
ENDBRANCH  15  19
ENDBRANCH  10  11
ENDBRANCH   1  10
TORSDOF 6
ENDMDL
MODEL 9
REMARK VINA RESULT:    -5.015      8.764     11.550
REMARK INTER + INTRA:          -7.157
REMARK INTER:                  -6.628
REMARK INTRA:                  -0.529
REMARK UNBOUND:                -0.822
REMARK SMILES Oc1ccc(CCc2cc(O)cc(O)c2)cc1
REMARK SMILES IDX 6 1 5 2 4 3 3 4 2 5 16 6 17 7 1 8 7 10 8 11 15 12 9 13 13 14
REMARK SMILES IDX 10 15 12 16 14 17 11 19
REMARK H PARENT 1 9 14 18 11 20
REMARK Flexibility Score: inf
ROOT
ATOM      1  C   UNL     1     159.901 177.426 175.705  1.00  0.00     0.040 C 
ENDROOT
BRANCH   1   2
ATOM      2  C   UNL     1     160.241 178.030 177.042  1.00  0.00    -0.047 A 
ATOM      3  C   UNL     1     160.973 177.291 177.987  1.00  0.00     0.007 A 
ATOM      4  C   UNL     1     161.317 177.865 179.215  1.00  0.00     0.046 A 
ATOM      5  C   UNL     1     160.943 179.180 179.507  1.00  0.00     0.115 A 
ATOM      6  C   UNL     1     159.879 179.355 177.333  1.00  0.00     0.007 A 
ATOM      7  C   UNL     1     160.225 179.925 178.562  1.00  0.00     0.046 A 
BRANCH   5   8
ATOM      8  O   UNL     1     161.293 179.738 180.735  1.00  0.00    -0.508 OA
ATOM      9  H   UNL     1     160.908 179.387 181.604  1.00  0.00     0.293 HD
ENDBRANCH   5   8
ENDBRANCH   1   2
BRANCH   1  10
ATOM     10  C   UNL     1     160.233 178.401 174.573  1.00  0.00     0.040 C 
BRANCH  10  11
ATOM     11  C   UNL     1     161.218 177.786 173.616  1.00  0.00    -0.040 A 
ATOM     12  C   UNL     1     161.598 176.442 173.759  1.00  0.00     0.050 A 
ATOM     13  C   UNL     1     161.806 178.566 172.607  1.00  0.00     0.050 A 
ATOM     14  C   UNL     1     162.539 175.877 172.890  1.00  0.00     0.119 A 
ATOM     15  C   UNL     1     162.748 178.001 171.736  1.00  0.00     0.119 A 
ATOM     16  C   UNL     1     163.110 176.659 171.877  1.00  0.00     0.092 A 
BRANCH  14  17
ATOM     17  O   UNL     1     162.899 174.539 173.044  1.00  0.00    -0.508 OA
ATOM     18  H   UNL     1     163.775 174.183 172.682  1.00  0.00     0.293 HD
ENDBRANCH  14  17
BRANCH  15  19
ATOM     19  O   UNL     1     163.331 178.767 170.728  1.00  0.00    -0.508 OA
ATOM     20  H   UNL     1     163.624 178.353 169.850  1.00  0.00     0.293 HD
ENDBRANCH  15  19
ENDBRANCH  10  11
ENDBRANCH   1  10
TORSDOF 6
ENDMDL
