MODEL 1
REMARK VINA RESULT:    -3.520      0.000      0.000
REMARK INTER + INTRA:          -4.167
REMARK INTER:                  -4.138
REMARK INTRA:                  -0.029
REMARK UNBOUND:                -0.029
REMARK SMILES CCCCC(=O)[O-]
REMARK SMILES IDX 4 1 5 2 6 3 7 4 3 5 2 6 1 7
REMARK H PARENT
REMARK Flexibility Score: inf
ROOT
ATOM      1  C   UNL     1      45.913  -3.154  15.034  1.00  0.00     0.053 C 
ENDROOT
BRANCH   1   2
ATOM      2  C   UNL     1      44.486  -2.741  14.858  1.00  0.00     0.041 C 
ATOM      3  O   UNL     1      44.029  -1.756  15.495  1.00  0.00    -0.550 OA
ATOM      4  O   UNL     1      43.674  -3.414  13.954  1.00  0.00    -0.550 OA
ENDBRANCH   1   2
BRANCH   1   5
ATOM      5  C   UNL     1      46.635  -2.198  15.988  1.00  0.00     0.006 C 
BRANCH   5   6
ATOM      6  C   UNL     1      48.047  -2.703  16.308  1.00  0.00    -0.003 C 
ATOM      7  C   UNL     1      48.000  -3.973  17.153  1.00  0.00     0.004 C 
ENDBRANCH   5   6
ENDBRANCH   1   5
TORSDOF 3
ENDMDL
MODEL 2
REMARK VINA RESULT:    -3.373      1.190      1.778
REMARK INTER + INTRA:          -3.994
REMARK INTER:                  -3.969
REMARK INTRA:                  -0.025
REMARK UNBOUND:                -0.029
REMARK SMILES CCCCC(=O)[O-]
REMARK SMILES IDX 4 1 5 2 6 3 7 4 3 5 2 6 1 7
REMARK H PARENT
REMARK Flexibility Score: inf
ROOT
ATOM      1  C   UNL     1      46.379  -1.199  15.416  1.00  0.00     0.053 C 
ENDROOT
BRANCH   1   2
ATOM      2  C   UNL     1      44.907  -1.018  15.221  1.00  0.00     0.041 C 
ATOM      3  O   UNL     1      44.109  -1.945  15.519  1.00  0.00    -0.550 OA
ATOM      4  O   UNL     1      44.411   0.194  14.757  1.00  0.00    -0.550 OA
ENDBRANCH   1   2
BRANCH   1   5
ATOM      5  C   UNL     1      46.701  -2.659  15.751  1.00  0.00     0.006 C 
BRANCH   5   6
ATOM      6  C   UNL     1      48.048  -2.773  16.472  1.00  0.00    -0.003 C 
ATOM      7  C   UNL     1      48.248  -4.172  17.048  1.00  0.00     0.004 C 
ENDBRANCH   5   6
ENDBRANCH   1   5
TORSDOF 3
ENDMDL
MODEL 3
REMARK VINA RESULT:    -3.347     11.157     12.253
REMARK INTER + INTRA:          -3.963
REMARK INTER:                  -3.944
REMARK INTRA:                  -0.020
REMARK UNBOUND:                -0.029
REMARK SMILES CCCCC(=O)[O-]
REMARK SMILES IDX 4 1 5 2 6 3 7 4 3 5 2 6 1 7
REMARK H PARENT
REMARK Flexibility Score: inf
ROOT
ATOM      1  C   UNL     1      46.751   7.814  21.438  1.00  0.00     0.053 C 
ENDROOT
BRANCH   1   2
ATOM      2  C   UNL     1      47.871   7.526  22.387  1.00  0.00     0.041 C 
ATOM      3  O   UNL     1      48.251   6.342  22.579  1.00  0.00    -0.550 OA
ATOM      4  O   UNL     1      48.528   8.572  23.024  1.00  0.00    -0.550 OA
ENDBRANCH   1   2
BRANCH   1   5
ATOM      5  C   UNL     1      46.804   6.859  20.241  1.00  0.00     0.006 C 
BRANCH   5   6
ATOM      6  C   UNL     1      46.334   7.558  18.960  1.00  0.00    -0.003 C 
ATOM      7  C   UNL     1      46.705   6.747  17.722  1.00  0.00     0.004 C 
ENDBRANCH   5   6
ENDBRANCH   1   5
TORSDOF 3
ENDMDL
MODEL 4
REMARK VINA RESULT:    -3.276     11.175     12.212
REMARK INTER + INTRA:          -3.879
REMARK INTER:                  -3.860
REMARK INTRA:                  -0.019
REMARK UNBOUND:                -0.029
REMARK SMILES CCCCC(=O)[O-]
REMARK SMILES IDX 4 1 5 2 6 3 7 4 3 5 2 6 1 7
REMARK H PARENT
REMARK Flexibility Score: inf
ROOT
ATOM      1  C   UNL     1      46.559   7.928  21.323  1.00  0.00     0.053 C 
ENDROOT
BRANCH   1   2
ATOM      2  C   UNL     1      47.614   7.729  22.364  1.00  0.00     0.041 C 
ATOM      3  O   UNL     1      47.960   8.684  23.107  1.00  0.00    -0.550 OA
ATOM      4  O   UNL     1      48.181   6.473  22.548  1.00  0.00    -0.550 OA
ENDBRANCH   1   2
BRANCH   1   5
ATOM      5  C   UNL     1      46.762   6.953  20.160  1.00  0.00     0.006 C 
BRANCH   5   6
ATOM      6  C   UNL     1      46.351   7.591  18.828  1.00  0.00    -0.003 C 
ATOM      7  C   UNL     1      46.575   6.631  17.664  1.00  0.00     0.004 C 
ENDBRANCH   5   6
ENDBRANCH   1   5
TORSDOF 3
ENDMDL
MODEL 5
REMARK VINA RESULT:    -3.228     10.736     11.486
REMARK INTER + INTRA:          -3.823
REMARK INTER:                  -3.773
REMARK INTRA:                  -0.050
REMARK UNBOUND:                -0.029
REMARK SMILES CCCCC(=O)[O-]
REMARK SMILES IDX 4 1 5 2 6 3 7 4 3 5 2 6 1 7
REMARK H PARENT
REMARK Flexibility Score: inf
ROOT
ATOM      1  C   UNL     1      46.776   6.966  20.200  1.00  0.00     0.053 C 
ENDROOT
BRANCH   1   2
ATOM      2  C   UNL     1      46.450   7.470  18.830  1.00  0.00     0.041 C 
ATOM      3  O   UNL     1      46.214   8.692  18.644  1.00  0.00    -0.550 OA
ATOM      4  O   UNL     1      46.455   6.597  17.749  1.00  0.00    -0.550 OA
ENDBRANCH   1   2
BRANCH   1   5
ATOM      5  C   UNL     1      46.443   8.025  21.255  1.00  0.00     0.006 C 
BRANCH   5   6
ATOM      6  C   UNL     1      47.403   7.935  22.446  1.00  0.00    -0.003 C 
ATOM      7  C   UNL     1      48.157   6.608  22.449  1.00  0.00     0.004 C 
ENDBRANCH   5   6
ENDBRANCH   1   5
TORSDOF 3
ENDMDL
MODEL 6
REMARK VINA RESULT:    -3.200     12.373     13.233
REMARK INTER + INTRA:          -3.790
REMARK INTER:                  -3.722
REMARK INTRA:                  -0.069
REMARK UNBOUND:                -0.029
REMARK SMILES CCCCC(=O)[O-]
REMARK SMILES IDX 4 1 5 2 6 3 7 4 3 5 2 6 1 7
REMARK H PARENT
REMARK Flexibility Score: inf
ROOT
ATOM      1  C   UNL     1      46.558   8.664  22.868  1.00  0.00     0.053 C 
ENDROOT
BRANCH   1   2
ATOM      2  C   UNL     1      45.264   8.641  23.619  1.00  0.00     0.041 C 
ATOM      3  O   UNL     1      45.258   8.726  24.875  1.00  0.00    -0.550 OA
ATOM      4  O   UNL     1      44.060   8.576  22.927  1.00  0.00    -0.550 OA
ENDBRANCH   1   2
BRANCH   1   5
ATOM      5  C   UNL     1      46.336   8.268  21.405  1.00  0.00     0.006 C 
BRANCH   5   6
ATOM      6  C   UNL     1      47.109   6.991  21.058  1.00  0.00    -0.003 C 
ATOM      7  C   UNL     1      48.082   6.615  22.172  1.00  0.00     0.004 C 
ENDBRANCH   5   6
ENDBRANCH   1   5
TORSDOF 3
ENDMDL
MODEL 7
REMARK VINA RESULT:    -3.056     12.065     13.056
REMARK INTER + INTRA:          -3.621
REMARK INTER:                  -3.522
REMARK INTRA:                  -0.099
REMARK UNBOUND:                -0.029
REMARK SMILES CCCCC(=O)[O-]
REMARK SMILES IDX 4 1 5 2 6 3 7 4 3 5 2 6 1 7
REMARK H PARENT
REMARK Flexibility Score: inf
ROOT
ATOM      1  C   UNL     1      46.614   7.473  20.991  1.00  0.00     0.053 C 
ENDROOT
BRANCH   1   2
ATOM      2  C   UNL     1      47.580   7.466  22.134  1.00  0.00     0.041 C 
ATOM      3  O   UNL     1      47.763   8.509  22.815  1.00  0.00    -0.550 OA
ATOM      4  O   UNL     1      48.241   6.293  22.478  1.00  0.00    -0.550 OA
ENDBRANCH   1   2
BRANCH   1   5
ATOM      5  C   UNL     1      45.947   8.845  20.860  1.00  0.00     0.006 C 
BRANCH   5   6
ATOM      6  C   UNL     1      44.435   8.746  21.087  1.00  0.00    -0.003 C 
ATOM      7  C   UNL     1      44.105   8.648  22.574  1.00  0.00     0.004 C 
ENDBRANCH   5   6
ENDBRANCH   1   5
TORSDOF 3
ENDMDL
MODEL 8
REMARK VINA RESULT:    -3.042      9.175     10.100
REMARK INTER + INTRA:          -3.604
REMARK INTER:                  -3.574
REMARK INTRA:                  -0.030
REMARK UNBOUND:                -0.029
REMARK SMILES CCCCC(=O)[O-]
REMARK SMILES IDX 4 1 5 2 6 3 7 4 3 5 2 6 1 7
REMARK H PARENT
REMARK Flexibility Score: inf
ROOT
ATOM      1  C   UNL     1      46.150   6.802  15.620  1.00  0.00     0.053 C 
ENDROOT
BRANCH   1   2
ATOM      2  C   UNL     1      46.949   6.187  16.725  1.00  0.00     0.041 C 
ATOM      3  O   UNL     1      47.794   5.289  16.473  1.00  0.00    -0.550 OA
ATOM      4  O   UNL     1      46.797   6.643  18.029  1.00  0.00    -0.550 OA
ENDBRANCH   1   2
BRANCH   1   5
ATOM      5  C   UNL     1      44.699   7.015  16.061  1.00  0.00     0.006 C 
BRANCH   5   6
ATOM      6  C   UNL     1      43.746   6.108  15.275  1.00  0.00    -0.003 C 
ATOM      7  C   UNL     1      43.322   6.759  13.962  1.00  0.00     0.004 C 
ENDBRANCH   5   6
ENDBRANCH   1   5
TORSDOF 3
ENDMDL
MODEL 9
REMARK VINA RESULT:    -2.965     10.506     11.520
REMARK INTER + INTRA:          -3.514
REMARK INTER:                  -3.479
REMARK INTRA:                  -0.036
REMARK UNBOUND:                -0.029
REMARK SMILES CCCCC(=O)[O-]
REMARK SMILES IDX 4 1 5 2 6 3 7 4 3 5 2 6 1 7
REMARK H PARENT
REMARK Flexibility Score: inf
ROOT
ATOM      1  C   UNL     1      46.713   6.979  19.560  1.00  0.00     0.053 C 
ENDROOT
BRANCH   1   2
ATOM      2  C   UNL     1      46.710   7.452  20.979  1.00  0.00     0.041 C 
ATOM      3  O   UNL     1      47.703   7.235  21.722  1.00  0.00    -0.550 OA
ATOM      4  O   UNL     1      45.630   8.177  21.468  1.00  0.00    -0.550 OA
ENDBRANCH   1   2
BRANCH   1   5
ATOM      5  C   UNL     1      46.244   8.095  18.622  1.00  0.00     0.006 C 
BRANCH   5   6
ATOM      6  C   UNL     1      46.472   7.713  17.155  1.00  0.00    -0.003 C 
ATOM      7  C   UNL     1      47.021   6.294  17.034  1.00  0.00     0.004 C 
ENDBRANCH   5   6
ENDBRANCH   1   5
TORSDOF 3
ENDMDL
