MODEL 1
REMARK VINA RESULT:    -3.716      0.000      0.000
REMARK INTER + INTRA:          -5.032
REMARK INTER:                  -5.454
REMARK INTRA:                   0.422
REMARK UNBOUND:                 0.422
REMARK SMILES C=C1CC=CC(C)(C)CC=C(C)CCC1
REMARK SMILES IDX 2 1 1 2 15 3 14 4 13 5 11 6 12 7 10 8 3 10 4 11 5 12 6 13
REMARK SMILES IDX 7 14 8 15 9 16
REMARK H PARENT
REMARK Flexibility Score: 60.00
ROOT
ATOM      1  C   UNL     1     137.963 140.239 134.140  1.00  0.00    -0.074 C 
ATOM      2  C   UNL     1     138.330 139.897 135.385  1.00  0.00     0.008 C 
ENDROOT
BRANCH   1   3
ATOM      3  C   UNL     1     138.061 139.235 133.013  1.00  0.00     0.031 C 
BRANCH   3   4
ATOM      4  C   UNL     1     139.432 138.529 133.026  1.00  0.00     0.009 C 
BRANCH   4   5
ATOM      5  C   UNL     1     140.505 139.268 132.199  1.00  0.00     0.030 C 
BRANCH   5   6
ATOM      6  C   UNL     1     141.399 140.105 133.093  1.00  0.00    -0.077 C 
ATOM      7  C   UNL     1     142.409 139.407 133.970  1.00  0.00     0.039 C 
ATOM      8  C   UNL     1     141.322 141.457 133.159  1.00  0.00    -0.027 CG0
ATOM      9  G   UNL     1     140.437 142.338 132.291  1.00  0.00     0.000 G0
ENDBRANCH   5   6
ENDBRANCH   4   5
ENDBRANCH   3   4
ENDBRANCH   1   3
BRANCH   1  10
ATOM     10  C   UNL     1     137.571 141.665 133.826  1.00  0.00     0.057 C 
BRANCH  10  11
ATOM     11  C   UNL     1     138.340 142.622 134.702  1.00  0.00    -0.026 C 
ATOM     12  C   UNL     1     139.358 143.447 134.357  1.00  0.00    -0.024 C 
BRANCH  12  13
ATOM     13  C   UNL     1     139.987 143.695 132.980  1.00  0.00    -0.014 C 
ATOM     14  C   UNL     1     141.221 144.616 133.181  1.00  0.00     0.016 C 
ATOM     15  C   UNL     1     139.016 144.476 132.059  1.00  0.00     0.016 C 
BRANCH  13  16
ATOM     16  C   UNL     1     140.428 142.366 132.288  1.00  0.00     0.038 CG0
ATOM     17  G   UNL     1     141.317 141.476 133.143  1.00  0.00     0.000 G0
ENDBRANCH  13  16
ENDBRANCH  12  13
ENDBRANCH  10  11
ENDBRANCH   1  10
TORSDOF 0
ENDMDL
MODEL 2
REMARK VINA RESULT:    -3.622      1.826      3.672
REMARK INTER + INTRA:          -4.894
REMARK INTER:                  -5.326
REMARK INTRA:                   0.432
REMARK UNBOUND:                 0.422
REMARK SMILES C=C1CC=CC(C)(C)CC=C(C)CCC1
REMARK SMILES IDX 2 1 1 2 15 3 14 4 13 5 11 6 12 7 10 8 3 10 4 11 5 12 6 13
REMARK SMILES IDX 7 14 8 15 9 16
REMARK H PARENT
REMARK Flexibility Score: 60.00
ROOT
ATOM      1  C   UNL     1     141.637 138.114 134.638  1.00  0.00    -0.074 C 
ATOM      2  C   UNL     1     141.926 138.486 135.894  1.00  0.00     0.008 C 
ENDROOT
BRANCH   1   3
ATOM      3  C   UNL     1     142.687 138.206 133.554  1.00  0.00     0.031 C 
BRANCH   3   4
ATOM      4  C   UNL     1     143.443 139.548 133.635  1.00  0.00     0.009 C 
BRANCH   4   5
ATOM      5  C   UNL     1     142.782 140.670 132.806  1.00  0.00     0.030 C 
BRANCH   5   6
ATOM      6  C   UNL     1     141.896 141.540 133.678  1.00  0.00    -0.077 C 
ATOM      7  C   UNL     1     142.544 142.477 134.666  1.00  0.00     0.039 C 
ATOM      8  C   UNL     1     140.542 141.502 133.626  1.00  0.00    -0.027 CG0
ATOM      9  G   UNL     1     139.714 140.694 132.638  1.00  0.00     0.000 G0
ENDBRANCH   5   6
ENDBRANCH   4   5
ENDBRANCH   3   4
ENDBRANCH   1   3
BRANCH   1  10
ATOM     10  C   UNL     1     140.225 137.724 134.264  1.00  0.00     0.057 C 
BRANCH  10  11
ATOM     11  C   UNL     1     139.232 138.555 135.040  1.00  0.00    -0.026 C 
ATOM     12  C   UNL     1     138.473 139.587 134.600  1.00  0.00    -0.024 C 
BRANCH  12  13
ATOM     13  C   UNL     1     138.350 140.175 133.188  1.00  0.00    -0.014 C 
ATOM     14  C   UNL     1     137.342 141.353 133.251  1.00  0.00     0.016 C 
ATOM     15  C   UNL     1     137.741 139.142 132.207  1.00  0.00     0.016 C 
BRANCH  13  16
ATOM     16  C   UNL     1     139.724 140.684 132.645  1.00  0.00     0.038 CG0
ATOM     17  G   UNL     1     140.526 141.512 133.638  1.00  0.00     0.000 G0
ENDBRANCH  13  16
ENDBRANCH  12  13
ENDBRANCH  10  11
ENDBRANCH   1  10
TORSDOF 0
ENDMDL
MODEL 3
REMARK VINA RESULT:    -3.602      2.202      4.280
REMARK INTER + INTRA:          -4.865
REMARK INTER:                  -5.427
REMARK INTRA:                   0.562
REMARK UNBOUND:                 0.422
REMARK SMILES C=C1CC=CC(C)(C)CC=C(C)CCC1
REMARK SMILES IDX 2 1 1 2 15 3 14 4 13 5 11 6 12 7 10 8 3 10 4 11 5 12 6 13
REMARK SMILES IDX 7 14 8 15 9 16
REMARK H PARENT
REMARK Flexibility Score: 60.00
ROOT
ATOM      1  C   UNL     1     144.021 143.258 132.339  1.00  0.00    -0.074 C 
ATOM      2  C   UNL     1     144.947 143.264 131.368  1.00  0.00     0.008 C 
ENDROOT
BRANCH   1   3
ATOM      3  C   UNL     1     144.335 142.648 133.687  1.00  0.00     0.031 C 
BRANCH   3   4
ATOM      4  C   UNL     1     144.452 141.113 133.580  1.00  0.00     0.009 C 
BRANCH   4   5
ATOM      5  C   UNL     1     143.093 140.390 133.688  1.00  0.00     0.030 C 
BRANCH   5   6
ATOM      6  C   UNL     1     142.356 140.804 134.947  1.00  0.00    -0.077 C 
ATOM      7  C   UNL     1     142.937 140.426 136.287  1.00  0.00     0.039 C 
ATOM      8  C   UNL     1     141.183 141.484 134.928  1.00  0.00    -0.027 CG0
ATOM      9  G   UNL     1     140.494 142.029 133.686  1.00  0.00     0.000 G0
ENDBRANCH   5   6
ENDBRANCH   4   5
ENDBRANCH   3   4
ENDBRANCH   1   3
BRANCH   1  10
ATOM     10  C   UNL     1     142.617 143.742 132.058  1.00  0.00     0.057 C 
BRANCH  10  11
ATOM     11  C   UNL     1     142.147 144.650 133.168  1.00  0.00    -0.026 C 
ATOM     12  C   UNL     1     141.013 144.562 133.904  1.00  0.00    -0.024 C 
BRANCH  12  13
ATOM     13  C   UNL     1     139.910 143.495 133.871  1.00  0.00    -0.014 C 
ATOM     14  C   UNL     1     138.957 143.833 132.694  1.00  0.00     0.016 C 
ATOM     15  C   UNL     1     139.043 143.554 135.154  1.00  0.00     0.016 C 
BRANCH  13  16
ATOM     16  C   UNL     1     140.492 142.057 133.684  1.00  0.00     0.038 CG0
ATOM     17  G   UNL     1     141.186 141.493 134.915  1.00  0.00     0.000 G0
ENDBRANCH  13  16
ENDBRANCH  12  13
ENDBRANCH  10  11
ENDBRANCH   1  10
TORSDOF 0
ENDMDL
MODEL 4
REMARK VINA RESULT:    -3.562      1.513      4.054
REMARK INTER + INTRA:          -4.806
REMARK INTER:                  -5.271
REMARK INTRA:                   0.465
REMARK UNBOUND:                 0.422
REMARK SMILES C=C1CC=CC(C)(C)CC=C(C)CCC1
REMARK SMILES IDX 2 1 1 2 15 3 14 4 13 5 11 6 12 7 10 8 3 10 4 11 5 12 6 13
REMARK SMILES IDX 7 14 8 15 9 16
REMARK H PARENT
REMARK Flexibility Score: 60.00
ROOT
ATOM      1  C   UNL     1     138.236 138.891 132.397  1.00  0.00    -0.074 C 
ATOM      2  C   UNL     1     137.366 138.857 131.376  1.00  0.00     0.008 C 
ENDROOT
BRANCH   1   3
ATOM      3  C   UNL     1     137.964 139.765 133.601  1.00  0.00     0.031 C 
BRANCH   3   4
ATOM      4  C   UNL     1     137.673 141.217 133.170  1.00  0.00     0.009 C 
BRANCH   4   5
ATOM      5  C   UNL     1     138.949 142.024 132.850  1.00  0.00     0.030 C 
BRANCH   5   6
ATOM      6  C   UNL     1     139.852 142.118 134.065  1.00  0.00    -0.077 C 
ATOM      7  C   UNL     1     139.400 142.944 135.244  1.00  0.00     0.039 C 
ATOM      8  C   UNL     1     141.061 141.509 134.137  1.00  0.00    -0.027 CG0
ATOM      9  G   UNL     1     141.643 140.567 133.094  1.00  0.00     0.000 G0
ENDBRANCH   5   6
ENDBRANCH   4   5
ENDBRANCH   3   4
ENDBRANCH   1   3
BRANCH   1  10
ATOM     10  C   UNL     1     139.556 138.160 132.299  1.00  0.00     0.057 C 
BRANCH  10  11
ATOM     11  C   UNL     1     140.088 137.860 133.679  1.00  0.00    -0.026 C 
ATOM     12  C   UNL     1     141.237 138.295 134.251  1.00  0.00    -0.024 C 
BRANCH  12  13
ATOM     13  C   UNL     1     142.297 139.258 133.699  1.00  0.00    -0.014 C 
ATOM     14  C   UNL     1     143.097 138.504 132.603  1.00  0.00     0.016 C 
ATOM     15  C   UNL     1     143.325 139.638 134.794  1.00  0.00     0.016 C 
BRANCH  13  16
ATOM     16  C   UNL     1     141.658 140.548 133.093  1.00  0.00     0.038 CG0
ATOM     17  G   UNL     1     141.062 141.498 134.121  1.00  0.00     0.000 G0
ENDBRANCH  13  16
ENDBRANCH  12  13
ENDBRANCH  10  11
ENDBRANCH   1  10
TORSDOF 0
ENDMDL
MODEL 5
REMARK VINA RESULT:    -3.481      1.767      4.656
REMARK INTER + INTRA:          -4.687
REMARK INTER:                  -5.162
REMARK INTRA:                   0.475
REMARK UNBOUND:                 0.422
REMARK SMILES C=C1CC=CC(C)(C)CC=C(C)CCC1
REMARK SMILES IDX 2 1 1 2 15 3 14 4 13 5 11 6 12 7 10 8 3 10 4 11 5 12 6 13
REMARK SMILES IDX 7 14 8 15 9 16
REMARK H PARENT
REMARK Flexibility Score: 60.00
ROOT
ATOM      1  C   UNL     1     141.427 144.190 134.567  1.00  0.00    -0.074 C 
ATOM      2  C   UNL     1     141.403 145.104 133.586  1.00  0.00     0.008 C 
ENDROOT
BRANCH   1   3
ATOM      3  C   UNL     1     140.160 143.838 135.314  1.00  0.00     0.031 C 
BRANCH   3   4
ATOM      4  C   UNL     1     139.077 143.323 134.343  1.00  0.00     0.009 C 
BRANCH   4   5
ATOM      5  C   UNL     1     139.226 141.824 134.005  1.00  0.00     0.030 C 
BRANCH   5   6
ATOM      6  C   UNL     1     140.023 141.632 132.730  1.00  0.00    -0.077 C 
ATOM      7  C   UNL     1     139.444 142.128 131.429  1.00  0.00     0.039 C 
ATOM      8  C   UNL     1     141.229 141.013 132.698  1.00  0.00    -0.027 CG0
ATOM      9  G   UNL     1     142.011 140.530 133.910  1.00  0.00     0.000 G0
ENDBRANCH   5   6
ENDBRANCH   4   5
ENDBRANCH   3   4
ENDBRANCH   1   3
BRANCH   1  10
ATOM     10  C   UNL     1     142.740 143.597 135.025  1.00  0.00     0.057 C 
BRANCH  10  11
ATOM     11  C   UNL     1     143.622 143.303 133.836  1.00  0.00    -0.026 C 
ATOM     12  C   UNL     1     143.989 142.098 133.338  1.00  0.00    -0.024 C 
BRANCH  12  13
ATOM     13  C   UNL     1     143.579 140.690 133.789  1.00  0.00    -0.014 C 
ATOM     14  C   UNL     1     144.249 140.417 135.162  1.00  0.00     0.016 C 
ATOM     15  C   UNL     1     144.131 139.614 132.821  1.00  0.00     0.016 C 
BRANCH  13  16
ATOM     16  C   UNL     1     142.029 140.547 133.921  1.00  0.00     0.038 CG0
ATOM     17  G   UNL     1     141.247 141.011 132.701  1.00  0.00     0.000 G0
ENDBRANCH  13  16
ENDBRANCH  12  13
ENDBRANCH  10  11
ENDBRANCH   1  10
TORSDOF 0
ENDMDL
MODEL 6
REMARK VINA RESULT:    -3.479      1.910      3.931
REMARK INTER + INTRA:          -4.685
REMARK INTER:                  -5.092
REMARK INTRA:                   0.407
REMARK UNBOUND:                 0.422
REMARK SMILES C=C1CC=CC(C)(C)CC=C(C)CCC1
REMARK SMILES IDX 2 1 1 2 15 3 14 4 13 5 11 6 12 7 10 8 3 10 4 11 5 12 6 13
REMARK SMILES IDX 7 14 8 15 9 16
REMARK H PARENT
REMARK Flexibility Score: 60.00
ROOT
ATOM      1  C   UNL     1     144.309 141.063 134.580  1.00  0.00    -0.074 C 
ATOM      2  C   UNL     1     145.063 140.768 133.511  1.00  0.00     0.008 C 
ENDROOT
BRANCH   1   3
ATOM      3  C   UNL     1     143.866 139.969 135.526  1.00  0.00     0.031 C 
BRANCH   3   4
ATOM      4  C   UNL     1     143.045 138.898 134.779  1.00  0.00     0.009 C 
BRANCH   4   5
ATOM      5  C   UNL     1     141.533 139.208 134.739  1.00  0.00     0.030 C 
BRANCH   5   6
ATOM      6  C   UNL     1     141.111 139.679 133.361  1.00  0.00    -0.077 C 
ATOM      7  C   UNL     1     141.172 138.707 132.210  1.00  0.00     0.039 C 
ATOM      8  C   UNL     1     140.698 140.945 133.107  1.00  0.00    -0.027 CG0
ATOM      9  G   UNL     1     140.484 142.034 134.148  1.00  0.00     0.000 G0
ENDBRANCH   5   6
ENDBRANCH   4   5
ENDBRANCH   3   4
ENDBRANCH   1   3
BRANCH   1  10
ATOM     10  C   UNL     1     143.787 142.468 134.781  1.00  0.00     0.057 C 
BRANCH  10  11
ATOM     11  C   UNL     1     143.455 143.096 133.450  1.00  0.00    -0.026 C 
ATOM     12  C   UNL     1     142.247 143.496 132.986  1.00  0.00    -0.024 C 
BRANCH  12  13
ATOM     13  C   UNL     1     140.882 143.486 133.687  1.00  0.00    -0.014 C 
ATOM     14  C   UNL     1     139.831 144.036 132.686  1.00  0.00     0.016 C 
ATOM     15  C   UNL     1     140.871 144.457 134.894  1.00  0.00     0.016 C 
BRANCH  13  16
ATOM     16  C   UNL     1     140.471 142.052 134.149  1.00  0.00     0.038 CG0
ATOM     17  G   UNL     1     140.711 140.964 133.113  1.00  0.00     0.000 G0
ENDBRANCH  13  16
ENDBRANCH  12  13
ENDBRANCH  10  11
ENDBRANCH   1  10
TORSDOF 0
ENDMDL
MODEL 7
REMARK VINA RESULT:    -3.458      1.743      3.637
REMARK INTER + INTRA:          -4.652
REMARK INTER:                  -5.085
REMARK INTRA:                   0.432
REMARK UNBOUND:                 0.422
REMARK SMILES C=C1CC=CC(C)(C)CC=C(C)CCC1
REMARK SMILES IDX 2 1 1 2 15 3 14 4 13 5 11 6 12 7 10 8 3 10 4 11 5 12 6 13
REMARK SMILES IDX 7 14 8 15 9 16
REMARK H PARENT
REMARK Flexibility Score: 60.00
ROOT
ATOM      1  C   UNL     1     139.465 144.130 132.742  1.00  0.00    -0.074 C 
ATOM      2  C   UNL     1     139.010 144.412 131.512  1.00  0.00     0.008 C 
ENDROOT
BRANCH   1   3
ATOM      3  C   UNL     1     138.607 143.348 133.711  1.00  0.00     0.031 C 
BRANCH   3   4
ATOM      4  C   UNL     1     138.064 142.064 133.050  1.00  0.00     0.009 C 
BRANCH   4   5
ATOM      5  C   UNL     1     139.146 140.984 132.838  1.00  0.00     0.030 C 
BRANCH   5   6
ATOM      6  C   UNL     1     139.648 140.450 134.165  1.00  0.00    -0.077 C 
ATOM      7  C   UNL     1     138.715 139.627 135.017  1.00  0.00     0.039 C 
ATOM      8  C   UNL     1     140.897 140.693 134.635  1.00  0.00    -0.027 CG0
ATOM      9  G   UNL     1     142.002 141.419 133.884  1.00  0.00     0.000 G0
ENDBRANCH   5   6
ENDBRANCH   4   5
ENDBRANCH   3   4
ENDBRANCH   1   3
BRANCH   1  10
ATOM     10  C   UNL     1     140.782 144.699 133.218  1.00  0.00     0.057 C 
BRANCH  10  11
ATOM     11  C   UNL     1     140.954 144.450 134.696  1.00  0.00    -0.026 C 
ATOM     12  C   UNL     1     141.745 143.537 135.309  1.00  0.00    -0.024 C 
BRANCH  12  13
ATOM     13  C   UNL     1     142.734 142.536 134.697  1.00  0.00    -0.014 C 
ATOM     14  C   UNL     1     143.549 141.905 135.857  1.00  0.00     0.016 C 
ATOM     15  C   UNL     1     143.765 143.257 133.793  1.00  0.00     0.016 C 
BRANCH  13  16
ATOM     16  C   UNL     1     142.007 141.413 133.891  1.00  0.00     0.038 CG0
ATOM     17  G   UNL     1     140.903 140.701 134.658  1.00  0.00     0.000 G0
ENDBRANCH  13  16
ENDBRANCH  12  13
ENDBRANCH  10  11
ENDBRANCH   1  10
TORSDOF 0
ENDMDL
MODEL 8
REMARK VINA RESULT:    -3.374      1.531      3.982
REMARK INTER + INTRA:          -4.530
REMARK INTER:                  -5.041
REMARK INTRA:                   0.510
REMARK UNBOUND:                 0.422
REMARK SMILES C=C1CC=CC(C)(C)CC=C(C)CCC1
REMARK SMILES IDX 2 1 1 2 15 3 14 4 13 5 11 6 12 7 10 8 3 10 4 11 5 12 6 13
REMARK SMILES IDX 7 14 8 15 9 16
REMARK H PARENT
REMARK Flexibility Score: 60.00
ROOT
ATOM      1  C   UNL     1     141.247 144.364 134.006  1.00  0.00    -0.074 C 
ATOM      2  C   UNL     1     141.474 144.946 132.818  1.00  0.00     0.008 C 
ENDROOT
BRANCH   1   3
ATOM      3  C   UNL     1     142.405 143.935 134.878  1.00  0.00     0.031 C 
BRANCH   3   4
ATOM      4  C   UNL     1     143.439 143.133 134.061  1.00  0.00     0.009 C 
BRANCH   4   5
ATOM      5  C   UNL     1     143.150 141.617 134.033  1.00  0.00     0.030 C 
BRANCH   5   6
ATOM      6  C   UNL     1     142.486 141.215 132.730  1.00  0.00    -0.077 C 
ATOM      7  C   UNL     1     143.321 141.157 131.476  1.00  0.00     0.039 C 
ATOM      8  C   UNL     1     141.166 140.921 132.634  1.00  0.00    -0.027 CG0
ATOM      9  G   UNL     1     140.188 140.836 133.796  1.00  0.00     0.000 G0
ENDBRANCH   5   6
ENDBRANCH   4   5
ENDBRANCH   3   4
ENDBRANCH   1   3
BRANCH   1  10
ATOM     10  C   UNL     1     139.837 144.016 134.427  1.00  0.00     0.057 C 
BRANCH  10  11
ATOM     11  C   UNL     1     138.989 143.722 133.214  1.00  0.00    -0.026 C 
ATOM     12  C   UNL     1     138.536 142.523 132.774  1.00  0.00    -0.024 C 
BRANCH  12  13
ATOM     13  C   UNL     1     138.696 141.131 133.400  1.00  0.00    -0.014 C 
ATOM     14  C   UNL     1     138.211 140.086 132.360  1.00  0.00     0.016 C 
ATOM     15  C   UNL     1     137.773 140.967 134.634  1.00  0.00     0.016 C 
BRANCH  13  16
ATOM     16  C   UNL     1     140.178 140.834 133.796  1.00  0.00     0.038 CG0
ATOM     17  G   UNL     1     141.165 140.905 132.640  1.00  0.00     0.000 G0
ENDBRANCH  13  16
ENDBRANCH  12  13
ENDBRANCH  10  11
ENDBRANCH   1  10
TORSDOF 0
ENDMDL
MODEL 9
REMARK VINA RESULT:    -3.298      2.103      3.974
REMARK INTER + INTRA:          -4.418
REMARK INTER:                  -4.891
REMARK INTRA:                   0.472
REMARK UNBOUND:                 0.422
REMARK SMILES C=C1CC=CC(C)(C)CC=C(C)CCC1
REMARK SMILES IDX 2 1 1 2 15 3 14 4 13 5 11 6 12 7 10 8 3 10 4 11 5 12 6 13
REMARK SMILES IDX 7 14 8 15 9 16
REMARK H PARENT
REMARK Flexibility Score: 60.00
ROOT
ATOM      1  C   UNL     1     141.485 138.009 134.843  1.00  0.00    -0.074 C 
ATOM      2  C   UNL     1     140.975 137.804 136.067  1.00  0.00     0.008 C 
ENDROOT
BRANCH   1   3
ATOM      3  C   UNL     1     140.641 137.760 133.614  1.00  0.00     0.031 C 
BRANCH   3   4
ATOM      4  C   UNL     1     139.240 138.384 133.776  1.00  0.00     0.009 C 
BRANCH   4   5
ATOM      5  C   UNL     1     139.257 139.927 133.782  1.00  0.00     0.030 C 
BRANCH   5   6
ATOM      6  C   UNL     1     139.669 140.471 132.428  1.00  0.00    -0.077 C 
ATOM      7  C   UNL     1     138.778 140.214 131.239  1.00  0.00     0.039 C 
ATOM      8  C   UNL     1     140.818 141.164 132.228  1.00  0.00    -0.027 CG0
ATOM      9  G   UNL     1     141.792 141.598 133.313  1.00  0.00     0.000 G0
ENDBRANCH   5   6
ENDBRANCH   4   5
ENDBRANCH   3   4
ENDBRANCH   1   3
BRANCH   1  10
ATOM     10  C   UNL     1     142.945 138.365 134.676  1.00  0.00     0.057 C 
BRANCH  10  11
ATOM     11  C   UNL     1     143.269 138.563 133.215  1.00  0.00    -0.026 C 
ATOM     12  C   UNL     1     143.387 139.725 132.529  1.00  0.00    -0.024 C 
BRANCH  12  13
ATOM     13  C   UNL     1     143.286 141.170 133.034  1.00  0.00    -0.014 C 
ATOM     14  C   UNL     1     143.911 142.094 131.955  1.00  0.00     0.016 C 
ATOM     15  C   UNL     1     144.137 141.371 134.314  1.00  0.00     0.016 C 
BRANCH  13  16
ATOM     16  C   UNL     1     141.807 141.596 133.302  1.00  0.00     0.038 CG0
ATOM     17  G   UNL     1     140.822 141.161 132.227  1.00  0.00     0.000 G0
ENDBRANCH  13  16
ENDBRANCH  12  13
ENDBRANCH  10  11
ENDBRANCH   1  10
TORSDOF 0
ENDMDL
