MODEL 1
REMARK VINA RESULT:    -5.225      0.000      0.000
REMARK INTER + INTRA:          -5.619
REMARK INTER:                  -5.530
REMARK INTRA:                  -0.089
REMARK UNBOUND:                -0.089
REMARK SMILES C=C(C)[C@H]1CC=C(C)C(=O)C1
REMARK SMILES IDX 8 1 7 2 6 3 5 4 4 5 11 6 9 7 10 8 2 9 1 10 3 11
REMARK H PARENT
REMARK Flexibility Score: inf
ROOT
ATOM      1  C   UNL     1      81.017   7.564  26.767  1.00  0.00     0.048 C 
ATOM      2  C   UNL     1      81.826   6.459  27.387  1.00  0.00    -0.012 C 
ATOM      3  C   UNL     1      81.843   6.309  28.722  1.00  0.00    -0.019 C 
ATOM      4  C   UNL     1      82.650   5.231  29.396  1.00  0.00     0.036 C 
ATOM      5  C   UNL     1      82.734   3.970  28.516  1.00  0.00     0.025 C 
ATOM      6  C   UNL     1      83.284   4.326  27.122  1.00  0.00     0.089 C 
ATOM      7  C   UNL     1      82.504   5.462  26.519  1.00  0.00     0.158 C 
ATOM      8  O   UNL     1      82.459   5.579  25.266  1.00  0.00    -0.295 OA
ENDROOT
BRANCH   5   9
ATOM      9  C   UNL     1      83.555   2.874  29.181  1.00  0.00    -0.077 C 
ATOM     10  C   UNL     1      82.970   1.896  29.894  1.00  0.00     0.008 C 
ATOM     11  C   UNL     1      85.057   2.868  29.050  1.00  0.00     0.039 C 
ENDBRANCH   5   9
TORSDOF 1
ENDMDL
MODEL 2
REMARK VINA RESULT:    -5.157      1.903      2.811
REMARK INTER + INTRA:          -5.547
REMARK INTER:                  -5.453
REMARK INTRA:                  -0.094
REMARK UNBOUND:                -0.089
REMARK SMILES C=C(C)[C@H]1CC=C(C)C(=O)C1
REMARK SMILES IDX 8 1 7 2 6 3 5 4 4 5 11 6 9 7 10 8 2 9 1 10 3 11
REMARK H PARENT
REMARK Flexibility Score: inf
ROOT
ATOM      1  C   UNL     1      81.696   6.645  26.716  1.00  0.00     0.048 C 
ATOM      2  C   UNL     1      82.747   5.668  27.166  1.00  0.00    -0.012 C 
ATOM      3  C   UNL     1      83.576   5.113  26.265  1.00  0.00    -0.019 C 
ATOM      4  C   UNL     1      84.633   4.116  26.659  1.00  0.00     0.036 C 
ATOM      5  C   UNL     1      85.176   4.411  28.070  1.00  0.00     0.025 C 
ATOM      6  C   UNL     1      84.019   4.468  29.086  1.00  0.00     0.089 C 
ATOM      7  C   UNL     1      82.947   5.412  28.615  1.00  0.00     0.158 C 
ATOM      8  O   UNL     1      82.194   5.959  29.464  1.00  0.00    -0.295 OA
ENDROOT
BRANCH   5   9
ATOM      9  C   UNL     1      86.239   3.404  28.485  1.00  0.00    -0.077 C 
ATOM     10  C   UNL     1      86.133   2.103  28.167  1.00  0.00     0.008 C 
ATOM     11  C   UNL     1      87.443   3.856  29.271  1.00  0.00     0.039 C 
ENDBRANCH   5   9
TORSDOF 1
ENDMDL
MODEL 3
REMARK VINA RESULT:    -5.137      1.453      2.851
REMARK INTER + INTRA:          -5.526
REMARK INTER:                  -5.434
REMARK INTRA:                  -0.093
REMARK UNBOUND:                -0.089
REMARK SMILES C=C(C)[C@H]1CC=C(C)C(=O)C1
REMARK SMILES IDX 8 1 7 2 6 3 5 4 4 5 11 6 9 7 10 8 2 9 1 10 3 11
REMARK H PARENT
REMARK Flexibility Score: inf
ROOT
ATOM      1  C   UNL     1      84.751   4.873  24.910  1.00  0.00     0.048 C 
ATOM      2  C   UNL     1      84.081   4.528  26.211  1.00  0.00    -0.012 C 
ATOM      3  C   UNL     1      84.589   3.557  26.990  1.00  0.00    -0.019 C 
ATOM      4  C   UNL     1      83.948   3.161  28.294  1.00  0.00     0.036 C 
ATOM      5  C   UNL     1      83.278   4.369  28.973  1.00  0.00     0.025 C 
ATOM      6  C   UNL     1      82.278   5.037  28.009  1.00  0.00     0.089 C 
ATOM      7  C   UNL     1      82.936   5.342  26.692  1.00  0.00     0.158 C 
ATOM      8  O   UNL     1      82.480   6.276  25.980  1.00  0.00    -0.295 OA
ENDROOT
BRANCH   5   9
ATOM      9  C   UNL     1      82.617   3.981  30.288  1.00  0.00    -0.077 C 
ATOM     10  C   UNL     1      82.437   4.878  31.272  1.00  0.00     0.008 C 
ATOM     11  C   UNL     1      82.149   2.565  30.511  1.00  0.00     0.039 C 
ENDBRANCH   5   9
TORSDOF 1
ENDMDL
MODEL 4
REMARK VINA RESULT:    -4.980      2.083      4.593
REMARK INTER + INTRA:          -5.360
REMARK INTER:                  -5.272
REMARK INTRA:                  -0.088
REMARK UNBOUND:                -0.089
REMARK SMILES C=C(C)[C@H]1CC=C(C)C(=O)C1
REMARK SMILES IDX 8 1 7 2 6 3 5 4 4 5 11 6 9 7 10 8 2 9 1 10 3 11
REMARK H PARENT
REMARK Flexibility Score: inf
ROOT
ATOM      1  C   UNL     1      86.194   2.641  28.917  1.00  0.00     0.048 C 
ATOM      2  C   UNL     1      85.073   3.606  28.648  1.00  0.00    -0.012 C 
ATOM      3  C   UNL     1      85.283   4.674  27.860  1.00  0.00    -0.019 C 
ATOM      4  C   UNL     1      84.201   5.681  27.572  1.00  0.00     0.036 C 
ATOM      5  C   UNL     1      82.814   5.011  27.545  1.00  0.00     0.025 C 
ATOM      6  C   UNL     1      82.565   4.244  28.857  1.00  0.00     0.089 C 
ATOM      7  C   UNL     1      83.707   3.311  29.150  1.00  0.00     0.158 C 
ATOM      8  O   UNL     1      83.500   2.290  29.859  1.00  0.00    -0.295 OA
ENDROOT
BRANCH   5   9
ATOM      9  C   UNL     1      81.709   6.019  27.264  1.00  0.00    -0.077 C 
ATOM     10  C   UNL     1      80.962   5.945  26.148  1.00  0.00     0.008 C 
ATOM     11  C   UNL     1      81.431   7.130  28.243  1.00  0.00     0.039 C 
ENDBRANCH   5   9
TORSDOF 1
ENDMDL
MODEL 5
REMARK VINA RESULT:    -4.940      2.267      4.693
REMARK INTER + INTRA:          -5.317
REMARK INTER:                  -5.223
REMARK INTRA:                  -0.094
REMARK UNBOUND:                -0.089
REMARK SMILES C=C(C)[C@H]1CC=C(C)C(=O)C1
REMARK SMILES IDX 8 1 7 2 6 3 5 4 4 5 11 6 9 7 10 8 2 9 1 10 3 11
REMARK H PARENT
REMARK Flexibility Score: inf
ROOT
ATOM      1  C   UNL     1      82.175   1.108  30.505  1.00  0.00     0.048 C 
ATOM      2  C   UNL     1      82.576   2.257  29.623  1.00  0.00    -0.012 C 
ATOM      3  C   UNL     1      82.889   2.035  28.334  1.00  0.00    -0.019 C 
ATOM      4  C   UNL     1      83.313   3.147  27.412  1.00  0.00     0.036 C 
ATOM      5  C   UNL     1      82.617   4.470  27.780  1.00  0.00     0.025 C 
ATOM      6  C   UNL     1      82.866   4.812  29.261  1.00  0.00     0.089 C 
ATOM      7  C   UNL     1      82.507   3.647  30.142  1.00  0.00     0.158 C 
ATOM      8  O   UNL     1      82.179   3.860  31.339  1.00  0.00    -0.295 OA
ENDROOT
BRANCH   5   9
ATOM      9  C   UNL     1      83.044   5.606  26.861  1.00  0.00    -0.077 C 
ATOM     10  C   UNL     1      84.305   5.699  26.405  1.00  0.00     0.008 C 
ATOM     11  C   UNL     1      82.049   6.658  26.444  1.00  0.00     0.039 C 
ENDBRANCH   5   9
TORSDOF 1
ENDMDL
MODEL 6
REMARK VINA RESULT:    -4.932      1.553      4.192
REMARK INTER + INTRA:          -5.309
REMARK INTER:                  -5.214
REMARK INTRA:                  -0.095
REMARK UNBOUND:                -0.089
REMARK SMILES C=C(C)[C@H]1CC=C(C)C(=O)C1
REMARK SMILES IDX 8 1 7 2 6 3 5 4 4 5 11 6 9 7 10 8 2 9 1 10 3 11
REMARK H PARENT
REMARK Flexibility Score: inf
ROOT
ATOM      1  C   UNL     1      85.807   2.959  28.818  1.00  0.00     0.048 C 
ATOM      2  C   UNL     1      84.573   3.708  28.399  1.00  0.00    -0.012 C 
ATOM      3  C   UNL     1      83.695   4.125  29.328  1.00  0.00    -0.019 C 
ATOM      4  C   UNL     1      82.435   4.864  28.962  1.00  0.00     0.036 C 
ATOM      5  C   UNL     1      82.646   5.735  27.710  1.00  0.00     0.025 C 
ATOM      6  C   UNL     1      83.179   4.878  26.546  1.00  0.00     0.089 C 
ATOM      7  C   UNL     1      84.388   4.094  26.977  1.00  0.00     0.158 C 
ATOM      8  O   UNL     1      85.229   3.736  26.110  1.00  0.00    -0.295 OA
ENDROOT
BRANCH   5   9
ATOM      9  C   UNL     1      81.376   6.480  27.323  1.00  0.00    -0.077 C 
ATOM     10  C   UNL     1      80.574   6.033  26.342  1.00  0.00     0.008 C 
ATOM     11  C   UNL     1      80.995   7.749  28.042  1.00  0.00     0.039 C 
ENDBRANCH   5   9
TORSDOF 1
ENDMDL
MODEL 7
REMARK VINA RESULT:    -4.921      2.396      4.003
REMARK INTER + INTRA:          -5.298
REMARK INTER:                  -5.205
REMARK INTRA:                  -0.093
REMARK UNBOUND:                -0.089
REMARK SMILES C=C(C)[C@H]1CC=C(C)C(=O)C1
REMARK SMILES IDX 8 1 7 2 6 3 5 4 4 5 11 6 9 7 10 8 2 9 1 10 3 11
REMARK H PARENT
REMARK Flexibility Score: inf
ROOT
ATOM      1  C   UNL     1      82.170   4.124  32.002  1.00  0.00     0.048 C 
ATOM      2  C   UNL     1      82.482   4.280  30.539  1.00  0.00    -0.012 C 
ATOM      3  C   UNL     1      82.689   5.505  30.025  1.00  0.00    -0.019 C 
ATOM      4  C   UNL     1      82.986   5.719  28.565  1.00  0.00     0.036 C 
ATOM      5  C   UNL     1      83.780   4.536  27.981  1.00  0.00     0.025 C 
ATOM      6  C   UNL     1      83.033   3.213  28.237  1.00  0.00     0.089 C 
ATOM      7  C   UNL     1      82.682   3.076  29.693  1.00  0.00     0.158 C 
ATOM      8  O   UNL     1      82.524   1.926  30.181  1.00  0.00    -0.295 OA
ENDROOT
BRANCH   5   9
ATOM      9  C   UNL     1      84.080   4.735  26.502  1.00  0.00    -0.077 C 
ATOM     10  C   UNL     1      85.130   4.135  25.914  1.00  0.00     0.008 C 
ATOM     11  C   UNL     1      83.195   5.619  25.662  1.00  0.00     0.039 C 
ENDBRANCH   5   9
TORSDOF 1
ENDMDL
MODEL 8
REMARK VINA RESULT:    -4.888      2.314      4.056
REMARK INTER + INTRA:          -5.262
REMARK INTER:                  -5.169
REMARK INTRA:                  -0.093
REMARK UNBOUND:                -0.089
REMARK SMILES C=C(C)[C@H]1CC=C(C)C(=O)C1
REMARK SMILES IDX 8 1 7 2 6 3 5 4 4 5 11 6 9 7 10 8 2 9 1 10 3 11
REMARK H PARENT
REMARK Flexibility Score: inf
ROOT
ATOM      1  C   UNL     1      81.866   3.646  31.924  1.00  0.00     0.048 C 
ATOM      2  C   UNL     1      82.511   3.872  30.585  1.00  0.00    -0.012 C 
ATOM      3  C   UNL     1      82.760   2.829  29.776  1.00  0.00    -0.019 C 
ATOM      4  C   UNL     1      83.420   2.997  28.433  1.00  0.00     0.036 C 
ATOM      5  C   UNL     1      83.042   4.346  27.794  1.00  0.00     0.025 C 
ATOM      6  C   UNL     1      83.369   5.504  28.756  1.00  0.00     0.089 C 
ATOM      7  C   UNL     1      82.760   5.257  30.109  1.00  0.00     0.158 C 
ATOM      8  O   UNL     1      82.494   6.239  30.851  1.00  0.00    -0.295 OA
ENDROOT
BRANCH   5   9
ATOM      9  C   UNL     1      83.710   4.535  26.440  1.00  0.00    -0.077 C 
ATOM     10  C   UNL     1      83.174   5.333  25.500  1.00  0.00     0.008 C 
ATOM     11  C   UNL     1      84.999   3.820  26.126  1.00  0.00     0.039 C 
ENDBRANCH   5   9
TORSDOF 1
ENDMDL
MODEL 9
REMARK VINA RESULT:    -4.676      1.632      2.257
REMARK INTER + INTRA:          -5.039
REMARK INTER:                  -4.945
REMARK INTRA:                  -0.093
REMARK UNBOUND:                -0.089
REMARK SMILES C=C(C)[C@H]1CC=C(C)C(=O)C1
REMARK SMILES IDX 8 1 7 2 6 3 5 4 4 5 11 6 9 7 10 8 2 9 1 10 3 11
REMARK H PARENT
REMARK Flexibility Score: inf
ROOT
ATOM      1  C   UNL     1      81.013   7.476  27.099  1.00  0.00     0.048 C 
ATOM      2  C   UNL     1      81.843   6.299  27.529  1.00  0.00    -0.012 C 
ATOM      3  C   UNL     1      82.248   5.396  26.619  1.00  0.00    -0.019 C 
ATOM      4  C   UNL     1      83.065   4.190  26.998  1.00  0.00     0.036 C 
ATOM      5  C   UNL     1      83.995   4.501  28.186  1.00  0.00     0.025 C 
ATOM      6  C   UNL     1      83.181   5.051  29.372  1.00  0.00     0.089 C 
ATOM      7  C   UNL     1      82.317   6.202  28.933  1.00  0.00     0.158 C 
ATOM      8  O   UNL     1      81.968   7.066  29.780  1.00  0.00    -0.295 OA
ENDROOT
BRANCH   5   9
ATOM      9  C   UNL     1      84.821   3.287  28.587  1.00  0.00    -0.077 C 
ATOM     10  C   UNL     1      84.272   2.256  29.253  1.00  0.00     0.008 C 
ATOM     11  C   UNL     1      86.286   3.220  28.239  1.00  0.00     0.039 C 
ENDBRANCH   5   9
TORSDOF 1
ENDMDL
