MODEL 1
REMARK VINA RESULT:    19.654      0.000      0.000
REMARK INTER + INTRA:          28.646
REMARK INTER:                  27.697
REMARK INTRA:                   0.949
REMARK UNBOUND:                 0.949
REMARK SMILES CC1=CCC(=C(C)C)C(=O)CC(C)=CCC1
REMARK SMILES IDX 12 1 14 2 13 3 15 4 16 5 2 6 1 7 3 8 11 10 9 11 10 12 5 13
REMARK SMILES IDX 6 14 7 15 8 16 4 17
REMARK H PARENT
REMARK Flexibility Score: 60.00
ROOT
ATOM      1  C   UNL     1      32.898  11.400  41.186  1.00  0.00    -0.070 C 
ATOM      2  C   UNL     1      33.135  10.087  40.964  1.00  0.00    -0.027 C 
ATOM      3  C   UNL     1      32.227  11.793  42.477  1.00  0.00     0.039 C 
ENDROOT
BRANCH   2   4
ATOM      4  C   UNL     1      33.922   9.535  39.804  1.00  0.00     0.032 C 
BRANCH   4   5
ATOM      5  C   UNL     1      35.358   9.230  40.246  1.00  0.00     0.034 C 
BRANCH   5   6
ATOM      6  C   UNL     1      36.330  10.324  39.855  1.00  0.00    -0.077 C 
ATOM      7  C   UNL     1      37.125  10.164  38.582  1.00  0.00     0.039 C 
ATOM      8  C   UNL     1      36.584  11.414  40.623  1.00  0.00    -0.023 CG0
ATOM      9  G   UNL     1      35.880  11.822  41.904  1.00  0.00     0.000 G0
ENDBRANCH   5   6
ENDBRANCH   4   5
ENDBRANCH   2   4
BRANCH   1  10
ATOM     10  C   UNL     1      33.254  12.490  40.194  1.00  0.00     0.111 C 
BRANCH  10  11
ATOM     11  C   UNL     1      34.273  13.451  40.756  1.00  0.00     0.163 C 
ATOM     12  O   UNL     1      34.387  14.569  40.184  1.00  0.00    -0.294 OA
BRANCH  11  13
ATOM     13  C   UNL     1      35.159  13.138  41.928  1.00  0.00    -0.002 C 
ATOM     14  C   UNL     1      35.404  14.083  42.887  1.00  0.00    -0.069 C 
ATOM     15  C   UNL     1      36.463  13.890  43.949  1.00  0.00     0.039 C 
ATOM     16  C   UNL     1      34.591  15.355  42.969  1.00  0.00     0.039 C 
BRANCH  13  17
ATOM     17  C   UNL     1      35.911  11.811  41.916  1.00  0.00     0.066 CG0
ATOM     18  G   UNL     1      36.552  11.407  40.601  1.00  0.00     0.000 G0
ENDBRANCH  13  17
ENDBRANCH  11  13
ENDBRANCH  10  11
ENDBRANCH   1  10
TORSDOF 0
ENDMDL
MODEL 2
REMARK VINA RESULT:    21.506      1.298      3.045
REMARK INTER + INTRA:          31.255
REMARK INTER:                  28.087
REMARK INTRA:                   3.168
REMARK UNBOUND:                 0.949
REMARK SMILES CC1=CCC(=C(C)C)C(=O)CC(C)=CCC1
REMARK SMILES IDX 12 1 14 2 13 3 15 4 16 5 2 6 1 7 3 8 11 10 9 11 10 12 5 13
REMARK SMILES IDX 6 14 7 15 8 16 4 17
REMARK H PARENT
REMARK Flexibility Score: 60.00
ROOT
ATOM      1  C   UNL     1      35.593  11.586  40.048  1.00  0.00    -0.070 C 
ATOM      2  C   UNL     1      35.165  10.313  40.203  1.00  0.00    -0.027 C 
ATOM      3  C   UNL     1      37.077  11.845  40.075  1.00  0.00     0.039 C 
ENDROOT
BRANCH   2   4
ATOM      4  C   UNL     1      33.736   9.857  40.058  1.00  0.00     0.032 C 
BRANCH   4   5
ATOM      5  C   UNL     1      32.784  11.004  40.419  1.00  0.00     0.034 C 
BRANCH   5   6
ATOM      6  C   UNL     1      32.396  10.996  41.883  1.00  0.00    -0.077 C 
ATOM      7  C   UNL     1      30.991  10.590  42.256  1.00  0.00     0.039 C 
ATOM      8  C   UNL     1      33.220  11.404  42.882  1.00  0.00    -0.023 CG0
ATOM      9  G   UNL     1      34.680  11.800  42.767  1.00  0.00     0.000 G0
ENDBRANCH   5   6
ENDBRANCH   4   5
ENDBRANCH   2   4
BRANCH   1  10
ATOM     10  C   UNL     1      34.655  12.764  39.870  1.00  0.00     0.111 C 
BRANCH  10  11
ATOM     11  C   UNL     1      34.713  13.712  41.043  1.00  0.00     0.163 C 
ATOM     12  O   UNL     1      34.546  14.938  40.800  1.00  0.00    -0.294 OA
BRANCH  11  13
ATOM     13  C   UNL     1      34.979  13.278  42.455  1.00  0.00    -0.002 C 
ATOM     14  C   UNL     1      35.602  14.119  43.337  1.00  0.00    -0.069 C 
ATOM     15  C   UNL     1      36.093  13.646  44.686  1.00  0.00     0.039 C 
ATOM     16  C   UNL     1      35.788  15.588  43.029  1.00  0.00     0.039 C 
BRANCH  13  17
ATOM     17  C   UNL     1      34.700  11.822  42.816  1.00  0.00     0.066 CG0
ATOM     18  G   UNL     1      33.241  11.413  42.899  1.00  0.00     0.000 G0
ENDBRANCH  13  17
ENDBRANCH  11  13
ENDBRANCH  10  11
ENDBRANCH   1  10
TORSDOF 0
ENDMDL
MODEL 3
REMARK VINA RESULT:    21.899      2.413      5.313
REMARK INTER + INTRA:          31.809
REMARK INTER:                  30.575
REMARK INTRA:                   1.234
REMARK UNBOUND:                 0.949
REMARK SMILES CC1=CCC(=C(C)C)C(=O)CC(C)=CCC1
REMARK SMILES IDX 12 1 14 2 13 3 15 4 16 5 2 6 1 7 3 8 11 10 9 11 10 12 5 13
REMARK SMILES IDX 6 14 7 15 8 16 4 17
REMARK H PARENT
REMARK Flexibility Score: 60.00
ROOT
ATOM      1  C   UNL     1      35.881  14.534  43.643  1.00  0.00    -0.070 C 
ATOM      2  C   UNL     1      35.159  15.665  43.810  1.00  0.00    -0.027 C 
ATOM      3  C   UNL     1      36.649  14.000  44.824  1.00  0.00     0.039 C 
ENDROOT
BRANCH   2   4
ATOM      4  C   UNL     1      34.222  16.252  42.786  1.00  0.00     0.032 C 
BRANCH   4   5
ATOM      5  C   UNL     1      34.972  16.488  41.469  1.00  0.00     0.034 C 
BRANCH   5   6
ATOM      6  C   UNL     1      34.058  16.434  40.263  1.00  0.00    -0.077 C 
ATOM      7  C   UNL     1      33.285  17.674  39.885  1.00  0.00     0.039 C 
ATOM      8  C   UNL     1      33.835  15.308  39.538  1.00  0.00    -0.023 CG0
ATOM      9  G   UNL     1      34.528  13.966  39.685  1.00  0.00     0.000 G0
ENDBRANCH   5   6
ENDBRANCH   4   5
ENDBRANCH   2   4
BRANCH   1  10
ATOM     10  C   UNL     1      35.971  13.790  42.324  1.00  0.00     0.111 C 
BRANCH  10  11
ATOM     11  C   UNL     1      34.712  13.012  42.030  1.00  0.00     0.163 C 
ATOM     12  O   UNL     1      34.189  12.381  42.988  1.00  0.00    -0.294 OA
BRANCH  11  13
ATOM     13  C   UNL     1      34.075  12.936  40.673  1.00  0.00    -0.002 C 
ATOM     14  C   UNL     1      33.231  11.906  40.356  1.00  0.00    -0.069 C 
ATOM     15  C   UNL     1      32.756  11.664  38.941  1.00  0.00     0.039 C 
ATOM     16  C   UNL     1      32.685  10.978  41.418  1.00  0.00     0.039 C 
BRANCH  13  17
ATOM     17  C   UNL     1      34.538  13.931  39.613  1.00  0.00     0.066 CG0
ATOM     18  G   UNL     1      33.815  15.265  39.576  1.00  0.00     0.000 G0
ENDBRANCH  13  17
ENDBRANCH  11  13
ENDBRANCH  10  11
ENDBRANCH   1  10
TORSDOF 0
ENDMDL
