MODEL 1
REMARK VINA RESULT:    -4.601      0.000      0.000
REMARK INTER + INTRA:          -6.012
REMARK INTER:                  -6.483
REMARK INTRA:                   0.471
REMARK UNBOUND:                 0.471
REMARK SMILES CC1=CCC(=C(C)C)C(=O)CC(C)=CCC1
REMARK SMILES IDX 12 1 14 2 13 3 15 4 16 5 2 6 1 7 3 8 11 10 9 11 10 12 5 13
REMARK SMILES IDX 6 14 7 15 8 16 4 17
REMARK H PARENT
REMARK Flexibility Score: 60.00
ROOT
ATOM      1  C   UNL     1      19.842  -9.625  64.999  1.00  0.00    -0.070 C 
ATOM      2  C   UNL     1      20.161  -9.611  66.311  1.00  0.00    -0.027 C 
ATOM      3  C   UNL     1      20.969  -9.729  64.000  1.00  0.00     0.039 C 
ENDROOT
BRANCH   2   4
ATOM      4  C   UNL     1      19.189  -9.416  67.454  1.00  0.00     0.032 C 
BRANCH   4   5
ATOM      5  C   UNL     1      19.044 -10.630  68.396  1.00  0.00     0.034 C 
BRANCH   5   6
ATOM      6  C   UNL     1      18.962 -11.954  67.656  1.00  0.00    -0.077 C 
ATOM      7  C   UNL     1      20.105 -12.922  67.824  1.00  0.00     0.039 C 
ATOM      8  C   UNL     1      17.965 -12.291  66.802  1.00  0.00    -0.023 CG0
ATOM      9  G   UNL     1      16.716 -11.491  66.494  1.00  0.00     0.000 G0
ENDBRANCH   5   6
ENDBRANCH   4   5
ENDBRANCH   2   4
BRANCH   1  10
ATOM     10  C   UNL     1      18.428  -9.450  64.484  1.00  0.00     0.111 C 
BRANCH  10  11
ATOM     11  C   UNL     1      17.758 -10.775  64.239  1.00  0.00     0.163 C 
ATOM     12  O   UNL     1      18.217 -11.513  63.324  1.00  0.00    -0.294 OA
BRANCH  11  13
ATOM     13  C   UNL     1      16.545 -11.212  64.992  1.00  0.00    -0.002 C 
ATOM     14  C   UNL     1      15.325 -11.274  64.377  1.00  0.00    -0.069 C 
ATOM     15  C   UNL     1      14.053 -11.558  65.148  1.00  0.00     0.039 C 
ATOM     16  C   UNL     1      15.185 -11.058  62.887  1.00  0.00     0.039 C 
BRANCH  13  17
ATOM     17  C   UNL     1      16.711 -11.486  66.478  1.00  0.00     0.066 CG0
ATOM     18  G   UNL     1      17.964 -12.283  66.779  1.00  0.00     0.000 G0
ENDBRANCH  13  17
ENDBRANCH  11  13
ENDBRANCH  10  11
ENDBRANCH   1  10
TORSDOF 0
ENDMDL
MODEL 2
REMARK VINA RESULT:    -4.220      1.604      4.238
REMARK INTER + INTRA:          -5.475
REMARK INTER:                  -6.137
REMARK INTRA:                   0.662
REMARK UNBOUND:                 0.471
REMARK SMILES CC1=CCC(=C(C)C)C(=O)CC(C)=CCC1
REMARK SMILES IDX 12 1 14 2 13 3 15 4 16 5 2 6 1 7 3 8 11 10 9 11 10 12 5 13
REMARK SMILES IDX 6 14 7 15 8 16 4 17
REMARK H PARENT
REMARK Flexibility Score: 60.00
ROOT
ATOM      1  C   UNL     1      19.966 -10.964  64.888  1.00  0.00    -0.070 C 
ATOM      2  C   UNL     1      19.428  -9.983  64.130  1.00  0.00    -0.027 C 
ATOM      3  C   UNL     1      21.380 -10.779  65.381  1.00  0.00     0.039 C 
ENDROOT
BRANCH   2   4
ATOM      4  C   UNL     1      18.070 -10.025  63.465  1.00  0.00     0.032 C 
BRANCH   4   5
ATOM      5  C   UNL     1      16.917  -9.445  64.310  1.00  0.00     0.034 C 
BRANCH   5   6
ATOM      6  C   UNL     1      16.202 -10.494  65.145  1.00  0.00    -0.077 C 
ATOM      7  C   UNL     1      15.049 -11.229  64.510  1.00  0.00     0.039 C 
ATOM      8  C   UNL     1      16.488 -10.763  66.442  1.00  0.00    -0.023 CG0
ATOM      9  G   UNL     1      17.606 -10.167  67.274  1.00  0.00     0.000 G0
ENDBRANCH   5   6
ENDBRANCH   4   5
ENDBRANCH   2   4
BRANCH   1  10
ATOM     10  C   UNL     1      19.256 -12.268  65.187  1.00  0.00     0.111 C 
BRANCH  10  11
ATOM     11  C   UNL     1      18.812 -12.342  66.624  1.00  0.00     0.163 C 
ATOM     12  O   UNL     1      18.432 -13.459  67.070  1.00  0.00    -0.294 OA
BRANCH  11  13
ATOM     13  C   UNL     1      18.750 -11.141  67.507  1.00  0.00    -0.002 C 
ATOM     14  C   UNL     1      19.641 -10.978  68.531  1.00  0.00    -0.069 C 
ATOM     15  C   UNL     1      19.508  -9.857  69.539  1.00  0.00     0.039 C 
ATOM     16  C   UNL     1      20.811 -11.921  68.709  1.00  0.00     0.039 C 
BRANCH  13  17
ATOM     17  C   UNL     1      17.604 -10.168  67.277  1.00  0.00     0.066 CG0
ATOM     18  G   UNL     1      16.501 -10.767  66.429  1.00  0.00     0.000 G0
ENDBRANCH  13  17
ENDBRANCH  11  13
ENDBRANCH  10  11
ENDBRANCH   1  10
TORSDOF 0
ENDMDL
MODEL 3
REMARK VINA RESULT:    -4.191      1.500      4.112
REMARK INTER + INTRA:          -5.435
REMARK INTER:                  -6.154
REMARK INTRA:                   0.719
REMARK UNBOUND:                 0.471
REMARK SMILES CC1=CCC(=C(C)C)C(=O)CC(C)=CCC1
REMARK SMILES IDX 12 1 14 2 13 3 15 4 16 5 2 6 1 7 3 8 11 10 9 11 10 12 5 13
REMARK SMILES IDX 6 14 7 15 8 16 4 17
REMARK H PARENT
REMARK Flexibility Score: 60.00
ROOT
ATOM      1  C   UNL     1      20.092  -9.652  65.108  1.00  0.00    -0.070 C 
ATOM      2  C   UNL     1      19.300  -9.639  64.014  1.00  0.00    -0.027 C 
ATOM      3  C   UNL     1      21.520 -10.108  64.941  1.00  0.00     0.039 C 
ENDROOT
BRANCH   2   4
ATOM      4  C   UNL     1      17.824  -9.310  63.995  1.00  0.00     0.032 C 
BRANCH   4   5
ATOM      5  C   UNL     1      16.932 -10.369  63.314  1.00  0.00     0.034 C 
BRANCH   5   6
ATOM      6  C   UNL     1      16.077 -11.151  64.297  1.00  0.00    -0.077 C 
ATOM      7  C   UNL     1      14.583 -10.952  64.238  1.00  0.00     0.039 C 
ATOM      8  C   UNL     1      16.572 -11.959  65.266  1.00  0.00    -0.023 CG0
ATOM      9  G   UNL     1      18.024 -12.320  65.501  1.00  0.00     0.000 G0
ENDBRANCH   5   6
ENDBRANCH   4   5
ENDBRANCH   2   4
BRANCH   1  10
ATOM     10  C   UNL     1      19.593  -9.320  66.500  1.00  0.00     0.111 C 
BRANCH  10  11
ATOM     11  C   UNL     1      18.485 -10.245  66.929  1.00  0.00     0.163 C 
ATOM     12  O   UNL     1      17.465  -9.739  67.469  1.00  0.00    -0.294 OA
BRANCH  11  13
ATOM     13  C   UNL     1      18.582 -11.729  66.792  1.00  0.00    -0.002 C 
ATOM     14  C   UNL     1      19.225 -12.478  67.737  1.00  0.00    -0.069 C 
ATOM     15  C   UNL     1      19.478 -13.958  67.550  1.00  0.00     0.039 C 
ATOM     16  C   UNL     1      19.722 -11.858  69.025  1.00  0.00     0.039 C 
BRANCH  13  17
ATOM     17  C   UNL     1      18.023 -12.347  65.520  1.00  0.00     0.066 CG0
ATOM     18  G   UNL     1      16.580 -11.957  65.276  1.00  0.00     0.000 G0
ENDBRANCH  13  17
ENDBRANCH  11  13
ENDBRANCH  10  11
ENDBRANCH   1  10
TORSDOF 0
ENDMDL
MODEL 4
REMARK VINA RESULT:    -4.161     15.333     16.989
REMARK INTER + INTRA:          -5.393
REMARK INTER:                  -5.573
REMARK INTRA:                   0.180
REMARK UNBOUND:                 0.471
REMARK SMILES CC1=CCC(=C(C)C)C(=O)CC(C)=CCC1
REMARK SMILES IDX 12 1 14 2 13 3 15 4 16 5 2 6 1 7 3 8 11 10 9 11 10 12 5 13
REMARK SMILES IDX 6 14 7 15 8 16 4 17
REMARK H PARENT
REMARK Flexibility Score: 60.00
ROOT
ATOM      1  C   UNL     1       6.490   4.208  62.541  1.00  0.00    -0.070 C 
ATOM      2  C   UNL     1       7.664   4.775  62.185  1.00  0.00    -0.027 C 
ATOM      3  C   UNL     1       5.529   5.031  63.361  1.00  0.00     0.039 C 
ENDROOT
BRANCH   2   4
ATOM      4  C   UNL     1       8.792   4.085  61.452  1.00  0.00     0.032 C 
BRANCH   4   5
ATOM      5  C   UNL     1       9.666   3.163  62.329  1.00  0.00     0.034 C 
BRANCH   5   6
ATOM      6  C   UNL     1       9.931   1.809  61.693  1.00  0.00    -0.077 C 
ATOM      7  C   UNL     1      10.736   1.779  60.418  1.00  0.00     0.039 C 
ATOM      8  C   UNL     1       9.434   0.637  62.157  1.00  0.00    -0.023 CG0
ATOM      9  G   UNL     1       8.623   0.424  63.420  1.00  0.00     0.000 G0
ENDBRANCH   5   6
ENDBRANCH   4   5
ENDBRANCH   2   4
BRANCH   1  10
ATOM     10  C   UNL     1       6.137   2.766  62.237  1.00  0.00     0.111 C 
BRANCH  10  11
ATOM     11  C   UNL     1       6.484   1.855  63.385  1.00  0.00     0.163 C 
ATOM     12  O   UNL     1       6.270   2.269  64.557  1.00  0.00    -0.294 OA
BRANCH  11  13
ATOM     13  C   UNL     1       7.123   0.521  63.184  1.00  0.00    -0.002 C 
ATOM     14  C   UNL     1       6.367  -0.579  62.887  1.00  0.00    -0.069 C 
ATOM     15  C   UNL     1       6.962  -1.970  62.834  1.00  0.00     0.039 C 
ATOM     16  C   UNL     1       4.887  -0.459  62.597  1.00  0.00     0.039 C 
BRANCH  13  17
ATOM     17  C   UNL     1       8.622   0.426  63.419  1.00  0.00     0.066 CG0
ATOM     18  G   UNL     1       9.419   0.648  62.149  1.00  0.00     0.000 G0
ENDBRANCH  13  17
ENDBRANCH  11  13
ENDBRANCH  10  11
ENDBRANCH   1  10
TORSDOF 0
ENDMDL
MODEL 5
REMARK VINA RESULT:    -4.105      1.436      2.052
REMARK INTER + INTRA:          -5.314
REMARK INTER:                  -6.181
REMARK INTRA:                   0.867
REMARK UNBOUND:                 0.471
REMARK SMILES CC1=CCC(=C(C)C)C(=O)CC(C)=CCC1
REMARK SMILES IDX 12 1 14 2 13 3 15 4 16 5 2 6 1 7 3 8 11 10 9 11 10 12 5 13
REMARK SMILES IDX 6 14 7 15 8 16 4 17
REMARK H PARENT
REMARK Flexibility Score: 60.00
ROOT
ATOM      1  C   UNL     1      21.535 -10.398  64.622  1.00  0.00    -0.070 C 
ATOM      2  C   UNL     1      22.433 -11.156  65.289  1.00  0.00    -0.027 C 
ATOM      3  C   UNL     1      21.911  -9.902  63.248  1.00  0.00     0.039 C 
ENDROOT
BRANCH   2   4
ATOM      4  C   UNL     1      22.283 -11.662  66.706  1.00  0.00     0.032 C 
BRANCH   4   5
ATOM      5  C   UNL     1      21.264 -12.809  66.880  1.00  0.00     0.034 C 
BRANCH   5   6
ATOM      6  C   UNL     1      20.047 -12.408  67.695  1.00  0.00    -0.077 C 
ATOM      7  C   UNL     1      20.245 -12.139  69.165  1.00  0.00     0.039 C 
ATOM      8  C   UNL     1      18.785 -12.344  67.203  1.00  0.00    -0.023 CG0
ATOM      9  G   UNL     1      18.354 -12.553  65.765  1.00  0.00     0.000 G0
ENDBRANCH   5   6
ENDBRANCH   4   5
ENDBRANCH   2   4
BRANCH   1  10
ATOM     10  C   UNL     1      20.217  -9.949  65.222  1.00  0.00     0.111 C 
BRANCH  10  11
ATOM     11  C   UNL     1      19.043 -10.464  64.431  1.00  0.00     0.163 C 
ATOM     12  O   UNL     1      18.967 -10.152  63.211  1.00  0.00    -0.294 OA
BRANCH  11  13
ATOM     13  C   UNL     1      17.950 -11.269  65.051  1.00  0.00    -0.002 C 
ATOM     14  C   UNL     1      16.661 -10.812  65.055  1.00  0.00    -0.069 C 
ATOM     15  C   UNL     1      15.561 -11.525  65.812  1.00  0.00     0.039 C 
ATOM     16  C   UNL     1      16.270  -9.560  64.301  1.00  0.00     0.039 C 
BRANCH  13  17
ATOM     17  C   UNL     1      18.348 -12.557  65.754  1.00  0.00     0.066 CG0
ATOM     18  G   UNL     1      18.792 -12.320  67.183  1.00  0.00     0.000 G0
ENDBRANCH  13  17
ENDBRANCH  11  13
ENDBRANCH  10  11
ENDBRANCH   1  10
TORSDOF 0
ENDMDL
MODEL 6
REMARK VINA RESULT:    -4.031     16.119     17.767
REMARK INTER + INTRA:          -5.210
REMARK INTER:                  -5.738
REMARK INTRA:                   0.528
REMARK UNBOUND:                 0.471
REMARK SMILES CC1=CCC(=C(C)C)C(=O)CC(C)=CCC1
REMARK SMILES IDX 12 1 14 2 13 3 15 4 16 5 2 6 1 7 3 8 11 10 9 11 10 12 5 13
REMARK SMILES IDX 6 14 7 15 8 16 4 17
REMARK H PARENT
REMARK Flexibility Score: 60.00
ROOT
ATOM      1  C   UNL     1       9.141   1.910  63.354  1.00  0.00    -0.070 C 
ATOM      2  C   UNL     1       8.305   0.976  63.857  1.00  0.00    -0.027 C 
ATOM      3  C   UNL     1      10.257   1.446  62.451  1.00  0.00     0.039 C 
ENDROOT
BRANCH   2   4
ATOM      4  C   UNL     1       7.193   1.229  64.852  1.00  0.00     0.032 C 
BRANCH   4   5
ATOM      5  C   UNL     1       5.798   1.437  64.225  1.00  0.00     0.034 C 
BRANCH   5   6
ATOM      6  C   UNL     1       5.748   1.084  62.748  1.00  0.00    -0.077 C 
ATOM      7  C   UNL     1       5.442  -0.345  62.379  1.00  0.00     0.039 C 
ATOM      8  C   UNL     1       6.029   1.953  61.746  1.00  0.00    -0.023 CG0
ATOM      9  G   UNL     1       6.341   3.430  61.877  1.00  0.00     0.000 G0
ENDBRANCH   5   6
ENDBRANCH   4   5
ENDBRANCH   2   4
BRANCH   1  10
ATOM     10  C   UNL     1       9.068   3.378  63.724  1.00  0.00     0.111 C 
BRANCH  10  11
ATOM     11  C   UNL     1       8.701   4.232  62.539  1.00  0.00     0.163 C 
ATOM     12  O   UNL     1       9.157   5.406  62.490  1.00  0.00    -0.294 OA
BRANCH  11  13
ATOM     13  C   UNL     1       7.776   3.760  61.466  1.00  0.00    -0.002 C 
ATOM     14  C   UNL     1       8.183   3.714  60.162  1.00  0.00    -0.069 C 
ATOM     15  C   UNL     1       7.225   3.394  59.035  1.00  0.00     0.039 C 
ATOM     16  C   UNL     1       9.621   3.987  59.779  1.00  0.00     0.039 C 
BRANCH  13  17
ATOM     17  C   UNL     1       6.349   3.429  61.875  1.00  0.00     0.066 CG0
ATOM     18  G   UNL     1       6.038   1.953  61.737  1.00  0.00     0.000 G0
ENDBRANCH  13  17
ENDBRANCH  11  13
ENDBRANCH  10  11
ENDBRANCH   1  10
TORSDOF 0
ENDMDL
MODEL 7
REMARK VINA RESULT:    -3.989      2.011      5.005
REMARK INTER + INTRA:          -5.150
REMARK INTER:                  -5.692
REMARK INTRA:                   0.542
REMARK UNBOUND:                 0.471
REMARK SMILES CC1=CCC(=C(C)C)C(=O)CC(C)=CCC1
REMARK SMILES IDX 12 1 14 2 13 3 15 4 16 5 2 6 1 7 3 8 11 10 9 11 10 12 5 13
REMARK SMILES IDX 6 14 7 15 8 16 4 17
REMARK H PARENT
REMARK Flexibility Score: 60.00
ROOT
ATOM      1  C   UNL     1      18.012 -13.108  65.527  1.00  0.00    -0.070 C 
ATOM      2  C   UNL     1      17.354 -13.581  64.446  1.00  0.00    -0.027 C 
ATOM      3  C   UNL     1      19.376 -13.678  65.828  1.00  0.00     0.039 C 
ENDROOT
BRANCH   2   4
ATOM      4  C   UNL     1      15.946 -13.209  64.037  1.00  0.00     0.032 C 
BRANCH   4   5
ATOM      5  C   UNL     1      15.854 -12.103  62.965  1.00  0.00     0.034 C 
BRANCH   5   6
ATOM      6  C   UNL     1      15.713 -10.710  63.553  1.00  0.00    -0.077 C 
ATOM      7  C   UNL     1      14.319 -10.166  63.742  1.00  0.00     0.039 C 
ATOM      8  C   UNL     1      16.757  -9.899  63.855  1.00  0.00    -0.023 CG0
ATOM      9  G   UNL     1      18.231 -10.236  63.766  1.00  0.00     0.000 G0
ENDBRANCH   5   6
ENDBRANCH   4   5
ENDBRANCH   2   4
BRANCH   1  10
ATOM     10  C   UNL     1      17.413 -12.108  66.495  1.00  0.00     0.111 C 
BRANCH  10  11
ATOM     11  C   UNL     1      17.980 -10.728  66.291  1.00  0.00     0.163 C 
ATOM     12  O   UNL     1      17.631  -9.819  67.092  1.00  0.00    -0.294 OA
BRANCH  11  13
ATOM     13  C   UNL     1      18.882 -10.393  65.150  1.00  0.00    -0.002 C 
ATOM     14  C   UNL     1      20.213 -10.156  65.356  1.00  0.00    -0.069 C 
ATOM     15  C   UNL     1      21.119  -9.660  64.250  1.00  0.00     0.039 C 
ATOM     16  C   UNL     1      20.848 -10.377  66.711  1.00  0.00     0.039 C 
BRANCH  13  17
ATOM     17  C   UNL     1      18.241 -10.234  63.780  1.00  0.00     0.066 CG0
ATOM     18  G   UNL     1      16.762  -9.917  63.871  1.00  0.00     0.000 G0
ENDBRANCH  13  17
ENDBRANCH  11  13
ENDBRANCH  10  11
ENDBRANCH   1  10
TORSDOF 0
ENDMDL
MODEL 8
REMARK VINA RESULT:    -3.886      2.529      5.147
REMARK INTER + INTRA:          -5.005
REMARK INTER:                  -5.478
REMARK INTRA:                   0.472
REMARK UNBOUND:                 0.471
REMARK SMILES CC1=CCC(=C(C)C)C(=O)CC(C)=CCC1
REMARK SMILES IDX 12 1 14 2 13 3 15 4 16 5 2 6 1 7 3 8 11 10 9 11 10 12 5 13
REMARK SMILES IDX 6 14 7 15 8 16 4 17
REMARK H PARENT
REMARK Flexibility Score: 60.00
ROOT
ATOM      1  C   UNL     1      20.814 -13.157  67.539  1.00  0.00    -0.070 C 
ATOM      2  C   UNL     1      19.488 -13.366  67.391  1.00  0.00    -0.027 C 
ATOM      3  C   UNL     1      21.358 -13.040  68.941  1.00  0.00     0.039 C 
ENDROOT
BRANCH   2   4
ATOM      4  C   UNL     1      18.742 -13.413  66.076  1.00  0.00     0.032 C 
BRANCH   4   5
ATOM      5  C   UNL     1      17.753 -12.251  65.850  1.00  0.00     0.034 C 
BRANCH   5   6
ATOM      6  C   UNL     1      18.306 -10.903  66.278  1.00  0.00    -0.077 C 
ATOM      7  C   UNL     1      17.661 -10.224  67.461  1.00  0.00     0.039 C 
ATOM      8  C   UNL     1      19.292 -10.240  65.627  1.00  0.00    -0.023 CG0
ATOM      9  G   UNL     1      20.091 -10.730  64.437  1.00  0.00     0.000 G0
ENDBRANCH   5   6
ENDBRANCH   4   5
ENDBRANCH   2   4
BRANCH   1  10
ATOM     10  C   UNL     1      21.759 -12.946  66.373  1.00  0.00     0.111 C 
BRANCH  10  11
ATOM     11  C   UNL     1      21.939 -11.484  66.062  1.00  0.00     0.163 C 
ATOM     12  O   UNL     1      22.372 -10.731  66.976  1.00  0.00    -0.294 OA
BRANCH  11  13
ATOM     13  C   UNL     1      21.567 -10.893  64.742  1.00  0.00    -0.002 C 
ATOM     14  C   UNL     1      22.528 -10.430  63.887  1.00  0.00    -0.069 C 
ATOM     15  C   UNL     1      22.179  -9.685  62.617  1.00  0.00     0.039 C 
ATOM     16  C   UNL     1      23.999 -10.639  64.173  1.00  0.00     0.039 C 
BRANCH  13  17
ATOM     17  C   UNL     1      20.084 -10.745  64.440  1.00  0.00     0.066 CG0
ATOM     18  G   UNL     1      19.302 -10.230  65.631  1.00  0.00     0.000 G0
ENDBRANCH  13  17
ENDBRANCH  11  13
ENDBRANCH  10  11
ENDBRANCH   1  10
TORSDOF 0
ENDMDL
MODEL 9
REMARK VINA RESULT:    -3.851      2.405      5.957
REMARK INTER + INTRA:          -4.955
REMARK INTER:                  -5.405
REMARK INTRA:                   0.450
REMARK UNBOUND:                 0.471
REMARK SMILES CC1=CCC(=C(C)C)C(=O)CC(C)=CCC1
REMARK SMILES IDX 12 1 14 2 13 3 15 4 16 5 2 6 1 7 3 8 11 10 9 11 10 12 5 13
REMARK SMILES IDX 6 14 7 15 8 16 4 17
REMARK H PARENT
REMARK Flexibility Score: 60.00
ROOT
ATOM      1  C   UNL     1      14.428 -12.622  63.786  1.00  0.00    -0.070 C 
ATOM      2  C   UNL     1      13.892 -12.135  62.646  1.00  0.00    -0.027 C 
ATOM      3  C   UNL     1      13.489 -12.978  64.912  1.00  0.00     0.039 C 
ENDROOT
BRANCH   2   4
ATOM      4  C   UNL     1      14.668 -11.632  61.449  1.00  0.00     0.032 C 
BRANCH   4   5
ATOM      5  C   UNL     1      14.538 -10.117  61.183  1.00  0.00     0.034 C 
BRANCH   5   6
ATOM      6  C   UNL     1      14.644  -9.277  62.444  1.00  0.00    -0.077 C 
ATOM      7  C   UNL     1      13.412  -8.537  62.898  1.00  0.00     0.039 C 
ATOM      8  C   UNL     1      15.789  -9.095  63.147  1.00  0.00    -0.023 CG0
ATOM      9  G   UNL     1      17.132  -9.747  62.890  1.00  0.00     0.000 G0
ENDBRANCH   5   6
ENDBRANCH   4   5
ENDBRANCH   2   4
BRANCH   1  10
ATOM     10  C   UNL     1      15.921 -12.740  64.019  1.00  0.00     0.111 C 
BRANCH  10  11
ATOM     11  C   UNL     1      16.485 -11.494  64.649  1.00  0.00     0.163 C 
ATOM     12  O   UNL     1      15.984 -11.100  65.738  1.00  0.00    -0.294 OA
BRANCH  11  13
ATOM     13  C   UNL     1      17.561 -10.685  64.003  1.00  0.00    -0.002 C 
ATOM     14  C   UNL     1      18.849 -10.747  64.457  1.00  0.00    -0.069 C 
ATOM     15  C   UNL     1      19.929  -9.826  63.931  1.00  0.00     0.039 C 
ATOM     16  C   UNL     1      19.261 -11.744  65.518  1.00  0.00     0.039 C 
BRANCH  13  17
ATOM     17  C   UNL     1      17.144  -9.731  62.896  1.00  0.00     0.066 CG0
ATOM     18  G   UNL     1      15.788  -9.107  63.154  1.00  0.00     0.000 G0
ENDBRANCH  13  17
ENDBRANCH  11  13
ENDBRANCH  10  11
ENDBRANCH   1  10
TORSDOF 0
ENDMDL
