MODEL 1
REMARK VINA RESULT:    -5.268      0.000      0.000
REMARK INTER + INTRA:          -6.653
REMARK INTER:                  -6.345
REMARK INTRA:                  -0.308
REMARK UNBOUND:                -0.308
REMARK SMILES O=c1c(O)c(-c2ccc(O)c(O)c2)oc2cc(O)cc(O)c12
REMARK SMILES IDX 5 1 3 2 2 3 1 4 22 5 20 6 19 7 17 8 16 9 15 10 14 11 6 12
REMARK SMILES IDX 7 13 8 14 9 15 13 16 11 17 10 18 12 20 4 22 21 24 18 26
REMARK H PARENT 10 19 12 21 4 23 21 25 18 27
REMARK Flexibility Score: inf
ROOT
ATOM      1  C   UNL     1    -110.334 -57.027 -22.078  1.00  0.00     0.180 A 
ATOM      2  C   UNL     1    -111.519 -57.786 -22.032  1.00  0.00     0.208 A 
ATOM      3  C   UNL     1    -112.185 -58.081 -23.232  1.00  0.00     0.238 A 
ATOM      4  O   UNL     1    -113.253 -58.752 -23.200  1.00  0.00    -0.285 OA
ATOM      5  C   UNL     1    -111.646 -57.633 -24.455  1.00  0.00     0.111 A 
ATOM      6  C   UNL     1    -112.252 -57.892 -25.708  1.00  0.00     0.134 A 
ATOM      7  C   UNL     1    -111.649 -57.418 -26.884  1.00  0.00     0.093 A 
ATOM      8  C   UNL     1    -110.455 -56.695 -26.831  1.00  0.00     0.123 A 
ATOM      9  C   UNL     1    -109.853 -56.436 -25.595  1.00  0.00     0.094 A 
ATOM     10  C   UNL     1    -110.439 -56.897 -24.412  1.00  0.00     0.146 A 
ATOM     11  O   UNL     1    -109.848 -56.633 -23.253  1.00  0.00    -0.452 OA
ENDROOT
BRANCH   1  12
ATOM     12  C   UNL     1    -109.586 -56.658 -20.855  1.00  0.00     0.025 A 
ATOM     13  C   UNL     1    -109.820 -55.415 -20.253  1.00  0.00     0.016 A 
ATOM     14  C   UNL     1    -109.139 -55.055 -19.087  1.00  0.00     0.051 A 
ATOM     15  C   UNL     1    -108.226 -55.933 -18.494  1.00  0.00     0.157 A 
ATOM     16  C   UNL     1    -108.686 -57.552 -20.249  1.00  0.00     0.062 A 
ATOM     17  C   UNL     1    -108.002 -57.202 -19.079  1.00  0.00     0.158 A 
BRANCH  15  18
ATOM     18  O   UNL     1    -107.573 -55.510 -17.335  1.00  0.00    -0.504 OA
ATOM     19  H   UNL     1    -106.716 -55.918 -16.989  1.00  0.00     0.293 HD
ENDBRANCH  15  18
BRANCH  17  20
ATOM     20  O   UNL     1    -107.122 -58.139 -18.534  1.00  0.00    -0.504 OA
ATOM     21  H   UNL     1    -106.909 -59.029 -18.962  1.00  0.00     0.293 HD
ENDBRANCH  17  20
ENDBRANCH   1  12
BRANCH   2  22
ATOM     22  O   UNL     1    -112.005 -58.261 -20.809  1.00  0.00    -0.502 OA
ATOM     23  H   UNL     1    -112.846 -58.821 -20.741  1.00  0.00     0.293 HD
ENDBRANCH   2  22
BRANCH   6  24
ATOM     24  O   UNL     1    -113.444 -58.612 -25.796  1.00  0.00    -0.507 OA
ATOM     25  H   UNL     1    -113.568 -59.357 -26.470  1.00  0.00     0.293 HD
ENDBRANCH   6  24
BRANCH   8  26
ATOM     26  O   UNL     1    -109.877 -56.237 -28.012  1.00  0.00    -0.508 OA
ATOM     27  H   UNL     1    -108.875 -56.275 -28.160  1.00  0.00     0.293 HD
ENDBRANCH   8  26
TORSDOF 6
ENDMDL
MODEL 2
REMARK VINA RESULT:    -5.217      1.770      2.403
REMARK INTER + INTRA:          -6.592
REMARK INTER:                  -6.289
REMARK INTRA:                  -0.303
REMARK UNBOUND:                -0.308
REMARK SMILES O=c1c(O)c(-c2ccc(O)c(O)c2)oc2cc(O)cc(O)c12
REMARK SMILES IDX 5 1 3 2 2 3 1 4 22 5 20 6 19 7 17 8 16 9 15 10 14 11 6 12
REMARK SMILES IDX 7 13 8 14 9 15 13 16 11 17 10 18 12 20 4 22 21 24 18 26
REMARK H PARENT 10 19 12 21 4 23 21 25 18 27
REMARK Flexibility Score: inf
ROOT
ATOM      1  C   UNL     1    -110.200 -57.050 -23.129  1.00  0.00     0.180 A 
ATOM      2  C   UNL     1    -110.600 -58.133 -23.933  1.00  0.00     0.208 A 
ATOM      3  C   UNL     1    -110.695 -57.950 -25.322  1.00  0.00     0.238 A 
ATOM      4  O   UNL     1    -111.064 -58.911 -26.051  1.00  0.00    -0.285 OA
ATOM      5  C   UNL     1    -110.369 -56.699 -25.883  1.00  0.00     0.111 A 
ATOM      6  C   UNL     1    -110.435 -56.433 -27.272  1.00  0.00     0.134 A 
ATOM      7  C   UNL     1    -110.085 -55.162 -27.754  1.00  0.00     0.093 A 
ATOM      8  C   UNL     1    -109.673 -54.156 -26.878  1.00  0.00     0.123 A 
ATOM      9  C   UNL     1    -109.608 -54.413 -25.504  1.00  0.00     0.094 A 
ATOM     10  C   UNL     1    -109.953 -55.672 -25.004  1.00  0.00     0.146 A 
ATOM     11  O   UNL     1    -109.886 -55.887 -23.696  1.00  0.00    -0.452 OA
ENDROOT
BRANCH   1  12
ATOM     12  C   UNL     1    -110.094 -57.158 -21.656  1.00  0.00     0.025 A 
ATOM     13  C   UNL     1    -111.252 -57.056 -20.873  1.00  0.00     0.016 A 
ATOM     14  C   UNL     1    -111.177 -57.176 -19.483  1.00  0.00     0.051 A 
ATOM     15  C   UNL     1    -109.952 -57.414 -18.851  1.00  0.00     0.157 A 
ATOM     16  C   UNL     1    -108.865 -57.420 -21.027  1.00  0.00     0.062 A 
ATOM     17  C   UNL     1    -108.781 -57.544 -19.635  1.00  0.00     0.158 A 
BRANCH  15  18
ATOM     18  O   UNL     1    -109.945 -57.515 -17.459  1.00  0.00    -0.504 OA
ATOM     19  H   UNL     1    -110.527 -56.958 -16.850  1.00  0.00     0.293 HD
ENDBRANCH  15  18
BRANCH  17  20
ATOM     20  O   UNL     1    -107.526 -57.802 -19.078  1.00  0.00    -0.504 OA
ATOM     21  H   UNL     1    -106.878 -58.487 -19.440  1.00  0.00     0.293 HD
ENDBRANCH  17  20
ENDBRANCH   1  12
BRANCH   2  22
ATOM     22  O   UNL     1    -110.870 -59.378 -23.357  1.00  0.00    -0.502 OA
ATOM     23  H   UNL     1    -111.745 -59.866 -23.503  1.00  0.00     0.293 HD
ENDBRANCH   2  22
BRANCH   6  24
ATOM     24  O   UNL     1    -110.842 -57.416 -28.174  1.00  0.00    -0.507 OA
ATOM     25  H   UNL     1    -111.815 -57.676 -28.276  1.00  0.00     0.293 HD
ENDBRANCH   6  24
BRANCH   8  26
ATOM     26  O   UNL     1    -109.331 -52.903 -27.383  1.00  0.00    -0.508 OA
ATOM     27  H   UNL     1    -109.076 -52.776 -28.355  1.00  0.00     0.293 HD
ENDBRANCH   8  26
TORSDOF 6
ENDMDL
MODEL 3
REMARK VINA RESULT:    -5.117      1.661      6.696
REMARK INTER + INTRA:          -6.472
REMARK INTER:                  -6.140
REMARK INTRA:                  -0.332
REMARK UNBOUND:                -0.308
REMARK SMILES O=c1c(O)c(-c2ccc(O)c(O)c2)oc2cc(O)cc(O)c12
REMARK SMILES IDX 5 1 3 2 2 3 1 4 22 5 20 6 19 7 17 8 16 9 15 10 14 11 6 12
REMARK SMILES IDX 7 13 8 14 9 15 13 16 11 17 10 18 12 20 4 22 21 24 18 26
REMARK H PARENT 10 19 12 21 4 23 21 25 18 27
REMARK Flexibility Score: inf
ROOT
ATOM      1  C   UNL     1    -110.977 -56.875 -24.243  1.00  0.00     0.180 A 
ATOM      2  C   UNL     1    -112.266 -56.717 -23.699  1.00  0.00     0.208 A 
ATOM      3  C   UNL     1    -112.436 -56.824 -22.310  1.00  0.00     0.238 A 
ATOM      4  O   UNL     1    -113.589 -56.695 -21.814  1.00  0.00    -0.285 OA
ATOM      5  C   UNL     1    -111.317 -57.064 -21.489  1.00  0.00     0.111 A 
ATOM      6  C   UNL     1    -111.401 -57.182 -20.080  1.00  0.00     0.134 A 
ATOM      7  C   UNL     1    -110.238 -57.413 -19.330  1.00  0.00     0.093 A 
ATOM      8  C   UNL     1    -108.996 -57.529 -19.958  1.00  0.00     0.123 A 
ATOM      9  C   UNL     1    -108.907 -57.415 -21.350  1.00  0.00     0.094 A 
ATOM     10  C   UNL     1    -110.054 -57.186 -22.115  1.00  0.00     0.146 A 
ATOM     11  O   UNL     1    -109.941 -57.087 -23.434  1.00  0.00    -0.452 OA
ENDROOT
BRANCH   1  12
ATOM     12  C   UNL     1    -110.720 -56.796 -25.699  1.00  0.00     0.025 A 
ATOM     13  C   UNL     1    -110.343 -55.572 -26.266  1.00  0.00     0.016 A 
ATOM     14  C   UNL     1    -110.077 -55.479 -27.634  1.00  0.00     0.051 A 
ATOM     15  C   UNL     1    -110.168 -56.607 -28.458  1.00  0.00     0.157 A 
ATOM     16  C   UNL     1    -110.791 -57.936 -26.518  1.00  0.00     0.062 A 
ATOM     17  C   UNL     1    -110.522 -57.853 -27.889  1.00  0.00     0.158 A 
BRANCH  15  18
ATOM     18  O   UNL     1    -109.896 -56.446 -29.817  1.00  0.00    -0.504 OA
ATOM     19  H   UNL     1    -109.463 -57.153 -30.394  1.00  0.00     0.293 HD
ENDBRANCH  15  18
BRANCH  17  20
ATOM     20  O   UNL     1    -110.613 -59.026 -28.643  1.00  0.00    -0.504 OA
ATOM     21  H   UNL     1    -110.351 -59.094 -29.616  1.00  0.00     0.293 HD
ENDBRANCH  17  20
ENDBRANCH   1  12
BRANCH   2  22
ATOM     22  O   UNL     1    -113.352 -56.429 -24.532  1.00  0.00    -0.502 OA
ATOM     23  H   UNL     1    -114.289 -56.761 -24.336  1.00  0.00     0.293 HD
ENDBRANCH   2  22
BRANCH   6  24
ATOM     24  O   UNL     1    -112.626 -57.070 -19.421  1.00  0.00    -0.507 OA
ATOM     25  H   UNL     1    -112.771 -56.402 -18.675  1.00  0.00     0.293 HD
ENDBRANCH   6  24
BRANCH   8  26
ATOM     26  O   UNL     1    -107.856 -57.758 -19.191  1.00  0.00    -0.508 OA
ATOM     27  H   UNL     1    -106.927 -57.618 -19.568  1.00  0.00     0.293 HD
ENDBRANCH   8  26
TORSDOF 6
ENDMDL
MODEL 4
REMARK VINA RESULT:    -5.115      4.044      7.070
REMARK INTER + INTRA:          -6.469
REMARK INTER:                  -6.702
REMARK INTRA:                   0.233
REMARK UNBOUND:                -0.308
REMARK SMILES O=c1c(O)c(-c2ccc(O)c(O)c2)oc2cc(O)cc(O)c12
REMARK SMILES IDX 5 1 3 2 2 3 1 4 22 5 20 6 19 7 17 8 16 9 15 10 14 11 6 12
REMARK SMILES IDX 7 13 8 14 9 15 13 16 11 17 10 18 12 20 4 22 21 24 18 26
REMARK H PARENT 10 19 12 21 4 23 21 25 18 27
REMARK Flexibility Score: inf
ROOT
ATOM      1  C   UNL     1    -109.846 -53.818 -26.674  1.00  0.00     0.180 A 
ATOM      2  C   UNL     1    -110.294 -54.457 -27.846  1.00  0.00     0.208 A 
ATOM      3  C   UNL     1    -110.629 -55.819 -27.793  1.00  0.00     0.238 A 
ATOM      4  O   UNL     1    -111.021 -56.403 -28.840  1.00  0.00    -0.285 OA
ATOM      5  C   UNL     1    -110.531 -56.512 -26.570  1.00  0.00     0.111 A 
ATOM      6  C   UNL     1    -110.853 -57.884 -26.430  1.00  0.00     0.134 A 
ATOM      7  C   UNL     1    -110.738 -58.501 -25.175  1.00  0.00     0.093 A 
ATOM      8  C   UNL     1    -110.310 -57.776 -24.061  1.00  0.00     0.123 A 
ATOM      9  C   UNL     1    -109.989 -56.421 -24.194  1.00  0.00     0.094 A 
ATOM     10  C   UNL     1    -110.095 -55.788 -25.436  1.00  0.00     0.146 A 
ATOM     11  O   UNL     1    -109.780 -54.502 -25.534  1.00  0.00    -0.452 OA
ENDROOT
BRANCH   1  12
ATOM     12  C   UNL     1    -109.456 -52.390 -26.654  1.00  0.00     0.025 A 
ATOM     13  C   UNL     1    -109.583 -51.658 -25.467  1.00  0.00     0.016 A 
ATOM     14  C   UNL     1    -109.202 -50.315 -25.421  1.00  0.00     0.051 A 
ATOM     15  C   UNL     1    -108.676 -49.682 -26.552  1.00  0.00     0.157 A 
ATOM     16  C   UNL     1    -108.907 -51.765 -27.787  1.00  0.00     0.062 A 
ATOM     17  C   UNL     1    -108.519 -50.421 -27.749  1.00  0.00     0.158 A 
BRANCH  15  18
ATOM     18  O   UNL     1    -108.322 -48.337 -26.442  1.00  0.00    -0.504 OA
ATOM     19  H   UNL     1    -107.503 -48.007 -25.951  1.00  0.00     0.293 HD
ENDBRANCH  15  18
BRANCH  17  20
ATOM     20  O   UNL     1    -107.982 -49.864 -28.913  1.00  0.00    -0.504 OA
ATOM     21  H   UNL     1    -107.736 -50.400 -29.733  1.00  0.00     0.293 HD
ENDBRANCH  17  20
ENDBRANCH   1  12
BRANCH   2  22
ATOM     22  O   UNL     1    -110.430 -53.733 -29.036  1.00  0.00    -0.502 OA
ATOM     23  H   UNL     1    -110.598 -52.735 -29.047  1.00  0.00     0.293 HD
ENDBRANCH   2  22
BRANCH   6  24
ATOM     24  O   UNL     1    -111.285 -58.636 -27.523  1.00  0.00    -0.507 OA
ATOM     25  H   UNL     1    -110.745 -59.413 -27.883  1.00  0.00     0.293 HD
ENDBRANCH   6  24
BRANCH   8  26
ATOM     26  O   UNL     1    -110.205 -58.413 -22.826  1.00  0.00    -0.508 OA
ATOM     27  H   UNL     1    -110.961 -58.975 -22.454  1.00  0.00     0.293 HD
ENDBRANCH   8  26
TORSDOF 6
ENDMDL
MODEL 5
REMARK VINA RESULT:    -5.088      1.985      3.324
REMARK INTER + INTRA:          -6.437
REMARK INTER:                  -6.107
REMARK INTRA:                  -0.329
REMARK UNBOUND:                -0.308
REMARK SMILES O=c1c(O)c(-c2ccc(O)c(O)c2)oc2cc(O)cc(O)c12
REMARK SMILES IDX 5 1 3 2 2 3 1 4 22 5 20 6 19 7 17 8 16 9 15 10 14 11 6 12
REMARK SMILES IDX 7 13 8 14 9 15 13 16 11 17 10 18 12 20 4 22 21 24 18 26
REMARK H PARENT 10 19 12 21 4 23 21 25 18 27
REMARK Flexibility Score: inf
ROOT
ATOM      1  C   UNL     1    -110.462 -56.461 -23.738  1.00  0.00     0.180 A 
ATOM      2  C   UNL     1    -110.311 -55.159 -24.252  1.00  0.00     0.208 A 
ATOM      3  C   UNL     1    -110.294 -54.976 -25.644  1.00  0.00     0.238 A 
ATOM      4  O   UNL     1    -110.148 -53.815 -26.115  1.00  0.00    -0.285 OA
ATOM      5  C   UNL     1    -110.447 -56.089 -26.495  1.00  0.00     0.111 A 
ATOM      6  C   UNL     1    -110.444 -55.989 -27.907  1.00  0.00     0.134 A 
ATOM      7  C   UNL     1    -110.612 -57.145 -28.686  1.00  0.00     0.093 A 
ATOM      8  C   UNL     1    -110.782 -58.393 -28.083  1.00  0.00     0.123 A 
ATOM      9  C   UNL     1    -110.784 -58.497 -26.688  1.00  0.00     0.094 A 
ATOM     10  C   UNL     1    -110.617 -57.358 -25.894  1.00  0.00     0.146 A 
ATOM     11  O   UNL     1    -110.618 -57.487 -24.573  1.00  0.00    -0.452 OA
ENDROOT
BRANCH   1  12
ATOM     12  C   UNL     1    -110.471 -56.738 -22.284  1.00  0.00     0.025 A 
ATOM     13  C   UNL     1    -111.686 -56.725 -21.587  1.00  0.00     0.016 A 
ATOM     14  C   UNL     1    -111.720 -57.003 -20.219  1.00  0.00     0.051 A 
ATOM     15  C   UNL     1    -110.545 -57.314 -19.524  1.00  0.00     0.157 A 
ATOM     16  C   UNL     1    -109.292 -57.073 -21.595  1.00  0.00     0.062 A 
ATOM     17  C   UNL     1    -109.316 -57.356 -20.224  1.00  0.00     0.158 A 
BRANCH  15  18
ATOM     18  O   UNL     1    -110.646 -57.574 -18.157  1.00  0.00    -0.504 OA
ATOM     19  H   UNL     1    -109.852 -57.647 -17.536  1.00  0.00     0.293 HD
ENDBRANCH  15  18
BRANCH  17  20
ATOM     20  O   UNL     1    -108.107 -57.678 -19.604  1.00  0.00    -0.504 OA
ATOM     21  H   UNL     1    -107.501 -58.429 -19.904  1.00  0.00     0.293 HD
ENDBRANCH  17  20
ENDBRANCH   1  12
BRANCH   2  22
ATOM     22  O   UNL     1    -110.211 -54.066 -23.386  1.00  0.00    -0.502 OA
ATOM     23  H   UNL     1    -109.530 -53.328 -23.520  1.00  0.00     0.293 HD
ENDBRANCH   2  22
BRANCH   6  24
ATOM     24  O   UNL     1    -110.278 -54.757 -28.541  1.00  0.00    -0.507 OA
ATOM     25  H   UNL     1    -109.755 -54.004 -28.113  1.00  0.00     0.293 HD
ENDBRANCH   6  24
BRANCH   8  26
ATOM     26  O   UNL     1    -110.947 -59.524 -28.879  1.00  0.00    -0.508 OA
ATOM     27  H   UNL     1    -111.860 -59.935 -29.032  1.00  0.00     0.293 HD
ENDBRANCH   8  26
TORSDOF 6
ENDMDL
MODEL 6
REMARK VINA RESULT:    -5.056      1.673      6.795
REMARK INTER + INTRA:          -6.399
REMARK INTER:                  -6.152
REMARK INTRA:                  -0.246
REMARK UNBOUND:                -0.308
REMARK SMILES O=c1c(O)c(-c2ccc(O)c(O)c2)oc2cc(O)cc(O)c12
REMARK SMILES IDX 5 1 3 2 2 3 1 4 22 5 20 6 19 7 17 8 16 9 15 10 14 11 6 12
REMARK SMILES IDX 7 13 8 14 9 15 13 16 11 17 10 18 12 20 4 22 21 24 18 26
REMARK H PARENT 10 19 12 21 4 23 21 25 18 27
REMARK Flexibility Score: inf
ROOT
ATOM      1  C   UNL     1    -110.325 -57.358 -22.036  1.00  0.00     0.180 A 
ATOM      2  C   UNL     1    -111.494 -57.341 -21.252  1.00  0.00     0.208 A 
ATOM      3  C   UNL     1    -111.375 -57.382 -19.854  1.00  0.00     0.238 A 
ATOM      4  O   UNL     1    -112.416 -57.378 -19.142  1.00  0.00    -0.285 OA
ATOM      5  C   UNL     1    -110.095 -57.418 -19.265  1.00  0.00     0.111 A 
ATOM      6  C   UNL     1    -109.888 -57.457 -17.865  1.00  0.00     0.134 A 
ATOM      7  C   UNL     1    -108.581 -57.482 -17.355  1.00  0.00     0.093 A 
ATOM      8  C   UNL     1    -107.480 -57.469 -18.215  1.00  0.00     0.123 A 
ATOM      9  C   UNL     1    -107.679 -57.433 -19.600  1.00  0.00     0.094 A 
ATOM     10  C   UNL     1    -108.973 -57.408 -20.127  1.00  0.00     0.146 A 
ATOM     11  O   UNL     1    -109.133 -57.378 -21.444  1.00  0.00    -0.452 OA
ENDROOT
BRANCH   1  12
ATOM     12  C   UNL     1    -110.369 -57.337 -23.516  1.00  0.00     0.025 A 
ATOM     13  C   UNL     1    -110.790 -58.479 -24.210  1.00  0.00     0.016 A 
ATOM     14  C   UNL     1    -110.858 -58.474 -25.605  1.00  0.00     0.051 A 
ATOM     15  C   UNL     1    -110.521 -57.327 -26.332  1.00  0.00     0.157 A 
ATOM     16  C   UNL     1    -110.052 -56.176 -24.242  1.00  0.00     0.062 A 
ATOM     17  C   UNL     1    -110.120 -56.160 -25.640  1.00  0.00     0.158 A 
BRANCH  15  18
ATOM     18  O   UNL     1    -110.602 -57.390 -27.724  1.00  0.00    -0.504 OA
ATOM     19  H   UNL     1    -111.371 -57.812 -28.226  1.00  0.00     0.293 HD
ENDBRANCH  15  18
BRANCH  17  20
ATOM     20  O   UNL     1    -109.788 -54.972 -26.295  1.00  0.00    -0.504 OA
ATOM     21  H   UNL     1    -108.995 -54.396 -26.052  1.00  0.00     0.293 HD
ENDBRANCH  17  20
ENDBRANCH   1  12
BRANCH   2  22
ATOM     22  O   UNL     1    -112.751 -57.255 -21.860  1.00  0.00    -0.502 OA
ATOM     23  H   UNL     1    -112.963 -57.718 -22.735  1.00  0.00     0.293 HD
ENDBRANCH   2  22
BRANCH   6  24
ATOM     24  O   UNL     1    -110.966 -57.469 -16.979  1.00  0.00    -0.507 OA
ATOM     25  H   UNL     1    -111.301 -56.624 -16.534  1.00  0.00     0.293 HD
ENDBRANCH   6  24
BRANCH   8  26
ATOM     26  O   UNL     1    -106.193 -57.495 -17.683  1.00  0.00    -0.508 OA
ATOM     27  H   UNL     1    -105.987 -57.095 -16.775  1.00  0.00     0.293 HD
ENDBRANCH   8  26
TORSDOF 6
ENDMDL
MODEL 7
REMARK VINA RESULT:    -5.040      4.204      7.254
REMARK INTER + INTRA:          -6.379
REMARK INTER:                  -6.100
REMARK INTRA:                  -0.278
REMARK UNBOUND:                -0.308
REMARK SMILES O=c1c(O)c(-c2ccc(O)c(O)c2)oc2cc(O)cc(O)c12
REMARK SMILES IDX 5 1 3 2 2 3 1 4 22 5 20 6 19 7 17 8 16 9 15 10 14 11 6 12
REMARK SMILES IDX 7 13 8 14 9 15 13 16 11 17 10 18 12 20 4 22 21 24 18 26
REMARK H PARENT 10 19 12 21 4 23 21 25 18 27
REMARK Flexibility Score: inf
ROOT
ATOM      1  C   UNL     1    -110.024 -53.670 -26.868  1.00  0.00     0.180 A 
ATOM      2  C   UNL     1    -110.204 -53.877 -25.487  1.00  0.00     0.208 A 
ATOM      3  C   UNL     1    -110.465 -55.176 -25.023  1.00  0.00     0.238 A 
ATOM      4  O   UNL     1    -110.639 -55.371 -23.789  1.00  0.00    -0.285 OA
ATOM      5  C   UNL     1    -110.522 -56.244 -25.941  1.00  0.00     0.111 A 
ATOM      6  C   UNL     1    -110.776 -57.583 -25.556  1.00  0.00     0.134 A 
ATOM      7  C   UNL     1    -110.808 -58.594 -26.529  1.00  0.00     0.093 A 
ATOM      8  C   UNL     1    -110.590 -58.293 -27.876  1.00  0.00     0.123 A 
ATOM      9  C   UNL     1    -110.339 -56.972 -28.262  1.00  0.00     0.094 A 
ATOM     10  C   UNL     1    -110.306 -55.951 -27.308  1.00  0.00     0.146 A 
ATOM     11  O   UNL     1    -110.070 -54.705 -27.703  1.00  0.00    -0.452 OA
ENDROOT
BRANCH   1  12
ATOM     12  C   UNL     1    -109.764 -52.327 -27.436  1.00  0.00     0.025 A 
ATOM     13  C   UNL     1    -110.814 -51.614 -28.027  1.00  0.00     0.016 A 
ATOM     14  C   UNL     1    -110.595 -50.338 -28.551  1.00  0.00     0.051 A 
ATOM     15  C   UNL     1    -109.330 -49.745 -28.482  1.00  0.00     0.157 A 
ATOM     16  C   UNL     1    -108.496 -51.726 -27.343  1.00  0.00     0.062 A 
ATOM     17  C   UNL     1    -108.268 -50.446 -27.862  1.00  0.00     0.158 A 
BRANCH  15  18
ATOM     18  O   UNL     1    -109.176 -48.471 -29.031  1.00  0.00    -0.504 OA
ATOM     19  H   UNL     1    -109.697 -47.659 -28.729  1.00  0.00     0.293 HD
ENDBRANCH  15  18
BRANCH  17  20
ATOM     20  O   UNL     1    -106.984 -49.911 -27.736  1.00  0.00    -0.504 OA
ATOM     21  H   UNL     1    -106.136 -50.448 -27.848  1.00  0.00     0.293 HD
ENDBRANCH  17  20
ENDBRANCH   1  12
BRANCH   2  22
ATOM     22  O   UNL     1    -110.093 -52.808 -24.592  1.00  0.00    -0.502 OA
ATOM     23  H   UNL     1    -109.303 -52.703 -23.968  1.00  0.00     0.293 HD
ENDBRANCH   2  22
BRANCH   6  24
ATOM     24  O   UNL     1    -110.997 -57.917 -24.219  1.00  0.00    -0.507 OA
ATOM     25  H   UNL     1    -111.797 -58.466 -23.931  1.00  0.00     0.293 HD
ENDBRANCH   6  24
BRANCH   8  26
ATOM     26  O   UNL     1    -110.626 -59.314 -28.822  1.00  0.00    -0.508 OA
ATOM     27  H   UNL     1    -111.149 -59.219 -29.685  1.00  0.00     0.293 HD
ENDBRANCH   8  26
TORSDOF 6
ENDMDL
MODEL 8
REMARK VINA RESULT:    -5.034      3.830      7.400
REMARK INTER + INTRA:          -6.371
REMARK INTER:                  -6.142
REMARK INTRA:                  -0.229
REMARK UNBOUND:                -0.308
REMARK SMILES O=c1c(O)c(-c2ccc(O)c(O)c2)oc2cc(O)cc(O)c12
REMARK SMILES IDX 5 1 3 2 2 3 1 4 22 5 20 6 19 7 17 8 16 9 15 10 14 11 6 12
REMARK SMILES IDX 7 13 8 14 9 15 13 16 11 17 10 18 12 20 4 22 21 24 18 26
REMARK H PARENT 10 19 12 21 4 23 21 25 18 27
REMARK Flexibility Score: inf
ROOT
ATOM      1  C   UNL     1    -110.097 -54.120 -26.638  1.00  0.00     0.180 A 
ATOM      2  C   UNL     1    -110.217 -55.306 -27.386  1.00  0.00     0.208 A 
ATOM      3  C   UNL     1    -110.333 -56.529 -26.708  1.00  0.00     0.238 A 
ATOM      4  O   UNL     1    -110.431 -57.599 -27.369  1.00  0.00    -0.285 OA
ATOM      5  C   UNL     1    -110.348 -56.544 -25.298  1.00  0.00     0.111 A 
ATOM      6  C   UNL     1    -110.466 -57.733 -24.539  1.00  0.00     0.134 A 
ATOM      7  C   UNL     1    -110.482 -57.665 -23.137  1.00  0.00     0.093 A 
ATOM      8  C   UNL     1    -110.384 -56.435 -22.482  1.00  0.00     0.123 A 
ATOM      9  C   UNL     1    -110.266 -55.257 -23.229  1.00  0.00     0.094 A 
ATOM     10  C   UNL     1    -110.247 -55.305 -24.625  1.00  0.00     0.146 A 
ATOM     11  O   UNL     1    -110.129 -54.172 -25.308  1.00  0.00    -0.452 OA
ENDROOT
BRANCH   1  12
ATOM     12  C   UNL     1    -109.951 -52.794 -27.280  1.00  0.00     0.025 A 
ATOM     13  C   UNL     1    -111.057 -52.208 -27.909  1.00  0.00     0.016 A 
ATOM     14  C   UNL     1    -110.947 -50.949 -28.504  1.00  0.00     0.051 A 
ATOM     15  C   UNL     1    -109.737 -50.246 -28.470  1.00  0.00     0.157 A 
ATOM     16  C   UNL     1    -108.740 -52.082 -27.224  1.00  0.00     0.062 A 
ATOM     17  C   UNL     1    -108.621 -50.818 -27.815  1.00  0.00     0.158 A 
BRANCH  15  18
ATOM     18  O   UNL     1    -109.691 -48.997 -29.090  1.00  0.00    -0.504 OA
ATOM     19  H   UNL     1    -110.489 -48.384 -29.186  1.00  0.00     0.293 HD
ENDBRANCH  15  18
BRANCH  17  20
ATOM     20  O   UNL     1    -107.388 -50.170 -27.722  1.00  0.00    -0.504 OA
ATOM     21  H   UNL     1    -106.541 -50.611 -27.392  1.00  0.00     0.293 HD
ENDBRANCH  17  20
ENDBRANCH   1  12
BRANCH   2  22
ATOM     22  O   UNL     1    -110.250 -55.258 -28.784  1.00  0.00    -0.502 OA
ATOM     23  H   UNL     1    -109.824 -54.506 -29.311  1.00  0.00     0.293 HD
ENDBRANCH   2  22
BRANCH   6  24
ATOM     24  O   UNL     1    -110.567 -58.978 -25.161  1.00  0.00    -0.507 OA
ATOM     25  H   UNL     1    -111.427 -59.289 -25.596  1.00  0.00     0.293 HD
ENDBRANCH   6  24
BRANCH   8  26
ATOM     26  O   UNL     1    -110.403 -56.394 -21.090  1.00  0.00    -0.508 OA
ATOM     27  H   UNL     1    -110.600 -57.221 -20.539  1.00  0.00     0.293 HD
ENDBRANCH   8  26
TORSDOF 6
ENDMDL
MODEL 9
REMARK VINA RESULT:    -4.989      6.101      9.532
REMARK INTER + INTRA:          -6.317
REMARK INTER:                  -6.236
REMARK INTRA:                  -0.081
REMARK UNBOUND:                -0.308
REMARK SMILES O=c1c(O)c(-c2ccc(O)c(O)c2)oc2cc(O)cc(O)c12
REMARK SMILES IDX 5 1 3 2 2 3 1 4 22 5 20 6 19 7 17 8 16 9 15 10 14 11 6 12
REMARK SMILES IDX 7 13 8 14 9 15 13 16 11 17 10 18 12 20 4 22 21 24 18 26
REMARK H PARENT 10 19 12 21 4 23 21 25 18 27
REMARK Flexibility Score: inf
ROOT
ATOM      1  C   UNL     1    -109.467 -51.742 -26.975  1.00  0.00     0.180 A 
ATOM      2  C   UNL     1    -109.121 -50.858 -28.014  1.00  0.00     0.208 A 
ATOM      3  C   UNL     1    -108.975 -49.492 -27.724  1.00  0.00     0.238 A 
ATOM      4  O   UNL     1    -108.676 -48.690 -28.650  1.00  0.00    -0.285 OA
ATOM      5  C   UNL     1    -109.155 -49.038 -26.402  1.00  0.00     0.111 A 
ATOM      6  C   UNL     1    -109.023 -47.680 -26.025  1.00  0.00     0.134 A 
ATOM      7  C   UNL     1    -109.209 -47.308 -24.685  1.00  0.00     0.093 A 
ATOM      8  C   UNL     1    -109.524 -48.265 -23.717  1.00  0.00     0.123 A 
ATOM      9  C   UNL     1    -109.658 -49.608 -24.084  1.00  0.00     0.094 A 
ATOM     10  C   UNL     1    -109.478 -49.998 -25.414  1.00  0.00     0.146 A 
ATOM     11  O   UNL     1    -109.615 -51.279 -25.735  1.00  0.00    -0.452 OA
ENDROOT
BRANCH   1  12
ATOM     12  C   UNL     1    -109.658 -53.192 -27.205  1.00  0.00     0.025 A 
ATOM     13  C   UNL     1    -108.969 -54.114 -26.404  1.00  0.00     0.016 A 
ATOM     14  C   UNL     1    -109.150 -55.486 -26.591  1.00  0.00     0.051 A 
ATOM     15  C   UNL     1    -110.030 -55.964 -27.568  1.00  0.00     0.157 A 
ATOM     16  C   UNL     1    -110.560 -53.668 -28.172  1.00  0.00     0.062 A 
ATOM     17  C   UNL     1    -110.750 -55.041 -28.364  1.00  0.00     0.158 A 
BRANCH  15  18
ATOM     18  O   UNL     1    -110.160 -57.346 -27.710  1.00  0.00    -0.504 OA
ATOM     19  H   UNL     1    -110.901 -57.793 -28.232  1.00  0.00     0.293 HD
ENDBRANCH  15  18
BRANCH  17  20
ATOM     20  O   UNL     1    -111.661 -55.442 -29.345  1.00  0.00    -0.504 OA
ATOM     21  H   UNL     1    -112.051 -54.822 -30.040  1.00  0.00     0.293 HD
ENDBRANCH  17  20
ENDBRANCH   1  12
BRANCH   2  22
ATOM     22  O   UNL     1    -108.899 -51.341 -29.307  1.00  0.00    -0.502 OA
ATOM     23  H   UNL     1    -109.395 -50.982 -30.114  1.00  0.00     0.293 HD
ENDBRANCH   2  22
BRANCH   6  24
ATOM     24  O   UNL     1    -108.708 -46.700 -26.967  1.00  0.00    -0.507 OA
ATOM     25  H   UNL     1    -107.962 -46.033 -26.814  1.00  0.00     0.293 HD
ENDBRANCH   6  24
BRANCH   8  26
ATOM     26  O   UNL     1    -109.704 -47.869 -22.393  1.00  0.00    -0.508 OA
ATOM     27  H   UNL     1    -108.993 -47.346 -21.896  1.00  0.00     0.293 HD
ENDBRANCH   8  26
TORSDOF 6
ENDMDL
