MODEL 1
REMARK VINA RESULT:    -4.801      0.000      0.000
REMARK INTER + INTRA:          -7.722
REMARK INTER:                  -7.046
REMARK INTRA:                  -0.676
REMARK UNBOUND:                -0.676
REMARK SMILES O=C([O-])CCCCCCCC(=O)[O-]
REMARK SMILES IDX 7 1 6 2 5 3 4 4 2 5 1 6 3 7 8 8 9 9 10 10 11 11 12 12 13 13
REMARK H PARENT
REMARK Flexibility Score: inf
ROOT
ATOM      1  C   UNL     1      16.651  43.364   4.234  1.00  0.00     0.000 C 
ENDROOT
BRANCH   1   2
ATOM      2  C   UNL     1      15.244  43.722   3.734  1.00  0.00     0.000 C 
BRANCH   2   3
ATOM      3  C   UNL     1      15.091  45.239   3.568  1.00  0.00     0.006 C 
BRANCH   3   4
ATOM      4  C   UNL     1      14.276  45.838   4.718  1.00  0.00     0.053 C 
BRANCH   4   5
ATOM      5  C   UNL     1      12.811  45.678   4.462  1.00  0.00     0.041 C 
ATOM      6  O   UNL     1      12.141  44.835   5.115  1.00  0.00    -0.550 OA
ATOM      7  O   UNL     1      12.174  46.495   3.536  1.00  0.00    -0.550 OA
ENDBRANCH   4   5
ENDBRANCH   3   4
ENDBRANCH   2   3
ENDBRANCH   1   2
BRANCH   1   8
ATOM      8  C   UNL     1      16.677  43.018   5.732  1.00  0.00     0.000 C 
BRANCH   8   9
ATOM      9  C   UNL     1      17.733  43.822   6.506  1.00  0.00     0.006 C 
BRANCH   9  10
ATOM     10  C   UNL     1      17.116  45.080   7.126  1.00  0.00     0.053 C 
BRANCH  10  11
ATOM     11  C   UNL     1      16.125  44.711   8.185  1.00  0.00     0.041 C 
ATOM     12  O   UNL     1      14.937  45.118   8.108  1.00  0.00    -0.550 OA
ATOM     13  O   UNL     1      16.527  43.960   9.281  1.00  0.00    -0.550 OA
ENDBRANCH  10  11
ENDBRANCH   9  10
ENDBRANCH   8   9
ENDBRANCH   1   8
TORSDOF 8
ENDMDL
MODEL 2
REMARK VINA RESULT:    -4.800      0.147      4.572
REMARK INTER + INTRA:          -7.720
REMARK INTER:                  -7.035
REMARK INTRA:                  -0.685
REMARK UNBOUND:                -0.676
REMARK SMILES O=C([O-])CCCCCCCC(=O)[O-]
REMARK SMILES IDX 7 1 6 2 5 3 4 4 2 5 1 6 3 7 8 8 9 9 10 10 11 11 12 12 13 13
REMARK H PARENT
REMARK Flexibility Score: inf
ROOT
ATOM      1  C   UNL     1      16.732  43.330   4.231  1.00  0.00     0.000 C 
ENDROOT
BRANCH   1   2
ATOM      2  C   UNL     1      16.684  42.985   5.727  1.00  0.00     0.000 C 
BRANCH   2   3
ATOM      3  C   UNL     1      17.714  43.807   6.512  1.00  0.00     0.006 C 
BRANCH   3   4
ATOM      4  C   UNL     1      17.085  45.086   7.072  1.00  0.00     0.053 C 
BRANCH   4   5
ATOM      5  C   UNL     1      16.137  44.760   8.184  1.00  0.00     0.041 C 
ATOM      6  O   UNL     1      14.935  45.128   8.122  1.00  0.00    -0.550 OA
ATOM      7  O   UNL     1      16.570  44.005   9.267  1.00  0.00    -0.550 OA
ENDBRANCH   4   5
ENDBRANCH   3   4
ENDBRANCH   2   3
ENDBRANCH   1   2
BRANCH   1   8
ATOM      8  C   UNL     1      15.355  43.723   3.670  1.00  0.00     0.000 C 
BRANCH   8   9
ATOM      9  C   UNL     1      15.169  45.245   3.571  1.00  0.00     0.006 C 
BRANCH   9  10
ATOM     10  C   UNL     1      14.258  45.757   4.691  1.00  0.00     0.053 C 
BRANCH  10  11
ATOM     11  C   UNL     1      12.821  45.519   4.348  1.00  0.00     0.041 C 
ATOM     12  O   UNL     1      12.229  46.279   3.539  1.00  0.00    -0.550 OA
ATOM     13  O   UNL     1      12.122  44.488   4.962  1.00  0.00    -0.550 OA
ENDBRANCH  10  11
ENDBRANCH   9  10
ENDBRANCH   8   9
ENDBRANCH   1   8
TORSDOF 8
ENDMDL
MODEL 3
REMARK VINA RESULT:    -4.723      1.632      2.298
REMARK INTER + INTRA:          -7.608
REMARK INTER:                  -6.747
REMARK INTRA:                  -0.862
REMARK UNBOUND:                -0.676
REMARK SMILES O=C([O-])CCCCCCCC(=O)[O-]
REMARK SMILES IDX 7 1 6 2 5 3 4 4 2 5 1 6 3 7 8 8 9 9 10 10 11 11 12 12 13 13
REMARK H PARENT
REMARK Flexibility Score: inf
ROOT
ATOM      1  C   UNL     1      15.293  43.700   3.648  1.00  0.00     0.000 C 
ENDROOT
BRANCH   1   2
ATOM      2  C   UNL     1      15.066  45.218   3.636  1.00  0.00     0.000 C 
BRANCH   2   3
ATOM      3  C   UNL     1      13.901  45.605   4.554  1.00  0.00     0.006 C 
BRANCH   3   4
ATOM      4  C   UNL     1      14.404  45.981   5.951  1.00  0.00     0.053 C 
BRANCH   4   5
ATOM      5  C   UNL     1      13.725  45.150   6.994  1.00  0.00     0.041 C 
ATOM      6  O   UNL     1      13.519  43.924   6.794  1.00  0.00    -0.550 OA
ATOM      7  O   UNL     1      13.363  45.718   8.209  1.00  0.00    -0.550 OA
ENDBRANCH   4   5
ENDBRANCH   3   4
ENDBRANCH   2   3
ENDBRANCH   1   2
BRANCH   1   8
ATOM      8  C   UNL     1      16.693  43.314   4.153  1.00  0.00     0.000 C 
BRANCH   8   9
ATOM      9  C   UNL     1      16.711  42.984   5.653  1.00  0.00     0.006 C 
BRANCH   9  10
ATOM     10  C   UNL     1      17.578  43.985   6.422  1.00  0.00     0.053 C 
BRANCH  10  11
ATOM     11  C   UNL     1      17.322  43.879   7.893  1.00  0.00     0.041 C 
ATOM     12  O   UNL     1      17.538  42.796   8.497  1.00  0.00    -0.550 OA
ATOM     13  O   UNL     1      16.797  44.961   8.587  1.00  0.00    -0.550 OA
ENDBRANCH  10  11
ENDBRANCH   9  10
ENDBRANCH   8   9
ENDBRANCH   1   8
TORSDOF 8
ENDMDL
MODEL 4
REMARK VINA RESULT:    -4.689      1.465      4.185
REMARK INTER + INTRA:          -7.558
REMARK INTER:                  -6.667
REMARK INTRA:                  -0.891
REMARK UNBOUND:                -0.676
REMARK SMILES O=C([O-])CCCCCCCC(=O)[O-]
REMARK SMILES IDX 7 1 6 2 5 3 4 4 2 5 1 6 3 7 8 8 9 9 10 10 11 11 12 12 13 13
REMARK H PARENT
REMARK Flexibility Score: inf
ROOT
ATOM      1  C   UNL     1      15.276  43.725   3.652  1.00  0.00     0.000 C 
ENDROOT
BRANCH   1   2
ATOM      2  C   UNL     1      16.647  43.377   4.249  1.00  0.00     0.000 C 
BRANCH   2   3
ATOM      3  C   UNL     1      16.512  42.936   5.712  1.00  0.00     0.006 C 
BRANCH   3   4
ATOM      4  C   UNL     1      17.475  43.716   6.612  1.00  0.00     0.053 C 
BRANCH   4   5
ATOM      5  C   UNL     1      16.837  44.007   7.934  1.00  0.00     0.041 C 
ATOM      6  O   UNL     1      16.896  45.165   8.425  1.00  0.00    -0.550 OA
ATOM      7  O   UNL     1      16.133  43.012   8.600  1.00  0.00    -0.550 OA
ENDBRANCH   4   5
ENDBRANCH   3   4
ENDBRANCH   2   3
ENDBRANCH   1   2
BRANCH   1   8
ATOM      8  C   UNL     1      15.022  45.240   3.594  1.00  0.00     0.000 C 
BRANCH   8   9
ATOM      9  C   UNL     1      13.803  45.668   4.425  1.00  0.00     0.006 C 
BRANCH   9  10
ATOM     10  C   UNL     1      14.225  46.101   5.832  1.00  0.00     0.053 C 
BRANCH  10  11
ATOM     11  C   UNL     1      13.624  45.197   6.862  1.00  0.00     0.041 C 
ATOM     12  O   UNL     1      13.191  44.062   6.532  1.00  0.00    -0.550 OA
ATOM     13  O   UNL     1      13.496  45.628   8.175  1.00  0.00    -0.550 OA
ENDBRANCH  10  11
ENDBRANCH   9  10
ENDBRANCH   8   9
ENDBRANCH   1   8
TORSDOF 8
ENDMDL
MODEL 5
REMARK VINA RESULT:    -4.628      1.555      2.053
REMARK INTER + INTRA:          -7.469
REMARK INTER:                  -6.623
REMARK INTRA:                  -0.846
REMARK UNBOUND:                -0.676
REMARK SMILES O=C([O-])CCCCCCCC(=O)[O-]
REMARK SMILES IDX 7 1 6 2 5 3 4 4 2 5 1 6 3 7 8 8 9 9 10 10 11 11 12 12 13 13
REMARK H PARENT
REMARK Flexibility Score: inf
ROOT
ATOM      1  C   UNL     1      15.239  43.677   3.999  1.00  0.00     0.000 C 
ENDROOT
BRANCH   1   2
ATOM      2  C   UNL     1      15.025  45.156   3.644  1.00  0.00     0.000 C 
BRANCH   2   3
ATOM      3  C   UNL     1      13.797  45.721   4.369  1.00  0.00     0.006 C 
BRANCH   3   4
ATOM      4  C   UNL     1      14.173  46.246   5.758  1.00  0.00     0.053 C 
BRANCH   4   5
ATOM      5  C   UNL     1      13.152  45.829   6.769  1.00  0.00     0.041 C 
ATOM      6  O   UNL     1      12.681  46.669   7.579  1.00  0.00    -0.550 OA
ATOM      7  O   UNL     1      12.684  44.521   6.785  1.00  0.00    -0.550 OA
ENDBRANCH   4   5
ENDBRANCH   3   4
ENDBRANCH   2   3
ENDBRANCH   1   2
BRANCH   1   8
ATOM      8  C   UNL     1      16.720  43.329   4.222  1.00  0.00     0.000 C 
BRANCH   8   9
ATOM      9  C   UNL     1      17.133  43.420   5.699  1.00  0.00     0.006 C 
BRANCH   9  10
ATOM     10  C   UNL     1      16.005  42.928   6.612  1.00  0.00     0.053 C 
BRANCH  10  11
ATOM     11  C   UNL     1      15.983  43.714   7.886  1.00  0.00     0.041 C 
ATOM     12  O   UNL     1      15.213  43.378   8.823  1.00  0.00    -0.550 OA
ATOM     13  O   UNL     1      16.775  44.847   8.018  1.00  0.00    -0.550 OA
ENDBRANCH  10  11
ENDBRANCH   9  10
ENDBRANCH   8   9
ENDBRANCH   1   8
TORSDOF 8
ENDMDL
MODEL 6
REMARK VINA RESULT:    -4.619      1.873      4.458
REMARK INTER + INTRA:          -7.455
REMARK INTER:                  -6.576
REMARK INTRA:                  -0.879
REMARK UNBOUND:                -0.676
REMARK SMILES O=C([O-])CCCCCCCC(=O)[O-]
REMARK SMILES IDX 7 1 6 2 5 3 4 4 2 5 1 6 3 7 8 8 9 9 10 10 11 11 12 12 13 13
REMARK H PARENT
REMARK Flexibility Score: inf
ROOT
ATOM      1  C   UNL     1      15.437  43.604   3.618  1.00  0.00     0.000 C 
ENDROOT
BRANCH   1   2
ATOM      2  C   UNL     1      16.797  43.396   4.299  1.00  0.00     0.000 C 
BRANCH   2   3
ATOM      3  C   UNL     1      16.701  43.656   5.807  1.00  0.00     0.006 C 
BRANCH   3   4
ATOM      4  C   UNL     1      15.999  42.496   6.521  1.00  0.00     0.053 C 
BRANCH   4   5
ATOM      5  C   UNL     1      14.909  43.010   7.408  1.00  0.00     0.041 C 
ATOM      6  O   UNL     1      14.305  42.229   8.188  1.00  0.00    -0.550 OA
ATOM      7  O   UNL     1      14.594  44.363   7.409  1.00  0.00    -0.550 OA
ENDBRANCH   4   5
ENDBRANCH   3   4
ENDBRANCH   2   3
ENDBRANCH   1   2
BRANCH   1   8
ATOM      8  C   UNL     1      14.815  44.973   3.941  1.00  0.00     0.000 C 
BRANCH   8   9
ATOM      9  C   UNL     1      13.287  44.911   4.080  1.00  0.00     0.006 C 
BRANCH   9  10
ATOM     10  C   UNL     1      12.763  43.513   3.733  1.00  0.00     0.053 C 
BRANCH  10  11
ATOM     11  C   UNL     1      12.195  42.850   4.949  1.00  0.00     0.041 C 
ATOM     12  O   UNL     1      11.696  43.543   5.873  1.00  0.00    -0.550 OA
ATOM     13  O   UNL     1      12.262  41.470   5.082  1.00  0.00    -0.550 OA
ENDBRANCH  10  11
ENDBRANCH   9  10
ENDBRANCH   8   9
ENDBRANCH   1   8
TORSDOF 8
ENDMDL
MODEL 7
REMARK VINA RESULT:    -4.526      1.765      2.246
REMARK INTER + INTRA:          -7.318
REMARK INTER:                  -6.609
REMARK INTRA:                  -0.709
REMARK UNBOUND:                -0.676
REMARK SMILES O=C([O-])CCCCCCCC(=O)[O-]
REMARK SMILES IDX 7 1 6 2 5 3 4 4 2 5 1 6 3 7 8 8 9 9 10 10 11 11 12 12 13 13
REMARK H PARENT
REMARK Flexibility Score: inf
ROOT
ATOM      1  C   UNL     1      16.457  43.993   4.209  1.00  0.00     0.000 C 
ENDROOT
BRANCH   1   2
ATOM      2  C   UNL     1      15.019  43.862   3.688  1.00  0.00     0.000 C 
BRANCH   2   3
ATOM      3  C   UNL     1      14.051  44.699   4.533  1.00  0.00     0.006 C 
BRANCH   3   4
ATOM      4  C   UNL     1      12.686  44.015   4.644  1.00  0.00     0.053 C 
BRANCH   4   5
ATOM      5  C   UNL     1      12.824  42.672   5.288  1.00  0.00     0.041 C 
ATOM      6  O   UNL     1      12.357  41.647   4.725  1.00  0.00    -0.550 OA
ATOM      7  O   UNL     1      13.513  42.543   6.488  1.00  0.00    -0.550 OA
ENDBRANCH   4   5
ENDBRANCH   3   4
ENDBRANCH   2   3
ENDBRANCH   1   2
BRANCH   1   8
ATOM      8  C   UNL     1      16.721  43.122   5.448  1.00  0.00     0.000 C 
BRANCH   8   9
ATOM      9  C   UNL     1      17.707  43.773   6.430  1.00  0.00     0.006 C 
BRANCH   9  10
ATOM     10  C   UNL     1      17.130  45.069   7.006  1.00  0.00     0.053 C 
BRANCH  10  11
ATOM     11  C   UNL     1      16.127  44.767   8.075  1.00  0.00     0.041 C 
ATOM     12  O   UNL     1      16.451  44.062   9.065  1.00  0.00    -0.550 OA
ATOM     13  O   UNL     1      14.821  45.221   7.951  1.00  0.00    -0.550 OA
ENDBRANCH  10  11
ENDBRANCH   9  10
ENDBRANCH   8   9
ENDBRANCH   1   8
TORSDOF 8
ENDMDL
MODEL 8
REMARK VINA RESULT:    -4.423      2.037      4.225
REMARK INTER + INTRA:          -7.168
REMARK INTER:                  -6.413
REMARK INTRA:                  -0.755
REMARK UNBOUND:                -0.676
REMARK SMILES O=C([O-])CCCCCCCC(=O)[O-]
REMARK SMILES IDX 7 1 6 2 5 3 4 4 2 5 1 6 3 7 8 8 9 9 10 10 11 11 12 12 13 13
REMARK H PARENT
REMARK Flexibility Score: inf
ROOT
ATOM      1  C   UNL     1      12.995  44.200   3.616  1.00  0.00     0.000 C 
ENDROOT
BRANCH   1   2
ATOM      2  C   UNL     1      14.288  43.374   3.553  1.00  0.00     0.000 C 
BRANCH   2   3
ATOM      3  C   UNL     1      15.502  44.227   3.941  1.00  0.00     0.006 C 
BRANCH   3   4
ATOM      4  C   UNL     1      16.735  43.351   4.182  1.00  0.00     0.053 C 
BRANCH   4   5
ATOM      5  C   UNL     1      16.965  43.161   5.648  1.00  0.00     0.041 C 
ATOM      6  O   UNL     1      17.939  43.721   6.216  1.00  0.00    -0.550 OA
ATOM      7  O   UNL     1      16.074  42.403   6.399  1.00  0.00    -0.550 OA
ENDBRANCH   4   5
ENDBRANCH   3   4
ENDBRANCH   2   3
ENDBRANCH   1   2
BRANCH   1   8
ATOM      8  C   UNL     1      13.246  45.667   4.001  1.00  0.00     0.000 C 
BRANCH   8   9
ATOM      9  C   UNL     1      12.312  46.152   5.120  1.00  0.00     0.006 C 
BRANCH   9  10
ATOM     10  C   UNL     1      13.116  46.620   6.338  1.00  0.00     0.053 C 
BRANCH  10  11
ATOM     11  C   UNL     1      13.841  45.469   6.961  1.00  0.00     0.041 C 
ATOM     12  O   UNL     1      15.070  45.557   7.214  1.00  0.00    -0.550 OA
ATOM     13  O   UNL     1      13.169  44.280   7.216  1.00  0.00    -0.550 OA
ENDBRANCH  10  11
ENDBRANCH   9  10
ENDBRANCH   8   9
ENDBRANCH   1   8
TORSDOF 8
ENDMDL
MODEL 9
REMARK VINA RESULT:    -4.313      2.174      4.385
REMARK INTER + INTRA:          -7.006
REMARK INTER:                  -6.263
REMARK INTRA:                  -0.743
REMARK UNBOUND:                -0.676
REMARK SMILES O=C([O-])CCCCCCCC(=O)[O-]
REMARK SMILES IDX 7 1 6 2 5 3 4 4 2 5 1 6 3 7 8 8 9 9 10 10 11 11 12 12 13 13
REMARK H PARENT
REMARK Flexibility Score: inf
ROOT
ATOM      1  C   UNL     1      13.562  45.614   4.030  1.00  0.00     0.000 C 
ENDROOT
BRANCH   1   2
ATOM      2  C   UNL     1      14.984  45.238   3.588  1.00  0.00     0.000 C 
BRANCH   2   3
ATOM      3  C   UNL     1      15.187  43.719   3.629  1.00  0.00     0.006 C 
BRANCH   3   4
ATOM      4  C   UNL     1      16.557  43.363   4.212  1.00  0.00     0.053 C 
BRANCH   4   5
ATOM      5  C   UNL     1      16.520  43.414   5.707  1.00  0.00     0.041 C 
ATOM      6  O   UNL     1      15.918  42.520   6.358  1.00  0.00    -0.550 OA
ATOM      7  O   UNL     1      17.194  44.423   6.385  1.00  0.00    -0.550 OA
ENDBRANCH   4   5
ENDBRANCH   3   4
ENDBRANCH   2   3
ENDBRANCH   1   2
BRANCH   1   8
ATOM      8  C   UNL     1      13.549  46.575   5.230  1.00  0.00     0.000 C 
BRANCH   8   9
ATOM      9  C   UNL     1      13.757  45.851   6.569  1.00  0.00     0.006 C 
BRANCH   9  10
ATOM     10  C   UNL     1      12.849  44.622   6.673  1.00  0.00     0.053 C 
BRANCH  10  11
ATOM     11  C   UNL     1      11.518  44.999   7.245  1.00  0.00     0.041 C 
ATOM     12  O   UNL     1      11.426  45.964   8.047  1.00  0.00    -0.550 OA
ATOM     13  O   UNL     1      10.390  44.254   6.931  1.00  0.00    -0.550 OA
ENDBRANCH  10  11
ENDBRANCH   9  10
ENDBRANCH   8   9
ENDBRANCH   1   8
TORSDOF 8
ENDMDL
