MODEL 1
REMARK VINA RESULT:    -7.234      0.000      0.000
REMARK INTER + INTRA:          -9.109
REMARK INTER:                  -8.714
REMARK INTRA:                  -0.395
REMARK UNBOUND:                -0.395
REMARK SMILES Oc1cc(O)c2c(c1)O[C@@H](c1ccc(O)c(O)c1)[C@@H](O)C2
REMARK SMILES IDX 21 1 19 2 10 3 9 4 7 5 8 6 2 7 3 8 4 9 6 10 20 11 11 13
REMARK SMILES IDX 18 14 12 15 16 16 13 17 14 18 17 19 15 21 5 23 1 25
REMARK H PARENT 20 12 17 20 15 22 5 24 1 26
REMARK Flexibility Score: inf
ROOT
ATOM      1  C   UNL     1      50.649  31.100  66.234  1.00  0.00     0.079 C 
ATOM      2  C   UNL     1      51.095  31.580  64.839  1.00  0.00     0.164 C 
ATOM      3  C   UNL     1      50.036  31.185  63.797  1.00  0.00     0.232 C 
ATOM      4  O   UNL     1      48.770  31.738  64.158  1.00  0.00    -0.482 OA
ATOM      5  C   UNL     1      48.332  31.783  65.487  1.00  0.00     0.131 A 
ATOM      6  C   UNL     1      47.012  32.156  65.753  1.00  0.00     0.093 A 
ATOM      7  C   UNL     1      46.543  32.194  67.070  1.00  0.00     0.122 A 
ATOM      8  C   UNL     1      47.395  31.847  68.122  1.00  0.00     0.092 A 
ATOM      9  C   UNL     1      48.721  31.471  67.872  1.00  0.00     0.126 A 
ATOM     10  C   UNL     1      49.213  31.474  66.546  1.00  0.00     0.039 A 
ENDROOT
BRANCH   2  11
ATOM     11  O   UNL     1      51.262  32.976  64.846  1.00  0.00    -0.389 OA
ATOM     12  H   UNL     1      50.870  33.308  65.695  1.00  0.00     0.211 HD
ENDBRANCH   2  11
BRANCH   3  13
ATOM     13  C   UNL     1      50.433  31.629  62.408  1.00  0.00    -0.001 A 
ATOM     14  C   UNL     1      49.634  32.555  61.715  1.00  0.00     0.057 A 
ATOM     15  C   UNL     1      51.559  31.084  61.768  1.00  0.00     0.012 A 
ATOM     16  C   UNL     1      49.966  32.952  60.415  1.00  0.00     0.157 A 
ATOM     17  C   UNL     1      51.894  31.479  60.470  1.00  0.00     0.050 A 
ATOM     18  C   UNL     1      51.104  32.414  59.789  1.00  0.00     0.157 A 
BRANCH  16  19
ATOM     19  O   UNL     1      49.155  33.879  59.762  1.00  0.00    -0.504 OA
ATOM     20  H   UNL     1      49.435  34.845  59.635  1.00  0.00     0.293 HD
ENDBRANCH  16  19
BRANCH  18  21
ATOM     21  O   UNL     1      51.440  32.806  58.495  1.00  0.00    -0.504 OA
ATOM     22  H   UNL     1      51.589  32.128  57.756  1.00  0.00     0.293 HD
ENDBRANCH  18  21
ENDBRANCH   3  13
BRANCH   9  23
ATOM     23  O   UNL     1      49.510  31.092  68.961  1.00  0.00    -0.507 OA
ATOM     24  H   UNL     1      50.500  30.896  68.888  1.00  0.00     0.293 HD
ENDBRANCH   9  23
BRANCH   7  25
ATOM     25  O   UNL     1      45.229  32.566  67.346  1.00  0.00    -0.508 OA
ATOM     26  H   UNL     1      44.711  33.180  66.727  1.00  0.00     0.293 HD
ENDBRANCH   7  25
TORSDOF 6
ENDMDL
MODEL 2
REMARK VINA RESULT:    -7.054      2.059      6.963
REMARK INTER + INTRA:          -8.891
REMARK INTER:                  -8.574
REMARK INTRA:                  -0.317
REMARK UNBOUND:                -0.395
REMARK SMILES Oc1cc(O)c2c(c1)O[C@@H](c1ccc(O)c(O)c1)[C@@H](O)C2
REMARK SMILES IDX 21 1 19 2 10 3 9 4 7 5 8 6 2 7 3 8 4 9 6 10 20 11 11 13
REMARK SMILES IDX 18 14 12 15 16 16 13 17 14 18 17 19 15 21 5 23 1 25
REMARK H PARENT 20 12 17 20 15 22 5 24 1 26
REMARK Flexibility Score: inf
ROOT
ATOM      1  C   UNL     1      49.086  28.906  63.434  1.00  0.00     0.079 C 
ATOM      2  C   UNL     1      48.397  29.757  64.518  1.00  0.00     0.164 C 
ATOM      3  C   UNL     1      49.381  30.813  65.045  1.00  0.00     0.232 C 
ATOM      4  O   UNL     1      49.847  31.624  63.966  1.00  0.00    -0.482 OA
ATOM      5  C   UNL     1      50.145  31.085  62.709  1.00  0.00     0.131 A 
ATOM      6  C   UNL     1      50.778  31.890  61.758  1.00  0.00     0.093 A 
ATOM      7  C   UNL     1      51.101  31.373  60.500  1.00  0.00     0.122 A 
ATOM      8  C   UNL     1      50.801  30.043  60.197  1.00  0.00     0.092 A 
ATOM      9  C   UNL     1      50.168  29.221  61.138  1.00  0.00     0.126 A 
ATOM     10  C   UNL     1      49.798  29.752  62.396  1.00  0.00     0.039 A 
ENDROOT
BRANCH   2  11
ATOM     11  O   UNL     1      47.261  30.387  63.980  1.00  0.00    -0.389 OA
ATOM     12  H   UNL     1      46.478  29.830  64.228  1.00  0.00     0.211 HD
ENDBRANCH   2  11
BRANCH   3  13
ATOM     13  C   UNL     1      48.752  31.671  66.119  1.00  0.00    -0.001 A 
ATOM     14  C   UNL     1      47.999  31.070  67.142  1.00  0.00     0.057 A 
ATOM     15  C   UNL     1      48.854  33.072  66.079  1.00  0.00     0.012 A 
ATOM     16  C   UNL     1      47.380  31.850  68.125  1.00  0.00     0.157 A 
ATOM     17  C   UNL     1      48.238  33.854  67.059  1.00  0.00     0.050 A 
ATOM     18  C   UNL     1      47.501  33.249  68.086  1.00  0.00     0.157 A 
BRANCH  16  19
ATOM     19  O   UNL     1      46.647  31.218  69.130  1.00  0.00    -0.504 OA
ATOM     20  H   UNL     1      45.650  31.058  69.050  1.00  0.00     0.293 HD
ENDBRANCH  16  19
BRANCH  18  21
ATOM     21  O   UNL     1      46.888  34.032  69.063  1.00  0.00    -0.504 OA
ATOM     22  H   UNL     1      45.879  34.098  69.133  1.00  0.00     0.293 HD
ENDBRANCH  18  21
ENDBRANCH   3  13
BRANCH   9  23
ATOM     23  O   UNL     1      49.935  27.888  60.793  1.00  0.00    -0.507 OA
ATOM     24  H   UNL     1      50.559  27.132  61.043  1.00  0.00     0.293 HD
ENDBRANCH   9  23
BRANCH   7  25
ATOM     25  O   UNL     1      51.731  32.169  59.545  1.00  0.00    -0.508 OA
ATOM     26  H   UNL     1      51.758  33.179  59.632  1.00  0.00     0.293 HD
ENDBRANCH   7  25
TORSDOF 6
ENDMDL
MODEL 3
REMARK VINA RESULT:    -6.808      1.268      6.882
REMARK INTER + INTRA:          -8.596
REMARK INTER:                  -8.347
REMARK INTRA:                  -0.250
REMARK UNBOUND:                -0.395
REMARK SMILES Oc1cc(O)c2c(c1)O[C@@H](c1ccc(O)c(O)c1)[C@@H](O)C2
REMARK SMILES IDX 21 1 19 2 10 3 9 4 7 5 8 6 2 7 3 8 4 9 6 10 20 11 11 13
REMARK SMILES IDX 18 14 12 15 16 16 13 17 14 18 17 19 15 21 5 23 1 25
REMARK H PARENT 20 12 17 20 15 22 5 24 1 26
REMARK Flexibility Score: inf
ROOT
ATOM      1  C   UNL     1      51.927  31.512  63.441  1.00  0.00     0.079 C 
ATOM      2  C   UNL     1      50.995  31.200  64.628  1.00  0.00     0.164 C 
ATOM      3  C   UNL     1      49.989  32.349  64.805  1.00  0.00     0.232 C 
ATOM      4  O   UNL     1      49.250  32.539  63.598  1.00  0.00    -0.482 OA
ATOM      5  C   UNL     1      49.852  32.444  62.338  1.00  0.00     0.131 A 
ATOM      6  C   UNL     1      49.125  32.829  61.209  1.00  0.00     0.093 A 
ATOM      7  C   UNL     1      49.707  32.761  59.939  1.00  0.00     0.122 A 
ATOM      8  C   UNL     1      51.023  32.316  59.801  1.00  0.00     0.092 A 
ATOM      9  C   UNL     1      51.767  31.926  60.923  1.00  0.00     0.126 A 
ATOM     10  C   UNL     1      51.169  31.951  62.204  1.00  0.00     0.039 A 
ENDROOT
BRANCH   2  11
ATOM     11  O   UNL     1      50.309  29.996  64.391  1.00  0.00    -0.389 OA
ATOM     12  H   UNL     1      49.913  30.064  63.484  1.00  0.00     0.211 HD
ENDBRANCH   2  11
BRANCH   3  13
ATOM     13  C   UNL     1      49.053  32.092  65.965  1.00  0.00    -0.001 A 
ATOM     14  C   UNL     1      49.541  31.487  67.135  1.00  0.00     0.057 A 
ATOM     15  C   UNL     1      47.684  32.392  65.870  1.00  0.00     0.012 A 
ATOM     16  C   UNL     1      48.683  31.210  68.206  1.00  0.00     0.157 A 
ATOM     17  C   UNL     1      46.825  32.118  66.937  1.00  0.00     0.050 A 
ATOM     18  C   UNL     1      47.318  31.528  68.109  1.00  0.00     0.157 A 
BRANCH  16  19
ATOM     19  O   UNL     1      49.204  30.616  69.356  1.00  0.00    -0.504 OA
ATOM     20  H   UNL     1      48.626  30.399  70.159  1.00  0.00     0.293 HD
ENDBRANCH  16  19
BRANCH  18  21
ATOM     21  O   UNL     1      46.459  31.255  69.172  1.00  0.00    -0.504 OA
ATOM     22  H   UNL     1      45.452  31.317  69.069  1.00  0.00     0.293 HD
ENDBRANCH  18  21
ENDBRANCH   3  13
BRANCH   9  23
ATOM     23  O   UNL     1      53.093  31.534  60.725  1.00  0.00    -0.507 OA
ATOM     24  H   UNL     1      53.673  31.891  59.978  1.00  0.00     0.293 HD
ENDBRANCH   9  23
BRANCH   7  25
ATOM     25  O   UNL     1      48.989  33.141  58.807  1.00  0.00    -0.508 OA
ATOM     26  H   UNL     1      48.106  33.635  58.880  1.00  0.00     0.293 HD
ENDBRANCH   7  25
TORSDOF 6
ENDMDL
MODEL 4
REMARK VINA RESULT:    -6.766      1.657      6.558
REMARK INTER + INTRA:          -8.546
REMARK INTER:                  -8.537
REMARK INTRA:                  -0.009
REMARK UNBOUND:                -0.395
REMARK SMILES Oc1cc(O)c2c(c1)O[C@@H](c1ccc(O)c(O)c1)[C@@H](O)C2
REMARK SMILES IDX 21 1 19 2 10 3 9 4 7 5 8 6 2 7 3 8 4 9 6 10 20 11 11 13
REMARK SMILES IDX 18 14 12 15 16 16 13 17 14 18 17 19 15 21 5 23 1 25
REMARK H PARENT 20 12 17 20 15 22 5 24 1 26
REMARK Flexibility Score: inf
ROOT
ATOM      1  C   UNL     1      51.889  30.950  64.540  1.00  0.00     0.079 C 
ATOM      2  C   UNL     1      50.594  31.190  65.339  1.00  0.00     0.164 C 
ATOM      3  C   UNL     1      50.033  32.581  65.003  1.00  0.00     0.232 C 
ATOM      4  O   UNL     1      49.803  32.685  63.597  1.00  0.00    -0.482 OA
ATOM      5  C   UNL     1      50.688  32.141  62.659  1.00  0.00     0.131 A 
ATOM      6  C   UNL     1      50.512  32.442  61.307  1.00  0.00     0.093 A 
ATOM      7  C   UNL     1      51.391  31.925  60.350  1.00  0.00     0.122 A 
ATOM      8  C   UNL     1      52.455  31.114  60.749  1.00  0.00     0.092 A 
ATOM      9  C   UNL     1      52.647  30.802  62.101  1.00  0.00     0.126 A 
ATOM     10  C   UNL     1      51.735  31.286  63.069  1.00  0.00     0.039 A 
ENDROOT
BRANCH   2  11
ATOM     11  O   UNL     1      49.647  30.202  65.020  1.00  0.00    -0.389 OA
ATOM     12  H   UNL     1      48.890  30.314  65.653  1.00  0.00     0.211 HD
ENDBRANCH   2  11
BRANCH   3  13
ATOM     13  C   UNL     1      48.762  32.866  65.771  1.00  0.00    -0.001 A 
ATOM     14  C   UNL     1      47.550  32.289  65.356  1.00  0.00     0.057 A 
ATOM     15  C   UNL     1      48.759  33.753  66.861  1.00  0.00     0.012 A 
ATOM     16  C   UNL     1      46.358  32.568  66.033  1.00  0.00     0.157 A 
ATOM     17  C   UNL     1      47.571  34.033  67.540  1.00  0.00     0.050 A 
ATOM     18  C   UNL     1      46.367  33.443  67.132  1.00  0.00     0.157 A 
BRANCH  16  19
ATOM     19  O   UNL     1      45.176  31.970  65.598  1.00  0.00    -0.504 OA
ATOM     20  H   UNL     1      44.265  32.296  65.899  1.00  0.00     0.293 HD
ENDBRANCH  16  19
BRANCH  18  21
ATOM     21  O   UNL     1      45.183  33.725  67.811  1.00  0.00    -0.504 OA
ATOM     22  H   UNL     1      44.280  33.646  67.358  1.00  0.00     0.293 HD
ENDBRANCH  18  21
ENDBRANCH   3  13
BRANCH   9  23
ATOM     23  O   UNL     1      53.755  30.024  62.444  1.00  0.00    -0.507 OA
ATOM     24  H   UNL     1      53.736  29.013  62.476  1.00  0.00     0.293 HD
ENDBRANCH   9  23
BRANCH   7  25
ATOM     25  O   UNL     1      51.222  32.218  58.998  1.00  0.00    -0.508 OA
ATOM     26  H   UNL     1      51.551  31.590  58.273  1.00  0.00     0.293 HD
ENDBRANCH   7  25
TORSDOF 6
ENDMDL
MODEL 5
REMARK VINA RESULT:    -6.649      2.086      2.339
REMARK INTER + INTRA:          -8.404
REMARK INTER:                  -8.078
REMARK INTRA:                  -0.327
REMARK UNBOUND:                -0.395
REMARK SMILES Oc1cc(O)c2c(c1)O[C@@H](c1ccc(O)c(O)c1)[C@@H](O)C2
REMARK SMILES IDX 21 1 19 2 10 3 9 4 7 5 8 6 2 7 3 8 4 9 6 10 20 11 11 13
REMARK SMILES IDX 18 14 12 15 16 16 13 17 14 18 17 19 15 21 5 23 1 25
REMARK H PARENT 20 12 17 20 15 22 5 24 1 26
REMARK Flexibility Score: inf
ROOT
ATOM      1  C   UNL     1      49.887  32.884  65.739  1.00  0.00     0.079 C 
ATOM      2  C   UNL     1      50.303  32.457  64.318  1.00  0.00     0.164 C 
ATOM      3  C   UNL     1      49.988  30.965  64.118  1.00  0.00     0.232 C 
ATOM      4  O   UNL     1      48.599  30.727  64.348  1.00  0.00    -0.482 OA
ATOM      5  C   UNL     1      47.897  31.366  65.377  1.00  0.00     0.131 A 
ATOM      6  C   UNL     1      46.598  30.947  65.672  1.00  0.00     0.093 A 
ATOM      7  C   UNL     1      45.879  31.557  66.705  1.00  0.00     0.122 A 
ATOM      8  C   UNL     1      46.468  32.580  67.452  1.00  0.00     0.092 A 
ATOM      9  C   UNL     1      47.771  33.011  67.170  1.00  0.00     0.126 A 
ATOM     10  C   UNL     1      48.485  32.429  66.097  1.00  0.00     0.039 A 
ENDROOT
BRANCH   2  11
ATOM     11  O   UNL     1      49.608  33.224  63.367  1.00  0.00    -0.389 OA
ATOM     12  H   UNL     1      48.647  33.186  63.613  1.00  0.00     0.211 HD
ENDBRANCH   2  11
BRANCH   3  13
ATOM     13  C   UNL     1      50.386  30.496  62.737  1.00  0.00    -0.001 A 
ATOM     14  C   UNL     1      49.532  29.647  62.015  1.00  0.00     0.057 A 
ATOM     15  C   UNL     1      51.630  30.846  62.184  1.00  0.00     0.012 A 
ATOM     16  C   UNL     1      49.898  29.174  60.749  1.00  0.00     0.157 A 
ATOM     17  C   UNL     1      51.998  30.378  60.921  1.00  0.00     0.050 A 
ATOM     18  C   UNL     1      51.137  29.543  60.197  1.00  0.00     0.157 A 
BRANCH  16  19
ATOM     19  O   UNL     1      49.021  28.339  60.057  1.00  0.00    -0.504 OA
ATOM     20  H   UNL     1      48.185  28.691  59.607  1.00  0.00     0.293 HD
ENDBRANCH  16  19
BRANCH  18  21
ATOM     21  O   UNL     1      51.507  29.076  58.937  1.00  0.00    -0.504 OA
ATOM     22  H   UNL     1      51.892  29.697  58.234  1.00  0.00     0.293 HD
ENDBRANCH  18  21
ENDBRANCH   3  13
BRANCH   9  23
ATOM     23  O   UNL     1      48.321  34.007  67.981  1.00  0.00    -0.507 OA
ATOM     24  H   UNL     1      49.256  33.957  68.364  1.00  0.00     0.293 HD
ENDBRANCH   9  23
BRANCH   7  25
ATOM     25  O   UNL     1      44.582  31.148  67.006  1.00  0.00    -0.508 OA
ATOM     26  H   UNL     1      43.801  31.373  66.399  1.00  0.00     0.293 HD
ENDBRANCH   7  25
TORSDOF 6
ENDMDL
MODEL 6
REMARK VINA RESULT:    -6.629      2.588      7.209
REMARK INTER + INTRA:          -8.380
REMARK INTER:                  -8.000
REMARK INTRA:                  -0.381
REMARK UNBOUND:                -0.395
REMARK SMILES Oc1cc(O)c2c(c1)O[C@@H](c1ccc(O)c(O)c1)[C@@H](O)C2
REMARK SMILES IDX 21 1 19 2 10 3 9 4 7 5 8 6 2 7 3 8 4 9 6 10 20 11 11 13
REMARK SMILES IDX 18 14 12 15 16 16 13 17 14 18 17 19 15 21 5 23 1 25
REMARK H PARENT 20 12 17 20 15 22 5 24 1 26
REMARK Flexibility Score: inf
ROOT
ATOM      1  C   UNL     1      51.660  31.848  63.771  1.00  0.00     0.079 C 
ATOM      2  C   UNL     1      51.547  31.133  65.131  1.00  0.00     0.164 C 
ATOM      3  C   UNL     1      50.113  30.610  65.319  1.00  0.00     0.232 C 
ATOM      4  O   UNL     1      49.770  29.737  64.242  1.00  0.00    -0.482 OA
ATOM      5  C   UNL     1      50.156  30.001  62.922  1.00  0.00     0.131 A 
ATOM      6  C   UNL     1      49.628  29.218  61.893  1.00  0.00     0.093 A 
ATOM      7  C   UNL     1      49.984  29.469  60.564  1.00  0.00     0.122 A 
ATOM      8  C   UNL     1      50.861  30.514  60.264  1.00  0.00     0.092 A 
ATOM      9  C   UNL     1      51.399  31.309  61.284  1.00  0.00     0.126 A 
ATOM     10  C   UNL     1      51.078  31.031  62.634  1.00  0.00     0.039 A 
ENDROOT
BRANCH   2  11
ATOM     11  O   UNL     1      52.458  30.064  65.185  1.00  0.00    -0.389 OA
ATOM     12  H   UNL     1      52.937  30.051  64.316  1.00  0.00     0.211 HD
ENDBRANCH   2  11
BRANCH   3  13
ATOM     13  C   UNL     1      49.951  29.904  66.646  1.00  0.00    -0.001 A 
ATOM     14  C   UNL     1      50.118  30.620  67.843  1.00  0.00     0.057 A 
ATOM     15  C   UNL     1      49.694  28.524  66.705  1.00  0.00     0.012 A 
ATOM     16  C   UNL     1      50.006  29.977  69.081  1.00  0.00     0.157 A 
ATOM     17  C   UNL     1      49.579  27.879  67.938  1.00  0.00     0.050 A 
ATOM     18  C   UNL     1      49.732  28.599  69.130  1.00  0.00     0.157 A 
BRANCH  16  19
ATOM     19  O   UNL     1      50.170  30.721  70.249  1.00  0.00    -0.504 OA
ATOM     20  H   UNL     1      49.738  30.451  71.125  1.00  0.00     0.293 HD
ENDBRANCH  16  19
BRANCH  18  21
ATOM     21  O   UNL     1      49.618  27.953  70.360  1.00  0.00    -0.504 OA
ATOM     22  H   UNL     1      49.894  26.984  70.478  1.00  0.00     0.293 HD
ENDBRANCH  18  21
ENDBRANCH   3  13
BRANCH   9  23
ATOM     23  O   UNL     1      52.235  32.367  60.919  1.00  0.00    -0.507 OA
ATOM     24  H   UNL     1      53.186  32.464  61.249  1.00  0.00     0.293 HD
ENDBRANCH   9  23
BRANCH   7  25
ATOM     25  O   UNL     1      49.464  28.692  59.530  1.00  0.00    -0.508 OA
ATOM     26  H   UNL     1      48.474  28.480  59.473  1.00  0.00     0.293 HD
ENDBRANCH   7  25
TORSDOF 6
ENDMDL
MODEL 7
REMARK VINA RESULT:    -6.556      1.693      7.060
REMARK INTER + INTRA:          -8.292
REMARK INTER:                  -8.010
REMARK INTRA:                  -0.282
REMARK UNBOUND:                -0.395
REMARK SMILES Oc1cc(O)c2c(c1)O[C@@H](c1ccc(O)c(O)c1)[C@@H](O)C2
REMARK SMILES IDX 21 1 19 2 10 3 9 4 7 5 8 6 2 7 3 8 4 9 6 10 20 11 11 13
REMARK SMILES IDX 18 14 12 15 16 16 13 17 14 18 17 19 15 21 5 23 1 25
REMARK H PARENT 20 12 17 20 15 22 5 24 1 26
REMARK Flexibility Score: inf
ROOT
ATOM      1  C   UNL     1      50.009  33.010  62.896  1.00  0.00     0.079 C 
ATOM      2  C   UNL     1      50.024  32.583  64.376  1.00  0.00     0.164 C 
ATOM      3  C   UNL     1      49.281  31.247  64.534  1.00  0.00     0.232 C 
ATOM      4  O   UNL     1      49.883  30.256  63.700  1.00  0.00    -0.482 OA
ATOM      5  C   UNL     1      50.342  30.550  62.411  1.00  0.00     0.131 A 
ATOM      6  C   UNL     1      50.741  29.503  61.577  1.00  0.00     0.093 A 
ATOM      7  C   UNL     1      51.189  29.767  60.279  1.00  0.00     0.122 A 
ATOM      8  C   UNL     1      51.228  31.082  59.812  1.00  0.00     0.092 A 
ATOM      9  C   UNL     1      50.831  32.145  60.634  1.00  0.00     0.126 A 
ATOM     10  C   UNL     1      50.419  31.888  61.963  1.00  0.00     0.039 A 
ENDROOT
BRANCH   2  11
ATOM     11  O   UNL     1      51.351  32.448  64.820  1.00  0.00    -0.389 OA
ATOM     12  H   UNL     1      51.312  32.271  65.796  1.00  0.00     0.211 HD
ENDBRANCH   2  11
BRANCH   3  13
ATOM     13  C   UNL     1      49.263  30.789  65.974  1.00  0.00    -0.001 A 
ATOM     14  C   UNL     1      48.351  31.359  66.878  1.00  0.00     0.057 A 
ATOM     15  C   UNL     1      50.190  29.842  66.444  1.00  0.00     0.012 A 
ATOM     16  C   UNL     1      48.343  30.972  68.223  1.00  0.00     0.157 A 
ATOM     17  C   UNL     1      50.183  29.453  67.785  1.00  0.00     0.050 A 
ATOM     18  C   UNL     1      49.262  30.013  68.680  1.00  0.00     0.157 A 
BRANCH  16  19
ATOM     19  O   UNL     1      47.417  31.553  69.089  1.00  0.00    -0.504 OA
ATOM     20  H   UNL     1      46.837  30.999  69.708  1.00  0.00     0.293 HD
ENDBRANCH  16  19
BRANCH  18  21
ATOM     21  O   UNL     1      49.258  29.623  70.018  1.00  0.00    -0.504 OA
ATOM     22  H   UNL     1      50.079  29.727  70.603  1.00  0.00     0.293 HD
ENDBRANCH  18  21
ENDBRANCH   3  13
BRANCH   9  23
ATOM     23  O   UNL     1      50.850  33.433  60.094  1.00  0.00    -0.507 OA
ATOM     24  H   UNL     1      51.610  33.788  59.529  1.00  0.00     0.293 HD
ENDBRANCH   9  23
BRANCH   7  25
ATOM     25  O   UNL     1      51.590  28.729  59.441  1.00  0.00    -0.508 OA
ATOM     26  H   UNL     1      51.654  27.773  59.774  1.00  0.00     0.293 HD
ENDBRANCH   7  25
TORSDOF 6
ENDMDL
MODEL 8
REMARK VINA RESULT:    -6.516      1.938      6.954
REMARK INTER + INTRA:          -8.244
REMARK INTER:                  -8.071
REMARK INTRA:                  -0.172
REMARK UNBOUND:                -0.395
REMARK SMILES Oc1cc(O)c2c(c1)O[C@@H](c1ccc(O)c(O)c1)[C@@H](O)C2
REMARK SMILES IDX 21 1 19 2 10 3 9 4 7 5 8 6 2 7 3 8 4 9 6 10 20 11 11 13
REMARK SMILES IDX 18 14 12 15 16 16 13 17 14 18 17 19 15 21 5 23 1 25
REMARK H PARENT 20 12 17 20 15 22 5 24 1 26
REMARK Flexibility Score: inf
ROOT
ATOM      1  C   UNL     1      50.116  32.617  62.132  1.00  0.00     0.079 C 
ATOM      2  C   UNL     1      49.652  32.520  63.598  1.00  0.00     0.164 C 
ATOM      3  C   UNL     1      48.476  31.536  63.700  1.00  0.00     0.232 C 
ATOM      4  O   UNL     1      48.866  30.259  63.192  1.00  0.00    -0.482 OA
ATOM      5  C   UNL     1      49.674  30.128  62.057  1.00  0.00     0.131 A 
ATOM      6  C   UNL     1      49.859  28.861  61.499  1.00  0.00     0.093 A 
ATOM      7  C   UNL     1      50.648  28.704  60.355  1.00  0.00     0.122 A 
ATOM      8  C   UNL     1      51.244  29.819  59.763  1.00  0.00     0.092 A 
ATOM      9  C   UNL     1      51.069  31.097  60.308  1.00  0.00     0.126 A 
ATOM     10  C   UNL     1      50.308  31.256  61.491  1.00  0.00     0.039 A 
ENDROOT
BRANCH   2  11
ATOM     11  O   UNL     1      50.716  32.082  64.406  1.00  0.00    -0.389 OA
ATOM     12  H   UNL     1      51.344  31.593  63.814  1.00  0.00     0.211 HD
ENDBRANCH   2  11
BRANCH   3  13
ATOM     13  C   UNL     1      47.980  31.411  65.123  1.00  0.00    -0.001 A 
ATOM     14  C   UNL     1      46.985  32.284  65.595  1.00  0.00     0.057 A 
ATOM     15  C   UNL     1      48.544  30.474  66.006  1.00  0.00     0.012 A 
ATOM     16  C   UNL     1      46.538  32.207  66.919  1.00  0.00     0.157 A 
ATOM     17  C   UNL     1      48.099  30.394  67.328  1.00  0.00     0.050 A 
ATOM     18  C   UNL     1      47.095  31.255  67.791  1.00  0.00     0.157 A 
BRANCH  16  19
ATOM     19  O   UNL     1      45.543  33.083  67.350  1.00  0.00    -0.504 OA
ATOM     20  H   UNL     1      44.718  32.761  67.843  1.00  0.00     0.293 HD
ENDBRANCH  16  19
BRANCH  18  21
ATOM     21  O   UNL     1      46.654  31.173  69.110  1.00  0.00    -0.504 OA
ATOM     22  H   UNL     1      46.781  31.940  69.761  1.00  0.00     0.293 HD
ENDBRANCH  18  21
ENDBRANCH   3  13
BRANCH   9  23
ATOM     23  O   UNL     1      51.653  32.179  59.645  1.00  0.00    -0.507 OA
ATOM     24  H   UNL     1      52.634  32.412  59.720  1.00  0.00     0.293 HD
ENDBRANCH   9  23
BRANCH   7  25
ATOM     25  O   UNL     1      50.840  27.443  59.793  1.00  0.00    -0.508 OA
ATOM     26  H   UNL     1      51.478  27.299  59.018  1.00  0.00     0.293 HD
ENDBRANCH   7  25
TORSDOF 6
ENDMDL
MODEL 9
REMARK VINA RESULT:    -6.415      2.516      6.489
REMARK INTER + INTRA:          -8.122
REMARK INTER:                  -7.741
REMARK INTRA:                  -0.381
REMARK UNBOUND:                -0.395
REMARK SMILES Oc1cc(O)c2c(c1)O[C@@H](c1ccc(O)c(O)c1)[C@@H](O)C2
REMARK SMILES IDX 21 1 19 2 10 3 9 4 7 5 8 6 2 7 3 8 4 9 6 10 20 11 11 13
REMARK SMILES IDX 18 14 12 15 16 16 13 17 14 18 17 19 15 21 5 23 1 25
REMARK H PARENT 20 12 17 20 15 22 5 24 1 26
REMARK Flexibility Score: inf
ROOT
ATOM      1  C   UNL     1      51.162  30.978  63.143  1.00  0.00     0.079 C 
ATOM      2  C   UNL     1      50.588  31.462  64.488  1.00  0.00     0.164 C 
ATOM      3  C   UNL     1      49.211  32.106  64.257  1.00  0.00     0.232 C 
ATOM      4  O   UNL     1      48.338  31.169  63.625  1.00  0.00    -0.482 OA
ATOM      5  C   UNL     1      48.782  30.302  62.621  1.00  0.00     0.131 A 
ATOM      6  C   UNL     1      47.844  29.550  61.910  1.00  0.00     0.093 A 
ATOM      7  C   UNL     1      48.258  28.687  60.890  1.00  0.00     0.122 A 
ATOM      8  C   UNL     1      49.615  28.586  60.575  1.00  0.00     0.092 A 
ATOM      9  C   UNL     1      50.570  29.333  61.276  1.00  0.00     0.126 A 
ATOM     10  C   UNL     1      50.160  30.173  62.338  1.00  0.00     0.039 A 
ENDROOT
BRANCH   2  11
ATOM     11  O   UNL     1      50.467  30.377  65.373  1.00  0.00    -0.389 OA
ATOM     12  H   UNL     1      50.575  30.740  66.290  1.00  0.00     0.211 HD
ENDBRANCH   2  11
BRANCH   3  13
ATOM     13  C   UNL     1      48.609  32.604  65.551  1.00  0.00    -0.001 A 
ATOM     14  C   UNL     1      47.303  32.226  65.905  1.00  0.00     0.057 A 
ATOM     15  C   UNL     1      49.312  33.494  66.381  1.00  0.00     0.012 A 
ATOM     16  C   UNL     1      46.715  32.705  67.081  1.00  0.00     0.157 A 
ATOM     17  C   UNL     1      48.729  33.973  67.557  1.00  0.00     0.050 A 
ATOM     18  C   UNL     1      47.432  33.581  67.914  1.00  0.00     0.157 A 
BRANCH  16  19
ATOM     19  O   UNL     1      45.420  32.302  67.405  1.00  0.00    -0.504 OA
ATOM     20  H   UNL     1      45.203  31.349  67.671  1.00  0.00     0.293 HD
ENDBRANCH  16  19
BRANCH  18  21
ATOM     21  O   UNL     1      46.853  34.061  69.088  1.00  0.00    -0.504 OA
ATOM     22  H   UNL     1      46.606  33.439  69.850  1.00  0.00     0.293 HD
ENDBRANCH  18  21
ENDBRANCH   3  13
BRANCH   9  23
ATOM     23  O   UNL     1      51.906  29.223  60.884  1.00  0.00    -0.507 OA
ATOM     24  H   UNL     1      52.528  30.016  60.803  1.00  0.00     0.293 HD
ENDBRANCH   9  23
BRANCH   7  25
ATOM     25  O   UNL     1      47.329  27.932  60.178  1.00  0.00    -0.508 OA
ATOM     26  H   UNL     1      46.871  27.127  60.590  1.00  0.00     0.293 HD
ENDBRANCH   7  25
TORSDOF 6
ENDMDL
