MODEL 1
REMARK VINA RESULT:    -5.507      0.000      0.000
REMARK INTER + INTRA:         -11.924
REMARK INTER:                 -10.335
REMARK INTRA:                  -1.588
REMARK UNBOUND:                -1.588
REMARK SMILES O=C([O-])CCCCCCCCCCCCCCC(=O)[O-]
REMARK SMILES IDX 10 1 9 2 8 3 7 4 6 5 5 6 4 7 2 8 1 9 3 10 11 11 12 12 13 13
REMARK SMILES IDX 14 14 15 15 16 16 17 17 18 18 19 19 20 20
REMARK H PARENT
REMARK Flexibility Score: inf
ROOT
ATOM      1  C   UNL     1     -97.040 -60.450 -67.465  1.00  0.00     0.000 C 
ENDROOT
BRANCH   1   2
ATOM      2  C   UNL     1     -95.990 -61.393 -68.085  1.00  0.00     0.000 C 
BRANCH   2   3
ATOM      3  C   UNL     1     -94.577 -61.294 -67.476  1.00  0.00     0.000 C 
BRANCH   3   4
ATOM      4  C   UNL     1     -94.190 -62.454 -66.540  1.00  0.00     0.000 C 
BRANCH   4   5
ATOM      5  C   UNL     1     -93.241 -63.463 -67.202  1.00  0.00     0.000 C 
BRANCH   5   6
ATOM      6  C   UNL     1     -92.910 -63.040 -68.642  1.00  0.00     0.006 C 
BRANCH   6   7
ATOM      7  C   UNL     1     -93.459 -64.030 -69.678  1.00  0.00     0.053 C 
BRANCH   7   8
ATOM      8  C   UNL     1     -94.112 -63.328 -70.827  1.00  0.00     0.041 C 
ATOM      9  O   UNL     1     -94.059 -62.072 -70.916  1.00  0.00    -0.550 OA
ATOM     10  O   UNL     1     -94.811 -64.056 -71.782  1.00  0.00    -0.550 OA
ENDBRANCH   7   8
ENDBRANCH   6   7
ENDBRANCH   5   6
ENDBRANCH   4   5
ENDBRANCH   3   4
ENDBRANCH   2   3
ENDBRANCH   1   2
BRANCH   1  11
ATOM     11  C   UNL     1     -96.534 -59.587 -66.294  1.00  0.00     0.000 C 
BRANCH  11  12
ATOM     12  C   UNL     1     -97.046 -60.075 -64.929  1.00  0.00     0.000 C 
BRANCH  12  13
ATOM     13  C   UNL     1     -97.445 -61.559 -64.945  1.00  0.00     0.000 C 
BRANCH  13  14
ATOM     14  C   UNL     1     -98.598 -61.875 -63.975  1.00  0.00     0.000 C 
BRANCH  14  15
ATOM     15  C   UNL     1     -99.902 -62.230 -64.706  1.00  0.00     0.000 C 
BRANCH  15  16
ATOM     16  C   UNL     1     -99.728 -62.277 -66.234  1.00  0.00     0.006 C 
BRANCH  16  17
ATOM     17  C   UNL     1    -100.823 -61.489 -66.966  1.00  0.00     0.053 C 
BRANCH  17  18
ATOM     18  C   UNL     1    -101.031 -60.135 -66.359  1.00  0.00     0.041 C 
ATOM     19  O   UNL     1    -102.035 -59.913 -65.633  1.00  0.00    -0.550 OA
ATOM     20  O   UNL     1    -100.132 -59.110 -66.624  1.00  0.00    -0.550 OA
ENDBRANCH  17  18
ENDBRANCH  16  17
ENDBRANCH  15  16
ENDBRANCH  14  15
ENDBRANCH  13  14
ENDBRANCH  12  13
ENDBRANCH  11  12
ENDBRANCH   1  11
TORSDOF 15
ENDMDL
MODEL 2
REMARK VINA RESULT:    -5.507      1.764      2.943
REMARK INTER + INTRA:         -11.924
REMARK INTER:                 -10.240
REMARK INTRA:                  -1.684
REMARK UNBOUND:                -1.588
REMARK SMILES O=C([O-])CCCCCCCCCCCCCCC(=O)[O-]
REMARK SMILES IDX 10 1 9 2 8 3 7 4 6 5 5 6 4 7 2 8 1 9 3 10 11 11 12 12 13 13
REMARK SMILES IDX 14 14 15 15 16 16 17 17 18 18 19 19 20 20
REMARK H PARENT
REMARK Flexibility Score: inf
ROOT
ATOM      1  C   UNL     1     -96.156 -60.942 -65.672  1.00  0.00     0.000 C 
ENDROOT
BRANCH   1   2
ATOM      2  C   UNL     1     -95.075 -60.726 -66.750  1.00  0.00     0.000 C 
BRANCH   2   3
ATOM      3  C   UNL     1     -95.278 -61.524 -68.053  1.00  0.00     0.000 C 
BRANCH   3   4
ATOM      4  C   UNL     1     -96.655 -61.344 -68.718  1.00  0.00     0.000 C 
BRANCH   4   5
ATOM      5  C   UNL     1     -96.650 -61.716 -70.208  1.00  0.00     0.000 C 
BRANCH   5   6
ATOM      6  C   UNL     1     -95.232 -62.068 -70.681  1.00  0.00     0.006 C 
BRANCH   6   7
ATOM      7  C   UNL     1     -95.155 -63.474 -71.291  1.00  0.00     0.053 C 
BRANCH   7   8
ATOM      8  C   UNL     1     -93.881 -64.171 -70.925  1.00  0.00     0.041 C 
ATOM      9  O   UNL     1     -93.260 -64.849 -71.786  1.00  0.00    -0.550 OA
ATOM     10  O   UNL     1     -93.397 -64.102 -69.625  1.00  0.00    -0.550 OA
ENDBRANCH   7   8
ENDBRANCH   6   7
ENDBRANCH   5   6
ENDBRANCH   4   5
ENDBRANCH   3   4
ENDBRANCH   2   3
ENDBRANCH   1   2
BRANCH   1  11
ATOM     11  C   UNL     1     -96.942 -59.680 -65.272  1.00  0.00     0.000 C 
BRANCH  11  12
ATOM     12  C   UNL     1     -96.858 -58.565 -66.327  1.00  0.00     0.000 C 
BRANCH  12  13
ATOM     13  C   UNL     1     -98.240 -58.019 -66.719  1.00  0.00     0.000 C 
BRANCH  13  14
ATOM     14  C   UNL     1     -99.119 -59.071 -67.419  1.00  0.00     0.000 C 
BRANCH  14  15
ATOM     15  C   UNL     1    -100.380 -59.417 -66.613  1.00  0.00     0.000 C 
BRANCH  15  16
ATOM     16  C   UNL     1    -100.806 -60.886 -66.785  1.00  0.00     0.006 C 
BRANCH  16  17
ATOM     17  C   UNL     1     -99.804 -61.858 -66.149  1.00  0.00     0.053 C 
BRANCH  17  18
ATOM     18  C   UNL     1     -99.863 -61.814 -64.653  1.00  0.00     0.041 C 
ATOM     19  O   UNL     1     -98.894 -62.236 -63.967  1.00  0.00    -0.550 OA
ATOM     20  O   UNL     1    -101.002 -61.337 -64.016  1.00  0.00    -0.550 OA
ENDBRANCH  17  18
ENDBRANCH  16  17
ENDBRANCH  15  16
ENDBRANCH  14  15
ENDBRANCH  13  14
ENDBRANCH  12  13
ENDBRANCH  11  12
ENDBRANCH   1  11
TORSDOF 15
ENDMDL
MODEL 3
REMARK VINA RESULT:    -5.500      1.574      6.311
REMARK INTER + INTRA:         -11.910
REMARK INTER:                 -10.252
REMARK INTRA:                  -1.659
REMARK UNBOUND:                -1.588
REMARK SMILES O=C([O-])CCCCCCCCCCCCCCC(=O)[O-]
REMARK SMILES IDX 10 1 9 2 8 3 7 4 6 5 5 6 4 7 2 8 1 9 3 10 11 11 12 12 13 13
REMARK SMILES IDX 14 14 15 15 16 16 17 17 18 18 19 19 20 20
REMARK H PARENT
REMARK Flexibility Score: inf
ROOT
ATOM      1  C   UNL     1     -95.527 -61.769 -65.953  1.00  0.00     0.000 C 
ENDROOT
BRANCH   1   2
ATOM      2  C   UNL     1     -96.224 -60.438 -65.608  1.00  0.00     0.000 C 
BRANCH   2   3
ATOM      3  C   UNL     1     -97.250 -60.512 -64.459  1.00  0.00     0.000 C 
BRANCH   3   4
ATOM      4  C   UNL     1     -97.920 -61.886 -64.275  1.00  0.00     0.000 C 
BRANCH   4   5
ATOM      5  C   UNL     1     -99.381 -61.904 -64.750  1.00  0.00     0.000 C 
BRANCH   5   6
ATOM      6  C   UNL     1     -99.459 -62.053 -66.277  1.00  0.00     0.006 C 
BRANCH   6   7
ATOM      7  C   UNL     1    -100.644 -61.284 -66.876  1.00  0.00     0.053 C 
BRANCH   7   8
ATOM      8  C   UNL     1    -100.702 -59.873 -66.377  1.00  0.00     0.041 C 
ATOM      9  O   UNL     1     -99.822 -59.042 -66.726  1.00  0.00    -0.550 OA
ATOM     10  O   UNL     1    -101.706 -59.485 -65.500  1.00  0.00    -0.550 OA
ENDBRANCH   7   8
ENDBRANCH   6   7
ENDBRANCH   5   6
ENDBRANCH   4   5
ENDBRANCH   3   4
ENDBRANCH   2   3
ENDBRANCH   1   2
BRANCH   1  11
ATOM     11  C   UNL     1     -94.244 -61.636 -66.793  1.00  0.00     0.000 C 
BRANCH  11  12
ATOM     12  C   UNL     1     -93.361 -62.894 -66.737  1.00  0.00     0.000 C 
BRANCH  12  13
ATOM     13  C   UNL     1     -93.207 -63.568 -68.110  1.00  0.00     0.000 C 
BRANCH  13  14
ATOM     14  C   UNL     1     -93.533 -62.619 -69.277  1.00  0.00     0.000 C 
BRANCH  14  15
ATOM     15  C   UNL     1     -94.172 -63.349 -70.469  1.00  0.00     0.000 C 
BRANCH  15  16
ATOM     16  C   UNL     1     -95.527 -62.743 -70.874  1.00  0.00     0.006 C 
BRANCH  16  17
ATOM     17  C   UNL     1     -95.787 -61.395 -70.189  1.00  0.00     0.053 C 
BRANCH  17  18
ATOM     18  C   UNL     1     -97.083 -61.397 -69.436  1.00  0.00     0.041 C 
ATOM     19  O   UNL     1     -97.878 -62.367 -69.545  1.00  0.00    -0.550 OA
ATOM     20  O   UNL     1     -97.426 -60.310 -68.641  1.00  0.00    -0.550 OA
ENDBRANCH  17  18
ENDBRANCH  16  17
ENDBRANCH  15  16
ENDBRANCH  14  15
ENDBRANCH  13  14
ENDBRANCH  12  13
ENDBRANCH  11  12
ENDBRANCH   1  11
TORSDOF 15
ENDMDL
MODEL 4
REMARK VINA RESULT:    -5.451      2.719      4.950
REMARK INTER + INTRA:         -11.819
REMARK INTER:                 -10.146
REMARK INTRA:                  -1.672
REMARK UNBOUND:                -1.588
REMARK SMILES O=C([O-])CCCCCCCCCCCCCCC(=O)[O-]
REMARK SMILES IDX 10 1 9 2 8 3 7 4 6 5 5 6 4 7 2 8 1 9 3 10 11 11 12 12 13 13
REMARK SMILES IDX 14 14 15 15 16 16 17 17 18 18 19 19 20 20
REMARK H PARENT
REMARK Flexibility Score: inf
ROOT
ATOM      1  C   UNL     1     -93.110 -62.529 -69.966  1.00  0.00     0.000 C 
ENDROOT
BRANCH   1   2
ATOM      2  C   UNL     1     -94.377 -62.627 -70.839  1.00  0.00     0.000 C 
BRANCH   2   3
ATOM      3  C   UNL     1     -95.117 -61.296 -71.074  1.00  0.00     0.000 C 
BRANCH   3   4
ATOM      4  C   UNL     1     -96.625 -61.327 -70.763  1.00  0.00     0.000 C 
BRANCH   4   5
ATOM      5  C   UNL     1     -96.925 -61.692 -69.302  1.00  0.00     0.000 C 
BRANCH   5   6
ATOM      6  C   UNL     1     -97.199 -60.431 -68.468  1.00  0.00     0.006 C 
BRANCH   6   7
ATOM      7  C   UNL     1     -98.527 -60.519 -67.703  1.00  0.00     0.053 C 
BRANCH   7   8
ATOM      8  C   UNL     1     -98.934 -59.193 -67.140  1.00  0.00     0.041 C 
ATOM      9  O   UNL     1    -100.110 -59.014 -66.727  1.00  0.00    -0.550 OA
ATOM     10  O   UNL     1     -98.025 -58.143 -67.102  1.00  0.00    -0.550 OA
ENDBRANCH   7   8
ENDBRANCH   6   7
ENDBRANCH   5   6
ENDBRANCH   4   5
ENDBRANCH   3   4
ENDBRANCH   2   3
ENDBRANCH   1   2
BRANCH   1  11
ATOM     11  C   UNL     1     -93.267 -63.048 -68.525  1.00  0.00     0.000 C 
BRANCH  11  12
ATOM     12  C   UNL     1     -93.575 -61.927 -67.518  1.00  0.00     0.000 C 
BRANCH  12  13
ATOM     13  C   UNL     1     -94.363 -62.430 -66.298  1.00  0.00     0.000 C 
BRANCH  13  14
ATOM     14  C   UNL     1     -95.348 -61.381 -65.753  1.00  0.00     0.000 C 
BRANCH  14  15
ATOM     15  C   UNL     1     -96.281 -61.952 -64.675  1.00  0.00     0.000 C 
BRANCH  15  16
ATOM     16  C   UNL     1     -97.492 -61.043 -64.400  1.00  0.00     0.006 C 
BRANCH  16  17
ATOM     17  C   UNL     1     -98.636 -61.796 -63.708  1.00  0.00     0.053 C 
BRANCH  17  18
ATOM     18  C   UNL     1     -99.851 -61.881 -64.581  1.00  0.00     0.041 C 
ATOM     19  O   UNL     1    -100.864 -61.177 -64.328  1.00  0.00    -0.550 OA
ATOM     20  O   UNL     1     -99.875 -62.763 -65.654  1.00  0.00    -0.550 OA
ENDBRANCH  17  18
ENDBRANCH  16  17
ENDBRANCH  15  16
ENDBRANCH  14  15
ENDBRANCH  13  14
ENDBRANCH  12  13
ENDBRANCH  11  12
ENDBRANCH   1  11
TORSDOF 15
ENDMDL
MODEL 5
REMARK VINA RESULT:    -5.426      1.426      2.819
REMARK INTER + INTRA:         -11.772
REMARK INTER:                  -9.845
REMARK INTRA:                  -1.927
REMARK UNBOUND:                -1.588
REMARK SMILES O=C([O-])CCCCCCCCCCCCCCC(=O)[O-]
REMARK SMILES IDX 10 1 9 2 8 3 7 4 6 5 5 6 4 7 2 8 1 9 3 10 11 11 12 12 13 13
REMARK SMILES IDX 14 14 15 15 16 16 17 17 18 18 19 19 20 20
REMARK H PARENT
REMARK Flexibility Score: inf
ROOT
ATOM      1  C   UNL     1     -97.013 -61.117 -64.493  1.00  0.00     0.000 C 
ENDROOT
BRANCH   1   2
ATOM      2  C   UNL     1     -95.926 -62.108 -64.955  1.00  0.00     0.000 C 
BRANCH   2   3
ATOM      3  C   UNL     1     -94.878 -61.528 -65.925  1.00  0.00     0.000 C 
BRANCH   3   4
ATOM      4  C   UNL     1     -93.830 -62.536 -66.428  1.00  0.00     0.000 C 
BRANCH   4   5
ATOM      5  C   UNL     1     -93.161 -62.097 -67.739  1.00  0.00     0.000 C 
BRANCH   5   6
ATOM      6  C   UNL     1     -93.742 -62.867 -68.935  1.00  0.00     0.006 C 
BRANCH   6   7
ATOM      7  C   UNL     1     -94.867 -62.092 -69.633  1.00  0.00     0.053 C 
BRANCH   7   8
ATOM      8  C   UNL     1     -94.945 -62.417 -71.092  1.00  0.00     0.041 C 
ATOM      9  O   UNL     1     -95.469 -63.496 -71.475  1.00  0.00    -0.550 OA
ATOM     10  O   UNL     1     -94.408 -61.544 -72.030  1.00  0.00    -0.550 OA
ENDBRANCH   7   8
ENDBRANCH   6   7
ENDBRANCH   5   6
ENDBRANCH   4   5
ENDBRANCH   3   4
ENDBRANCH   2   3
ENDBRANCH   1   2
BRANCH   1  11
ATOM     11  C   UNL     1     -98.333 -61.763 -64.032  1.00  0.00     0.000 C 
BRANCH  11  12
ATOM     12  C   UNL     1     -99.526 -61.384 -64.926  1.00  0.00     0.000 C 
BRANCH  12  13
ATOM     13  C   UNL     1     -99.891 -62.496 -65.924  1.00  0.00     0.000 C 
BRANCH  13  14
ATOM     14  C   UNL     1     -99.744 -62.049 -67.390  1.00  0.00     0.000 C 
BRANCH  14  15
ATOM     15  C   UNL     1     -98.276 -61.873 -67.808  1.00  0.00     0.000 C 
BRANCH  15  16
ATOM     16  C   UNL     1     -98.011 -60.512 -68.474  1.00  0.00     0.006 C 
BRANCH  16  17
ATOM     17  C   UNL     1     -97.362 -59.511 -67.510  1.00  0.00     0.053 C 
BRANCH  17  18
ATOM     18  C   UNL     1     -98.344 -58.483 -67.035  1.00  0.00     0.041 C 
ATOM     19  O   UNL     1     -97.966 -57.543 -66.287  1.00  0.00    -0.550 OA
ATOM     20  O   UNL     1     -99.683 -58.585 -67.392  1.00  0.00    -0.550 OA
ENDBRANCH  17  18
ENDBRANCH  16  17
ENDBRANCH  15  16
ENDBRANCH  14  15
ENDBRANCH  13  14
ENDBRANCH  12  13
ENDBRANCH  11  12
ENDBRANCH   1  11
TORSDOF 15
ENDMDL
MODEL 6
REMARK VINA RESULT:    -5.416      2.932      4.644
REMARK INTER + INTRA:         -11.753
REMARK INTER:                  -9.791
REMARK INTRA:                  -1.962
REMARK UNBOUND:                -1.588
REMARK SMILES O=C([O-])CCCCCCCCCCCCCCC(=O)[O-]
REMARK SMILES IDX 10 1 9 2 8 3 7 4 6 5 5 6 4 7 2 8 1 9 3 10 11 11 12 12 13 13
REMARK SMILES IDX 14 14 15 15 16 16 17 17 18 18 19 19 20 20
REMARK H PARENT
REMARK Flexibility Score: inf
ROOT
ATOM      1  C   UNL     1     -93.778 -62.805 -70.529  1.00  0.00     0.000 C 
ENDROOT
BRANCH   1   2
ATOM      2  C   UNL     1     -92.965 -62.548 -69.245  1.00  0.00     0.000 C 
BRANCH   2   3
ATOM      3  C   UNL     1     -93.227 -63.537 -68.092  1.00  0.00     0.000 C 
BRANCH   3   4
ATOM      4  C   UNL     1     -93.608 -62.886 -66.751  1.00  0.00     0.000 C 
BRANCH   4   5
ATOM      5  C   UNL     1     -93.740 -61.359 -66.846  1.00  0.00     0.000 C 
BRANCH   5   6
ATOM      6  C   UNL     1     -95.095 -60.891 -66.295  1.00  0.00     0.006 C 
BRANCH   6   7
ATOM      7  C   UNL     1     -95.750 -61.946 -65.393  1.00  0.00     0.053 C 
BRANCH   7   8
ATOM      8  C   UNL     1     -96.809 -61.351 -64.517  1.00  0.00     0.041 C 
ATOM      9  O   UNL     1     -97.623 -62.096 -63.910  1.00  0.00    -0.550 OA
ATOM     10  O   UNL     1     -96.921 -59.971 -64.399  1.00  0.00    -0.550 OA
ENDBRANCH   7   8
ENDBRANCH   6   7
ENDBRANCH   5   6
ENDBRANCH   4   5
ENDBRANCH   3   4
ENDBRANCH   2   3
ENDBRANCH   1   2
BRANCH   1  11
ATOM     11  C   UNL     1     -95.299 -62.613 -70.390  1.00  0.00     0.000 C 
BRANCH  11  12
ATOM     12  C   UNL     1     -95.742 -61.162 -70.642  1.00  0.00     0.000 C 
BRANCH  12  13
ATOM     13  C   UNL     1     -96.733 -60.655 -69.582  1.00  0.00     0.000 C 
BRANCH  13  14
ATOM     14  C   UNL     1     -97.575 -61.787 -68.966  1.00  0.00     0.000 C 
BRANCH  14  15
ATOM     15  C   UNL     1     -98.426 -61.310 -67.779  1.00  0.00     0.000 C 
BRANCH  15  16
ATOM     16  C   UNL     1     -98.435 -59.778 -67.638  1.00  0.00     0.006 C 
BRANCH  16  17
ATOM     17  C   UNL     1     -99.567 -59.287 -66.727  1.00  0.00     0.053 C 
BRANCH  17  18
ATOM     18  C   UNL     1    -100.499 -60.400 -66.354  1.00  0.00     0.041 C 
ATOM     19  O   UNL     1    -100.418 -60.942 -65.220  1.00  0.00    -0.550 OA
ATOM     20  O   UNL     1    -101.434 -60.860 -67.272  1.00  0.00    -0.550 OA
ENDBRANCH  17  18
ENDBRANCH  16  17
ENDBRANCH  15  16
ENDBRANCH  14  15
ENDBRANCH  13  14
ENDBRANCH  12  13
ENDBRANCH  11  12
ENDBRANCH   1  11
TORSDOF 15
ENDMDL
MODEL 7
REMARK VINA RESULT:    -5.409      2.089      6.448
REMARK INTER + INTRA:         -11.740
REMARK INTER:                 -10.015
REMARK INTRA:                  -1.725
REMARK UNBOUND:                -1.588
REMARK SMILES O=C([O-])CCCCCCCCCCCCCCC(=O)[O-]
REMARK SMILES IDX 10 1 9 2 8 3 7 4 6 5 5 6 4 7 2 8 1 9 3 10 11 11 12 12 13 13
REMARK SMILES IDX 14 14 15 15 16 16 17 17 18 18 19 19 20 20
REMARK H PARENT
REMARK Flexibility Score: inf
ROOT
ATOM      1  C   UNL     1    -100.412 -61.300 -67.295  1.00  0.00     0.000 C 
ENDROOT
BRANCH   1   2
ATOM      2  C   UNL     1    -100.569 -61.357 -65.763  1.00  0.00     0.000 C 
BRANCH   2   3
ATOM      3  C   UNL     1     -99.678 -62.394 -65.050  1.00  0.00     0.000 C 
BRANCH   3   4
ATOM      4  C   UNL     1     -98.625 -61.800 -64.097  1.00  0.00     0.000 C 
BRANCH   4   5
ATOM      5  C   UNL     1     -97.254 -61.616 -64.765  1.00  0.00     0.000 C 
BRANCH   5   6
ATOM      6  C   UNL     1     -96.922 -60.125 -64.932  1.00  0.00     0.006 C 
BRANCH   6   7
ATOM      7  C   UNL     1     -96.968 -59.682 -66.401  1.00  0.00     0.053 C 
BRANCH   7   8
ATOM      8  C   UNL     1     -97.692 -58.382 -66.568  1.00  0.00     0.041 C 
ATOM      9  O   UNL     1     -97.280 -57.346 -65.981  1.00  0.00    -0.550 OA
ATOM     10  O   UNL     1     -98.843 -58.321 -67.343  1.00  0.00    -0.550 OA
ENDBRANCH   7   8
ENDBRANCH   6   7
ENDBRANCH   5   6
ENDBRANCH   4   5
ENDBRANCH   3   4
ENDBRANCH   2   3
ENDBRANCH   1   2
BRANCH   1  11
ATOM     11  C   UNL     1    -100.491 -62.661 -68.012  1.00  0.00     0.000 C 
BRANCH  11  12
ATOM     12  C   UNL     1     -99.324 -62.890 -68.987  1.00  0.00     0.000 C 
BRANCH  12  13
ATOM     13  C   UNL     1     -98.170 -61.898 -68.768  1.00  0.00     0.000 C 
BRANCH  13  14
ATOM     14  C   UNL     1     -97.036 -62.070 -69.794  1.00  0.00     0.000 C 
BRANCH  14  15
ATOM     15  C   UNL     1     -95.708 -61.468 -69.311  1.00  0.00     0.000 C 
BRANCH  15  16
ATOM     16  C   UNL     1     -94.513 -62.409 -69.546  1.00  0.00     0.006 C 
BRANCH  16  17
ATOM     17  C   UNL     1     -93.386 -62.178 -68.530  1.00  0.00     0.053 C 
BRANCH  17  18
ATOM     18  C   UNL     1     -93.674 -62.849 -67.222  1.00  0.00     0.041 C 
ATOM     19  O   UNL     1     -94.088 -62.175 -66.241  1.00  0.00    -0.550 OA
ATOM     20  O   UNL     1     -93.453 -64.213 -67.077  1.00  0.00    -0.550 OA
ENDBRANCH  17  18
ENDBRANCH  16  17
ENDBRANCH  15  16
ENDBRANCH  14  15
ENDBRANCH  13  14
ENDBRANCH  12  13
ENDBRANCH  11  12
ENDBRANCH   1  11
TORSDOF 15
ENDMDL
MODEL 8
REMARK VINA RESULT:    -5.397      2.717      5.867
REMARK INTER + INTRA:         -11.719
REMARK INTER:                 -10.022
REMARK INTRA:                  -1.696
REMARK UNBOUND:                -1.588
REMARK SMILES O=C([O-])CCCCCCCCCCCCCCC(=O)[O-]
REMARK SMILES IDX 10 1 9 2 8 3 7 4 6 5 5 6 4 7 2 8 1 9 3 10 11 11 12 12 13 13
REMARK SMILES IDX 14 14 15 15 16 16 17 17 18 18 19 19 20 20
REMARK H PARENT
REMARK Flexibility Score: inf
ROOT
ATOM      1  C   UNL     1     -93.815 -62.988 -67.089  1.00  0.00     0.000 C 
ENDROOT
BRANCH   1   2
ATOM      2  C   UNL     1     -94.176 -62.439 -65.694  1.00  0.00     0.000 C 
BRANCH   2   3
ATOM      3  C   UNL     1     -95.491 -61.639 -65.623  1.00  0.00     0.000 C 
BRANCH   3   4
ATOM      4  C   UNL     1     -96.454 -62.069 -64.501  1.00  0.00     0.000 C 
BRANCH   4   5
ATOM      5  C   UNL     1     -97.774 -61.285 -64.516  1.00  0.00     0.000 C 
BRANCH   5   6
ATOM      6  C   UNL     1     -98.978 -62.240 -64.535  1.00  0.00     0.006 C 
BRANCH   6   7
ATOM      7  C   UNL     1    -100.291 -61.525 -64.189  1.00  0.00     0.053 C 
BRANCH   7   8
ATOM      8  C   UNL     1    -100.928 -60.914 -65.399  1.00  0.00     0.041 C 
ATOM      9  O   UNL     1    -100.801 -61.461 -66.526  1.00  0.00    -0.550 OA
ATOM     10  O   UNL     1    -101.633 -59.722 -65.288  1.00  0.00    -0.550 OA
ENDBRANCH   7   8
ENDBRANCH   6   7
ENDBRANCH   5   6
ENDBRANCH   4   5
ENDBRANCH   3   4
ENDBRANCH   2   3
ENDBRANCH   1   2
BRANCH   1  11
ATOM     11  C   UNL     1     -94.123 -62.041 -68.264  1.00  0.00     0.000 C 
BRANCH  11  12
ATOM     12  C   UNL     1     -94.035 -62.740 -69.631  1.00  0.00     0.000 C 
BRANCH  12  13
ATOM     13  C   UNL     1     -95.271 -62.478 -70.507  1.00  0.00     0.000 C 
BRANCH  13  14
ATOM     14  C   UNL     1     -96.140 -61.323 -69.979  1.00  0.00     0.000 C 
BRANCH  14  15
ATOM     15  C   UNL     1     -97.511 -61.800 -69.476  1.00  0.00     0.000 C 
BRANCH  15  16
ATOM     16  C   UNL     1     -97.919 -61.133 -68.151  1.00  0.00     0.006 C 
BRANCH  16  17
ATOM     17  C   UNL     1     -97.182 -59.808 -67.919  1.00  0.00     0.053 C 
BRANCH  17  18
ATOM     18  C   UNL     1     -98.026 -58.831 -67.159  1.00  0.00     0.041 C 
ATOM     19  O   UNL     1     -97.542 -58.198 -66.184  1.00  0.00    -0.550 OA
ATOM     20  O   UNL     1     -99.358 -58.645 -67.508  1.00  0.00    -0.550 OA
ENDBRANCH  17  18
ENDBRANCH  16  17
ENDBRANCH  15  16
ENDBRANCH  14  15
ENDBRANCH  13  14
ENDBRANCH  12  13
ENDBRANCH  11  12
ENDBRANCH   1  11
TORSDOF 15
ENDMDL
MODEL 9
REMARK VINA RESULT:    -5.352      2.434      6.607
REMARK INTER + INTRA:         -11.634
REMARK INTER:                  -9.839
REMARK INTRA:                  -1.795
REMARK UNBOUND:                -1.588
REMARK SMILES O=C([O-])CCCCCCCCCCCCCCC(=O)[O-]
REMARK SMILES IDX 10 1 9 2 8 3 7 4 6 5 5 6 4 7 2 8 1 9 3 10 11 11 12 12 13 13
REMARK SMILES IDX 14 14 15 15 16 16 17 17 18 18 19 19 20 20
REMARK H PARENT
REMARK Flexibility Score: inf
ROOT
ATOM      1  C   UNL     1     -99.750 -61.767 -66.918  1.00  0.00     0.000 C 
ENDROOT
BRANCH   1   2
ATOM      2  C   UNL     1    -100.726 -60.577 -66.994  1.00  0.00     0.000 C 
BRANCH   2   3
ATOM      3  C   UNL     1    -100.115 -59.203 -66.653  1.00  0.00     0.000 C 
BRANCH   3   4
ATOM      4  C   UNL     1     -98.821 -58.861 -67.413  1.00  0.00     0.000 C 
BRANCH   4   5
ATOM      5  C   UNL     1     -97.700 -58.364 -66.488  1.00  0.00     0.000 C 
BRANCH   5   6
ATOM      6  C   UNL     1     -96.786 -59.524 -66.063  1.00  0.00     0.006 C 
BRANCH   6   7
ATOM      7  C   UNL     1     -97.020 -59.942 -64.605  1.00  0.00     0.053 C 
BRANCH   7   8
ATOM      8  C   UNL     1     -97.070 -61.430 -64.453  1.00  0.00     0.041 C 
ATOM      9  O   UNL     1     -96.154 -62.148 -64.935  1.00  0.00    -0.550 OA
ATOM     10  O   UNL     1     -98.146 -62.029 -63.809  1.00  0.00    -0.550 OA
ENDBRANCH   7   8
ENDBRANCH   6   7
ENDBRANCH   5   6
ENDBRANCH   4   5
ENDBRANCH   3   4
ENDBRANCH   2   3
ENDBRANCH   1   2
BRANCH   1  11
ATOM     11  C   UNL     1     -99.875 -62.790 -68.062  1.00  0.00     0.000 C 
BRANCH  11  12
ATOM     12  C   UNL     1     -98.900 -62.513 -69.219  1.00  0.00     0.000 C 
BRANCH  12  13
ATOM     13  C   UNL     1     -97.633 -61.775 -68.758  1.00  0.00     0.000 C 
BRANCH  13  14
ATOM     14  C   UNL     1     -96.737 -61.341 -69.932  1.00  0.00     0.000 C 
BRANCH  14  15
ATOM     15  C   UNL     1     -95.832 -62.477 -70.433  1.00  0.00     0.000 C 
BRANCH  15  16
ATOM     16  C   UNL     1     -94.337 -62.168 -70.240  1.00  0.00     0.006 C 
BRANCH  16  17
ATOM     17  C   UNL     1     -93.635 -63.222 -69.374  1.00  0.00     0.053 C 
BRANCH  17  18
ATOM     18  C   UNL     1     -93.659 -62.851 -67.923  1.00  0.00     0.041 C 
ATOM     19  O   UNL     1     -93.322 -63.692 -67.048  1.00  0.00    -0.550 OA
ATOM     20  O   UNL     1     -94.085 -61.587 -67.536  1.00  0.00    -0.550 OA
ENDBRANCH  17  18
ENDBRANCH  16  17
ENDBRANCH  15  16
ENDBRANCH  14  15
ENDBRANCH  13  14
ENDBRANCH  12  13
ENDBRANCH  11  12
ENDBRANCH   1  11
TORSDOF 15
ENDMDL
