MODEL 1
REMARK VINA RESULT:    -5.417      0.000      0.000
REMARK INTER + INTRA:          -6.050
REMARK INTER:                  -6.050
REMARK INTRA:                   0.000
REMARK UNBOUND:                 0.000
REMARK SMILES Oc1cc(O)c2c(ccc3ccc(O)c(O)c32)c1
REMARK SMILES IDX 9 1 8 2 7 3 18 4 2 5 3 6 4 7 6 8 17 9 10 10 11 11 12 12
REMARK SMILES IDX 13 13 15 14 16 15 1 17 5 19 14 21
REMARK H PARENT 16 16 1 18 5 20 14 22
REMARK Flexibility Score: inf
ROOT
ATOM      1  C   UNL     1      54.635  41.505 123.277  1.00  0.00     0.009 A 
ATOM      2  C   UNL     1      53.524  40.707 123.041  1.00  0.00     0.009 A 
ATOM      3  C   UNL     1      53.624  39.314 123.119  1.00  0.00    -0.010 A 
ATOM      4  C   UNL     1      52.469  38.534 122.950  1.00  0.00     0.055 A 
ATOM      5  C   UNL     1      52.513  37.154 123.154  1.00  0.00     0.119 A 
ATOM      6  C   UNL     1      53.695  36.558 123.587  1.00  0.00     0.093 A 
ATOM      7  C   UNL     1      54.854  37.323 123.785  1.00  0.00     0.127 A 
ATOM      8  C   UNL     1      54.873  38.698 123.415  1.00  0.00     0.035 A 
ATOM      9  C   UNL     1      56.052  39.514 123.423  1.00  0.00     0.039 A 
ATOM     10  C   UNL     1      55.896  40.929 123.458  1.00  0.00    -0.014 A 
ATOM     11  C   UNL     1      57.010  41.761 123.628  1.00  0.00     0.013 A 
ATOM     12  C   UNL     1      58.289  41.220 123.687  1.00  0.00     0.051 A 
ATOM     13  C   UNL     1      58.482  39.851 123.488  1.00  0.00     0.158 A 
ATOM     14  C   UNL     1      57.376  39.002 123.295  1.00  0.00     0.166 A 
ENDROOT
BRANCH  14  15
ATOM     15  O   UNL     1      57.598  37.690 122.875  1.00  0.00    -0.504 OA
ATOM     16  H   UNL     1      58.460  37.397 122.431  1.00  0.00     0.293 HD
ENDBRANCH  14  15
BRANCH   5  17
ATOM     17  O   UNL     1      51.376  36.371 122.966  1.00  0.00    -0.508 OA
ATOM     18  H   UNL     1      50.996  35.801 123.714  1.00  0.00     0.293 HD
ENDBRANCH   5  17
BRANCH   7  19
ATOM     19  O   UNL     1      55.933  36.731 124.440  1.00  0.00    -0.507 OA
ATOM     20  H   UNL     1      56.008  36.724 125.450  1.00  0.00     0.293 HD
ENDBRANCH   7  19
BRANCH  13  21
ATOM     21  O   UNL     1      59.775  39.332 123.453  1.00  0.00    -0.504 OA
ATOM     22  H   UNL     1      60.288  39.123 124.301  1.00  0.00     0.293 HD
ENDBRANCH  13  21
TORSDOF 4
ENDMDL
MODEL 2
REMARK VINA RESULT:    -4.945      0.947      4.980
REMARK INTER + INTRA:          -5.523
REMARK INTER:                  -5.523
REMARK INTRA:                   0.000
REMARK UNBOUND:                 0.000
REMARK SMILES Oc1cc(O)c2c(ccc3ccc(O)c(O)c32)c1
REMARK SMILES IDX 9 1 8 2 7 3 18 4 2 5 3 6 4 7 6 8 17 9 10 10 11 11 12 12
REMARK SMILES IDX 13 13 15 14 16 15 1 17 5 19 14 21
REMARK H PARENT 16 16 1 18 5 20 14 22
REMARK Flexibility Score: inf
ROOT
ATOM      1  C   UNL     1      54.011  41.351 123.010  1.00  0.00     0.009 A 
ATOM      2  C   UNL     1      55.230  41.973 123.244  1.00  0.00     0.009 A 
ATOM      3  C   UNL     1      56.389  41.212 123.432  1.00  0.00    -0.010 A 
ATOM      4  C   UNL     1      57.620  41.868 123.592  1.00  0.00     0.055 A 
ATOM      5  C   UNL     1      58.807  41.136 123.646  1.00  0.00     0.119 A 
ATOM      6  C   UNL     1      58.774  39.754 123.479  1.00  0.00     0.093 A 
ATOM      7  C   UNL     1      57.556  39.082 123.295  1.00  0.00     0.127 A 
ATOM      8  C   UNL     1      56.326  39.790 123.410  1.00  0.00     0.035 A 
ATOM      9  C   UNL     1      55.037  39.163 123.404  1.00  0.00     0.039 A 
ATOM     10  C   UNL     1      53.898  39.960 123.096  1.00  0.00    -0.014 A 
ATOM     11  C   UNL     1      52.642  39.364 122.920  1.00  0.00     0.013 A 
ATOM     12  C   UNL     1      52.477  37.998 123.120  1.00  0.00     0.051 A 
ATOM     13  C   UNL     1      53.542  37.225 123.585  1.00  0.00     0.158 A 
ATOM     14  C   UNL     1      54.806  37.810 123.787  1.00  0.00     0.166 A 
ENDROOT
BRANCH  14  15
ATOM     15  O   UNL     1      55.787  37.081 124.460  1.00  0.00    -0.504 OA
ATOM     16  H   UNL     1      55.574  36.465 125.236  1.00  0.00     0.293 HD
ENDBRANCH  14  15
BRANCH   5  17
ATOM     17  O   UNL     1      60.030  41.777 123.828  1.00  0.00    -0.508 OA
ATOM     18  H   UNL     1      60.857  41.498 123.313  1.00  0.00     0.293 HD
ENDBRANCH   5  17
BRANCH   7  19
ATOM     19  O   UNL     1      57.592  37.746 122.898  1.00  0.00    -0.507 OA
ATOM     20  H   UNL     1      58.140  37.438 122.103  1.00  0.00     0.293 HD
ENDBRANCH   7  19
BRANCH  13  21
ATOM     21  O   UNL     1      53.344  35.875 123.874  1.00  0.00    -0.504 OA
ATOM     22  H   UNL     1      53.736  35.143 123.295  1.00  0.00     0.293 HD
ENDBRANCH  13  21
TORSDOF 4
ENDMDL
MODEL 3
REMARK VINA RESULT:    -4.746      3.192      4.911
REMARK INTER + INTRA:          -5.301
REMARK INTER:                  -5.301
REMARK INTRA:                   0.000
REMARK UNBOUND:                 0.000
REMARK SMILES Oc1cc(O)c2c(ccc3ccc(O)c(O)c32)c1
REMARK SMILES IDX 9 1 8 2 7 3 18 4 2 5 3 6 4 7 6 8 17 9 10 10 11 11 12 12
REMARK SMILES IDX 13 13 15 14 16 15 1 17 5 19 14 21
REMARK H PARENT 16 16 1 18 5 20 14 22
REMARK Flexibility Score: inf
ROOT
ATOM      1  C   UNL     1      52.130  39.992 124.647  1.00  0.00     0.009 A 
ATOM      2  C   UNL     1      52.976  38.973 124.227  1.00  0.00     0.009 A 
ATOM      3  C   UNL     1      54.291  39.258 123.846  1.00  0.00    -0.010 A 
ATOM      4  C   UNL     1      55.147  38.200 123.498  1.00  0.00     0.055 A 
ATOM      5  C   UNL     1      56.497  38.440 123.244  1.00  0.00     0.119 A 
ATOM      6  C   UNL     1      57.010  39.726 123.396  1.00  0.00     0.093 A 
ATOM      7  C   UNL     1      56.177  40.792 123.766  1.00  0.00     0.127 A 
ATOM      8  C   UNL     1      54.769  40.598 123.859  1.00  0.00     0.035 A 
ATOM      9  C   UNL     1      53.826  41.658 124.066  1.00  0.00     0.039 A 
ATOM     10  C   UNL     1      52.534  41.327 124.563  1.00  0.00    -0.014 A 
ATOM     11  C   UNL     1      51.636  42.338 124.931  1.00  0.00     0.013 A 
ATOM     12  C   UNL     1      51.966  43.675 124.743  1.00  0.00     0.051 A 
ATOM     13  C   UNL     1      53.158  44.020 124.103  1.00  0.00     0.158 A 
ATOM     14  C   UNL     1      54.064  43.018 123.707  1.00  0.00     0.166 A 
ENDROOT
BRANCH  14  15
ATOM     15  O   UNL     1      55.130  43.362 122.875  1.00  0.00    -0.504 OA
ATOM     16  H   UNL     1      55.815  42.687 122.557  1.00  0.00     0.293 HD
ENDBRANCH  14  15
BRANCH   5  17
ATOM     17  O   UNL     1      57.348  37.400 122.876  1.00  0.00    -0.508 OA
ATOM     18  H   UNL     1      56.990  36.533 122.492  1.00  0.00     0.293 HD
ENDBRANCH   5  17
BRANCH   7  19
ATOM     19  O   UNL     1      56.771  41.998 124.135  1.00  0.00    -0.507 OA
ATOM     20  H   UNL     1      56.222  42.808 124.399  1.00  0.00     0.293 HD
ENDBRANCH   7  19
BRANCH  13  21
ATOM     21  O   UNL     1      53.437  45.359 123.832  1.00  0.00    -0.504 OA
ATOM     22  H   UNL     1      54.280  45.639 123.345  1.00  0.00     0.293 HD
ENDBRANCH  13  21
TORSDOF 4
ENDMDL
MODEL 4
REMARK VINA RESULT:    -4.645      1.582      5.402
REMARK INTER + INTRA:          -5.188
REMARK INTER:                  -5.188
REMARK INTRA:                   0.000
REMARK UNBOUND:                 0.000
REMARK SMILES Oc1cc(O)c2c(ccc3ccc(O)c(O)c32)c1
REMARK SMILES IDX 9 1 8 2 7 3 18 4 2 5 3 6 4 7 6 8 17 9 10 10 11 11 12 12
REMARK SMILES IDX 13 13 15 14 16 15 1 17 5 19 14 21
REMARK H PARENT 16 16 1 18 5 20 14 22
REMARK Flexibility Score: inf
ROOT
ATOM      1  C   UNL     1      55.078  41.758 123.250  1.00  0.00     0.009 A 
ATOM      2  C   UNL     1      56.082  42.656 123.590  1.00  0.00     0.009 A 
ATOM      3  C   UNL     1      57.397  42.212 123.765  1.00  0.00    -0.010 A 
ATOM      4  C   UNL     1      58.406  43.151 124.035  1.00  0.00     0.055 A 
ATOM      5  C   UNL     1      59.743  42.756 124.082  1.00  0.00     0.119 A 
ATOM      6  C   UNL     1      60.083  41.436 123.799  1.00  0.00     0.093 A 
ATOM      7  C   UNL     1      59.092  40.487 123.505  1.00  0.00     0.127 A 
ATOM      8  C   UNL     1      57.716  40.832 123.623  1.00  0.00     0.035 A 
ATOM      9  C   UNL     1      56.641  39.891 123.506  1.00  0.00     0.039 A 
ATOM     10  C   UNL     1      55.338  40.385 123.215  1.00  0.00    -0.014 A 
ATOM     11  C   UNL     1      54.290  39.498 122.933  1.00  0.00     0.013 A 
ATOM     12  C   UNL     1      54.491  38.125 123.011  1.00  0.00     0.051 A 
ATOM     13  C   UNL     1      55.713  37.620 123.458  1.00  0.00     0.158 A 
ATOM     14  C   UNL     1      56.771  38.496 123.764  1.00  0.00     0.166 A 
ENDROOT
BRANCH  14  15
ATOM     15  O   UNL     1      57.896  37.992 124.419  1.00  0.00    -0.504 OA
ATOM     16  H   UNL     1      58.840  38.153 124.087  1.00  0.00     0.293 HD
ENDBRANCH  14  15
BRANCH   5  17
ATOM     17  O   UNL     1      60.747  43.677 124.371  1.00  0.00    -0.508 OA
ATOM     18  H   UNL     1      61.593  43.732 123.815  1.00  0.00     0.293 HD
ENDBRANCH   5  17
BRANCH   7  19
ATOM     19  O   UNL     1      59.492  39.250 123.000  1.00  0.00    -0.507 OA
ATOM     20  H   UNL     1      58.821  38.545 122.716  1.00  0.00     0.293 HD
ENDBRANCH   7  19
BRANCH  13  21
ATOM     21  O   UNL     1      55.875  36.245 123.625  1.00  0.00    -0.504 OA
ATOM     22  H   UNL     1      56.230  35.852 124.488  1.00  0.00     0.293 HD
ENDBRANCH  13  21
TORSDOF 4
ENDMDL
MODEL 5
REMARK VINA RESULT:    -4.468      1.394      2.028
REMARK INTER + INTRA:          -4.991
REMARK INTER:                  -4.991
REMARK INTRA:                   0.000
REMARK UNBOUND:                 0.000
REMARK SMILES Oc1cc(O)c2c(ccc3ccc(O)c(O)c32)c1
REMARK SMILES IDX 9 1 8 2 7 3 18 4 2 5 3 6 4 7 6 8 17 9 10 10 11 11 12 12
REMARK SMILES IDX 13 13 15 14 16 15 1 17 5 19 14 21
REMARK H PARENT 16 16 1 18 5 20 14 22
REMARK Flexibility Score: inf
ROOT
ATOM      1  C   UNL     1      55.407  41.932 123.272  1.00  0.00     0.009 A 
ATOM      2  C   UNL     1      54.608  40.799 123.211  1.00  0.00     0.009 A 
ATOM      3  C   UNL     1      55.155  39.533 123.445  1.00  0.00    -0.010 A 
ATOM      4  C   UNL     1      54.310  38.412 123.452  1.00  0.00     0.055 A 
ATOM      5  C   UNL     1      54.803  37.158 123.813  1.00  0.00     0.119 A 
ATOM      6  C   UNL     1      56.126  37.031 124.229  1.00  0.00     0.093 A 
ATOM      7  C   UNL     1      56.981  38.143 124.252  1.00  0.00     0.127 A 
ATOM      8  C   UNL     1      56.544  39.390 123.723  1.00  0.00     0.035 A 
ATOM      9  C   UNL     1      57.396  40.531 123.551  1.00  0.00     0.039 A 
ATOM     10  C   UNL     1      56.792  41.815 123.430  1.00  0.00    -0.014 A 
ATOM     11  C   UNL     1      57.582  42.972 123.422  1.00  0.00     0.013 A 
ATOM     12  C   UNL     1      58.968  42.877 123.454  1.00  0.00     0.051 A 
ATOM     13  C   UNL     1      59.587  41.626 123.404  1.00  0.00     0.158 A 
ATOM     14  C   UNL     1      58.810  40.453 123.392  1.00  0.00     0.166 A 
ENDROOT
BRANCH  14  15
ATOM     15  O   UNL     1      59.432  39.235 123.114  1.00  0.00    -0.504 OA
ATOM     16  H   UNL     1      59.622  38.921 122.170  1.00  0.00     0.293 HD
ENDBRANCH  14  15
BRANCH   5  17
ATOM     17  O   UNL     1      53.976  36.037 123.800  1.00  0.00    -0.508 OA
ATOM     18  H   UNL     1      53.771  35.540 122.941  1.00  0.00     0.293 HD
ENDBRANCH   5  17
BRANCH   7  19
ATOM     19  O   UNL     1      58.212  38.016 124.895  1.00  0.00    -0.507 OA
ATOM     20  H   UNL     1      59.038  38.506 124.571  1.00  0.00     0.293 HD
ENDBRANCH   7  19
BRANCH  13  21
ATOM     21  O   UNL     1      60.977  41.543 123.340  1.00  0.00    -0.504 OA
ATOM     22  H   UNL     1      61.449  40.671 123.136  1.00  0.00     0.293 HD
ENDBRANCH  13  21
TORSDOF 4
ENDMDL
MODEL 6
REMARK VINA RESULT:    -4.402     12.918     14.395
REMARK INTER + INTRA:          -4.916
REMARK INTER:                  -4.916
REMARK INTRA:                   0.000
REMARK UNBOUND:                 0.000
REMARK SMILES Oc1cc(O)c2c(ccc3ccc(O)c(O)c32)c1
REMARK SMILES IDX 9 1 8 2 7 3 18 4 2 5 3 6 4 7 6 8 17 9 10 10 11 11 12 12
REMARK SMILES IDX 13 13 15 14 16 15 1 17 5 19 14 21
REMARK H PARENT 16 16 1 18 5 20 14 22
REMARK Flexibility Score: inf
ROOT
ATOM      1  C   UNL     1      48.352  38.069 137.456  1.00  0.00     0.009 A 
ATOM      2  C   UNL     1      49.438  37.663 138.221  1.00  0.00     0.009 A 
ATOM      3  C   UNL     1      50.608  37.209 137.603  1.00  0.00    -0.010 A 
ATOM      4  C   UNL     1      51.717  36.876 138.398  1.00  0.00     0.055 A 
ATOM      5  C   UNL     1      52.936  36.549 137.805  1.00  0.00     0.119 A 
ATOM      6  C   UNL     1      53.070  36.613 136.421  1.00  0.00     0.093 A 
ATOM      7  C   UNL     1      51.981  36.966 135.610  1.00  0.00     0.127 A 
ATOM      8  C   UNL     1      50.689  37.132 136.184  1.00  0.00     0.035 A 
ATOM      9  C   UNL     1      49.491  37.327 135.420  1.00  0.00     0.039 A 
ATOM     10  C   UNL     1      48.360  37.899 136.069  1.00  0.00    -0.014 A 
ATOM     11  C   UNL     1      47.225  38.256 135.329  1.00  0.00     0.013 A 
ATOM     12  C   UNL     1      47.158  37.986 133.967  1.00  0.00     0.051 A 
ATOM     13  C   UNL     1      48.185  37.275 133.343  1.00  0.00     0.158 A 
ATOM     14  C   UNL     1      49.325  36.891 134.073  1.00  0.00     0.166 A 
ENDROOT
BRANCH  14  15
ATOM     15  O   UNL     1      50.225  35.994 133.496  1.00  0.00    -0.504 OA
ATOM     16  H   UNL     1      51.212  35.987 133.726  1.00  0.00     0.293 HD
ENDBRANCH  14  15
BRANCH   5  17
ATOM     17  O   UNL     1      54.035  36.195 138.586  1.00  0.00    -0.508 OA
ATOM     18  H   UNL     1      54.081  36.428 139.572  1.00  0.00     0.293 HD
ENDBRANCH   5  17
BRANCH   7  19
ATOM     19  O   UNL     1      52.222  37.246 134.265  1.00  0.00    -0.507 OA
ATOM     20  H   UNL     1      52.155  36.532 133.549  1.00  0.00     0.293 HD
ENDBRANCH   7  19
BRANCH  13  21
ATOM     21  O   UNL     1      48.067  36.925 131.998  1.00  0.00    -0.504 OA
ATOM     22  H   UNL     1      47.206  36.549 131.620  1.00  0.00     0.293 HD
ENDBRANCH  13  21
TORSDOF 4
ENDMDL
MODEL 7
REMARK VINA RESULT:    -4.315     13.125     14.784
REMARK INTER + INTRA:          -4.819
REMARK INTER:                  -4.819
REMARK INTRA:                   0.000
REMARK UNBOUND:                 0.000
REMARK SMILES Oc1cc(O)c2c(ccc3ccc(O)c(O)c32)c1
REMARK SMILES IDX 9 1 8 2 7 3 18 4 2 5 3 6 4 7 6 8 17 9 10 10 11 11 12 12
REMARK SMILES IDX 13 13 15 14 16 15 1 17 5 19 14 21
REMARK H PARENT 16 16 1 18 5 20 14 22
REMARK Flexibility Score: inf
ROOT
ATOM      1  C   UNL     1      50.381  36.510 133.448  1.00  0.00     0.009 A 
ATOM      2  C   UNL     1      51.510  36.494 134.257  1.00  0.00     0.009 A 
ATOM      3  C   UNL     1      51.404  36.767 135.624  1.00  0.00    -0.010 A 
ATOM      4  C   UNL     1      52.548  36.670 136.432  1.00  0.00     0.055 A 
ATOM      5  C   UNL     1      52.448  36.806 137.817  1.00  0.00     0.119 A 
ATOM      6  C   UNL     1      51.196  36.975 138.405  1.00  0.00     0.093 A 
ATOM      7  C   UNL     1      50.038  37.051 137.617  1.00  0.00     0.127 A 
ATOM      8  C   UNL     1      50.141  37.089 136.198  1.00  0.00     0.035 A 
ATOM      9  C   UNL     1      49.034  37.332 135.320  1.00  0.00     0.039 A 
ATOM     10  C   UNL     1      49.150  36.932 133.958  1.00  0.00    -0.014 A 
ATOM     11  C   UNL     1      48.042  37.001 133.103  1.00  0.00     0.013 A 
ATOM     12  C   UNL     1      46.839  37.532 133.552  1.00  0.00     0.051 A 
ATOM     13  C   UNL     1      46.750  38.084 134.831  1.00  0.00     0.158 A 
ATOM     14  C   UNL     1      47.858  38.043 135.698  1.00  0.00     0.166 A 
ENDROOT
BRANCH  14  15
ATOM     15  O   UNL     1      47.823  38.793 136.874  1.00  0.00    -0.504 OA
ATOM     16  H   UNL     1      47.637  38.379 137.780  1.00  0.00     0.293 HD
ENDBRANCH  14  15
BRANCH   5  17
ATOM     17  O   UNL     1      53.581  36.734 138.623  1.00  0.00    -0.508 OA
ATOM     18  H   UNL     1      53.880  35.861 139.042  1.00  0.00     0.293 HD
ENDBRANCH   5  17
BRANCH   7  19
ATOM     19  O   UNL     1      48.800  36.981 138.255  1.00  0.00    -0.507 OA
ATOM     20  H   UNL     1      48.289  37.814 138.524  1.00  0.00     0.293 HD
ENDBRANCH   7  19
BRANCH  13  21
ATOM     21  O   UNL     1      45.568  38.701 135.239  1.00  0.00    -0.504 OA
ATOM     22  H   UNL     1      44.940  38.263 135.902  1.00  0.00     0.293 HD
ENDBRANCH  13  21
TORSDOF 4
ENDMDL
