MODEL 1
REMARK VINA RESULT:    -4.646      0.000      0.000
REMARK INTER + INTRA:          -7.730
REMARK INTER:                  -6.819
REMARK INTRA:                  -0.910
REMARK UNBOUND:                -0.910
REMARK SMILES Cc1cc2c(C(C)C)c(O)c(O)c(C=O)c2c(O)c1-c1c(C)cc2c(C(C)C)c(O)c(O)c(C=O)c2c1O
REMARK SMILES IDX 1 1 2 2 3 3 4 4 16 5 13 6 11 7 9 8 5 9 17 10 19 11 20 12
REMARK SMILES IDX 37 13 21 14 36 15 23 16 22 17 24 18 33 19 25 20 31 21 29 22
REMARK SMILES IDX 38 23 34 25 35 26 26 27 27 28 28 29 32 30 30 32 18 34 6 36
REMARK SMILES IDX 7 37 8 38 14 39 15 40 10 41 12 43
REMARK H PARENT 38 24 32 31 30 33 18 35 10 42 12 44
REMARK Flexibility Score: inf
ROOT
ATOM      1  C   UNL     1      19.225  48.829  61.117  1.00  0.00     0.045 C 
ATOM      2  C   UNL     1      18.541  50.110  61.530  1.00  0.00    -0.039 A 
ATOM      3  C   UNL     1      17.343  50.048  62.243  1.00  0.00     0.013 A 
ATOM      4  C   UNL     1      16.681  51.211  62.696  1.00  0.00    -0.006 A 
ATOM      5  C   UNL     1      17.223  52.487  62.353  1.00  0.00     0.039 A 
ATOM      6  C   UNL     1      16.539  53.663  62.780  1.00  0.00     0.072 A 
ATOM      7  C   UNL     1      15.268  53.560  63.374  1.00  0.00     0.169 A 
ATOM      8  C   UNL     1      14.701  52.299  63.624  1.00  0.00     0.162 A 
ATOM      9  C   UNL     1      15.465  51.126  63.444  1.00  0.00     0.008 A 
ATOM     10  C   UNL     1      18.408  52.545  61.556  1.00  0.00     0.132 A 
ATOM     11  C   UNL     1      19.073  51.359  61.178  1.00  0.00     0.031 A 
ENDROOT
BRANCH  11  12
ATOM     12  C   UNL     1      20.324  51.426  60.376  1.00  0.00     0.031 A 
ATOM     13  C   UNL     1      20.259  51.556  58.972  1.00  0.00     0.132 A 
ATOM     14  C   UNL     1      21.570  51.351  61.020  1.00  0.00    -0.039 A 
ATOM     15  C   UNL     1      21.458  51.612  58.197  1.00  0.00     0.039 A 
ATOM     16  C   UNL     1      22.740  51.497  60.272  1.00  0.00     0.013 A 
ATOM     17  C   UNL     1      21.665  51.136  62.511  1.00  0.00     0.045 C 
ATOM     18  C   UNL     1      22.710  51.703  58.877  1.00  0.00    -0.006 A 
ATOM     19  C   UNL     1      21.448  51.596  56.770  1.00  0.00     0.072 A 
ATOM     20  C   UNL     1      23.905  51.972  58.145  1.00  0.00     0.008 A 
ATOM     21  C   UNL     1      22.665  51.671  56.059  1.00  0.00     0.169 A 
ATOM     22  C   UNL     1      23.873  51.865  56.738  1.00  0.00     0.162 A 
BRANCH  13  23
ATOM     23  O   UNL     1      19.010  51.656  58.352  1.00  0.00    -0.507 OA
ATOM     24  H   UNL     1      18.632  50.959  57.722  1.00  0.00     0.293 HD
ENDBRANCH  13  23
BRANCH  19  25
ATOM     25  C   UNL     1      20.201  51.408  56.000  1.00  0.00     0.264 C 
ATOM     26  O   UNL     1      20.128  50.523  55.106  1.00  0.00    -0.298 OA
ENDBRANCH  19  25
BRANCH  20  27
ATOM     27  C   UNL     1      25.215  52.363  58.851  1.00  0.00     0.017 C 
ATOM     28  C   UNL     1      25.021  53.615  59.713  1.00  0.00     0.012 C 
ATOM     29  C   UNL     1      25.845  51.217  59.663  1.00  0.00     0.012 C 
ENDBRANCH  20  27
BRANCH  21  30
ATOM     30  O   UNL     1      22.710  51.534  54.667  1.00  0.00    -0.504 OA
ATOM     31  H   UNL     1      22.844  52.303  54.025  1.00  0.00     0.293 HD
ENDBRANCH  21  30
BRANCH  22  32
ATOM     32  O   UNL     1      25.063  51.928  56.008  1.00  0.00    -0.504 OA
ATOM     33  H   UNL     1      25.706  52.709  56.064  1.00  0.00     0.293 HD
ENDBRANCH  22  32
ENDBRANCH  11  12
BRANCH  10  34
ATOM     34  O   UNL     1      18.897  53.776  61.105  1.00  0.00    -0.507 OA
ATOM     35  H   UNL     1      18.512  54.672  61.378  1.00  0.00     0.293 HD
ENDBRANCH  10  34
BRANCH   9  36
ATOM     36  C   UNL     1      14.949  49.787  64.003  1.00  0.00     0.017 C 
ATOM     37  C   UNL     1      15.868  49.264  65.111  1.00  0.00     0.012 C 
ATOM     38  C   UNL     1      14.707  48.713  62.925  1.00  0.00     0.012 C 
ENDBRANCH   9  36
BRANCH   6  39
ATOM     39  C   UNL     1      17.151  55.010  62.695  1.00  0.00     0.264 C 
ATOM     40  O   UNL     1      17.399  55.679  63.734  1.00  0.00    -0.298 OA
ENDBRANCH   6  39
BRANCH   8  41
ATOM     41  O   UNL     1      13.371  52.189  64.042  1.00  0.00    -0.504 OA
ATOM     42  H   UNL     1      12.655  52.871  63.838  1.00  0.00     0.293 HD
ENDBRANCH   8  41
BRANCH   7  43
ATOM     43  O   UNL     1      14.606  54.733  63.755  1.00  0.00    -0.504 OA
ATOM     44  H   UNL     1      13.766  55.079  63.312  1.00  0.00     0.293 HD
ENDBRANCH   7  43
TORSDOF 11
ENDMDL
MODEL 2
REMARK VINA RESULT:    -4.471      1.797      2.247
REMARK INTER + INTRA:          -7.473
REMARK INTER:                  -6.223
REMARK INTRA:                  -1.250
REMARK UNBOUND:                -0.910
REMARK SMILES Cc1cc2c(C(C)C)c(O)c(O)c(C=O)c2c(O)c1-c1c(C)cc2c(C(C)C)c(O)c(O)c(C=O)c2c1O
REMARK SMILES IDX 1 1 2 2 3 3 4 4 16 5 13 6 11 7 9 8 5 9 17 10 19 11 20 12
REMARK SMILES IDX 37 13 21 14 36 15 23 16 22 17 24 18 33 19 25 20 31 21 29 22
REMARK SMILES IDX 38 23 34 25 35 26 26 27 27 28 28 29 32 30 30 32 18 34 6 36
REMARK SMILES IDX 7 37 8 38 14 39 15 40 10 41 12 43
REMARK H PARENT 38 24 32 31 30 33 18 35 10 42 12 44
REMARK Flexibility Score: inf
ROOT
ATOM      1  C   UNL     1      19.217  49.074  61.098  1.00  0.00     0.045 C 
ATOM      2  C   UNL     1      18.201  49.934  61.810  1.00  0.00    -0.039 A 
ATOM      3  C   UNL     1      17.058  49.342  62.349  1.00  0.00     0.013 A 
ATOM      4  C   UNL     1      16.095  50.089  63.064  1.00  0.00    -0.006 A 
ATOM      5  C   UNL     1      16.269  51.502  63.179  1.00  0.00     0.039 A 
ATOM      6  C   UNL     1      15.281  52.262  63.872  1.00  0.00     0.072 A 
ATOM      7  C   UNL     1      14.081  51.652  64.277  1.00  0.00     0.169 A 
ATOM      8  C   UNL     1      13.881  50.275  64.076  1.00  0.00     0.162 A 
ATOM      9  C   UNL     1      14.941  49.459  63.626  1.00  0.00     0.008 A 
ATOM     10  C   UNL     1      17.402  52.113  62.559  1.00  0.00     0.132 A 
ATOM     11  C   UNL     1      18.373  51.323  61.907  1.00  0.00     0.031 A 
ENDROOT
BRANCH  11  12
ATOM     12  C   UNL     1      19.567  51.961  61.292  1.00  0.00     0.031 A 
ATOM     13  C   UNL     1      19.571  52.278  59.916  1.00  0.00     0.132 A 
ATOM     14  C   UNL     1      20.694  52.241  62.082  1.00  0.00    -0.039 A 
ATOM     15  C   UNL     1      20.718  52.884  59.319  1.00  0.00     0.039 A 
ATOM     16  C   UNL     1      21.779  52.914  61.518  1.00  0.00     0.013 A 
ATOM     17  C   UNL     1      20.743  51.842  63.538  1.00  0.00     0.045 C 
ATOM     18  C   UNL     1      21.785  53.312  60.165  1.00  0.00    -0.006 A 
ATOM     19  C   UNL     1      20.830  53.090  57.911  1.00  0.00     0.072 A 
ATOM     20  C   UNL     1      22.847  54.105  59.634  1.00  0.00     0.008 A 
ATOM     21  C   UNL     1      21.982  53.709  57.382  1.00  0.00     0.169 A 
ATOM     22  C   UNL     1      22.970  54.216  58.232  1.00  0.00     0.162 A 
BRANCH  13  23
ATOM     23  O   UNL     1      18.429  52.017  59.152  1.00  0.00    -0.507 OA
ATOM     24  H   UNL     1      18.451  51.691  58.194  1.00  0.00     0.293 HD
ENDBRANCH  13  23
BRANCH  19  25
ATOM     25  C   UNL     1      19.810  52.589  56.966  1.00  0.00     0.264 C 
ATOM     26  O   UNL     1      20.124  51.770  56.061  1.00  0.00    -0.298 OA
ENDBRANCH  19  25
BRANCH  20  27
ATOM     27  C   UNL     1      23.853  54.827  60.548  1.00  0.00     0.017 C 
ATOM     28  C   UNL     1      23.135  55.783  61.506  1.00  0.00     0.012 C 
ATOM     29  C   UNL     1      24.790  53.871  61.310  1.00  0.00     0.012 C 
ENDBRANCH  20  27
BRANCH  21  30
ATOM     30  O   UNL     1      22.186  53.818  56.001  1.00  0.00    -0.504 OA
ATOM     31  H   UNL     1      21.563  53.435  55.304  1.00  0.00     0.293 HD
ENDBRANCH  21  30
BRANCH  22  32
ATOM     32  O   UNL     1      24.103  54.818  57.679  1.00  0.00    -0.504 OA
ATOM     33  H   UNL     1      24.944  55.008  58.210  1.00  0.00     0.293 HD
ENDBRANCH  22  32
ENDBRANCH  11  12
BRANCH  10  34
ATOM     34  O   UNL     1      17.538  53.506  62.553  1.00  0.00    -0.507 OA
ATOM     35  H   UNL     1      16.764  54.149  62.445  1.00  0.00     0.293 HD
ENDBRANCH  10  34
BRANCH   9  36
ATOM     36  C   UNL     1      14.807  47.927  63.699  1.00  0.00     0.017 C 
ATOM     37  C   UNL     1      13.748  47.421  62.715  1.00  0.00     0.012 C 
ATOM     38  C   UNL     1      14.551  47.390  65.120  1.00  0.00     0.012 C 
ENDBRANCH   9  36
BRANCH   6  39
ATOM     39  C   UNL     1      15.500  53.676  64.261  1.00  0.00     0.264 C 
ATOM     40  O   UNL     1      14.902  54.613  63.669  1.00  0.00    -0.298 OA
ENDBRANCH   6  39
BRANCH   8  41
ATOM     41  O   UNL     1      12.628  49.699  64.307  1.00  0.00    -0.504 OA
ATOM     42  H   UNL     1      11.902  49.625  63.609  1.00  0.00     0.293 HD
ENDBRANCH   8  41
BRANCH   7  43
ATOM     43  O   UNL     1      13.116  52.430  64.929  1.00  0.00    -0.504 OA
ATOM     44  H   UNL     1      13.241  53.403  65.169  1.00  0.00     0.293 HD
ENDBRANCH   7  43
TORSDOF 11
ENDMDL
MODEL 3
REMARK VINA RESULT:    -4.420      1.880      9.075
REMARK INTER + INTRA:          -7.398
REMARK INTER:                  -6.168
REMARK INTRA:                  -1.229
REMARK UNBOUND:                -0.910
REMARK SMILES Cc1cc2c(C(C)C)c(O)c(O)c(C=O)c2c(O)c1-c1c(C)cc2c(C(C)C)c(O)c(O)c(C=O)c2c1O
REMARK SMILES IDX 1 1 2 2 3 3 4 4 16 5 13 6 11 7 9 8 5 9 17 10 19 11 20 12
REMARK SMILES IDX 37 13 21 14 36 15 23 16 22 17 24 18 33 19 25 20 31 21 29 22
REMARK SMILES IDX 38 23 34 25 35 26 26 27 27 28 28 29 32 30 30 32 18 34 6 36
REMARK SMILES IDX 7 37 8 38 14 39 15 40 10 41 12 43
REMARK H PARENT 38 24 32 31 30 33 18 35 10 42 12 44
REMARK Flexibility Score: inf
ROOT
ATOM      1  C   UNL     1      20.339  52.601  63.844  1.00  0.00     0.045 C 
ATOM      2  C   UNL     1      20.391  52.693  62.338  1.00  0.00    -0.039 A 
ATOM      3  C   UNL     1      21.445  53.375  61.729  1.00  0.00     0.013 A 
ATOM      4  C   UNL     1      21.571  53.456  60.324  1.00  0.00    -0.006 A 
ATOM      5  C   UNL     1      20.551  52.877  59.509  1.00  0.00     0.039 A 
ATOM      6  C   UNL     1      20.659  52.986  58.091  1.00  0.00     0.072 A 
ATOM      7  C   UNL     1      21.658  53.797  57.523  1.00  0.00     0.169 A 
ATOM      8  C   UNL     1      22.603  54.439  58.341  1.00  0.00     0.162 A 
ATOM      9  C   UNL     1      22.671  54.142  59.719  1.00  0.00     0.008 A 
ATOM     10  C   UNL     1      19.435  52.247  60.139  1.00  0.00     0.132 A 
ATOM     11  C   UNL     1      19.378  52.133  61.545  1.00  0.00     0.031 A 
ENDROOT
BRANCH  11  12
ATOM     12  C   UNL     1      18.230  51.448  62.195  1.00  0.00     0.031 A 
ATOM     13  C   UNL     1      17.078  52.181  62.554  1.00  0.00     0.132 A 
ATOM     14  C   UNL     1      18.298  50.069  62.458  1.00  0.00    -0.039 A 
ATOM     15  C   UNL     1      15.976  51.528  63.186  1.00  0.00     0.039 A 
ATOM     16  C   UNL     1      17.186  49.416  62.992  1.00  0.00     0.013 A 
ATOM     17  C   UNL     1      19.548  49.279  62.153  1.00  0.00     0.045 C 
ATOM     18  C   UNL     1      15.992  50.105  63.293  1.00  0.00    -0.006 A 
ATOM     19  C   UNL     1      14.854  52.245  63.699  1.00  0.00     0.072 A 
ATOM     20  C   UNL     1      14.825  49.405  63.724  1.00  0.00     0.008 A 
ATOM     21  C   UNL     1      13.787  51.543  64.298  1.00  0.00     0.169 A 
ATOM     22  C   UNL     1      13.770  50.144  64.302  1.00  0.00     0.162 A 
BRANCH  13  23
ATOM     23  O   UNL     1      17.019  53.547  62.260  1.00  0.00    -0.507 OA
ATOM     24  H   UNL     1      16.230  54.141  62.484  1.00  0.00     0.293 HD
ENDBRANCH  13  23
BRANCH  19  25
ATOM     25  C   UNL     1      14.810  53.722  63.709  1.00  0.00     0.264 C 
ATOM     26  O   UNL     1      15.149  54.365  64.738  1.00  0.00    -0.298 OA
ENDBRANCH  19  25
BRANCH  20  27
ATOM     27  C   UNL     1      14.699  47.878  63.580  1.00  0.00     0.017 C 
ATOM     28  C   UNL     1      14.795  47.188  64.945  1.00  0.00     0.012 C 
ATOM     29  C   UNL     1      13.439  47.433  62.815  1.00  0.00     0.012 C 
ENDBRANCH  20  27
BRANCH  21  30
ATOM     30  O   UNL     1      12.728  52.212  64.923  1.00  0.00    -0.504 OA
ATOM     31  H   UNL     1      12.781  52.618  65.847  1.00  0.00     0.293 HD
ENDBRANCH  21  30
BRANCH  22  32
ATOM     32  O   UNL     1      12.704  49.476  64.909  1.00  0.00    -0.504 OA
ATOM     33  H   UNL     1      11.781  49.416  64.495  1.00  0.00     0.293 HD
ENDBRANCH  22  32
ENDBRANCH  11  12
BRANCH  10  34
ATOM     34  O   UNL     1      18.364  51.776  59.373  1.00  0.00    -0.507 OA
ATOM     35  H   UNL     1      18.311  51.854  58.365  1.00  0.00     0.293 HD
ENDBRANCH  10  34
BRANCH   9  36
ATOM     36  C   UNL     1      23.887  54.608  60.541  1.00  0.00     0.017 C 
ATOM     37  C   UNL     1      23.856  56.125  60.753  1.00  0.00     0.012 C 
ATOM     38  C   UNL     1      25.241  54.152  59.964  1.00  0.00     0.012 C 
ENDBRANCH   9  36
BRANCH   6  39
ATOM     39  C   UNL     1      19.798  52.207  57.169  1.00  0.00     0.264 C 
ATOM     40  O   UNL     1      20.299  51.447  56.298  1.00  0.00    -0.298 OA
ENDBRANCH   6  39
BRANCH   8  41
ATOM     41  O   UNL     1      23.480  55.387  57.804  1.00  0.00    -0.504 OA
ATOM     42  H   UNL     1      24.435  55.510  58.106  1.00  0.00     0.293 HD
ENDBRANCH   8  41
BRANCH   7  43
ATOM     43  O   UNL     1      21.721  53.910  56.129  1.00  0.00    -0.504 OA
ATOM     44  H   UNL     1      20.918  53.847  55.518  1.00  0.00     0.293 HD
ENDBRANCH   7  43
TORSDOF 11
ENDMDL
MODEL 4
REMARK VINA RESULT:    -4.419      1.979      9.185
REMARK INTER + INTRA:          -7.395
REMARK INTER:                  -6.402
REMARK INTRA:                  -0.993
REMARK UNBOUND:                -0.910
REMARK SMILES Cc1cc2c(C(C)C)c(O)c(O)c(C=O)c2c(O)c1-c1c(C)cc2c(C(C)C)c(O)c(O)c(C=O)c2c1O
REMARK SMILES IDX 1 1 2 2 3 3 4 4 16 5 13 6 11 7 9 8 5 9 17 10 19 11 20 12
REMARK SMILES IDX 37 13 21 14 36 15 23 16 22 17 24 18 33 19 25 20 31 21 29 22
REMARK SMILES IDX 38 23 34 25 35 26 26 27 27 28 28 29 32 30 30 32 18 34 6 36
REMARK SMILES IDX 7 37 8 38 14 39 15 40 10 41 12 43
REMARK H PARENT 38 24 32 31 30 33 18 35 10 42 12 44
REMARK Flexibility Score: inf
ROOT
ATOM      1  C   UNL     1      21.898  53.537  60.913  1.00  0.00     0.045 C 
ATOM      2  C   UNL     1      21.923  52.927  59.533  1.00  0.00    -0.039 A 
ATOM      3  C   UNL     1      23.040  53.120  58.718  1.00  0.00     0.013 A 
ATOM      4  C   UNL     1      23.139  52.537  57.435  1.00  0.00    -0.006 A 
ATOM      5  C   UNL     1      22.034  51.782  56.936  1.00  0.00     0.039 A 
ATOM      6  C   UNL     1      22.118  51.220  55.628  1.00  0.00     0.072 A 
ATOM      7  C   UNL     1      23.197  51.552  54.789  1.00  0.00     0.169 A 
ATOM      8  C   UNL     1      24.237  52.372  55.260  1.00  0.00     0.162 A 
ATOM      9  C   UNL     1      24.301  52.729  56.624  1.00  0.00     0.008 A 
ATOM     10  C   UNL     1      20.863  51.653  57.744  1.00  0.00     0.132 A 
ATOM     11  C   UNL     1      20.828  52.199  59.045  1.00  0.00     0.031 A 
ENDROOT
BRANCH  11  12
ATOM     12  C   UNL     1      19.618  52.033  59.894  1.00  0.00     0.031 A 
ATOM     13  C   UNL     1      19.452  50.866  60.671  1.00  0.00     0.132 A 
ATOM     14  C   UNL     1      18.637  53.038  59.915  1.00  0.00    -0.039 A 
ATOM     15  C   UNL     1      18.289  50.699  61.483  1.00  0.00     0.039 A 
ATOM     16  C   UNL     1      17.546  52.915  60.777  1.00  0.00     0.013 A 
ATOM     17  C   UNL     1      18.755  54.260  59.036  1.00  0.00     0.045 C 
ATOM     18  C   UNL     1      17.388  51.797  61.622  1.00  0.00    -0.006 A 
ATOM     19  C   UNL     1      18.004  49.481  62.170  1.00  0.00     0.072 A 
ATOM     20  C   UNL     1      16.333  51.741  62.583  1.00  0.00     0.008 A 
ATOM     21  C   UNL     1      16.846  49.382  62.971  1.00  0.00     0.169 A 
ATOM     22  C   UNL     1      16.030  50.499  63.180  1.00  0.00     0.162 A 
BRANCH  13  23
ATOM     23  O   UNL     1      20.453  49.889  60.657  1.00  0.00    -0.507 OA
ATOM     24  H   UNL     1      21.223  49.858  61.314  1.00  0.00     0.293 HD
ENDBRANCH  13  23
BRANCH  19  25
ATOM     25  C   UNL     1      18.839  48.274  61.998  1.00  0.00     0.264 C 
ATOM     26  O   UNL     1      19.592  47.879  62.928  1.00  0.00    -0.298 OA
ENDBRANCH  19  25
BRANCH  20  27
ATOM     27  C   UNL     1      15.526  52.993  62.971  1.00  0.00     0.017 C 
ATOM     28  C   UNL     1      14.047  52.651  63.173  1.00  0.00     0.012 C 
ATOM     29  C   UNL     1      16.099  53.744  64.187  1.00  0.00     0.012 C 
ENDBRANCH  20  27
BRANCH  21  30
ATOM     30  O   UNL     1      16.464  48.172  63.560  1.00  0.00    -0.504 OA
ATOM     31  H   UNL     1      16.528  47.273  63.102  1.00  0.00     0.293 HD
ENDBRANCH  21  30
BRANCH  22  32
ATOM     32  O   UNL     1      14.886  50.369  63.971  1.00  0.00    -0.504 OA
ATOM     33  H   UNL     1      13.977  50.720  63.693  1.00  0.00     0.293 HD
ENDBRANCH  22  32
ENDBRANCH  11  12
BRANCH  10  34
ATOM     34  O   UNL     1      19.721  51.022  57.237  1.00  0.00    -0.507 OA
ATOM     35  H   UNL     1      18.998  50.612  57.815  1.00  0.00     0.293 HD
ENDBRANCH  10  34
BRANCH   9  36
ATOM     36  C   UNL     1      25.588  53.362  57.186  1.00  0.00     0.017 C 
ATOM     37  C   UNL     1      26.125  52.552  58.370  1.00  0.00     0.012 C 
ATOM     38  C   UNL     1      25.443  54.852  57.548  1.00  0.00     0.012 C 
ENDBRANCH   9  36
BRANCH   6  39
ATOM     39  C   UNL     1      21.142  50.221  55.131  1.00  0.00     0.264 C 
ATOM     40  O   UNL     1      20.272  50.533  54.275  1.00  0.00    -0.298 OA
ENDBRANCH   6  39
BRANCH   8  41
ATOM     41  O   UNL     1      25.213  52.854  54.382  1.00  0.00    -0.504 OA
ATOM     42  H   UNL     1      26.207  52.739  54.522  1.00  0.00     0.293 HD
ENDBRANCH   8  41
BRANCH   7  43
ATOM     43  O   UNL     1      23.239  51.010  53.499  1.00  0.00    -0.504 OA
ATOM     44  H   UNL     1      22.634  50.267  53.177  1.00  0.00     0.293 HD
ENDBRANCH   7  43
TORSDOF 11
ENDMDL
MODEL 5
REMARK VINA RESULT:    -3.720      2.288      2.504
REMARK INTER + INTRA:          -6.370
REMARK INTER:                  -5.726
REMARK INTRA:                  -0.644
REMARK UNBOUND:                -0.910
REMARK SMILES Cc1cc2c(C(C)C)c(O)c(O)c(C=O)c2c(O)c1-c1c(C)cc2c(C(C)C)c(O)c(O)c(C=O)c2c1O
REMARK SMILES IDX 1 1 2 2 3 3 4 4 16 5 13 6 11 7 9 8 5 9 17 10 19 11 20 12
REMARK SMILES IDX 37 13 21 14 36 15 23 16 22 17 24 18 33 19 25 20 31 21 29 22
REMARK SMILES IDX 38 23 34 25 35 26 26 27 27 28 28 29 32 30 30 32 18 34 6 36
REMARK SMILES IDX 7 37 8 38 14 39 15 40 10 41 12 43
REMARK H PARENT 38 24 32 31 30 33 18 35 10 42 12 44
REMARK Flexibility Score: inf
ROOT
ATOM      1  C   UNL     1      19.719  50.786  60.114  1.00  0.00     0.045 C 
ATOM      2  C   UNL     1      18.991  51.801  60.961  1.00  0.00    -0.039 A 
ATOM      3  C   UNL     1      17.858  51.409  61.677  1.00  0.00     0.013 A 
ATOM      4  C   UNL     1      17.161  52.302  62.521  1.00  0.00    -0.006 A 
ATOM      5  C   UNL     1      17.594  53.661  62.590  1.00  0.00     0.039 A 
ATOM      6  C   UNL     1      16.872  54.573  63.416  1.00  0.00     0.072 A 
ATOM      7  C   UNL     1      15.661  54.175  64.009  1.00  0.00     0.169 A 
ATOM      8  C   UNL     1      15.195  52.857  63.859  1.00  0.00     0.162 A 
ATOM      9  C   UNL     1      16.015  51.876  63.263  1.00  0.00     0.008 A 
ATOM     10  C   UNL     1      18.707  54.075  61.796  1.00  0.00     0.132 A 
ATOM     11  C   UNL     1      19.414  53.137  61.013  1.00  0.00     0.031 A 
ENDROOT
BRANCH  11  12
ATOM     12  C   UNL     1      20.592  53.566  60.213  1.00  0.00     0.031 A 
ATOM     13  C   UNL     1      20.409  54.171  58.951  1.00  0.00     0.132 A 
ATOM     14  C   UNL     1      21.888  53.360  60.714  1.00  0.00    -0.039 A 
ATOM     15  C   UNL     1      21.538  54.578  58.175  1.00  0.00     0.039 A 
ATOM     16  C   UNL     1      22.986  53.839  59.997  1.00  0.00     0.013 A 
ATOM     17  C   UNL     1      22.112  52.647  62.026  1.00  0.00     0.045 C 
ATOM     18  C   UNL     1      22.835  54.515  58.768  1.00  0.00    -0.006 A 
ATOM     19  C   UNL     1      21.415  55.059  56.837  1.00  0.00     0.072 A 
ATOM     20  C   UNL     1      23.955  55.104  58.107  1.00  0.00     0.008 A 
ATOM     21  C   UNL     1      22.566  55.461  56.127  1.00  0.00     0.169 A 
ATOM     22  C   UNL     1      23.814  55.491  56.758  1.00  0.00     0.162 A 
BRANCH  13  23
ATOM     23  O   UNL     1      19.111  54.392  58.481  1.00  0.00    -0.507 OA
ATOM     24  H   UNL     1      18.532  55.174  58.762  1.00  0.00     0.293 HD
ENDBRANCH  13  23
BRANCH  19  25
ATOM     25  C   UNL     1      20.119  55.062  56.126  1.00  0.00     0.264 C 
ATOM     26  O   UNL     1      19.433  56.117  56.052  1.00  0.00    -0.298 OA
ENDBRANCH  19  25
BRANCH  20  27
ATOM     27  C   UNL     1      25.298  55.317  58.827  1.00  0.00     0.017 C 
ATOM     28  C   UNL     1      25.108  56.121  60.117  1.00  0.00     0.012 C 
ATOM     29  C   UNL     1      26.071  54.012  59.090  1.00  0.00     0.012 C 
ENDBRANCH  20  27
BRANCH  21  30
ATOM     30  O   UNL     1      22.505  55.820  54.776  1.00  0.00    -0.504 OA
ATOM     31  H   UNL     1      23.236  56.319  54.288  1.00  0.00     0.293 HD
ENDBRANCH  21  30
BRANCH  22  32
ATOM     32  O   UNL     1      24.937  55.888  56.027  1.00  0.00    -0.504 OA
ATOM     33  H   UNL     1      25.374  55.304  55.323  1.00  0.00     0.293 HD
ENDBRANCH  22  32
ENDBRANCH  11  12
BRANCH  10  34
ATOM     34  O   UNL     1      19.081  55.422  61.750  1.00  0.00    -0.507 OA
ATOM     35  H   UNL     1      19.257  55.989  62.570  1.00  0.00     0.293 HD
ENDBRANCH  10  34
BRANCH   9  36
ATOM     36  C   UNL     1      15.629  50.389  63.376  1.00  0.00     0.017 C 
ATOM     37  C   UNL     1      16.258  49.752  64.619  1.00  0.00     0.012 C 
ATOM     38  C   UNL     1      15.937  49.567  62.110  1.00  0.00     0.012 C 
ENDBRANCH   9  36
BRANCH   6  39
ATOM     39  C   UNL     1      17.390  55.921  63.748  1.00  0.00     0.264 C 
ATOM     40  O   UNL     1      18.051  56.123  64.801  1.00  0.00    -0.298 OA
ENDBRANCH   6  39
BRANCH   8  41
ATOM     41  O   UNL     1      13.911  52.505  64.287  1.00  0.00    -0.504 OA
ATOM     42  H   UNL     1      13.175  52.191  63.671  1.00  0.00     0.293 HD
ENDBRANCH   8  41
BRANCH   7  43
ATOM     43  O   UNL     1      14.957  55.100  64.790  1.00  0.00    -0.504 OA
ATOM     44  H   UNL     1      13.988  54.996  65.056  1.00  0.00     0.293 HD
ENDBRANCH   7  43
TORSDOF 11
ENDMDL
MODEL 6
REMARK VINA RESULT:    -3.682      2.688      3.974
REMARK INTER + INTRA:          -6.314
REMARK INTER:                  -5.136
REMARK INTRA:                  -1.178
REMARK UNBOUND:                -0.910
REMARK SMILES Cc1cc2c(C(C)C)c(O)c(O)c(C=O)c2c(O)c1-c1c(C)cc2c(C(C)C)c(O)c(O)c(C=O)c2c1O
REMARK SMILES IDX 1 1 2 2 3 3 4 4 16 5 13 6 11 7 9 8 5 9 17 10 19 11 20 12
REMARK SMILES IDX 37 13 21 14 36 15 23 16 22 17 24 18 33 19 25 20 31 21 29 22
REMARK SMILES IDX 38 23 34 25 35 26 26 27 27 28 28 29 32 30 30 32 18 34 6 36
REMARK SMILES IDX 7 37 8 38 14 39 15 40 10 41 12 43
REMARK H PARENT 38 24 32 31 30 33 18 35 10 42 12 44
REMARK Flexibility Score: inf
ROOT
ATOM      1  C   UNL     1      19.212  49.879  60.703  1.00  0.00     0.045 C 
ATOM      2  C   UNL     1      18.204  50.639  61.531  1.00  0.00    -0.039 A 
ATOM      3  C   UNL     1      17.132  49.953  62.105  1.00  0.00     0.013 A 
ATOM      4  C   UNL     1      16.182  50.601  62.926  1.00  0.00    -0.006 A 
ATOM      5  C   UNL     1      16.290  52.013  63.116  1.00  0.00     0.039 A 
ATOM      6  C   UNL     1      15.313  52.675  63.918  1.00  0.00     0.072 A 
ATOM      7  C   UNL     1      14.177  51.975  64.362  1.00  0.00     0.169 A 
ATOM      8  C   UNL     1      14.036  50.603  64.090  1.00  0.00     0.162 A 
ATOM      9  C   UNL     1      15.104  49.876  63.523  1.00  0.00     0.008 A 
ATOM     10  C   UNL     1      17.343  52.722  62.463  1.00  0.00     0.132 A 
ATOM     11  C   UNL     1      18.308  52.027  61.702  1.00  0.00     0.031 A 
ENDROOT
BRANCH  11  12
ATOM     12  C   UNL     1      19.422  52.766  61.051  1.00  0.00     0.031 A 
ATOM     13  C   UNL     1      20.672  52.878  61.698  1.00  0.00     0.132 A 
ATOM     14  C   UNL     1      19.225  53.360  59.793  1.00  0.00    -0.039 A 
ATOM     15  C   UNL     1      21.743  53.593  61.079  1.00  0.00     0.039 A 
ATOM     16  C   UNL     1      20.297  53.980  59.150  1.00  0.00     0.013 A 
ATOM     17  C   UNL     1      17.875  53.320  59.116  1.00  0.00     0.045 C 
ATOM     18  C   UNL     1      21.579  54.044  59.735  1.00  0.00    -0.006 A 
ATOM     19  C   UNL     1      22.974  53.859  61.750  1.00  0.00     0.072 A 
ATOM     20  C   UNL     1      22.693  54.573  59.016  1.00  0.00     0.008 A 
ATOM     21  C   UNL     1      24.002  54.556  61.081  1.00  0.00     0.169 A 
ATOM     22  C   UNL     1      23.864  54.899  59.732  1.00  0.00     0.162 A 
BRANCH  13  23
ATOM     23  O   UNL     1      20.857  52.257  62.937  1.00  0.00    -0.507 OA
ATOM     24  H   UNL     1      20.706  51.270  63.104  1.00  0.00     0.293 HD
ENDBRANCH  13  23
BRANCH  19  25
ATOM     25  C   UNL     1      23.180  53.506  63.171  1.00  0.00     0.264 C 
ATOM     26  O   UNL     1      23.948  52.560  63.491  1.00  0.00    -0.298 OA
ENDBRANCH  19  25
BRANCH  20  27
ATOM     27  C   UNL     1      22.639  54.799  57.495  1.00  0.00     0.017 C 
ATOM     28  C   UNL     1      22.410  53.479  56.752  1.00  0.00     0.012 C 
ATOM     29  C   UNL     1      21.618  55.868  57.065  1.00  0.00     0.012 C 
ENDBRANCH  20  27
BRANCH  21  30
ATOM     30  O   UNL     1      25.173  54.946  61.741  1.00  0.00    -0.504 OA
ATOM     31  H   UNL     1      25.942  55.425  61.295  1.00  0.00     0.293 HD
ENDBRANCH  21  30
BRANCH  22  32
ATOM     32  O   UNL     1      24.896  55.597  59.098  1.00  0.00    -0.504 OA
ATOM     33  H   UNL     1      24.914  55.772  58.100  1.00  0.00     0.293 HD
ENDBRANCH  22  32
ENDBRANCH  11  12
BRANCH  10  34
ATOM     34  O   UNL     1      17.406  54.118  62.533  1.00  0.00    -0.507 OA
ATOM     35  H   UNL     1      17.341  54.728  61.729  1.00  0.00     0.293 HD
ENDBRANCH  10  34
BRANCH   9  36
ATOM     36  C   UNL     1      15.056  48.337  63.510  1.00  0.00     0.017 C 
ATOM     37  C   UNL     1      13.761  47.834  62.864  1.00  0.00     0.012 C 
ATOM     38  C   UNL     1      15.278  47.694  64.893  1.00  0.00     0.012 C 
ENDBRANCH   9  36
BRANCH   6  39
ATOM     39  C   UNL     1      15.483  54.074  64.377  1.00  0.00     0.264 C 
ATOM     40  O   UNL     1      14.697  54.983  63.998  1.00  0.00    -0.298 OA
ENDBRANCH   6  39
BRANCH   8  41
ATOM     41  O   UNL     1      12.833  49.945  64.366  1.00  0.00    -0.504 OA
ATOM     42  H   UNL     1      11.971  50.107  63.865  1.00  0.00     0.293 HD
ENDBRANCH   8  41
BRANCH   7  43
ATOM     43  O   UNL     1      13.219  52.658  65.121  1.00  0.00    -0.504 OA
ATOM     44  H   UNL     1      13.084  53.660  65.094  1.00  0.00     0.293 HD
ENDBRANCH   7  43
TORSDOF 11
ENDMDL
MODEL 7
REMARK VINA RESULT:    -3.335      2.775      3.929
REMARK INTER + INTRA:          -5.805
REMARK INTER:                  -4.955
REMARK INTRA:                  -0.850
REMARK UNBOUND:                -0.910
REMARK SMILES Cc1cc2c(C(C)C)c(O)c(O)c(C=O)c2c(O)c1-c1c(C)cc2c(C(C)C)c(O)c(O)c(C=O)c2c1O
REMARK SMILES IDX 1 1 2 2 3 3 4 4 16 5 13 6 11 7 9 8 5 9 17 10 19 11 20 12
REMARK SMILES IDX 37 13 21 14 36 15 23 16 22 17 24 18 33 19 25 20 31 21 29 22
REMARK SMILES IDX 38 23 34 25 35 26 26 27 27 28 28 29 32 30 30 32 18 34 6 36
REMARK SMILES IDX 7 37 8 38 14 39 15 40 10 41 12 43
REMARK H PARENT 38 24 32 31 30 33 18 35 10 42 12 44
REMARK Flexibility Score: inf
ROOT
ATOM      1  C   UNL     1      19.670  51.068  59.971  1.00  0.00     0.045 C 
ATOM      2  C   UNL     1      18.852  51.979  60.853  1.00  0.00    -0.039 A 
ATOM      3  C   UNL     1      17.780  51.453  61.576  1.00  0.00     0.013 A 
ATOM      4  C   UNL     1      17.006  52.247  62.451  1.00  0.00    -0.006 A 
ATOM      5  C   UNL     1      17.292  53.643  62.546  1.00  0.00     0.039 A 
ATOM      6  C   UNL     1      16.491  54.453  63.404  1.00  0.00     0.072 A 
ATOM      7  C   UNL     1      15.339  53.915  64.004  1.00  0.00     0.169 A 
ATOM      8  C   UNL     1      15.014  52.558  63.830  1.00  0.00     0.162 A 
ATOM      9  C   UNL     1      15.924  51.684  63.199  1.00  0.00     0.008 A 
ATOM     10  C   UNL     1      18.341  54.191  61.746  1.00  0.00     0.132 A 
ATOM     11  C   UNL     1      19.131  53.352  60.931  1.00  0.00     0.031 A 
ENDROOT
BRANCH  11  12
ATOM     12  C   UNL     1      20.243  53.922  60.125  1.00  0.00     0.031 A 
ATOM     13  C   UNL     1      21.528  54.064  60.691  1.00  0.00     0.132 A 
ATOM     14  C   UNL     1      20.009  54.326  58.800  1.00  0.00    -0.039 A 
ATOM     15  C   UNL     1      22.598  54.619  59.923  1.00  0.00     0.039 A 
ATOM     16  C   UNL     1      21.074  54.783  58.022  1.00  0.00     0.013 A 
ATOM     17  C   UNL     1      18.626  54.256  58.197  1.00  0.00     0.045 C 
ATOM     18  C   UNL     1      22.386  54.868  58.534  1.00  0.00    -0.006 A 
ATOM     19  C   UNL     1      23.873  54.918  60.491  1.00  0.00     0.072 A 
ATOM     20  C   UNL     1      23.485  55.220  57.693  1.00  0.00     0.008 A 
ATOM     21  C   UNL     1      24.896  55.449  59.677  1.00  0.00     0.169 A 
ATOM     22  C   UNL     1      24.705  55.589  58.298  1.00  0.00     0.162 A 
BRANCH  13  23
ATOM     23  O   UNL     1      21.748  53.631  62.003  1.00  0.00    -0.507 OA
ATOM     24  H   UNL     1      22.003  54.245  62.766  1.00  0.00     0.293 HD
ENDBRANCH  13  23
BRANCH  19  25
ATOM     25  C   UNL     1      24.135  54.776  61.938  1.00  0.00     0.264 C 
ATOM     26  O   UNL     1      24.754  53.772  62.381  1.00  0.00    -0.298 OA
ENDBRANCH  19  25
BRANCH  20  27
ATOM     27  C   UNL     1      23.364  55.214  56.159  1.00  0.00     0.017 C 
ATOM     28  C   UNL     1      23.477  53.789  55.606  1.00  0.00     0.012 C 
ATOM     29  C   UNL     1      22.098  55.918  55.637  1.00  0.00     0.012 C 
ENDBRANCH  20  27
BRANCH  21  30
ATOM     30  O   UNL     1      26.116  55.872  60.217  1.00  0.00    -0.504 OA
ATOM     31  H   UNL     1      26.648  56.657  59.869  1.00  0.00     0.293 HD
ENDBRANCH  21  30
BRANCH  22  32
ATOM     32  O   UNL     1      25.734  56.125  57.519  1.00  0.00    -0.504 OA
ATOM     33  H   UNL     1      25.935  57.117  57.474  1.00  0.00     0.293 HD
ENDBRANCH  22  32
ENDBRANCH  11  12
BRANCH  10  34
ATOM     34  O   UNL     1      18.569  55.571  61.727  1.00  0.00    -0.507 OA
ATOM     35  H   UNL     1      18.120  56.227  62.354  1.00  0.00     0.293 HD
ENDBRANCH  10  34
BRANCH   9  36
ATOM     36  C   UNL     1      15.702  50.162  63.282  1.00  0.00     0.017 C 
ATOM     37  C   UNL     1      16.613  49.531  64.339  1.00  0.00     0.012 C 
ATOM     38  C   UNL     1      15.830  49.438  61.928  1.00  0.00     0.012 C 
ENDBRANCH   9  36
BRANCH   6  39
ATOM     39  C   UNL     1      16.868  55.842  63.760  1.00  0.00     0.264 C 
ATOM     40  O   UNL     1      17.309  56.122  64.906  1.00  0.00    -0.298 OA
ENDBRANCH   6  39
BRANCH   8  41
ATOM     41  O   UNL     1      13.783  52.061  64.268  1.00  0.00    -0.504 OA
ATOM     42  H   UNL     1      12.888  52.419  63.965  1.00  0.00     0.293 HD
ENDBRANCH   8  41
BRANCH   7  43
ATOM     43  O   UNL     1      14.554  54.742  64.817  1.00  0.00    -0.504 OA
ATOM     44  H   UNL     1      14.400  55.725  64.644  1.00  0.00     0.293 HD
ENDBRANCH   7  43
TORSDOF 11
ENDMDL
MODEL 8
REMARK VINA RESULT:    -3.300      1.025      9.011
REMARK INTER + INTRA:          -5.753
REMARK INTER:                  -4.754
REMARK INTRA:                  -0.999
REMARK UNBOUND:                -0.910
REMARK SMILES Cc1cc2c(C(C)C)c(O)c(O)c(C=O)c2c(O)c1-c1c(C)cc2c(C(C)C)c(O)c(O)c(C=O)c2c1O
REMARK SMILES IDX 1 1 2 2 3 3 4 4 16 5 13 6 11 7 9 8 5 9 17 10 19 11 20 12
REMARK SMILES IDX 37 13 21 14 36 15 23 16 22 17 24 18 33 19 25 20 31 21 29 22
REMARK SMILES IDX 38 23 34 25 35 26 26 27 27 28 28 29 32 30 30 32 18 34 6 36
REMARK SMILES IDX 7 37 8 38 14 39 15 40 10 41 12 43
REMARK H PARENT 38 24 32 31 30 33 18 35 10 42 12 44
REMARK Flexibility Score: inf
ROOT
ATOM      1  C   UNL     1      21.941  52.901  62.852  1.00  0.00     0.045 C 
ATOM      2  C   UNL     1      21.937  52.747  61.351  1.00  0.00    -0.039 A 
ATOM      3  C   UNL     1      23.097  53.034  60.628  1.00  0.00     0.013 A 
ATOM      4  C   UNL     1      23.166  52.866  59.227  1.00  0.00    -0.006 A 
ATOM      5  C   UNL     1      21.992  52.452  58.527  1.00  0.00     0.039 A 
ATOM      6  C   UNL     1      22.051  52.314  57.108  1.00  0.00     0.072 A 
ATOM      7  C   UNL     1      23.191  52.744  56.407  1.00  0.00     0.169 A 
ATOM      8  C   UNL     1      24.309  53.237  57.102  1.00  0.00     0.162 A 
ATOM      9  C   UNL     1      24.371  53.145  58.509  1.00  0.00     0.008 A 
ATOM     10  C   UNL     1      20.787  52.235  59.262  1.00  0.00     0.132 A 
ATOM     11  C   UNL     1      20.776  52.353  60.668  1.00  0.00     0.031 A 
ENDROOT
BRANCH  11  12
ATOM     12  C   UNL     1      19.527  52.094  61.432  1.00  0.00     0.031 A 
ATOM     13  C   UNL     1      18.617  53.144  61.680  1.00  0.00     0.132 A 
ATOM     14  C   UNL     1      19.259  50.801  61.912  1.00  0.00    -0.039 A 
ATOM     15  C   UNL     1      17.420  52.901  62.420  1.00  0.00     0.039 A 
ATOM     16  C   UNL     1      18.047  50.545  62.556  1.00  0.00     0.013 A 
ATOM     17  C   UNL     1      20.252  49.679  61.725  1.00  0.00     0.045 C 
ATOM     18  C   UNL     1      17.083  51.555  62.755  1.00  0.00    -0.006 A 
ATOM     19  C   UNL     1      16.542  53.952  62.823  1.00  0.00     0.072 A 
ATOM     20  C   UNL     1      15.800  51.253  63.305  1.00  0.00     0.008 A 
ATOM     21  C   UNL     1      15.365  53.648  63.538  1.00  0.00     0.169 A 
ATOM     22  C   UNL     1      14.997  52.317  63.767  1.00  0.00     0.162 A 
BRANCH  13  23
ATOM     23  O   UNL     1      18.889  54.418  61.171  1.00  0.00    -0.507 OA
ATOM     24  H   UNL     1      18.659  55.280  61.649  1.00  0.00     0.293 HD
ENDBRANCH  13  23
BRANCH  19  25
ATOM     25  C   UNL     1      16.873  55.374  62.596  1.00  0.00     0.264 C 
ATOM     26  O   UNL     1      17.422  56.057  63.502  1.00  0.00    -0.298 OA
ENDBRANCH  19  25
BRANCH  20  27
ATOM     27  C   UNL     1      15.286  49.806  63.410  1.00  0.00     0.017 C 
ATOM     28  C   UNL     1      15.576  49.027  62.123  1.00  0.00     0.012 C 
ATOM     29  C   UNL     1      15.806  49.055  64.649  1.00  0.00     0.012 C 
ENDBRANCH  20  27
BRANCH  21  30
ATOM     30  O   UNL     1      14.543  54.654  64.059  1.00  0.00    -0.504 OA
ATOM     31  H   UNL     1      14.343  55.524  63.585  1.00  0.00     0.293 HD
ENDBRANCH  21  30
BRANCH  22  32
ATOM     32  O   UNL     1      13.829  52.047  64.485  1.00  0.00    -0.504 OA
ATOM     33  H   UNL     1      13.400  52.713  65.116  1.00  0.00     0.293 HD
ENDBRANCH  22  32
ENDBRANCH  11  12
BRANCH  10  34
ATOM     34  O   UNL     1      19.593  51.944  58.592  1.00  0.00    -0.507 OA
ATOM     35  H   UNL     1      19.055  52.627  58.074  1.00  0.00     0.293 HD
ENDBRANCH  10  34
BRANCH   9  36
ATOM     36  C   UNL     1      25.706  53.402  59.232  1.00  0.00     0.017 C 
ATOM     37  C   UNL     1      26.118  52.187  60.069  1.00  0.00     0.012 C 
ATOM     38  C   UNL     1      25.722  54.692  60.073  1.00  0.00     0.012 C 
ENDBRANCH   9  36
BRANCH   6  39
ATOM     39  C   UNL     1      20.975  51.652  56.333  1.00  0.00     0.264 C 
ATOM     40  O   UNL     1      21.244  50.815  55.431  1.00  0.00    -0.298 OA
ENDBRANCH   6  39
BRANCH   8  41
ATOM     41  O   UNL     1      25.368  53.834  56.410  1.00  0.00    -0.504 OA
ATOM     42  H   UNL     1      26.338  53.746  56.675  1.00  0.00     0.293 HD
ENDBRANCH   8  41
BRANCH   7  43
ATOM     43  O   UNL     1      23.209  52.625  55.012  1.00  0.00    -0.504 OA
ATOM     44  H   UNL     1      23.782  53.191  54.402  1.00  0.00     0.293 HD
ENDBRANCH   7  43
TORSDOF 11
ENDMDL
MODEL 9
REMARK VINA RESULT:    -2.190      2.097      3.181
REMARK INTER + INTRA:          -4.124
REMARK INTER:                  -3.706
REMARK INTRA:                  -0.418
REMARK UNBOUND:                -0.910
REMARK SMILES Cc1cc2c(C(C)C)c(O)c(O)c(C=O)c2c(O)c1-c1c(C)cc2c(C(C)C)c(O)c(O)c(C=O)c2c1O
REMARK SMILES IDX 1 1 2 2 3 3 4 4 16 5 13 6 11 7 9 8 5 9 17 10 19 11 20 12
REMARK SMILES IDX 37 13 21 14 36 15 23 16 22 17 24 18 33 19 25 20 31 21 29 22
REMARK SMILES IDX 38 23 34 25 35 26 26 27 27 28 28 29 32 30 30 32 18 34 6 36
REMARK SMILES IDX 7 37 8 38 14 39 15 40 10 41 12 43
REMARK H PARENT 38 24 32 31 30 33 18 35 10 42 12 44
REMARK Flexibility Score: inf
ROOT
ATOM      1  C   UNL     1      22.736  50.204  60.473  1.00  0.00     0.045 C 
ATOM      2  C   UNL     1      21.469  51.024  60.493  1.00  0.00    -0.039 A 
ATOM      3  C   UNL     1      20.479  50.734  61.433  1.00  0.00     0.013 A 
ATOM      4  C   UNL     1      19.293  51.495  61.528  1.00  0.00    -0.006 A 
ATOM      5  C   UNL     1      19.076  52.551  60.590  1.00  0.00     0.039 A 
ATOM      6  C   UNL     1      17.864  53.299  60.664  1.00  0.00     0.072 A 
ATOM      7  C   UNL     1      16.837  52.888  61.531  1.00  0.00     0.169 A 
ATOM      8  C   UNL     1      17.025  51.789  62.387  1.00  0.00     0.162 A 
ATOM      9  C   UNL     1      18.300  51.195  62.513  1.00  0.00     0.008 A 
ATOM     10  C   UNL     1      20.058  52.793  59.582  1.00  0.00     0.132 A 
ATOM     11  C   UNL     1      21.258  52.050  59.559  1.00  0.00     0.031 A 
ENDROOT
BRANCH  11  12
ATOM     12  C   UNL     1      22.292  52.329  58.527  1.00  0.00     0.031 A 
ATOM     13  C   UNL     1      22.226  51.693  57.268  1.00  0.00     0.132 A 
ATOM     14  C   UNL     1      23.340  53.220  58.811  1.00  0.00    -0.039 A 
ATOM     15  C   UNL     1      23.221  51.951  56.276  1.00  0.00     0.039 A 
ATOM     16  C   UNL     1      24.259  53.541  57.811  1.00  0.00     0.013 A 
ATOM     17  C   UNL     1      23.475  53.854  60.175  1.00  0.00     0.045 C 
ATOM     18  C   UNL     1      24.178  52.981  56.519  1.00  0.00    -0.006 A 
ATOM     19  C   UNL     1      23.282  51.229  55.047  1.00  0.00     0.072 A 
ATOM     20  C   UNL     1      25.051  53.409  55.473  1.00  0.00     0.008 A 
ATOM     21  C   UNL     1      24.279  51.541  54.099  1.00  0.00     0.169 A 
ATOM     22  C   UNL     1      25.143  52.621  54.307  1.00  0.00     0.162 A 
BRANCH  13  23
ATOM     23  O   UNL     1      21.160  50.829  56.995  1.00  0.00    -0.507 OA
ATOM     24  H   UNL     1      21.269  49.899  56.612  1.00  0.00     0.293 HD
ENDBRANCH  13  23
BRANCH  19  25
ATOM     25  C   UNL     1      22.385  50.088  54.768  1.00  0.00     0.264 C 
ATOM     26  O   UNL     1      21.250  50.277  54.253  1.00  0.00    -0.298 OA
ENDBRANCH  19  25
BRANCH  20  27
ATOM     27  C   UNL     1      25.889  54.695  55.595  1.00  0.00     0.017 C 
ATOM     28  C   UNL     1      25.286  55.824  54.752  1.00  0.00     0.012 C 
ATOM     29  C   UNL     1      26.122  55.144  57.049  1.00  0.00     0.012 C 
ENDBRANCH  20  27
BRANCH  21  30
ATOM     30  O   UNL     1      24.451  50.777  52.939  1.00  0.00    -0.504 OA
ATOM     31  H   UNL     1      23.699  50.314  52.448  1.00  0.00     0.293 HD
ENDBRANCH  21  30
BRANCH  22  32
ATOM     32  O   UNL     1      26.125  52.901  53.353  1.00  0.00    -0.504 OA
ATOM     33  H   UNL     1      26.027  53.629  52.655  1.00  0.00     0.293 HD
ENDBRANCH  22  32
ENDBRANCH  11  12
BRANCH  10  34
ATOM     34  O   UNL     1      19.822  53.739  58.578  1.00  0.00    -0.507 OA
ATOM     35  H   UNL     1      18.904  53.961  58.215  1.00  0.00     0.293 HD
ENDBRANCH  10  34
BRANCH   9  36
ATOM     36  C   UNL     1      18.569  50.205  63.661  1.00  0.00     0.017 C 
ATOM     37  C   UNL     1      17.662  48.976  63.550  1.00  0.00     0.012 C 
ATOM     38  C   UNL     1      18.485  50.838  65.063  1.00  0.00     0.012 C 
ENDBRANCH   9  36
BRANCH   6  39
ATOM     39  C   UNL     1      17.666  54.560  59.910  1.00  0.00     0.264 C 
ATOM     40  O   UNL     1      18.233  55.626  60.267  1.00  0.00    -0.298 OA
ENDBRANCH   6  39
BRANCH   8  41
ATOM     41  O   UNL     1      15.953  51.263  63.115  1.00  0.00    -0.504 OA
ATOM     42  H   UNL     1      15.619  50.315  63.025  1.00  0.00     0.293 HD
ENDBRANCH   8  41
BRANCH   7  43
ATOM     43  O   UNL     1      15.646  53.623  61.561  1.00  0.00    -0.504 OA
ATOM     44  H   UNL     1      14.792  53.302  61.995  1.00  0.00     0.293 HD
ENDBRANCH   7  43
TORSDOF 11
ENDMDL
