MODEL 1
REMARK VINA RESULT:    -2.382      0.000      0.000
REMARK INTER + INTRA:          -2.382
REMARK INTER:                  -2.382
REMARK INTRA:                   0.000
REMARK UNBOUND:                 0.000
REMARK SMILES CC(=O)[O-]
REMARK SMILES IDX 1 1 2 2 3 3 4 4
REMARK H PARENT
REMARK Flexibility Score: inf
ROOT
ATOM      1  C   UNL     1       5.241  -3.825   5.065  1.00  0.00     0.063 C 
ATOM      2  C   UNL     1       4.753  -4.067   3.677  1.00  0.00     0.038 C 
ATOM      3  O   UNL     1       3.964  -3.250   3.134  1.00  0.00    -0.550 OA
ATOM      4  O   UNL     1       5.124  -5.221   3.000  1.00  0.00    -0.550 OA
ENDROOT
TORSDOF 0
ENDMDL
MODEL 2
REMARK VINA RESULT:    -2.358      1.474      2.255
REMARK INTER + INTRA:          -2.358
REMARK INTER:                  -2.358
REMARK INTRA:                   0.000
REMARK UNBOUND:                 0.000
REMARK SMILES CC(=O)[O-]
REMARK SMILES IDX 1 1 2 2 3 3 4 4
REMARK H PARENT
REMARK Flexibility Score: inf
ROOT
ATOM      1  C   UNL     1       4.136  -3.535   3.046  1.00  0.00     0.063 C 
ATOM      2  C   UNL     1       4.988  -4.255   4.035  1.00  0.00     0.038 C 
ATOM      3  O   UNL     1       5.410  -5.414   3.781  1.00  0.00    -0.550 OA
ATOM      4  O   UNL     1       5.274  -3.673   5.263  1.00  0.00    -0.550 OA
ENDROOT
TORSDOF 0
ENDMDL
MODEL 3
REMARK VINA RESULT:    -2.300      1.427      1.769
REMARK INTER + INTRA:          -2.300
REMARK INTER:                  -2.300
REMARK INTRA:                   0.000
REMARK UNBOUND:                 0.000
REMARK SMILES CC(=O)[O-]
REMARK SMILES IDX 1 1 2 2 3 3 4 4
REMARK H PARENT
REMARK Flexibility Score: inf
ROOT
ATOM      1  C   UNL     1       5.137  -5.206   2.923  1.00  0.00     0.063 C 
ATOM      2  C   UNL     1       4.697  -3.964   3.621  1.00  0.00     0.038 C 
ATOM      3  O   UNL     1       3.939  -3.146   3.038  1.00  0.00    -0.550 OA
ATOM      4  O   UNL     1       5.167  -3.679   4.896  1.00  0.00    -0.550 OA
ENDROOT
TORSDOF 0
ENDMDL
MODEL 4
REMARK VINA RESULT:    -2.142     20.051     20.214
REMARK INTER + INTRA:          -2.142
REMARK INTER:                  -2.142
REMARK INTRA:                   0.000
REMARK UNBOUND:                 0.000
REMARK SMILES CC(=O)[O-]
REMARK SMILES IDX 1 1 2 2 3 3 4 4
REMARK H PARENT
REMARK Flexibility Score: inf
ROOT
ATOM      1  C   UNL     1      15.666 -17.646  14.523  1.00  0.00     0.063 C 
ATOM      2  C   UNL     1      14.351 -17.542  15.219  1.00  0.00     0.038 C 
ATOM      3  O   UNL     1      13.374 -18.232  14.829  1.00  0.00    -0.550 OA
ATOM      4  O   UNL     1      14.186 -16.642  16.264  1.00  0.00    -0.550 OA
ENDROOT
TORSDOF 0
ENDMDL
MODEL 5
REMARK VINA RESULT:    -2.107     16.585     17.203
REMARK INTER + INTRA:          -2.107
REMARK INTER:                  -2.107
REMARK INTRA:                   0.000
REMARK UNBOUND:                 0.000
REMARK SMILES CC(=O)[O-]
REMARK SMILES IDX 1 1 2 2 3 3 4 4
REMARK H PARENT
REMARK Flexibility Score: inf
ROOT
ATOM      1  C   UNL     1      11.153 -15.166  15.537  1.00  0.00     0.063 C 
ATOM      2  C   UNL     1      11.356 -15.911  14.262  1.00  0.00     0.038 C 
ATOM      3  O   UNL     1      12.229 -16.815  14.191  1.00  0.00    -0.550 OA
ATOM      4  O   UNL     1      10.622 -15.572  13.133  1.00  0.00    -0.550 OA
ENDROOT
TORSDOF 0
ENDMDL
MODEL 6
REMARK VINA RESULT:    -2.104     19.314     19.672
REMARK INTER + INTRA:          -2.104
REMARK INTER:                  -2.104
REMARK INTRA:                   0.000
REMARK UNBOUND:                 0.000
REMARK SMILES CC(=O)[O-]
REMARK SMILES IDX 1 1 2 2 3 3 4 4
REMARK H PARENT
REMARK Flexibility Score: inf
ROOT
ATOM      1  C   UNL     1      13.989 -17.792  15.480  1.00  0.00     0.063 C 
ATOM      2  C   UNL     1      13.992 -16.359  15.893  1.00  0.00     0.038 C 
ATOM      3  O   UNL     1      13.270 -15.975  16.850  1.00  0.00    -0.550 OA
ATOM      4  O   UNL     1      14.750 -15.433  15.187  1.00  0.00    -0.550 OA
ENDROOT
TORSDOF 0
ENDMDL
MODEL 7
REMARK VINA RESULT:    -2.086     18.211     18.664
REMARK INTER + INTRA:          -2.086
REMARK INTER:                  -2.086
REMARK INTRA:                   0.000
REMARK UNBOUND:                 0.000
REMARK SMILES CC(=O)[O-]
REMARK SMILES IDX 1 1 2 2 3 3 4 4
REMARK H PARENT
REMARK Flexibility Score: inf
ROOT
ATOM      1  C   UNL     1      11.226 -15.079  15.551  1.00  0.00     0.063 C 
ATOM      2  C   UNL     1      12.271 -15.118  16.614  1.00  0.00     0.038 C 
ATOM      3  O   UNL     1      13.216 -15.945  16.541  1.00  0.00    -0.550 OA
ATOM      4  O   UNL     1      12.174 -14.278  17.717  1.00  0.00    -0.550 OA
ENDROOT
TORSDOF 0
ENDMDL
MODEL 8
REMARK VINA RESULT:    -2.073     16.845     17.398
REMARK INTER + INTRA:          -2.073
REMARK INTER:                  -2.073
REMARK INTRA:                   0.000
REMARK UNBOUND:                 0.000
REMARK SMILES CC(=O)[O-]
REMARK SMILES IDX 1 1 2 2 3 3 4 4
REMARK H PARENT
REMARK Flexibility Score: inf
ROOT
ATOM      1  C   UNL     1      10.814 -15.748  12.901  1.00  0.00     0.063 C 
ATOM      2  C   UNL     1      11.443 -16.099  14.207  1.00  0.00     0.038 C 
ATOM      3  O   UNL     1      12.325 -16.995  14.262  1.00  0.00    -0.550 OA
ATOM      4  O   UNL     1      11.018 -15.477  15.374  1.00  0.00    -0.550 OA
ENDROOT
TORSDOF 0
ENDMDL
MODEL 9
REMARK VINA RESULT:    -2.070     21.768     21.936
REMARK INTER + INTRA:          -2.070
REMARK INTER:                  -2.070
REMARK INTRA:                   0.000
REMARK UNBOUND:                 0.000
REMARK SMILES CC(=O)[O-]
REMARK SMILES IDX 1 1 2 2 3 3 4 4
REMARK H PARENT
REMARK Flexibility Score: inf
ROOT
ATOM      1  C   UNL     1       3.078 -19.574  18.386  1.00  0.00     0.063 C 
ATOM      2  C   UNL     1       1.642 -19.661  18.776  1.00  0.00     0.038 C 
ATOM      3  O   UNL     1       0.880 -20.482  18.202  1.00  0.00    -0.550 OA
ATOM      4  O   UNL     1       1.127 -18.797  19.734  1.00  0.00    -0.550 OA
ENDROOT
TORSDOF 0
ENDMDL
