MODEL 1
REMARK VINA RESULT:    -4.216      0.000      0.000
REMARK INTER + INTRA:          -9.622
REMARK INTER:                  -7.667
REMARK INTRA:                  -1.954
REMARK UNBOUND:                -1.954
REMARK SMILES CCCCCCCCCCCCCC[C@H](C)C(=O)[O-]
REMARK SMILES IDX 9 1 10 2 11 3 12 4 13 5 14 6 15 7 16 8 17 9 18 10 19 11 8 12
REMARK SMILES IDX 7 13 6 14 5 15 4 16 3 17 2 18 1 19
REMARK H PARENT
REMARK Flexibility Score: inf
ROOT
ATOM      1  C   UNL     1      -4.809  -3.396   5.757  1.00  0.00     0.000 C 
ENDROOT
BRANCH   1   2
ATOM      2  C   UNL     1      -4.349  -2.469   6.892  1.00  0.00     0.000 C 
BRANCH   2   3
ATOM      3  C   UNL     1      -5.547  -1.941   7.689  1.00  0.00     0.000 C 
BRANCH   3   4
ATOM      4  C   UNL     1      -5.988  -0.564   7.170  1.00  0.00     0.000 C 
BRANCH   4   5
ATOM      5  C   UNL     1      -4.820   0.285   6.643  1.00  0.00     0.001 C 
BRANCH   5   6
ATOM      6  C   UNL     1      -4.827   1.779   7.045  1.00  0.00     0.009 C 
BRANCH   6   7
ATOM      7  C   UNL     1      -3.530   2.356   7.673  1.00  0.00     0.032 C 
ATOM      8  C   UNL     1      -2.487   1.280   8.010  1.00  0.00     0.014 C 
BRANCH   7   9
ATOM      9  C   UNL     1      -3.801   3.277   8.835  1.00  0.00     0.044 C 
ATOM     10  O   UNL     1      -4.932   3.304   9.390  1.00  0.00    -0.550 OA
ATOM     11  O   UNL     1      -2.808   4.145   9.270  1.00  0.00    -0.550 OA
ENDBRANCH   7   9
ENDBRANCH   6   7
ENDBRANCH   5   6
ENDBRANCH   4   5
ENDBRANCH   3   4
ENDBRANCH   2   3
ENDBRANCH   1   2
BRANCH   1  12
ATOM     12  C   UNL     1      -6.189  -4.021   6.024  1.00  0.00     0.000 C 
BRANCH  12  13
ATOM     13  C   UNL     1      -7.002  -4.230   4.738  1.00  0.00    -0.000 C 
BRANCH  13  14
ATOM     14  C   UNL     1      -7.966  -3.060   4.502  1.00  0.00    -0.000 C 
BRANCH  14  15
ATOM     15  C   UNL     1      -8.125  -2.773   3.001  1.00  0.00    -0.000 C 
BRANCH  15  16
ATOM     16  C   UNL     1      -7.818  -1.311   2.639  1.00  0.00    -0.000 C 
BRANCH  16  17
ATOM     17  C   UNL     1      -6.866  -0.641   3.645  1.00  0.00    -0.000 C 
BRANCH  17  18
ATOM     18  C   UNL     1      -6.936   0.894   3.587  1.00  0.00    -0.003 C 
ATOM     19  C   UNL     1      -7.897   1.483   4.620  1.00  0.00     0.004 C 
ENDBRANCH  17  18
ENDBRANCH  16  17
ENDBRANCH  15  16
ENDBRANCH  14  15
ENDBRANCH  13  14
ENDBRANCH  12  13
ENDBRANCH   1  12
TORSDOF 14
ENDMDL
MODEL 2
REMARK VINA RESULT:    -4.156      1.400      2.124
REMARK INTER + INTRA:          -9.511
REMARK INTER:                  -7.132
REMARK INTRA:                  -2.379
REMARK UNBOUND:                -1.954
REMARK SMILES CCCCCCCCCCCCCC[C@H](C)C(=O)[O-]
REMARK SMILES IDX 9 1 10 2 11 3 12 4 13 5 14 6 15 7 16 8 17 9 18 10 19 11 8 12
REMARK SMILES IDX 7 13 6 14 5 15 4 16 3 17 2 18 1 19
REMARK H PARENT
REMARK Flexibility Score: inf
ROOT
ATOM      1  C   UNL     1      -5.618  -3.572   5.393  1.00  0.00     0.000 C 
ENDROOT
BRANCH   1   2
ATOM      2  C   UNL     1      -6.405  -3.676   6.708  1.00  0.00     0.000 C 
BRANCH   2   3
ATOM      3  C   UNL     1      -5.610  -3.071   7.871  1.00  0.00     0.000 C 
BRANCH   3   4
ATOM      4  C   UNL     1      -4.298  -2.447   7.374  1.00  0.00     0.000 C 
BRANCH   4   5
ATOM      5  C   UNL     1      -3.677  -1.465   8.380  1.00  0.00     0.001 C 
BRANCH   5   6
ATOM      6  C   UNL     1      -3.332  -0.058   7.837  1.00  0.00     0.009 C 
BRANCH   6   7
ATOM      7  C   UNL     1      -3.765   1.164   8.691  1.00  0.00     0.032 C 
ATOM      8  C   UNL     1      -5.135   0.981   9.362  1.00  0.00     0.014 C 
BRANCH   7   9
ATOM      9  C   UNL     1      -3.660   2.468   7.943  1.00  0.00     0.044 C 
ATOM     10  O   UNL     1      -3.334   3.531   8.537  1.00  0.00    -0.550 OA
ATOM     11  O   UNL     1      -3.974   2.512   6.591  1.00  0.00    -0.550 OA
ENDBRANCH   7   9
ENDBRANCH   6   7
ENDBRANCH   5   6
ENDBRANCH   4   5
ENDBRANCH   3   4
ENDBRANCH   2   3
ENDBRANCH   1   2
BRANCH   1  12
ATOM     12  C   UNL     1      -6.502  -3.794   4.154  1.00  0.00     0.000 C 
BRANCH  12  13
ATOM     13  C   UNL     1      -7.796  -2.968   4.195  1.00  0.00    -0.000 C 
BRANCH  13  14
ATOM     14  C   UNL     1      -8.078  -2.321   2.833  1.00  0.00    -0.000 C 
BRANCH  14  15
ATOM     15  C   UNL     1      -7.292  -1.010   2.673  1.00  0.00    -0.000 C 
BRANCH  15  16
ATOM     16  C   UNL     1      -7.875   0.138   3.513  1.00  0.00    -0.000 C 
BRANCH  16  17
ATOM     17  C   UNL     1      -6.792   0.923   4.274  1.00  0.00    -0.000 C 
BRANCH  17  18
ATOM     18  C   UNL     1      -6.240   0.144   5.478  1.00  0.00    -0.003 C 
ATOM     19  C   UNL     1      -7.288  -0.082   6.569  1.00  0.00     0.004 C 
ENDBRANCH  17  18
ENDBRANCH  16  17
ENDBRANCH  15  16
ENDBRANCH  14  15
ENDBRANCH  13  14
ENDBRANCH  12  13
ENDBRANCH   1  12
TORSDOF 14
ENDMDL
MODEL 3
REMARK VINA RESULT:    -4.088      1.055      3.474
REMARK INTER + INTRA:          -9.388
REMARK INTER:                  -7.722
REMARK INTRA:                  -1.666
REMARK UNBOUND:                -1.954
REMARK SMILES CCCCCCCCCCCCCC[C@H](C)C(=O)[O-]
REMARK SMILES IDX 9 1 10 2 11 3 12 4 13 5 14 6 15 7 16 8 17 9 18 10 19 11 8 12
REMARK SMILES IDX 7 13 6 14 5 15 4 16 3 17 2 18 1 19
REMARK H PARENT
REMARK Flexibility Score: inf
ROOT
ATOM      1  C   UNL     1      -7.118  -0.538   3.082  1.00  0.00     0.000 C 
ENDROOT
BRANCH   1   2
ATOM      2  C   UNL     1      -7.570   0.633   3.967  1.00  0.00     0.000 C 
BRANCH   2   3
ATOM      3  C   UNL     1      -7.630   0.216   5.441  1.00  0.00     0.000 C 
BRANCH   3   4
ATOM      4  C   UNL     1      -6.218   0.036   6.018  1.00  0.00     0.000 C 
BRANCH   4   5
ATOM      5  C   UNL     1      -5.411   1.344   6.062  1.00  0.00     0.001 C 
BRANCH   5   6
ATOM      6  C   UNL     1      -4.969   1.826   7.463  1.00  0.00     0.009 C 
BRANCH   6   7
ATOM      7  C   UNL     1      -3.478   2.214   7.648  1.00  0.00     0.032 C 
ATOM      8  C   UNL     1      -2.520   1.019   7.533  1.00  0.00     0.014 C 
BRANCH   7   9
ATOM      9  C   UNL     1      -3.234   3.029   8.892  1.00  0.00     0.044 C 
ATOM     10  O   UNL     1      -3.670   4.207   8.991  1.00  0.00    -0.550 OA
ATOM     11  O   UNL     1      -2.476   2.494   9.926  1.00  0.00    -0.550 OA
ENDBRANCH   7   9
ENDBRANCH   6   7
ENDBRANCH   5   6
ENDBRANCH   4   5
ENDBRANCH   3   4
ENDBRANCH   2   3
ENDBRANCH   1   2
BRANCH   1  12
ATOM     12  C   UNL     1      -8.031  -1.768   3.214  1.00  0.00     0.000 C 
BRANCH  12  13
ATOM     13  C   UNL     1      -7.267  -3.029   3.645  1.00  0.00    -0.000 C 
BRANCH  13  14
ATOM     14  C   UNL     1      -8.014  -3.768   4.762  1.00  0.00    -0.000 C 
BRANCH  14  15
ATOM     15  C   UNL     1      -7.035  -4.526   5.672  1.00  0.00    -0.000 C 
BRANCH  15  16
ATOM     16  C   UNL     1      -5.661  -3.842   5.766  1.00  0.00    -0.000 C 
BRANCH  16  17
ATOM     17  C   UNL     1      -5.430  -3.165   7.128  1.00  0.00    -0.000 C 
BRANCH  17  18
ATOM     18  C   UNL     1      -4.003  -2.613   7.275  1.00  0.00    -0.003 C 
ATOM     19  C   UNL     1      -3.652  -2.255   8.720  1.00  0.00     0.004 C 
ENDBRANCH  17  18
ENDBRANCH  16  17
ENDBRANCH  15  16
ENDBRANCH  14  15
ENDBRANCH  13  14
ENDBRANCH  12  13
ENDBRANCH   1  12
TORSDOF 14
ENDMDL
MODEL 4
REMARK VINA RESULT:    -4.083      1.576      2.522
REMARK INTER + INTRA:          -9.379
REMARK INTER:                  -6.888
REMARK INTRA:                  -2.491
REMARK UNBOUND:                -1.954
REMARK SMILES CCCCCCCCCCCCCC[C@H](C)C(=O)[O-]
REMARK SMILES IDX 9 1 10 2 11 3 12 4 13 5 14 6 15 7 16 8 17 9 18 10 19 11 8 12
REMARK SMILES IDX 7 13 6 14 5 15 4 16 3 17 2 18 1 19
REMARK H PARENT
REMARK Flexibility Score: inf
ROOT
ATOM      1  C   UNL     1      -3.737  -2.270   8.550  1.00  0.00     0.000 C 
ENDROOT
BRANCH   1   2
ATOM      2  C   UNL     1      -4.958  -2.698   9.378  1.00  0.00     0.000 C 
BRANCH   2   3
ATOM      3  C   UNL     1      -5.681  -1.478   9.960  1.00  0.00     0.000 C 
BRANCH   3   4
ATOM      4  C   UNL     1      -6.954  -1.161   9.161  1.00  0.00     0.000 C 
BRANCH   4   5
ATOM      5  C   UNL     1      -6.786   0.028   8.202  1.00  0.00     0.001 C 
BRANCH   5   6
ATOM      6  C   UNL     1      -5.722   1.079   8.597  1.00  0.00     0.009 C 
BRANCH   6   7
ATOM      7  C   UNL     1      -4.900   1.730   7.453  1.00  0.00     0.032 C 
ATOM      8  C   UNL     1      -5.072   1.020   6.102  1.00  0.00     0.014 C 
BRANCH   7   9
ATOM      9  C   UNL     1      -3.452   1.935   7.815  1.00  0.00     0.044 C 
ATOM     10  O   UNL     1      -3.081   2.959   8.448  1.00  0.00    -0.550 OA
ATOM     11  O   UNL     1      -2.503   1.008   7.404  1.00  0.00    -0.550 OA
ENDBRANCH   7   9
ENDBRANCH   6   7
ENDBRANCH   5   6
ENDBRANCH   4   5
ENDBRANCH   3   4
ENDBRANCH   2   3
ENDBRANCH   1   2
BRANCH   1  12
ATOM     12  C   UNL     1      -3.972  -2.398   7.036  1.00  0.00     0.000 C 
BRANCH  12  13
ATOM     13  C   UNL     1      -5.248  -3.185   6.700  1.00  0.00    -0.000 C 
BRANCH  13  14
ATOM     14  C   UNL     1      -5.206  -3.708   5.258  1.00  0.00    -0.000 C 
BRANCH  14  15
ATOM     15  C   UNL     1      -6.509  -3.373   4.514  1.00  0.00    -0.000 C 
BRANCH  15  16
ATOM     16  C   UNL     1      -7.490  -2.556   5.371  1.00  0.00    -0.000 C 
BRANCH  16  17
ATOM     17  C   UNL     1      -7.770  -1.162   4.782  1.00  0.00    -0.000 C 
BRANCH  17  18
ATOM     18  C   UNL     1      -6.930  -0.875   3.528  1.00  0.00    -0.003 C 
ATOM     19  C   UNL     1      -7.341   0.417   2.821  1.00  0.00     0.004 C 
ENDBRANCH  17  18
ENDBRANCH  16  17
ENDBRANCH  15  16
ENDBRANCH  14  15
ENDBRANCH  13  14
ENDBRANCH  12  13
ENDBRANCH   1  12
TORSDOF 14
ENDMDL
MODEL 5
REMARK VINA RESULT:    -3.987      3.383      5.282
REMARK INTER + INTRA:          -9.205
REMARK INTER:                  -8.405
REMARK INTRA:                  -0.800
REMARK UNBOUND:                -1.954
REMARK SMILES CCCCCCCCCCCCCC[C@H](C)C(=O)[O-]
REMARK SMILES IDX 9 1 10 2 11 3 12 4 13 5 14 6 15 7 16 8 17 9 18 10 19 11 8 12
REMARK SMILES IDX 7 13 6 14 5 15 4 16 3 17 2 18 1 19
REMARK H PARENT
REMARK Flexibility Score: inf
ROOT
ATOM      1  C   UNL     1      -7.532  -1.023   2.450  1.00  0.00     0.000 C 
ENDROOT
BRANCH   1   2
ATOM      2  C   UNL     1      -7.807  -2.393   3.088  1.00  0.00     0.000 C 
BRANCH   2   3
ATOM      3  C   UNL     1      -7.100  -2.520   4.442  1.00  0.00     0.000 C 
BRANCH   3   4
ATOM      4  C   UNL     1      -6.280  -3.818   4.514  1.00  0.00     0.000 C 
BRANCH   4   5
ATOM      5  C   UNL     1      -5.190  -3.785   5.596  1.00  0.00     0.001 C 
BRANCH   5   6
ATOM      6  C   UNL     1      -5.351  -2.709   6.695  1.00  0.00     0.009 C 
BRANCH   6   7
ATOM      7  C   UNL     1      -4.062  -2.016   7.212  1.00  0.00     0.032 C 
ATOM      8  C   UNL     1      -3.651  -2.470   8.621  1.00  0.00     0.014 C 
BRANCH   7   9
ATOM      9  C   UNL     1      -4.111  -0.516   7.083  1.00  0.00     0.044 C 
ATOM     10  O   UNL     1      -5.063   0.052   6.483  1.00  0.00    -0.550 OA
ATOM     11  O   UNL     1      -3.069   0.252   7.588  1.00  0.00    -0.550 OA
ENDBRANCH   7   9
ENDBRANCH   6   7
ENDBRANCH   5   6
ENDBRANCH   4   5
ENDBRANCH   3   4
ENDBRANCH   2   3
ENDBRANCH   1   2
BRANCH   1  12
ATOM     12  C   UNL     1      -7.009   0.008   3.464  1.00  0.00     0.000 C 
BRANCH  12  13
ATOM     13  C   UNL     1      -7.684   1.380   3.314  1.00  0.00    -0.000 C 
BRANCH  13  14
ATOM     14  C   UNL     1      -7.832   1.761   1.836  1.00  0.00    -0.000 C 
BRANCH  14  15
ATOM     15  C   UNL     1      -7.697   3.280   1.644  1.00  0.00    -0.000 C 
BRANCH  15  16
ATOM     16  C   UNL     1      -6.923   3.651   0.369  1.00  0.00    -0.000 C 
BRANCH  16  17
ATOM     17  C   UNL     1      -6.856   5.172   0.140  1.00  0.00    -0.000 C 
BRANCH  17  18
ATOM     18  C   UNL     1      -6.872   5.542  -1.352  1.00  0.00    -0.003 C 
ATOM     19  C   UNL     1      -6.085   6.817  -1.655  1.00  0.00     0.004 C 
ENDBRANCH  17  18
ENDBRANCH  16  17
ENDBRANCH  15  16
ENDBRANCH  14  15
ENDBRANCH  13  14
ENDBRANCH  12  13
ENDBRANCH   1  12
TORSDOF 14
ENDMDL
MODEL 6
REMARK VINA RESULT:    -3.960      2.996      5.841
REMARK INTER + INTRA:          -9.156
REMARK INTER:                  -6.790
REMARK INTRA:                  -2.365
REMARK UNBOUND:                -1.954
REMARK SMILES CCCCCCCCCCCCCC[C@H](C)C(=O)[O-]
REMARK SMILES IDX 9 1 10 2 11 3 12 4 13 5 14 6 15 7 16 8 17 9 18 10 19 11 8 12
REMARK SMILES IDX 7 13 6 14 5 15 4 16 3 17 2 18 1 19
REMARK H PARENT
REMARK Flexibility Score: inf
ROOT
ATOM      1  C   UNL     1      -4.048  -2.343   8.156  1.00  0.00     0.000 C 
ENDROOT
BRANCH   1   2
ATOM      2  C   UNL     1      -4.599  -2.170   6.732  1.00  0.00     0.000 C 
BRANCH   2   3
ATOM      3  C   UNL     1      -4.622  -3.509   5.987  1.00  0.00     0.000 C 
BRANCH   3   4
ATOM      4  C   UNL     1      -6.056  -4.048   5.869  1.00  0.00     0.000 C 
BRANCH   4   5
ATOM      5  C   UNL     1      -6.642  -3.903   4.455  1.00  0.00     0.001 C 
BRANCH   5   6
ATOM      6  C   UNL     1      -7.616  -2.722   4.237  1.00  0.00     0.009 C 
BRANCH   6   7
ATOM      7  C   UNL     1      -7.008  -1.295   4.176  1.00  0.00     0.032 C 
ATOM      8  C   UNL     1      -7.462  -0.391   5.333  1.00  0.00     0.014 C 
BRANCH   7   9
ATOM      9  C   UNL     1      -7.185  -0.640   2.831  1.00  0.00     0.044 C 
ATOM     10  O   UNL     1      -6.913   0.579   2.663  1.00  0.00    -0.550 OA
ATOM     11  O   UNL     1      -7.701  -1.375   1.772  1.00  0.00    -0.550 OA
ENDBRANCH   7   9
ENDBRANCH   6   7
ENDBRANCH   5   6
ENDBRANCH   4   5
ENDBRANCH   3   4
ENDBRANCH   2   3
ENDBRANCH   1   2
BRANCH   1  12
ATOM     12  C   UNL     1      -5.050  -1.908   9.237  1.00  0.00     0.000 C 
BRANCH  12  13
ATOM     13  C   UNL     1      -6.479  -1.758   8.694  1.00  0.00    -0.000 C 
BRANCH  13  14
ATOM     14  C   UNL     1      -7.056  -0.380   9.042  1.00  0.00    -0.000 C 
BRANCH  14  15
ATOM     15  C   UNL     1      -5.936   0.616   9.380  1.00  0.00    -0.000 C 
BRANCH  15  16
ATOM     16  C   UNL     1      -5.893   1.812   8.416  1.00  0.00    -0.000 C 
BRANCH  16  17
ATOM     17  C   UNL     1      -5.006   1.548   7.186  1.00  0.00    -0.000 C 
BRANCH  17  18
ATOM     18  C   UNL     1      -3.590   2.120   7.349  1.00  0.00    -0.003 C 
ATOM     19  C   UNL     1      -2.564   1.060   7.753  1.00  0.00     0.004 C 
ENDBRANCH  17  18
ENDBRANCH  16  17
ENDBRANCH  15  16
ENDBRANCH  14  15
ENDBRANCH  13  14
ENDBRANCH  12  13
ENDBRANCH   1  12
TORSDOF 14
ENDMDL
MODEL 7
REMARK VINA RESULT:    -3.951      1.917      3.788
REMARK INTER + INTRA:          -9.138
REMARK INTER:                  -7.039
REMARK INTRA:                  -2.099
REMARK UNBOUND:                -1.954
REMARK SMILES CCCCCCCCCCCCCC[C@H](C)C(=O)[O-]
REMARK SMILES IDX 9 1 10 2 11 3 12 4 13 5 14 6 15 7 16 8 17 9 18 10 19 11 8 12
REMARK SMILES IDX 7 13 6 14 5 15 4 16 3 17 2 18 1 19
REMARK H PARENT
REMARK Flexibility Score: inf
ROOT
ATOM      1  C   UNL     1      -6.216   0.538   5.354  1.00  0.00     0.000 C 
ENDROOT
BRANCH   1   2
ATOM      2  C   UNL     1      -6.923   1.375   6.430  1.00  0.00     0.000 C 
BRANCH   2   3
ATOM      3  C   UNL     1      -7.467   0.482   7.551  1.00  0.00     0.000 C 
BRANCH   3   4
ATOM      4  C   UNL     1      -7.017   0.991   8.928  1.00  0.00     0.000 C 
BRANCH   4   5
ATOM      5  C   UNL     1      -5.717   0.334   9.420  1.00  0.00     0.001 C 
BRANCH   5   6
ATOM      6  C   UNL     1      -4.608   1.295   9.908  1.00  0.00     0.009 C 
BRANCH   6   7
ATOM      7  C   UNL     1      -3.216   1.184   9.229  1.00  0.00     0.032 C 
ATOM      8  C   UNL     1      -2.129   2.007   9.936  1.00  0.00     0.014 C 
BRANCH   7   9
ATOM      9  C   UNL     1      -3.265   1.448   7.746  1.00  0.00     0.044 C 
ATOM     10  O   UNL     1      -2.866   0.583   6.921  1.00  0.00    -0.550 OA
ATOM     11  O   UNL     1      -3.708   2.680   7.282  1.00  0.00    -0.550 OA
ENDBRANCH   7   9
ENDBRANCH   6   7
ENDBRANCH   5   6
ENDBRANCH   4   5
ENDBRANCH   3   4
ENDBRANCH   2   3
ENDBRANCH   1   2
BRANCH   1  12
ATOM     12  C   UNL     1      -7.120   0.238   4.147  1.00  0.00     0.000 C 
BRANCH  12  13
ATOM     13  C   UNL     1      -6.949  -1.195   3.621  1.00  0.00    -0.000 C 
BRANCH  13  14
ATOM     14  C   UNL     1      -7.189  -2.221   4.735  1.00  0.00    -0.000 C 
BRANCH  14  15
ATOM     15  C   UNL     1      -6.294  -3.456   4.548  1.00  0.00    -0.000 C 
BRANCH  15  16
ATOM     16  C   UNL     1      -5.620  -3.906   5.854  1.00  0.00    -0.000 C 
BRANCH  16  17
ATOM     17  C   UNL     1      -5.465  -2.757   6.866  1.00  0.00    -0.000 C 
BRANCH  17  18
ATOM     18  C   UNL     1      -3.992  -2.434   7.166  1.00  0.00    -0.003 C 
ATOM     19  C   UNL     1      -3.647  -2.564   8.649  1.00  0.00     0.004 C 
ENDBRANCH  17  18
ENDBRANCH  16  17
ENDBRANCH  15  16
ENDBRANCH  14  15
ENDBRANCH  13  14
ENDBRANCH  12  13
ENDBRANCH   1  12
TORSDOF 14
ENDMDL
MODEL 8
REMARK VINA RESULT:    -3.938      2.863      6.208
REMARK INTER + INTRA:          -9.116
REMARK INTER:                  -7.069
REMARK INTRA:                  -2.046
REMARK UNBOUND:                -1.954
REMARK SMILES CCCCCCCCCCCCCC[C@H](C)C(=O)[O-]
REMARK SMILES IDX 9 1 10 2 11 3 12 4 13 5 14 6 15 7 16 8 17 9 18 10 19 11 8 12
REMARK SMILES IDX 7 13 6 14 5 15 4 16 3 17 2 18 1 19
REMARK H PARENT
REMARK Flexibility Score: inf
ROOT
ATOM      1  C   UNL     1      -3.619  -1.070   8.411  1.00  0.00     0.000 C 
ENDROOT
BRANCH   1   2
ATOM      2  C   UNL     1      -4.246  -2.448   8.149  1.00  0.00     0.000 C 
BRANCH   2   3
ATOM      3  C   UNL     1      -4.267  -2.766   6.650  1.00  0.00     0.000 C 
BRANCH   3   4
ATOM      4  C   UNL     1      -5.537  -3.542   6.270  1.00  0.00     0.000 C 
BRANCH   4   5
ATOM      5  C   UNL     1      -6.020  -3.247   4.841  1.00  0.00     0.001 C 
BRANCH   5   6
ATOM      6  C   UNL     1      -7.133  -2.183   4.702  1.00  0.00     0.009 C 
BRANCH   6   7
ATOM      7  C   UNL     1      -6.710  -0.691   4.780  1.00  0.00     0.032 C 
ATOM      8  C   UNL     1      -7.173   0.005   6.069  1.00  0.00     0.014 C 
BRANCH   7   9
ATOM      9  C   UNL     1      -7.076   0.087   3.543  1.00  0.00     0.044 C 
ATOM     10  O   UNL     1      -7.574   1.242   3.628  1.00  0.00    -0.550 OA
ATOM     11  O   UNL     1      -6.908  -0.492   2.292  1.00  0.00    -0.550 OA
ENDBRANCH   7   9
ENDBRANCH   6   7
ENDBRANCH   5   6
ENDBRANCH   4   5
ENDBRANCH   3   4
ENDBRANCH   2   3
ENDBRANCH   1   2
BRANCH   1  12
ATOM     12  C   UNL     1      -3.630  -0.168   7.166  1.00  0.00     0.000 C 
BRANCH  12  13
ATOM     13  C   UNL     1      -2.805   1.114   7.357  1.00  0.00    -0.000 C 
BRANCH  13  14
ATOM     14  C   UNL     1      -2.607   1.422   8.846  1.00  0.00    -0.000 C 
BRANCH  14  15
ATOM     15  C   UNL     1      -2.873   2.907   9.140  1.00  0.00    -0.000 C 
BRANCH  15  16
ATOM     16  C   UNL     1      -4.365   3.215   9.347  1.00  0.00    -0.000 C 
BRANCH  16  17
ATOM     17  C   UNL     1      -5.095   2.106  10.125  1.00  0.00    -0.000 C 
BRANCH  17  18
ATOM     18  C   UNL     1      -6.244   1.481   9.317  1.00  0.00    -0.003 C 
ATOM     19  C   UNL     1      -7.310   2.500   8.916  1.00  0.00     0.004 C 
ENDBRANCH  17  18
ENDBRANCH  16  17
ENDBRANCH  15  16
ENDBRANCH  14  15
ENDBRANCH  13  14
ENDBRANCH  12  13
ENDBRANCH   1  12
TORSDOF 14
ENDMDL
MODEL 9
REMARK VINA RESULT:    -3.869      2.943      6.428
REMARK INTER + INTRA:          -8.989
REMARK INTER:                  -6.519
REMARK INTRA:                  -2.470
REMARK UNBOUND:                -1.954
REMARK SMILES CCCCCCCCCCCCCC[C@H](C)C(=O)[O-]
REMARK SMILES IDX 9 1 10 2 11 3 12 4 13 5 14 6 15 7 16 8 17 9 18 10 19 11 8 12
REMARK SMILES IDX 7 13 6 14 5 15 4 16 3 17 2 18 1 19
REMARK H PARENT
REMARK Flexibility Score: inf
ROOT
ATOM      1  C   UNL     1      -4.410   3.101   9.158  1.00  0.00     0.000 C 
ENDROOT
BRANCH   1   2
ATOM      2  C   UNL     1      -5.359   2.265  10.031  1.00  0.00     0.000 C 
BRANCH   2   3
ATOM      3  C   UNL     1      -6.410   1.553   9.172  1.00  0.00     0.000 C 
BRANCH   3   4
ATOM      4  C   UNL     1      -6.427   2.119   7.745  1.00  0.00     0.000 C 
BRANCH   4   5
ATOM      5  C   UNL     1      -7.188   1.227   6.750  1.00  0.00     0.001 C 
BRANCH   5   6
ATOM      6  C   UNL     1      -6.326   0.469   5.714  1.00  0.00     0.009 C 
BRANCH   6   7
ATOM      7  C   UNL     1      -7.065  -0.443   4.699  1.00  0.00     0.032 C 
ATOM      8  C   UNL     1      -6.582  -1.901   4.728  1.00  0.00     0.014 C 
BRANCH   7   9
ATOM      9  C   UNL     1      -7.085   0.128   3.305  1.00  0.00     0.044 C 
ATOM     10  O   UNL     1      -7.213   1.367   3.113  1.00  0.00    -0.550 OA
ATOM     11  O   UNL     1      -7.010  -0.726   2.211  1.00  0.00    -0.550 OA
ENDBRANCH   7   9
ENDBRANCH   6   7
ENDBRANCH   5   6
ENDBRANCH   4   5
ENDBRANCH   3   4
ENDBRANCH   2   3
ENDBRANCH   1   2
BRANCH   1  12
ATOM     12  C   UNL     1      -2.931   2.898   9.528  1.00  0.00     0.000 C 
BRANCH  12  13
ATOM     13  C   UNL     1      -2.398   1.522   9.104  1.00  0.00    -0.000 C 
BRANCH  13  14
ATOM     14  C   UNL     1      -2.448   1.359   7.579  1.00  0.00    -0.000 C 
BRANCH  14  15
ATOM     15  C   UNL     1      -3.299   0.142   7.184  1.00  0.00    -0.000 C 
BRANCH  15  16
ATOM     16  C   UNL     1      -3.583  -0.795   8.369  1.00  0.00    -0.000 C 
BRANCH  16  17
ATOM     17  C   UNL     1      -3.994  -2.208   7.920  1.00  0.00    -0.000 C 
BRANCH  17  18
ATOM     18  C   UNL     1      -5.169  -2.766   8.739  1.00  0.00    -0.003 C 
ATOM     19  C   UNL     1      -6.493  -2.068   8.429  1.00  0.00     0.004 C 
ENDBRANCH  17  18
ENDBRANCH  16  17
ENDBRANCH  15  16
ENDBRANCH  14  15
ENDBRANCH  13  14
ENDBRANCH  12  13
ENDBRANCH   1  12
TORSDOF 14
ENDMDL
