MODEL 1
REMARK VINA RESULT:    -3.904      0.000      0.000
REMARK INTER + INTRA:          -4.707
REMARK INTER:                  -4.589
REMARK INTRA:                  -0.118
REMARK UNBOUND:                -0.118
REMARK SMILES O=C([O-])CCC(=O)[O-]
REMARK SMILES IDX 4 1 2 2 1 3 3 4 5 5 6 6 7 7 8 8
REMARK H PARENT
REMARK Flexibility Score: inf
ROOT
ATOM      1  C   UNL     1      61.167  -3.437  -5.934  1.00  0.00     0.059 C 
ENDROOT
BRANCH   1   2
ATOM      2  C   UNL     1      60.276  -4.473  -6.548  1.00  0.00     0.042 C 
ATOM      3  O   UNL     1      59.269  -4.897  -5.921  1.00  0.00    -0.550 OA
ATOM      4  O   UNL     1      60.581  -5.000  -7.797  1.00  0.00    -0.550 OA
ENDBRANCH   1   2
BRANCH   1   5
ATOM      5  C   UNL     1      62.363  -4.073  -5.217  1.00  0.00     0.059 C 
BRANCH   5   6
ATOM      6  C   UNL     1      62.197  -4.038  -3.728  1.00  0.00     0.042 C 
ATOM      7  O   UNL     1      62.973  -3.342  -3.022  1.00  0.00    -0.550 OA
ATOM      8  O   UNL     1      61.162  -4.742  -3.126  1.00  0.00    -0.550 OA
ENDBRANCH   5   6
ENDBRANCH   1   5
TORSDOF 3
ENDMDL
MODEL 2
REMARK VINA RESULT:    -3.885      0.030      3.901
REMARK INTER + INTRA:          -4.684
REMARK INTER:                  -4.568
REMARK INTRA:                  -0.117
REMARK UNBOUND:                -0.118
REMARK SMILES O=C([O-])CCC(=O)[O-]
REMARK SMILES IDX 4 1 2 2 1 3 3 4 5 5 6 6 7 7 8 8
REMARK H PARENT
REMARK Flexibility Score: inf
ROOT
ATOM      1  C   UNL     1      62.366  -4.044  -5.231  1.00  0.00     0.059 C 
ENDROOT
BRANCH   1   2
ATOM      2  C   UNL     1      62.182  -4.013  -3.744  1.00  0.00     0.042 C 
ATOM      3  O   UNL     1      62.955  -3.330  -3.022  1.00  0.00    -0.550 OA
ATOM      4  O   UNL     1      61.179  -4.771  -3.152  1.00  0.00    -0.550 OA
ENDBRANCH   1   2
BRANCH   1   5
ATOM      5  C   UNL     1      61.168  -3.428  -5.961  1.00  0.00     0.059 C 
BRANCH   5   6
ATOM      6  C   UNL     1      60.286  -4.481  -6.560  1.00  0.00     0.042 C 
ATOM      7  O   UNL     1      59.262  -4.875  -5.943  1.00  0.00    -0.550 OA
ATOM      8  O   UNL     1      60.574  -4.999  -7.817  1.00  0.00    -0.550 OA
ENDBRANCH   5   6
ENDBRANCH   1   5
TORSDOF 3
ENDMDL
MODEL 3
REMARK VINA RESULT:    -3.849      0.992      3.980
REMARK INTER + INTRA:          -4.642
REMARK INTER:                  -4.598
REMARK INTRA:                  -0.044
REMARK UNBOUND:                -0.118
REMARK SMILES O=C([O-])CCC(=O)[O-]
REMARK SMILES IDX 4 1 2 2 1 3 3 4 5 5 6 6 7 7 8 8
REMARK H PARENT
REMARK Flexibility Score: inf
ROOT
ATOM      1  C   UNL     1      61.607  -4.611  -5.329  1.00  0.00     0.059 C 
ENDROOT
BRANCH   1   2
ATOM      2  C   UNL     1      61.512  -4.744  -3.840  1.00  0.00     0.042 C 
ATOM      3  O   UNL     1      60.735  -5.591  -3.326  1.00  0.00    -0.550 OA
ATOM      4  O   UNL     1      62.253  -3.903  -3.019  1.00  0.00    -0.550 OA
ENDBRANCH   1   2
BRANCH   1   5
ATOM      5  C   UNL     1      60.375  -3.910  -5.913  1.00  0.00     0.059 C 
BRANCH   5   6
ATOM      6  C   UNL     1      59.897  -4.583  -7.163  1.00  0.00     0.042 C 
ATOM      7  O   UNL     1      60.727  -5.069  -7.976  1.00  0.00    -0.550 OA
ATOM      8  O   UNL     1      58.536  -4.708  -7.411  1.00  0.00    -0.550 OA
ENDBRANCH   5   6
ENDBRANCH   1   5
TORSDOF 3
ENDMDL
MODEL 4
REMARK VINA RESULT:    -3.819      0.890      3.973
REMARK INTER + INTRA:          -4.606
REMARK INTER:                  -4.552
REMARK INTRA:                  -0.055
REMARK UNBOUND:                -0.118
REMARK SMILES O=C([O-])CCC(=O)[O-]
REMARK SMILES IDX 4 1 2 2 1 3 3 4 5 5 6 6 7 7 8 8
REMARK H PARENT
REMARK Flexibility Score: inf
ROOT
ATOM      1  C   UNL     1      61.690  -4.227  -5.299  1.00  0.00     0.059 C 
ENDROOT
BRANCH   1   2
ATOM      2  C   UNL     1      61.646  -4.513  -3.830  1.00  0.00     0.042 C 
ATOM      3  O   UNL     1      62.447  -3.937  -3.046  1.00  0.00    -0.550 OA
ATOM      4  O   UNL     1      60.747  -5.447  -3.330  1.00  0.00    -0.550 OA
ENDBRANCH   1   2
BRANCH   1   5
ATOM      5  C   UNL     1      60.317  -3.804  -5.834  1.00  0.00     0.059 C 
BRANCH   5   6
ATOM      6  C   UNL     1      59.959  -4.546  -7.085  1.00  0.00     0.042 C 
ATOM      7  O   UNL     1      60.865  -5.000  -7.832  1.00  0.00    -0.550 OA
ATOM      8  O   UNL     1      58.626  -4.768  -7.406  1.00  0.00    -0.550 OA
ENDBRANCH   5   6
ENDBRANCH   1   5
TORSDOF 3
ENDMDL
MODEL 5
REMARK VINA RESULT:    -3.577      1.660      2.087
REMARK INTER + INTRA:          -4.323
REMARK INTER:                  -4.280
REMARK INTRA:                  -0.043
REMARK UNBOUND:                -0.118
REMARK SMILES O=C([O-])CCC(=O)[O-]
REMARK SMILES IDX 4 1 2 2 1 3 3 4 5 5 6 6 7 7 8 8
REMARK H PARENT
REMARK Flexibility Score: inf
ROOT
ATOM      1  C   UNL     1      61.891  -3.354  -5.692  1.00  0.00     0.059 C 
ENDROOT
BRANCH   1   2
ATOM      2  C   UNL     1      62.177  -3.418  -7.161  1.00  0.00     0.042 C 
ATOM      3  O   UNL     1      62.765  -2.465  -7.736  1.00  0.00    -0.550 OA
ATOM      4  O   UNL     1      61.757  -4.515  -7.904  1.00  0.00    -0.550 OA
ENDBRANCH   1   2
BRANCH   1   5
ATOM      5  C   UNL     1      61.108  -4.582  -5.215  1.00  0.00     0.059 C 
BRANCH   5   6
ATOM      6  C   UNL     1      61.331  -4.848  -3.757  1.00  0.00     0.042 C 
ATOM      7  O   UNL     1      62.147  -4.146  -3.105  1.00  0.00    -0.550 OA
ATOM      8  O   UNL     1      60.609  -5.844  -3.112  1.00  0.00    -0.550 OA
ENDBRANCH   5   6
ENDBRANCH   1   5
TORSDOF 3
ENDMDL
MODEL 6
REMARK VINA RESULT:    -3.558      1.566      3.682
REMARK INTER + INTRA:          -4.300
REMARK INTER:                  -4.263
REMARK INTRA:                  -0.037
REMARK UNBOUND:                -0.118
REMARK SMILES O=C([O-])CCC(=O)[O-]
REMARK SMILES IDX 4 1 2 2 1 3 3 4 5 5 6 6 7 7 8 8
REMARK H PARENT
REMARK Flexibility Score: inf
ROOT
ATOM      1  C   UNL     1      61.228  -4.779  -5.192  1.00  0.00     0.059 C 
ENDROOT
BRANCH   1   2
ATOM      2  C   UNL     1      61.364  -4.846  -3.701  1.00  0.00     0.042 C 
ATOM      3  O   UNL     1      60.658  -5.647  -3.034  1.00  0.00    -0.550 OA
ATOM      4  O   UNL     1      62.243  -3.992  -3.045  1.00  0.00    -0.550 OA
ENDBRANCH   1   2
BRANCH   1   5
ATOM      5  C   UNL     1      61.602  -3.395  -5.732  1.00  0.00     0.059 C 
BRANCH   5   6
ATOM      6  C   UNL     1      62.008  -3.455  -7.173  1.00  0.00     0.042 C 
ATOM      7  O   UNL     1      62.710  -2.536  -7.671  1.00  0.00    -0.550 OA
ATOM      8  O   UNL     1      61.645  -4.545  -7.954  1.00  0.00    -0.550 OA
ENDBRANCH   5   6
ENDBRANCH   1   5
TORSDOF 3
ENDMDL
MODEL 7
REMARK VINA RESULT:    -3.526      3.602      5.242
REMARK INTER + INTRA:          -4.263
REMARK INTER:                  -4.210
REMARK INTRA:                  -0.053
REMARK UNBOUND:                -0.118
REMARK SMILES O=C([O-])CCC(=O)[O-]
REMARK SMILES IDX 4 1 2 2 1 3 3 4 5 5 6 6 7 7 8 8
REMARK H PARENT
REMARK Flexibility Score: inf
ROOT
ATOM      1  C   UNL     1      57.008  -4.453  -8.251  1.00  0.00     0.059 C 
ENDROOT
BRANCH   1   2
ATOM      2  C   UNL     1      56.103  -3.414  -8.839  1.00  0.00     0.042 C 
ATOM      3  O   UNL     1      56.565  -2.531  -9.609  1.00  0.00    -0.550 OA
ATOM      4  O   UNL     1      54.755  -3.396  -8.503  1.00  0.00    -0.550 OA
ENDBRANCH   1   2
BRANCH   1   5
ATOM      5  C   UNL     1      58.427  -4.355  -8.824  1.00  0.00     0.059 C 
BRANCH   5   6
ATOM      6  C   UNL     1      59.459  -4.752  -7.812  1.00  0.00     0.042 C 
ATOM      7  O   UNL     1      59.168  -4.775  -6.588  1.00  0.00    -0.550 OA
ATOM      8  O   UNL     1      60.729  -5.133  -8.226  1.00  0.00    -0.550 OA
ENDBRANCH   5   6
ENDBRANCH   1   5
TORSDOF 3
ENDMDL
MODEL 8
REMARK VINA RESULT:    -3.517      3.604      5.897
REMARK INTER + INTRA:          -4.252
REMARK INTER:                  -4.189
REMARK INTRA:                  -0.063
REMARK UNBOUND:                -0.118
REMARK SMILES O=C([O-])CCC(=O)[O-]
REMARK SMILES IDX 4 1 2 2 1 3 3 4 5 5 6 6 7 7 8 8
REMARK H PARENT
REMARK Flexibility Score: inf
ROOT
ATOM      1  C   UNL     1      58.426  -4.405  -8.898  1.00  0.00     0.059 C 
ENDROOT
BRANCH   1   2
ATOM      2  C   UNL     1      59.504  -4.629  -7.882  1.00  0.00     0.042 C 
ATOM      3  O   UNL     1      59.332  -4.276  -6.686  1.00  0.00    -0.550 OA
ATOM      4  O   UNL     1      60.715  -5.192  -8.266  1.00  0.00    -0.550 OA
ENDBRANCH   1   2
BRANCH   1   5
ATOM      5  C   UNL     1      57.032  -4.453  -8.263  1.00  0.00     0.059 C 
BRANCH   5   6
ATOM      6  C   UNL     1      56.133  -3.394  -8.824  1.00  0.00     0.042 C 
ATOM      7  O   UNL     1      56.587  -2.541  -9.631  1.00  0.00    -0.550 OA
ATOM      8  O   UNL     1      54.785  -3.374  -8.487  1.00  0.00    -0.550 OA
ENDBRANCH   5   6
ENDBRANCH   1   5
TORSDOF 3
ENDMDL
MODEL 9
REMARK VINA RESULT:    -3.381     16.331     17.343
REMARK INTER + INTRA:          -4.092
REMARK INTER:                  -3.981
REMARK INTRA:                  -0.111
REMARK UNBOUND:                -0.118
REMARK SMILES O=C([O-])CCC(=O)[O-]
REMARK SMILES IDX 4 1 2 2 1 3 3 4 5 5 6 6 7 7 8 8
REMARK H PARENT
REMARK Flexibility Score: inf
ROOT
ATOM      1  C   UNL     1      47.876  -7.570   3.243  1.00  0.00     0.059 C 
ENDROOT
BRANCH   1   2
ATOM      2  C   UNL     1      47.125  -8.315   4.304  1.00  0.00     0.042 C 
ATOM      3  O   UNL     1      46.948  -9.557   4.203  1.00  0.00    -0.550 OA
ATOM      4  O   UNL     1      46.585  -7.629   5.386  1.00  0.00    -0.550 OA
ENDBRANCH   1   2
BRANCH   1   5
ATOM      5  C   UNL     1      47.158  -7.636   1.891  1.00  0.00     0.059 C 
BRANCH   5   6
ATOM      6  C   UNL     1      46.235  -6.472   1.697  1.00  0.00     0.042 C 
ATOM      7  O   UNL     1      45.014  -6.578   1.985  1.00  0.00    -0.550 OA
ATOM      8  O   UNL     1      46.731  -5.259   1.237  1.00  0.00    -0.550 OA
ENDBRANCH   5   6
ENDBRANCH   1   5
TORSDOF 3
ENDMDL
