MODEL 1
REMARK VINA RESULT:    -4.502      0.000      0.000
REMARK INTER + INTRA:          -4.931
REMARK INTER:                  -4.765
REMARK INTRA:                  -0.166
REMARK UNBOUND:                -0.166
REMARK SMILES Cc1ccc(C(C)C)cc1
REMARK SMILES IDX 1 1 2 2 3 3 4 4 5 5 9 6 10 7 6 8 7 9 8 10
REMARK H PARENT
REMARK Flexibility Score: inf
ROOT
ATOM      1  C   UNL     1       7.752  57.611 133.360  1.00  0.00     0.044 C 
ATOM      2  C   UNL     1       6.408  58.195 133.038  1.00  0.00    -0.051 A 
ATOM      3  C   UNL     1       6.313  59.431 132.382  1.00  0.00     0.004 A 
ATOM      4  C   UNL     1       5.063  59.960 132.049  1.00  0.00     0.004 A 
ATOM      5  C   UNL     1       3.885  59.254 132.354  1.00  0.00    -0.045 A 
ATOM      6  C   UNL     1       3.988  58.005 132.995  1.00  0.00     0.004 A 
ATOM      7  C   UNL     1       5.239  57.479 133.327  1.00  0.00     0.004 A 
ENDROOT
BRANCH   5   8
ATOM      8  C   UNL     1       2.535  59.839 131.985  1.00  0.00     0.013 C 
ATOM      9  C   UNL     1       2.676  61.279 131.478  1.00  0.00     0.012 C 
ATOM     10  C   UNL     1       1.559  59.763 133.165  1.00  0.00     0.012 C 
ENDBRANCH   5   8
TORSDOF 1
ENDMDL
MODEL 2
REMARK VINA RESULT:    -4.479      0.050      1.532
REMARK INTER + INTRA:          -4.907
REMARK INTER:                  -4.741
REMARK INTRA:                  -0.166
REMARK UNBOUND:                -0.166
REMARK SMILES Cc1ccc(C(C)C)cc1
REMARK SMILES IDX 1 1 2 2 3 3 4 4 5 5 9 6 10 7 6 8 7 9 8 10
REMARK H PARENT
REMARK Flexibility Score: inf
ROOT
ATOM      1  C   UNL     1       7.778  57.674 133.368  1.00  0.00     0.044 C 
ATOM      2  C   UNL     1       6.435  58.222 132.986  1.00  0.00    -0.051 A 
ATOM      3  C   UNL     1       5.266  57.523 133.320  1.00  0.00     0.004 A 
ATOM      4  C   UNL     1       4.012  58.049 132.998  1.00  0.00     0.004 A 
ATOM      5  C   UNL     1       3.905  59.291 132.348  1.00  0.00    -0.045 A 
ATOM      6  C   UNL     1       5.081  59.998 132.033  1.00  0.00     0.004 A 
ATOM      7  C   UNL     1       6.333  59.469 132.356  1.00  0.00     0.004 A 
ENDROOT
BRANCH   5   8
ATOM      8  C   UNL     1       2.537  59.852 132.006  1.00  0.00     0.013 C 
ATOM      9  C   UNL     1       2.644  61.294 131.493  1.00  0.00     0.012 C 
ATOM     10  C   UNL     1       1.588  59.763 133.207  1.00  0.00     0.012 C 
ENDBRANCH   5   8
TORSDOF 1
ENDMDL
MODEL 3
REMARK VINA RESULT:    -4.451      3.102      5.384
REMARK INTER + INTRA:          -4.877
REMARK INTER:                  -4.720
REMARK INTRA:                  -0.157
REMARK UNBOUND:                -0.166
REMARK SMILES Cc1ccc(C(C)C)cc1
REMARK SMILES IDX 1 1 2 2 3 3 4 4 5 5 9 6 10 7 6 8 7 9 8 10
REMARK H PARENT
REMARK Flexibility Score: inf
ROOT
ATOM      1  C   UNL     1      -1.603  58.645 135.408  1.00  0.00     0.044 C 
ATOM      2  C   UNL     1      -0.616  59.340 134.518  1.00  0.00    -0.051 A 
ATOM      3  C   UNL     1       0.758  59.095 134.660  1.00  0.00     0.004 A 
ATOM      4  C   UNL     1       1.678  59.713 133.808  1.00  0.00     0.004 A 
ATOM      5  C   UNL     1       1.238  60.577 132.789  1.00  0.00    -0.045 A 
ATOM      6  C   UNL     1      -0.143  60.803 132.639  1.00  0.00     0.004 A 
ATOM      7  C   UNL     1      -1.060  60.185 133.493  1.00  0.00     0.004 A 
ENDROOT
BRANCH   5   8
ATOM      8  C   UNL     1       2.247  61.239 131.870  1.00  0.00     0.013 C 
ATOM      9  C   UNL     1       3.157  60.198 131.207  1.00  0.00     0.012 C 
ATOM     10  C   UNL     1       3.070  62.293 132.621  1.00  0.00     0.012 C 
ENDBRANCH   5   8
TORSDOF 1
ENDMDL
MODEL 4
REMARK VINA RESULT:    -4.312      2.838      6.157
REMARK INTER + INTRA:          -4.730
REMARK INTER:                  -4.563
REMARK INTRA:                  -0.167
REMARK UNBOUND:                -0.166
REMARK SMILES Cc1ccc(C(C)C)cc1
REMARK SMILES IDX 1 1 2 2 3 3 4 4 5 5 9 6 10 7 6 8 7 9 8 10
REMARK H PARENT
REMARK Flexibility Score: inf
ROOT
ATOM      1  C   UNL     1       5.625  61.122 132.975  1.00  0.00     0.044 C 
ATOM      2  C   UNL     1       7.013  60.572 132.831  1.00  0.00    -0.051 A 
ATOM      3  C   UNL     1       8.120  61.327 133.246  1.00  0.00     0.004 A 
ATOM      4  C   UNL     1       9.411  60.802 133.148  1.00  0.00     0.004 A 
ATOM      5  C   UNL     1       9.618  59.505 132.645  1.00  0.00    -0.045 A 
ATOM      6  C   UNL     1       8.502  58.744 132.248  1.00  0.00     0.004 A 
ATOM      7  C   UNL     1       7.212  59.272 132.347  1.00  0.00     0.004 A 
ENDROOT
BRANCH   5   8
ATOM      8  C   UNL     1      11.025  58.946 132.545  1.00  0.00     0.013 C 
ATOM      9  C   UNL     1      11.003  57.422 132.377  1.00  0.00     0.012 C 
ATOM     10  C   UNL     1      11.868  59.355 133.759  1.00  0.00     0.012 C 
ENDBRANCH   5   8
TORSDOF 1
ENDMDL
MODEL 5
REMARK VINA RESULT:    -4.301      0.705      4.476
REMARK INTER + INTRA:          -4.718
REMARK INTER:                  -4.557
REMARK INTRA:                  -0.161
REMARK UNBOUND:                -0.166
REMARK SMILES Cc1ccc(C(C)C)cc1
REMARK SMILES IDX 1 1 2 2 3 3 4 4 5 5 9 6 10 7 6 8 7 9 8 10
REMARK H PARENT
REMARK Flexibility Score: inf
ROOT
ATOM      1  C   UNL     1       2.500  59.758 132.030  1.00  0.00     0.044 C 
ATOM      2  C   UNL     1       3.860  59.205 132.338  1.00  0.00    -0.051 A 
ATOM      3  C   UNL     1       5.011  59.936 132.007  1.00  0.00     0.004 A 
ATOM      4  C   UNL     1       6.279  59.440 132.326  1.00  0.00     0.004 A 
ATOM      5  C   UNL     1       6.417  58.211 132.994  1.00  0.00    -0.045 A 
ATOM      6  C   UNL     1       5.257  57.492 133.341  1.00  0.00     0.004 A 
ATOM      7  C   UNL     1       3.991  57.989 133.021  1.00  0.00     0.004 A 
ENDROOT
BRANCH   5   8
ATOM      8  C   UNL     1       7.798  57.685 133.336  1.00  0.00     0.013 C 
ATOM      9  C   UNL     1       8.053  57.745 134.848  1.00  0.00     0.012 C 
ATOM     10  C   UNL     1       8.884  58.444 132.564  1.00  0.00     0.012 C 
ENDBRANCH   5   8
TORSDOF 1
ENDMDL
MODEL 6
REMARK VINA RESULT:    -4.289      1.673      4.520
REMARK INTER + INTRA:          -4.706
REMARK INTER:                  -4.538
REMARK INTRA:                  -0.167
REMARK UNBOUND:                -0.166
REMARK SMILES Cc1ccc(C(C)C)cc1
REMARK SMILES IDX 1 1 2 2 3 3 4 4 5 5 9 6 10 7 6 8 7 9 8 10
REMARK H PARENT
REMARK Flexibility Score: inf
ROOT
ATOM      1  C   UNL     1       1.035  60.877 132.286  1.00  0.00     0.044 C 
ATOM      2  C   UNL     1       2.529  60.830 132.410  1.00  0.00    -0.051 A 
ATOM      3  C   UNL     1       3.181  61.585 133.395  1.00  0.00     0.004 A 
ATOM      4  C   UNL     1       4.570  61.515 133.537  1.00  0.00     0.004 A 
ATOM      5  C   UNL     1       5.330  60.676 132.703  1.00  0.00    -0.045 A 
ATOM      6  C   UNL     1       4.668  59.905 131.729  1.00  0.00     0.004 A 
ATOM      7  C   UNL     1       3.280  59.977 131.589  1.00  0.00     0.004 A 
ENDROOT
BRANCH   5   8
ATOM      8  C   UNL     1       6.837  60.607 132.869  1.00  0.00     0.013 C 
ATOM      9  C   UNL     1       7.390  59.278 132.341  1.00  0.00     0.012 C 
ATOM     10  C   UNL     1       7.242  60.831 134.331  1.00  0.00     0.012 C 
ENDBRANCH   5   8
TORSDOF 1
ENDMDL
MODEL 7
REMARK VINA RESULT:    -4.225      1.406      4.811
REMARK INTER + INTRA:          -4.638
REMARK INTER:                  -4.473
REMARK INTRA:                  -0.165
REMARK UNBOUND:                -0.166
REMARK SMILES Cc1ccc(C(C)C)cc1
REMARK SMILES IDX 1 1 2 2 3 3 4 4 5 5 9 6 10 7 6 8 7 9 8 10
REMARK H PARENT
REMARK Flexibility Score: inf
ROOT
ATOM      1  C   UNL     1       3.374  58.800 132.797  1.00  0.00     0.044 C 
ATOM      2  C   UNL     1       4.867  58.650 132.796  1.00  0.00    -0.051 A 
ATOM      3  C   UNL     1       5.678  59.658 132.255  1.00  0.00     0.004 A 
ATOM      4  C   UNL     1       7.070  59.539 132.286  1.00  0.00     0.004 A 
ATOM      5  C   UNL     1       7.677  58.414 132.873  1.00  0.00    -0.045 A 
ATOM      6  C   UNL     1       6.858  57.414 133.432  1.00  0.00     0.004 A 
ATOM      7  C   UNL     1       5.466  57.536 133.399  1.00  0.00     0.004 A 
ENDROOT
BRANCH   5   8
ATOM      8  C   UNL     1       9.189  58.297 132.902  1.00  0.00     0.013 C 
ATOM      9  C   UNL     1       9.783  58.459 131.498  1.00  0.00     0.012 C 
ATOM     10  C   UNL     1       9.628  56.972 133.537  1.00  0.00     0.012 C 
ENDBRANCH   5   8
TORSDOF 1
ENDMDL
MODEL 8
REMARK VINA RESULT:    -4.218      2.900      5.039
REMARK INTER + INTRA:          -4.630
REMARK INTER:                  -4.464
REMARK INTRA:                  -0.167
REMARK UNBOUND:                -0.166
REMARK SMILES Cc1ccc(C(C)C)cc1
REMARK SMILES IDX 1 1 2 2 3 3 4 4 5 5 9 6 10 7 6 8 7 9 8 10
REMARK H PARENT
REMARK Flexibility Score: inf
ROOT
ATOM      1  C   UNL     1      12.775  57.843 133.259  1.00  0.00     0.044 C 
ATOM      2  C   UNL     1      11.308  58.061 133.034  1.00  0.00    -0.051 A 
ATOM      3  C   UNL     1      10.370  57.174 133.583  1.00  0.00     0.004 A 
ATOM      4  C   UNL     1       9.001  57.394 133.406  1.00  0.00     0.004 A 
ATOM      5  C   UNL     1       8.546  58.514 132.688  1.00  0.00    -0.045 A 
ATOM      6  C   UNL     1       9.491  59.411 132.155  1.00  0.00     0.004 A 
ATOM      7  C   UNL     1      10.859  59.188 132.333  1.00  0.00     0.004 A 
ENDROOT
BRANCH   5   8
ATOM      8  C   UNL     1       7.057  58.743 132.505  1.00  0.00     0.013 C 
ATOM      9  C   UNL     1       6.680  60.198 132.809  1.00  0.00     0.012 C 
ATOM     10  C   UNL     1       6.240  57.770 133.363  1.00  0.00     0.012 C 
ENDBRANCH   5   8
TORSDOF 1
ENDMDL
MODEL 9
REMARK VINA RESULT:    -4.197      2.053      4.114
REMARK INTER + INTRA:          -4.609
REMARK INTER:                  -4.446
REMARK INTRA:                  -0.162
REMARK UNBOUND:                -0.166
REMARK SMILES Cc1ccc(C(C)C)cc1
REMARK SMILES IDX 1 1 2 2 3 3 4 4 5 5 9 6 10 7 6 8 7 9 8 10
REMARK H PARENT
REMARK Flexibility Score: inf
ROOT
ATOM      1  C   UNL     1       4.572  59.910 131.777  1.00  0.00     0.044 C 
ATOM      2  C   UNL     1       3.209  59.808 132.395  1.00  0.00    -0.051 A 
ATOM      3  C   UNL     1       2.964  58.880 133.418  1.00  0.00     0.004 A 
ATOM      4  C   UNL     1       1.705  58.807 134.021  1.00  0.00     0.004 A 
ATOM      5  C   UNL     1       0.671  59.672 133.619  1.00  0.00    -0.045 A 
ATOM      6  C   UNL     1       0.928  60.615 132.606  1.00  0.00     0.004 A 
ATOM      7  C   UNL     1       2.188  60.685 132.005  1.00  0.00     0.004 A 
ENDROOT
BRANCH   5   8
ATOM      8  C   UNL     1      -0.690  59.585 134.283  1.00  0.00     0.013 C 
ATOM      9  C   UNL     1      -1.323  58.205 134.066  1.00  0.00     0.012 C 
ATOM     10  C   UNL     1      -1.618  60.701 133.789  1.00  0.00     0.012 C 
ENDBRANCH   5   8
TORSDOF 1
ENDMDL
