MODEL 1
REMARK VINA RESULT:    -3.729      0.000      0.000
REMARK INTER + INTRA:          -4.336
REMARK INTER:                  -4.274
REMARK INTRA:                  -0.062
REMARK UNBOUND:                -0.062
REMARK SMILES CC(C)[C@@H]([NH3+])C(=O)[O-]
REMARK SMILES IDX 4 1 5 2 6 6 7 7 8 8 2 9 1 10 3 11
REMARK H PARENT 5 3 5 4 5 5
REMARK Flexibility Score: inf
ROOT
ATOM      1  C   UNL     1     -26.381  -7.374  13.113  1.00  0.00     0.230 C 
ENDROOT
BRANCH   1   2
ATOM      2  N   UNL     1     -27.366  -6.313  12.855  1.00  0.00    -0.350 N 
ATOM      3  H   UNL     1     -26.885  -5.460  12.485  1.00  0.00     0.345 HD
ATOM      4  H   UNL     1     -28.092  -6.622  12.170  1.00  0.00     0.345 HD
ATOM      5  H   UNL     1     -27.842  -6.053  13.750  1.00  0.00     0.345 HD
ENDBRANCH   1   2
BRANCH   1   6
ATOM      6  C   UNL     1     -25.031  -6.995  12.552  1.00  0.00     0.099 C 
ATOM      7  O   UNL     1     -24.045  -6.858  13.323  1.00  0.00    -0.544 OA
ATOM      8  O   UNL     1     -24.869  -6.766  11.190  1.00  0.00    -0.544 OA
ENDBRANCH   1   6
BRANCH   1   9
ATOM      9  C   UNL     1     -26.320  -7.747  14.626  1.00  0.00     0.047 C 
ATOM     10  C   UNL     1     -26.771  -9.188  14.923  1.00  0.00     0.014 C 
ATOM     11  C   UNL     1     -27.127  -6.757  15.479  1.00  0.00     0.014 C 
ENDBRANCH   1   9
TORSDOF 3
ENDMDL
MODEL 2
REMARK VINA RESULT:    -3.635      3.354      3.980
REMARK INTER + INTRA:          -4.227
REMARK INTER:                  -4.186
REMARK INTRA:                  -0.042
REMARK UNBOUND:                -0.062
REMARK SMILES CC(C)[C@@H]([NH3+])C(=O)[O-]
REMARK SMILES IDX 4 1 5 2 6 6 7 7 8 8 2 9 1 10 3 11
REMARK H PARENT 5 3 5 4 5 5
REMARK Flexibility Score: inf
ROOT
ATOM      1  C   UNL     1     -23.913  -5.599  15.496  1.00  0.00     0.230 C 
ENDROOT
BRANCH   1   2
ATOM      2  N   UNL     1     -24.871  -4.886  16.354  1.00  0.00    -0.350 N 
ATOM      3  H   UNL     1     -24.911  -5.337  17.297  1.00  0.00     0.345 HD
ATOM      4  H   UNL     1     -24.611  -3.880  16.465  1.00  0.00     0.345 HD
ATOM      5  H   UNL     1     -25.826  -4.939  15.929  1.00  0.00     0.345 HD
ENDBRANCH   1   2
BRANCH   1   6
ATOM      6  C   UNL     1     -22.640  -5.897  16.254  1.00  0.00     0.099 C 
ATOM      7  O   UNL     1     -22.410  -5.322  17.350  1.00  0.00    -0.544 OA
ATOM      8  O   UNL     1     -21.699  -6.781  15.738  1.00  0.00    -0.544 OA
ENDBRANCH   1   6
BRANCH   1   9
ATOM      9  C   UNL     1     -24.546  -6.873  14.859  1.00  0.00     0.047 C 
ATOM     10  C   UNL     1     -24.296  -6.995  13.346  1.00  0.00     0.014 C 
ATOM     11  C   UNL     1     -26.051  -6.955  15.152  1.00  0.00     0.014 C 
ENDBRANCH   1   9
TORSDOF 3
ENDMDL
MODEL 3
REMARK VINA RESULT:    -3.590      2.224      2.409
REMARK INTER + INTRA:          -4.176
REMARK INTER:                  -4.144
REMARK INTRA:                  -0.032
REMARK UNBOUND:                -0.062
REMARK SMILES CC(C)[C@@H]([NH3+])C(=O)[O-]
REMARK SMILES IDX 4 1 5 2 6 6 7 7 8 8 2 9 1 10 3 11
REMARK H PARENT 5 3 5 4 5 5
REMARK Flexibility Score: inf
ROOT
ATOM      1  C   UNL     1     -24.768  -7.424  14.188  1.00  0.00     0.230 C 
ENDROOT
BRANCH   1   2
ATOM      2  N   UNL     1     -25.065  -6.712  12.936  1.00  0.00    -0.350 N 
ATOM      3  H   UNL     1     -25.908  -7.129  12.478  1.00  0.00     0.345 HD
ATOM      4  H   UNL     1     -25.233  -5.695  13.105  1.00  0.00     0.345 HD
ATOM      5  H   UNL     1     -24.257  -6.811  12.279  1.00  0.00     0.345 HD
ENDBRANCH   1   2
BRANCH   1   6
ATOM      6  C   UNL     1     -23.758  -6.658  15.009  1.00  0.00     0.099 C 
ATOM      7  O   UNL     1     -24.070  -5.546  15.513  1.00  0.00    -0.544 OA
ATOM      8  O   UNL     1     -22.472  -7.153  15.193  1.00  0.00    -0.544 OA
ENDBRANCH   1   6
BRANCH   1   9
ATOM      9  C   UNL     1     -26.066  -7.754  14.986  1.00  0.00     0.047 C 
ATOM     10  C   UNL     1     -26.536  -9.210  14.825  1.00  0.00     0.014 C 
ATOM     11  C   UNL     1     -27.206  -6.791  14.621  1.00  0.00     0.014 C 
ENDBRANCH   1   9
TORSDOF 3
ENDMDL
MODEL 4
REMARK VINA RESULT:    -3.539      3.425      4.091
REMARK INTER + INTRA:          -4.117
REMARK INTER:                  -4.073
REMARK INTRA:                  -0.044
REMARK UNBOUND:                -0.062
REMARK SMILES CC(C)[C@@H]([NH3+])C(=O)[O-]
REMARK SMILES IDX 4 1 5 2 6 6 7 7 8 8 2 9 1 10 3 11
REMARK H PARENT 5 3 5 4 5 5
REMARK Flexibility Score: inf
ROOT
ATOM      1  C   UNL     1     -24.292  -6.365  14.620  1.00  0.00     0.230 C 
ENDROOT
BRANCH   1   2
ATOM      2  N   UNL     1     -23.539  -7.150  13.631  1.00  0.00    -0.350 N 
ATOM      3  H   UNL     1     -22.871  -7.792  14.117  1.00  0.00     0.345 HD
ATOM      4  H   UNL     1     -24.175  -7.713  13.023  1.00  0.00     0.345 HD
ATOM      5  H   UNL     1     -22.983  -6.505  13.023  1.00  0.00     0.345 HD
ENDBRANCH   1   2
BRANCH   1   6
ATOM      6  C   UNL     1     -25.578  -7.067  14.988  1.00  0.00     0.099 C 
ATOM      7  O   UNL     1     -25.733  -8.285  14.708  1.00  0.00    -0.544 OA
ATOM      8  O   UNL     1     -26.611  -6.374  15.610  1.00  0.00    -0.544 OA
ENDBRANCH   1   6
BRANCH   1   9
ATOM      9  C   UNL     1     -23.421  -6.014  15.864  1.00  0.00     0.047 C 
ATOM     10  C   UNL     1     -23.287  -4.503  16.116  1.00  0.00     0.014 C 
ATOM     11  C   UNL     1     -22.029  -6.657  15.769  1.00  0.00     0.014 C 
ENDBRANCH   1   9
TORSDOF 3
ENDMDL
MODEL 5
REMARK VINA RESULT:    -3.513      4.779      5.523
REMARK INTER + INTRA:          -4.088
REMARK INTER:                  -4.042
REMARK INTRA:                  -0.046
REMARK UNBOUND:                -0.062
REMARK SMILES CC(C)[C@@H]([NH3+])C(=O)[O-]
REMARK SMILES IDX 4 1 5 2 6 6 7 7 8 8 2 9 1 10 3 11
REMARK H PARENT 5 3 5 4 5 5
REMARK Flexibility Score: inf
ROOT
ATOM      1  C   UNL     1     -22.941  -5.016  16.483  1.00  0.00     0.230 C 
ENDROOT
BRANCH   1   2
ATOM      2  N   UNL     1     -23.981  -4.116  15.966  1.00  0.00    -0.350 N 
ATOM      3  H   UNL     1     -23.939  -4.081  14.921  1.00  0.00     0.345 HD
ATOM      4  H   UNL     1     -24.936  -4.423  16.261  1.00  0.00     0.345 HD
ATOM      5  H   UNL     1     -23.817  -3.148  16.329  1.00  0.00     0.345 HD
ENDBRANCH   1   2
BRANCH   1   6
ATOM      6  C   UNL     1     -22.944  -5.021  17.994  1.00  0.00     0.099 C 
ATOM      7  O   UNL     1     -21.869  -5.202  18.624  1.00  0.00    -0.544 OA
ATOM      8  O   UNL     1     -24.130  -4.857  18.700  1.00  0.00    -0.544 OA
ENDBRANCH   1   6
BRANCH   1   9
ATOM      9  C   UNL     1     -23.063  -6.447  15.876  1.00  0.00     0.047 C 
ATOM     10  C   UNL     1     -21.706  -7.107  15.574  1.00  0.00     0.014 C 
ATOM     11  C   UNL     1     -23.941  -6.447  14.616  1.00  0.00     0.014 C 
ENDBRANCH   1   9
TORSDOF 3
ENDMDL
MODEL 6
REMARK VINA RESULT:    -3.385      2.727      3.251
REMARK INTER + INTRA:          -3.942
REMARK INTER:                  -3.875
REMARK INTRA:                  -0.067
REMARK UNBOUND:                -0.062
REMARK SMILES CC(C)[C@@H]([NH3+])C(=O)[O-]
REMARK SMILES IDX 4 1 5 2 6 6 7 7 8 8 2 9 1 10 3 11
REMARK H PARENT 5 3 5 4 5 5
REMARK Flexibility Score: inf
ROOT
ATOM      1  C   UNL     1     -25.650  -6.939  15.445  1.00  0.00     0.230 C 
ENDROOT
BRANCH   1   2
ATOM      2  N   UNL     1     -26.633  -5.967  15.943  1.00  0.00    -0.350 N 
ATOM      3  H   UNL     1     -27.559  -6.433  16.084  1.00  0.00     0.345 HD
ATOM      4  H   UNL     1     -26.325  -5.537  16.844  1.00  0.00     0.345 HD
ATOM      5  H   UNL     1     -26.759  -5.204  15.237  1.00  0.00     0.345 HD
ENDBRANCH   1   2
BRANCH   1   6
ATOM      6  C   UNL     1     -26.253  -7.796  14.357  1.00  0.00     0.099 C 
ATOM      7  O   UNL     1     -26.441  -7.314  13.209  1.00  0.00    -0.544 OA
ATOM      8  O   UNL     1     -26.632  -9.108  14.616  1.00  0.00    -0.544 OA
ENDBRANCH   1   6
BRANCH   1   9
ATOM      9  C   UNL     1     -24.326  -6.245  15.001  1.00  0.00     0.047 C 
ATOM     10  C   UNL     1     -23.164  -7.226  14.768  1.00  0.00     0.014 C 
ATOM     11  C   UNL     1     -23.904  -5.157  15.999  1.00  0.00     0.014 C 
ENDBRANCH   1   9
TORSDOF 3
ENDMDL
MODEL 7
REMARK VINA RESULT:    -3.339      3.335      4.174
REMARK INTER + INTRA:          -3.888
REMARK INTER:                  -3.811
REMARK INTRA:                  -0.077
REMARK UNBOUND:                -0.062
REMARK SMILES CC(C)[C@@H]([NH3+])C(=O)[O-]
REMARK SMILES IDX 4 1 5 2 6 6 7 7 8 8 2 9 1 10 3 11
REMARK H PARENT 5 3 5 4 5 5
REMARK Flexibility Score: inf
ROOT
ATOM      1  C   UNL     1     -24.253  -6.003  15.771  1.00  0.00     0.230 C 
ENDROOT
BRANCH   1   2
ATOM      2  N   UNL     1     -23.970  -6.260  14.351  1.00  0.00    -0.350 N 
ATOM      3  H   UNL     1     -23.151  -6.905  14.260  1.00  0.00     0.345 HD
ATOM      4  H   UNL     1     -24.794  -6.681  13.866  1.00  0.00     0.345 HD
ATOM      5  H   UNL     1     -23.727  -5.360  13.875  1.00  0.00     0.345 HD
ENDBRANCH   1   2
BRANCH   1   6
ATOM      6  C   UNL     1     -23.327  -4.940  16.314  1.00  0.00     0.099 C 
ATOM      7  O   UNL     1     -23.263  -3.815  15.752  1.00  0.00    -0.544 OA
ATOM      8  O   UNL     1     -22.519  -5.199  17.415  1.00  0.00    -0.544 OA
ENDBRANCH   1   6
BRANCH   1   9
ATOM      9  C   UNL     1     -25.757  -5.668  16.007  1.00  0.00     0.047 C 
ATOM     10  C   UNL     1     -26.098  -5.364  17.476  1.00  0.00     0.014 C 
ATOM     11  C   UNL     1     -26.668  -6.786  15.476  1.00  0.00     0.014 C 
ENDBRANCH   1   9
TORSDOF 3
ENDMDL
MODEL 8
REMARK VINA RESULT:    -3.252      4.311      4.853
REMARK INTER + INTRA:          -3.789
REMARK INTER:                  -3.743
REMARK INTRA:                  -0.046
REMARK UNBOUND:                -0.062
REMARK SMILES CC(C)[C@@H]([NH3+])C(=O)[O-]
REMARK SMILES IDX 4 1 5 2 6 6 7 7 8 8 2 9 1 10 3 11
REMARK H PARENT 5 3 5 4 5 5
REMARK Flexibility Score: inf
ROOT
ATOM      1  C   UNL     1     -22.418  -6.255  15.458  1.00  0.00     0.230 C 
ENDROOT
BRANCH   1   2
ATOM      2  N   UNL     1     -21.340  -6.966  16.160  1.00  0.00    -0.350 N 
ATOM      3  H   UNL     1     -21.129  -7.868  15.674  1.00  0.00     0.345 HD
ATOM      4  H   UNL     1     -20.469  -6.391  16.208  1.00  0.00     0.345 HD
ATOM      5  H   UNL     1     -21.646  -7.188  17.136  1.00  0.00     0.345 HD
ENDBRANCH   1   2
BRANCH   1   6
ATOM      6  C   UNL     1     -23.339  -7.233  14.767  1.00  0.00     0.099 C 
ATOM      7  O   UNL     1     -24.097  -6.838  13.843  1.00  0.00    -0.544 OA
ATOM      8  O   UNL     1     -23.380  -8.567  15.159  1.00  0.00    -0.544 OA
ENDBRANCH   1   6
BRANCH   1   9
ATOM      9  C   UNL     1     -23.180  -5.281  16.408  1.00  0.00     0.047 C 
ATOM     10  C   UNL     1     -23.364  -3.870  15.824  1.00  0.00     0.014 C 
ATOM     11  C   UNL     1     -22.501  -5.197  17.783  1.00  0.00     0.014 C 
ENDBRANCH   1   9
TORSDOF 3
ENDMDL
MODEL 9
REMARK VINA RESULT:    -3.214      3.349      3.708
REMARK INTER + INTRA:          -3.746
REMARK INTER:                  -3.676
REMARK INTRA:                  -0.070
REMARK UNBOUND:                -0.062
REMARK SMILES CC(C)[C@@H]([NH3+])C(=O)[O-]
REMARK SMILES IDX 4 1 5 2 6 6 7 7 8 8 2 9 1 10 3 11
REMARK H PARENT 5 3 5 4 5 5
REMARK Flexibility Score: inf
ROOT
ATOM      1  C   UNL     1     -23.880  -6.653  15.161  1.00  0.00     0.230 C 
ENDROOT
BRANCH   1   2
ATOM      2  N   UNL     1     -23.737  -5.190  15.175  1.00  0.00    -0.350 N 
ATOM      3  H   UNL     1     -24.533  -4.757  15.697  1.00  0.00     0.345 HD
ATOM      4  H   UNL     1     -22.836  -4.898  15.618  1.00  0.00     0.345 HD
ATOM      5  H   UNL     1     -23.758  -4.828  14.194  1.00  0.00     0.345 HD
ENDBRANCH   1   2
BRANCH   1   6
ATOM      6  C   UNL     1     -24.773  -7.089  14.022  1.00  0.00     0.099 C 
ATOM      7  O   UNL     1     -24.398  -6.925  12.831  1.00  0.00    -0.544 OA
ATOM      8  O   UNL     1     -26.022  -7.645  14.273  1.00  0.00    -0.544 OA
ENDBRANCH   1   6
BRANCH   1   9
ATOM      9  C   UNL     1     -22.495  -7.369  15.147  1.00  0.00     0.047 C 
ATOM     10  C   UNL     1     -22.577  -8.875  15.446  1.00  0.00     0.014 C 
ATOM     11  C   UNL     1     -21.509  -6.694  16.112  1.00  0.00     0.014 C 
ENDBRANCH   1   9
TORSDOF 3
ENDMDL
