MODEL 1
REMARK VINA RESULT:    -3.453      0.000      0.000
REMARK INTER + INTRA:          -4.803
REMARK INTER:                  -4.463
REMARK INTRA:                  -0.340
REMARK UNBOUND:                -0.340
REMARK SMILES CCCCCCC(=O)[O-]
REMARK SMILES IDX 5 1 6 2 7 3 8 4 9 5 4 6 3 7 2 8 1 9
REMARK H PARENT
REMARK Flexibility Score: inf
ROOT
ATOM      1  C   UNL     1      26.579  -5.147  51.705  1.00  0.00     0.006 C 
ENDROOT
BRANCH   1   2
ATOM      2  C   UNL     1      27.788  -5.540  52.564  1.00  0.00     0.053 C 
BRANCH   2   3
ATOM      3  C   UNL     1      29.062  -5.202  51.857  1.00  0.00     0.041 C 
ATOM      4  O   UNL     1      29.418  -5.859  50.843  1.00  0.00    -0.550 OA
ATOM      5  O   UNL     1      29.833  -4.131  52.288  1.00  0.00    -0.550 OA
ENDBRANCH   2   3
ENDBRANCH   1   2
BRANCH   1   6
ATOM      6  C   UNL     1      26.455  -3.627  51.515  1.00  0.00     0.000 C 
BRANCH   6   7
ATOM      7  C   UNL     1      26.039  -2.901  52.806  1.00  0.00    -0.000 C 
BRANCH   7   8
ATOM      8  C   UNL     1      24.680  -3.381  53.340  1.00  0.00    -0.003 C 
ATOM      9  C   UNL     1      24.758  -3.907  54.773  1.00  0.00     0.004 C 
ENDBRANCH   7   8
ENDBRANCH   6   7
ENDBRANCH   1   6
TORSDOF 5
ENDMDL
MODEL 2
REMARK VINA RESULT:    -3.426      0.913      1.747
REMARK INTER + INTRA:          -4.767
REMARK INTER:                  -4.418
REMARK INTRA:                  -0.349
REMARK UNBOUND:                -0.340
REMARK SMILES CCCCCCC(=O)[O-]
REMARK SMILES IDX 5 1 6 2 7 3 8 4 9 5 4 6 3 7 2 8 1 9
REMARK H PARENT
REMARK Flexibility Score: inf
ROOT
ATOM      1  C   UNL     1      26.439  -3.590  51.513  1.00  0.00     0.006 C 
ENDROOT
BRANCH   1   2
ATOM      2  C   UNL     1      26.586  -5.100  51.740  1.00  0.00     0.053 C 
BRANCH   2   3
ATOM      3  C   UNL     1      27.988  -5.432  52.143  1.00  0.00     0.041 C 
ATOM      4  O   UNL     1      28.311  -5.446  53.360  1.00  0.00    -0.550 OA
ATOM      5  O   UNL     1      28.926  -5.775  51.178  1.00  0.00    -0.550 OA
ENDBRANCH   2   3
ENDBRANCH   1   2
BRANCH   1   6
ATOM      6  C   UNL     1      25.885  -2.856  52.745  1.00  0.00     0.000 C 
BRANCH   6   7
ATOM      7  C   UNL     1      24.599  -3.500  53.289  1.00  0.00    -0.000 C 
BRANCH   7   8
ATOM      8  C   UNL     1      24.594  -3.601  54.823  1.00  0.00    -0.003 C 
ATOM      9  C   UNL     1      25.505  -4.710  55.347  1.00  0.00     0.004 C 
ENDBRANCH   7   8
ENDBRANCH   6   7
ENDBRANCH   1   6
TORSDOF 5
ENDMDL
MODEL 3
REMARK VINA RESULT:    -3.264      2.721      4.509
REMARK INTER + INTRA:          -4.558
REMARK INTER:                  -4.276
REMARK INTRA:                  -0.282
REMARK UNBOUND:                -0.340
REMARK SMILES CCCCCCC(=O)[O-]
REMARK SMILES IDX 5 1 6 2 7 3 8 4 9 5 4 6 3 7 2 8 1 9
REMARK H PARENT
REMARK Flexibility Score: inf
ROOT
ATOM      1  C   UNL     1      25.938  -3.082  52.867  1.00  0.00     0.006 C 
ENDROOT
BRANCH   1   2
ATOM      2  C   UNL     1      24.709  -3.614  53.617  1.00  0.00     0.053 C 
BRANCH   2   3
ATOM      3  C   UNL     1      25.099  -4.101  54.977  1.00  0.00     0.041 C 
ATOM      4  O   UNL     1      24.785  -3.440  56.001  1.00  0.00    -0.550 OA
ATOM      5  O   UNL     1      25.766  -5.311  55.116  1.00  0.00    -0.550 OA
ENDBRANCH   2   3
ENDBRANCH   1   2
BRANCH   1   6
ATOM      6  C   UNL     1      26.174  -3.800  51.529  1.00  0.00     0.000 C 
BRANCH   6   7
ATOM      7  C   UNL     1      26.583  -5.272  51.713  1.00  0.00    -0.000 C 
BRANCH   7   8
ATOM      8  C   UNL     1      27.956  -5.422  52.388  1.00  0.00    -0.003 C 
ATOM      9  C   UNL     1      29.094  -5.602  51.384  1.00  0.00     0.004 C 
ENDBRANCH   7   8
ENDBRANCH   6   7
ENDBRANCH   1   6
TORSDOF 5
ENDMDL
MODEL 4
REMARK VINA RESULT:    -3.181      1.169      1.269
REMARK INTER + INTRA:          -4.451
REMARK INTER:                  -4.113
REMARK INTRA:                  -0.338
REMARK UNBOUND:                -0.340
REMARK SMILES CCCCCCC(=O)[O-]
REMARK SMILES IDX 5 1 6 2 7 3 8 4 9 5 4 6 3 7 2 8 1 9
REMARK H PARENT
REMARK Flexibility Score: inf
ROOT
ATOM      1  C   UNL     1      26.920  -5.426  52.200  1.00  0.00     0.006 C 
ENDROOT
BRANCH   1   2
ATOM      2  C   UNL     1      28.350  -5.407  51.645  1.00  0.00     0.053 C 
BRANCH   2   3
ATOM      3  C   UNL     1      28.976  -4.065  51.860  1.00  0.00     0.041 C 
ATOM      4  O   UNL     1      29.318  -3.360  50.876  1.00  0.00    -0.550 OA
ATOM      5  O   UNL     1      29.136  -3.573  53.149  1.00  0.00    -0.550 OA
ENDBRANCH   2   3
ENDBRANCH   1   2
BRANCH   1   6
ATOM      6  C   UNL     1      26.043  -4.305  51.619  1.00  0.00     0.000 C 
BRANCH   6   7
ATOM      7  C   UNL     1      25.272  -3.536  52.705  1.00  0.00    -0.000 C 
BRANCH   7   8
ATOM      8  C   UNL     1      25.705  -3.929  54.126  1.00  0.00    -0.003 C 
ATOM      9  C   UNL     1      24.545  -3.928  55.121  1.00  0.00     0.004 C 
ENDBRANCH   7   8
ENDBRANCH   6   7
ENDBRANCH   1   6
TORSDOF 5
ENDMDL
MODEL 5
REMARK VINA RESULT:    -3.156      1.490      2.424
REMARK INTER + INTRA:          -4.419
REMARK INTER:                  -4.072
REMARK INTRA:                  -0.347
REMARK UNBOUND:                -0.340
REMARK SMILES CCCCCCC(=O)[O-]
REMARK SMILES IDX 5 1 6 2 7 3 8 4 9 5 4 6 3 7 2 8 1 9
REMARK H PARENT
REMARK Flexibility Score: inf
ROOT
ATOM      1  C   UNL     1      26.500  -5.452  54.431  1.00  0.00     0.006 C 
ENDROOT
BRANCH   1   2
ATOM      2  C   UNL     1      27.804  -5.173  53.672  1.00  0.00     0.053 C 
BRANCH   2   3
ATOM      3  C   UNL     1      27.625  -5.442  52.211  1.00  0.00     0.041 C 
ATOM      4  O   UNL     1      26.473  -5.445  51.704  1.00  0.00    -0.550 OA
ATOM      5  O   UNL     1      28.735  -5.640  51.400  1.00  0.00    -0.550 OA
ENDBRANCH   2   3
ENDBRANCH   1   2
BRANCH   1   6
ATOM      6  C   UNL     1      26.011  -4.238  55.237  1.00  0.00     0.000 C 
BRANCH   6   7
ATOM      7  C   UNL     1      24.607  -3.774  54.815  1.00  0.00    -0.000 C 
BRANCH   7   8
ATOM      8  C   UNL     1      24.560  -3.285  53.359  1.00  0.00    -0.003 C 
ATOM      9  C   UNL     1      25.527  -2.134  53.088  1.00  0.00     0.004 C 
ENDBRANCH   7   8
ENDBRANCH   6   7
ENDBRANCH   1   6
TORSDOF 5
ENDMDL
MODEL 6
REMARK VINA RESULT:    -3.029      1.034      2.076
REMARK INTER + INTRA:          -4.255
REMARK INTER:                  -3.905
REMARK INTRA:                  -0.349
REMARK UNBOUND:                -0.340
REMARK SMILES CCCCCCC(=O)[O-]
REMARK SMILES IDX 5 1 6 2 7 3 8 4 9 5 4 6 3 7 2 8 1 9
REMARK H PARENT
REMARK Flexibility Score: inf
ROOT
ATOM      1  C   UNL     1      26.511  -5.042  51.704  1.00  0.00     0.006 C 
ENDROOT
BRANCH   1   2
ATOM      2  C   UNL     1      27.797  -5.130  52.537  1.00  0.00     0.053 C 
BRANCH   2   3
ATOM      3  C   UNL     1      28.995  -4.891  51.673  1.00  0.00     0.041 C 
ATOM      4  O   UNL     1      29.604  -3.791  51.724  1.00  0.00    -0.550 OA
ATOM      5  O   UNL     1      29.468  -5.902  50.847  1.00  0.00    -0.550 OA
ENDBRANCH   2   3
ENDBRANCH   1   2
BRANCH   1   6
ATOM      6  C   UNL     1      25.453  -4.126  52.341  1.00  0.00     0.000 C 
BRANCH   6   7
ATOM      7  C   UNL     1      26.068  -3.085  53.292  1.00  0.00    -0.000 C 
BRANCH   7   8
ATOM      8  C   UNL     1      25.955  -1.652  52.749  1.00  0.00    -0.003 C 
ATOM      9  C   UNL     1      27.257  -1.151  52.123  1.00  0.00     0.004 C 
ENDBRANCH   7   8
ENDBRANCH   6   7
ENDBRANCH   1   6
TORSDOF 5
ENDMDL
MODEL 7
REMARK VINA RESULT:    -3.017      2.384      3.551
REMARK INTER + INTRA:          -4.239
REMARK INTER:                  -3.844
REMARK INTRA:                  -0.395
REMARK UNBOUND:                -0.340
REMARK SMILES CCCCCCC(=O)[O-]
REMARK SMILES IDX 5 1 6 2 7 3 8 4 9 5 4 6 3 7 2 8 1 9
REMARK H PARENT
REMARK Flexibility Score: inf
ROOT
ATOM      1  C   UNL     1      24.953  -4.010  54.531  1.00  0.00     0.006 C 
ENDROOT
BRANCH   1   2
ATOM      2  C   UNL     1      26.143  -4.974  54.625  1.00  0.00     0.053 C 
BRANCH   2   3
ATOM      3  C   UNL     1      27.285  -4.324  55.340  1.00  0.00     0.041 C 
ATOM      4  O   UNL     1      28.204  -3.762  54.688  1.00  0.00    -0.550 OA
ATOM      5  O   UNL     1      27.311  -4.296  56.728  1.00  0.00    -0.550 OA
ENDBRANCH   2   3
ENDBRANCH   1   2
BRANCH   1   6
ATOM      6  C   UNL     1      24.864  -3.308  53.167  1.00  0.00     0.000 C 
BRANCH   6   7
ATOM      7  C   UNL     1      25.702  -4.011  52.085  1.00  0.00    -0.000 C 
BRANCH   7   8
ATOM      8  C   UNL     1      26.671  -3.052  51.375  1.00  0.00    -0.003 C 
ATOM      9  C   UNL     1      26.749  -1.682  52.047  1.00  0.00     0.004 C 
ENDBRANCH   7   8
ENDBRANCH   6   7
ENDBRANCH   1   6
TORSDOF 5
ENDMDL
MODEL 8
REMARK VINA RESULT:    -2.997      2.093      3.186
REMARK INTER + INTRA:          -4.213
REMARK INTER:                  -4.035
REMARK INTRA:                  -0.177
REMARK UNBOUND:                -0.340
REMARK SMILES CCCCCCC(=O)[O-]
REMARK SMILES IDX 5 1 6 2 7 3 8 4 9 5 4 6 3 7 2 8 1 9
REMARK H PARENT
REMARK Flexibility Score: inf
ROOT
ATOM      1  C   UNL     1      25.208  -3.670  53.448  1.00  0.00     0.006 C 
ENDROOT
BRANCH   1   2
ATOM      2  C   UNL     1      26.444  -4.568  53.307  1.00  0.00     0.053 C 
BRANCH   2   3
ATOM      3  C   UNL     1      26.628  -4.981  51.881  1.00  0.00     0.041 C 
ATOM      4  O   UNL     1      25.704  -4.804  51.045  1.00  0.00    -0.550 OA
ATOM      5  O   UNL     1      27.840  -5.517  51.464  1.00  0.00    -0.550 OA
ENDBRANCH   2   3
ENDBRANCH   1   2
BRANCH   1   6
ATOM      6  C   UNL     1      24.513  -3.828  54.810  1.00  0.00     0.000 C 
BRANCH   6   7
ATOM      7  C   UNL     1      25.339  -4.663  55.803  1.00  0.00    -0.000 C 
BRANCH   7   8
ATOM      8  C   UNL     1      24.702  -4.717  57.201  1.00  0.00    -0.003 C 
ATOM      9  C   UNL     1      24.442  -3.330  57.788  1.00  0.00     0.004 C 
ENDBRANCH   7   8
ENDBRANCH   6   7
ENDBRANCH   1   6
TORSDOF 5
ENDMDL
MODEL 9
REMARK VINA RESULT:    -2.958      2.240      3.432
REMARK INTER + INTRA:          -4.163
REMARK INTER:                  -3.750
REMARK INTRA:                  -0.413
REMARK UNBOUND:                -0.340
REMARK SMILES CCCCCCC(=O)[O-]
REMARK SMILES IDX 5 1 6 2 7 3 8 4 9 5 4 6 3 7 2 8 1 9
REMARK H PARENT
REMARK Flexibility Score: inf
ROOT
ATOM      1  C   UNL     1      25.474  -2.565  53.856  1.00  0.00     0.006 C 
ENDROOT
BRANCH   1   2
ATOM      2  C   UNL     1      24.962  -3.590  52.836  1.00  0.00     0.053 C 
BRANCH   2   3
ATOM      3  C   UNL     1      26.049  -3.960  51.877  1.00  0.00     0.041 C 
ATOM      4  O   UNL     1      26.401  -5.162  51.750  1.00  0.00    -0.550 OA
ATOM      5  O   UNL     1      26.641  -2.983  51.087  1.00  0.00    -0.550 OA
ENDBRANCH   2   3
ENDBRANCH   1   2
BRANCH   1   6
ATOM      6  C   UNL     1      26.034  -3.223  55.128  1.00  0.00     0.000 C 
BRANCH   6   7
ATOM      7  C   UNL     1      25.220  -4.453  55.564  1.00  0.00    -0.000 C 
BRANCH   7   8
ATOM      8  C   UNL     1      26.100  -5.695  55.781  1.00  0.00    -0.003 C 
ATOM      9  C   UNL     1      27.473  -5.572  55.120  1.00  0.00     0.004 C 
ENDBRANCH   7   8
ENDBRANCH   6   7
ENDBRANCH   1   6
TORSDOF 5
ENDMDL
