MODEL 1
REMARK VINA RESULT:     3.607      0.000      0.000
REMARK INTER + INTRA:           3.648
REMARK INTER:                   3.923
REMARK INTRA:                  -0.275
REMARK UNBOUND:                -0.275
REMARK SMILES C[C@H]1[C@H](C)CC[C@]2(C(=O)[O-])CC[C@@]3(C)C(=CC[C@@H]4[C@]5(C)CC[C@@H](O)C(C)(C)[C@@H]5CC[C@]43C)[C@H]12
REMARK SMILES IDX 7 1 6 2 11 3 33 4 5 5 12 6 15 7 2 8 3 9 13 10 16 11 1 12
REMARK SMILES IDX 4 13 14 14 31 15 17 16 18 17 30 18 32 19 19 20 29 21 28 22
REMARK SMILES IDX 21 23 20 24 25 25 22 26 23 27 26 28 27 29 8 30 9 31 10 32
REMARK SMILES IDX 24 33
REMARK H PARENT 24 34
REMARK Flexibility Score: inf
ROOT
ATOM      1  C   UNL     1      -9.570  22.661  -8.723  1.00  0.00     0.017 C 
ATOM      2  C   UNL     1      -8.408  23.413  -8.004  1.00  0.00     0.014 C 
ATOM      3  C   UNL     1     -10.065  21.585  -7.698  1.00  0.00     0.014 C 
ATOM      4  C   UNL     1      -9.157  21.965 -10.101  1.00  0.00     0.030 C 
ATOM      5  C   UNL     1      -7.447  24.125  -8.943  1.00  0.00     0.004 C 
ATOM      6  C   UNL     1     -11.119  20.594  -8.237  1.00  0.00     0.013 C 
ATOM      7  C   UNL     1      -9.350  20.435 -10.024  1.00  0.00    -0.063 C 
ATOM      8  C   UNL     1      -7.856  22.480 -10.842  1.00  0.00    -0.003 C 
ATOM      9  C   UNL     1      -6.793  23.143  -9.924  1.00  0.00    -0.011 C 
ATOM     10  C   UNL     1     -10.779  19.960  -9.645  1.00  0.00    -0.006 C 
ATOM     11  C   UNL     1      -8.283  19.612  -9.892  1.00  0.00    -0.027 C 
ATOM     12  C   UNL     1      -8.201  23.442 -12.003  1.00  0.00     0.008 C 
ATOM     13  C   UNL     1      -5.899  22.119  -9.201  1.00  0.00     0.008 C 
ATOM     14  C   UNL     1     -11.796  20.559 -10.677  1.00  0.00     0.017 C 
ATOM     15  C   UNL     1     -10.881  18.348  -9.675  1.00  0.00    -0.020 C 
ATOM     16  C   UNL     1      -8.360  18.148  -9.579  1.00  0.00     0.032 C 
ATOM     17  C   UNL     1      -9.677  17.737  -8.893  1.00  0.00     0.006 C 
ATOM     18  C   UNL     1     -12.179  17.840  -8.990  1.00  0.00     0.008 C 
ATOM     19  C   UNL     1     -10.855  17.873 -11.164  1.00  0.00     0.012 C 
ATOM     20  C   UNL     1      -9.749  16.182  -8.424  1.00  0.00    -0.025 C 
ATOM     21  C   UNL     1     -12.335  16.340  -9.133  1.00  0.00     0.005 C 
ATOM     22  C   UNL     1     -11.216  15.507  -8.441  1.00  0.00     0.003 C 
ATOM     23  C   UNL     1      -8.687  15.260  -9.149  1.00  0.00     0.010 C 
ATOM     24  C   UNL     1      -9.291  16.196  -6.931  1.00  0.00     0.012 C 
ATOM     25  C   UNL     1     -11.255  13.996  -8.944  1.00  0.00    -0.006 C 
ATOM     26  C   UNL     1      -9.148  14.551 -10.419  1.00  0.00     0.033 C 
ATOM     27  C   UNL     1     -10.542  13.886 -10.334  1.00  0.00     0.120 C 
ATOM     28  C   UNL     1     -10.662  13.019  -7.882  1.00  0.00     0.014 C 
ATOM     29  C   UNL     1     -12.727  13.506  -9.124  1.00  0.00     0.014 C 
ENDROOT
BRANCH   1  30
ATOM     30  C   UNL     1     -10.684  23.681  -8.967  1.00  0.00     0.048 C 
ATOM     31  O   UNL     1     -11.364  24.125  -8.003  1.00  0.00    -0.550 OA
ATOM     32  O   UNL     1     -10.993  24.111 -10.256  1.00  0.00    -0.550 OA
ENDBRANCH   1  30
BRANCH  27  33
ATOM     33  O   UNL     1     -10.429  12.543 -10.735  1.00  0.00    -0.393 OA
ATOM     34  H   UNL     1      -9.899  12.532 -11.574  1.00  0.00     0.210 HD
ENDBRANCH  27  33
TORSDOF 2
ENDMDL
MODEL 2
REMARK VINA RESULT:     4.595      3.036      4.966
REMARK INTER + INTRA:           4.724
REMARK INTER:                   4.355
REMARK INTRA:                   0.369
REMARK UNBOUND:                -0.275
REMARK SMILES C[C@H]1[C@H](C)CC[C@]2(C(=O)[O-])CC[C@@]3(C)C(=CC[C@@H]4[C@]5(C)CC[C@@H](O)C(C)(C)[C@@H]5CC[C@]43C)[C@H]12
REMARK SMILES IDX 7 1 6 2 11 3 33 4 5 5 12 6 15 7 2 8 3 9 13 10 16 11 1 12
REMARK SMILES IDX 4 13 14 14 31 15 17 16 18 17 30 18 32 19 19 20 29 21 28 22
REMARK SMILES IDX 21 23 20 24 25 25 22 26 23 27 26 28 27 29 8 30 9 31 10 32
REMARK SMILES IDX 24 33
REMARK H PARENT 24 34
REMARK Flexibility Score: inf
ROOT
ATOM      1  C   UNL     1      -5.034  22.107  -8.466  1.00  0.00     0.017 C 
ATOM      2  C   UNL     1      -5.036  23.658  -8.290  1.00  0.00     0.014 C 
ATOM      3  C   UNL     1      -5.798  21.842  -9.809  1.00  0.00     0.014 C 
ATOM      4  C   UNL     1      -5.723  21.303  -7.269  1.00  0.00     0.030 C 
ATOM      5  C   UNL     1      -4.828  24.125  -6.858  1.00  0.00     0.004 C 
ATOM      6  C   UNL     1      -6.072  20.358 -10.130  1.00  0.00     0.013 C 
ATOM      7  C   UNL     1      -6.946  20.508  -7.773  1.00  0.00    -0.063 C 
ATOM      8  C   UNL     1      -5.872  22.025  -5.868  1.00  0.00    -0.003 C 
ATOM      9  C   UNL     1      -5.916  23.576  -5.926  1.00  0.00    -0.011 C 
ATOM     10  C   UNL     1      -6.668  19.514  -8.932  1.00  0.00    -0.006 C 
ATOM     11  C   UNL     1      -8.203  20.939  -7.510  1.00  0.00    -0.027 C 
ATOM     12  C   UNL     1      -4.771  21.582  -4.875  1.00  0.00     0.008 C 
ATOM     13  C   UNL     1      -7.310  24.125  -6.286  1.00  0.00     0.008 C 
ATOM     14  C   UNL     1      -5.551  18.512  -8.476  1.00  0.00     0.017 C 
ATOM     15  C   UNL     1      -7.999  18.685  -9.319  1.00  0.00    -0.020 C 
ATOM     16  C   UNL     1      -9.449  20.386  -8.133  1.00  0.00     0.032 C 
ATOM     17  C   UNL     1      -9.198  19.671  -9.474  1.00  0.00     0.006 C 
ATOM     18  C   UNL     1      -7.840  17.937 -10.671  1.00  0.00     0.008 C 
ATOM     19  C   UNL     1      -8.292  17.653  -8.182  1.00  0.00     0.012 C 
ATOM     20  C   UNL     1     -10.538  19.167 -10.244  1.00  0.00    -0.025 C 
ATOM     21  C   UNL     1      -9.038  17.059 -10.967  1.00  0.00     0.005 C 
ATOM     22  C   UNL     1     -10.378  17.833 -11.142  1.00  0.00     0.003 C 
ATOM     23  C   UNL     1     -11.804  19.070  -9.299  1.00  0.00     0.010 C 
ATOM     24  C   UNL     1     -10.885  20.322 -11.235  1.00  0.00     0.012 C 
ATOM     25  C   UNL     1     -11.613  16.830 -11.082  1.00  0.00    -0.006 C 
ATOM     26  C   UNL     1     -12.071  17.716  -8.647  1.00  0.00     0.033 C 
ATOM     27  C   UNL     1     -11.948  16.496  -9.589  1.00  0.00     0.120 C 
ATOM     28  C   UNL     1     -12.843  17.382 -11.867  1.00  0.00     0.014 C 
ATOM     29  C   UNL     1     -11.277  15.488 -11.807  1.00  0.00     0.014 C 
ENDROOT
BRANCH   1  30
ATOM     30  C   UNL     1      -3.576  21.672  -8.617  1.00  0.00     0.048 C 
ATOM     31  O   UNL     1      -2.659  22.533  -8.702  1.00  0.00    -0.550 OA
ATOM     32  O   UNL     1      -3.235  20.323  -8.700  1.00  0.00    -0.550 OA
ENDBRANCH   1  30
BRANCH  27  33
ATOM     33  O   UNL     1     -13.124  15.731  -9.498  1.00  0.00    -0.393 OA
ATOM     34  H   UNL     1     -13.311  15.374 -10.405  1.00  0.00     0.210 HD
ENDBRANCH  27  33
TORSDOF 2
ENDMDL
MODEL 3
REMARK VINA RESULT:     4.615      2.993      4.154
REMARK INTER + INTRA:           4.745
REMARK INTER:                   5.043
REMARK INTRA:                  -0.298
REMARK UNBOUND:                -0.275
REMARK SMILES C[C@H]1[C@H](C)CC[C@]2(C(=O)[O-])CC[C@@]3(C)C(=CC[C@@H]4[C@]5(C)CC[C@@H](O)C(C)(C)[C@@H]5CC[C@]43C)[C@H]12
REMARK SMILES IDX 7 1 6 2 11 3 33 4 5 5 12 6 15 7 2 8 3 9 13 10 16 11 1 12
REMARK SMILES IDX 4 13 14 14 31 15 17 16 18 17 30 18 32 19 19 20 29 21 28 22
REMARK SMILES IDX 21 23 20 24 25 25 22 26 23 27 26 28 27 29 8 30 9 31 10 32
REMARK SMILES IDX 24 33
REMARK H PARENT 24 34
REMARK Flexibility Score: inf
ROOT
ATOM      1  C   UNL     1     -10.719  21.754  -9.244  1.00  0.00     0.017 C 
ATOM      2  C   UNL     1     -10.664  23.292  -8.989  1.00  0.00     0.014 C 
ATOM      3  C   UNL     1     -10.412  21.092  -7.857  1.00  0.00     0.014 C 
ATOM      4  C   UNL     1      -9.692  21.227 -10.348  1.00  0.00     0.030 C 
ATOM      5  C   UNL     1     -10.415  24.125 -10.236  1.00  0.00     0.004 C 
ATOM      6  C   UNL     1     -10.251  19.557  -7.879  1.00  0.00     0.013 C 
ATOM      7  C   UNL     1      -8.685  20.231  -9.733  1.00  0.00    -0.063 C 
ATOM      8  C   UNL     1      -9.113  22.268 -11.392  1.00  0.00    -0.003 C 
ATOM      9  C   UNL     1      -9.090  23.743 -10.909  1.00  0.00    -0.011 C 
ATOM     10  C   UNL     1      -9.311  19.001  -9.023  1.00  0.00    -0.006 C 
ATOM     11  C   UNL     1      -7.410  20.609  -9.480  1.00  0.00    -0.027 C 
ATOM     12  C   UNL     1      -9.849  22.186 -12.750  1.00  0.00     0.008 C 
ATOM     13  C   UNL     1      -7.879  24.064 -10.013  1.00  0.00     0.008 C 
ATOM     14  C   UNL     1     -10.229  18.245 -10.045  1.00  0.00     0.017 C 
ATOM     15  C   UNL     1      -8.166  17.993  -8.491  1.00  0.00    -0.020 C 
ATOM     16  C   UNL     1      -6.420  19.813  -8.683  1.00  0.00     0.032 C 
ATOM     17  C   UNL     1      -7.076  18.803  -7.724  1.00  0.00     0.006 C 
ATOM     18  C   UNL     1      -8.739  16.940  -7.503  1.00  0.00     0.008 C 
ATOM     19  C   UNL     1      -7.533  17.265  -9.721  1.00  0.00     0.012 C 
ATOM     20  C   UNL     1      -6.043  18.009  -6.752  1.00  0.00    -0.025 C 
ATOM     21  C   UNL     1      -7.693  15.919  -7.107  1.00  0.00     0.005 C 
ATOM     22  C   UNL     1      -6.475  16.509  -6.337  1.00  0.00     0.003 C 
ATOM     23  C   UNL     1      -4.546  18.052  -7.262  1.00  0.00     0.010 C 
ATOM     24  C   UNL     1      -6.023  18.840  -5.430  1.00  0.00     0.012 C 
ATOM     25  C   UNL     1      -5.282  15.455  -6.290  1.00  0.00    -0.006 C 
ATOM     26  C   UNL     1      -4.087  16.892  -8.142  1.00  0.00     0.033 C 
ATOM     27  C   UNL     1      -4.498  15.487  -7.645  1.00  0.00     0.120 C 
ATOM     28  C   UNL     1      -4.359  15.684  -5.053  1.00  0.00     0.014 C 
ATOM     29  C   UNL     1      -5.826  14.005  -6.087  1.00  0.00     0.014 C 
ENDROOT
BRANCH   1  30
ATOM     30  C   UNL     1     -12.152  21.417  -9.661  1.00  0.00     0.048 C 
ATOM     31  O   UNL     1     -13.124  21.757  -8.934  1.00  0.00    -0.550 OA
ATOM     32  O   UNL     1     -12.409  20.700 -10.829  1.00  0.00    -0.550 OA
ENDBRANCH   1  30
BRANCH  27  33
ATOM     33  O   UNL     1      -3.351  14.675  -7.580  1.00  0.00    -0.393 OA
ATOM     34  H   UNL     1      -2.634  15.216  -7.156  1.00  0.00     0.210 HD
ENDBRANCH  27  33
TORSDOF 2
ENDMDL
MODEL 4
REMARK VINA RESULT:     6.291      2.317      7.674
REMARK INTER + INTRA:           6.568
REMARK INTER:                   6.089
REMARK INTRA:                   0.478
REMARK UNBOUND:                -0.275
REMARK SMILES C[C@H]1[C@H](C)CC[C@]2(C(=O)[O-])CC[C@@]3(C)C(=CC[C@@H]4[C@]5(C)CC[C@@H](O)C(C)(C)[C@@H]5CC[C@]43C)[C@H]12
REMARK SMILES IDX 7 1 6 2 11 3 33 4 5 5 12 6 15 7 2 8 3 9 13 10 16 11 1 12
REMARK SMILES IDX 4 13 14 14 31 15 17 16 18 17 30 18 32 19 19 20 29 21 28 22
REMARK SMILES IDX 21 23 20 24 25 25 22 26 23 27 26 28 27 29 8 30 9 31 10 32
REMARK SMILES IDX 24 33
REMARK H PARENT 24 34
REMARK Flexibility Score: inf
ROOT
ATOM      1  C   UNL     1      -8.154  15.884  -6.600  1.00  0.00     0.017 C 
ATOM      2  C   UNL     1      -8.705  15.128  -5.351  1.00  0.00     0.014 C 
ATOM      3  C   UNL     1      -8.258  17.406  -6.244  1.00  0.00     0.014 C 
ATOM      4  C   UNL     1      -8.938  15.578  -7.959  1.00  0.00     0.030 C 
ATOM      5  C   UNL     1      -9.185  13.714  -5.636  1.00  0.00     0.004 C 
ATOM      6  C   UNL     1      -7.919  18.378  -7.394  1.00  0.00     0.013 C 
ATOM      7  C   UNL     1      -9.583  16.862  -8.523  1.00  0.00    -0.063 C 
ATOM      8  C   UNL     1      -9.801  14.253  -8.046  1.00  0.00    -0.003 C 
ATOM      9  C   UNL     1     -10.305  13.703  -6.684  1.00  0.00    -0.011 C 
ATOM     10  C   UNL     1      -8.609  18.044  -8.777  1.00  0.00    -0.006 C 
ATOM     11  C   UNL     1     -10.917  17.069  -8.412  1.00  0.00    -0.027 C 
ATOM     12  C   UNL     1      -9.053  13.132  -8.805  1.00  0.00     0.008 C 
ATOM     13  C   UNL     1     -11.571  14.419  -6.177  1.00  0.00     0.008 C 
ATOM     14  C   UNL     1      -7.479  17.562  -9.750  1.00  0.00     0.017 C 
ATOM     15  C   UNL     1      -9.380  19.300  -9.439  1.00  0.00    -0.020 C 
ATOM     16  C   UNL     1     -11.614  18.362  -8.710  1.00  0.00     0.032 C 
ATOM     17  C   UNL     1     -10.686  19.589  -8.637  1.00  0.00     0.006 C 
ATOM     18  C   UNL     1      -8.519  20.592  -9.398  1.00  0.00     0.008 C 
ATOM     19  C   UNL     1      -9.724  18.948 -10.923  1.00  0.00     0.012 C 
ATOM     20  C   UNL     1     -11.428  21.023  -8.830  1.00  0.00    -0.025 C 
ATOM     21  C   UNL     1      -9.189  21.733 -10.134  1.00  0.00     0.005 C 
ATOM     22  C   UNL     1     -10.546  22.188  -9.519  1.00  0.00     0.003 C 
ATOM     23  C   UNL     1     -12.851  20.904  -9.513  1.00  0.00     0.010 C 
ATOM     24  C   UNL     1     -11.738  21.509  -7.379  1.00  0.00     0.012 C 
ATOM     25  C   UNL     1     -11.338  23.115 -10.543  1.00  0.00    -0.006 C 
ATOM     26  C   UNL     1     -12.896  21.052 -11.031  1.00  0.00     0.033 C 
ATOM     27  C   UNL     1     -12.066  22.224 -11.605  1.00  0.00     0.120 C 
ATOM     28  C   UNL     1     -12.309  24.089  -9.806  1.00  0.00     0.014 C 
ATOM     29  C   UNL     1     -10.362  24.065 -11.306  1.00  0.00     0.014 C 
ENDROOT
BRANCH   1  30
ATOM     30  C   UNL     1      -6.682  15.496  -6.749  1.00  0.00     0.048 C 
ATOM     31  O   UNL     1      -6.272  14.379  -6.335  1.00  0.00    -0.550 OA
ATOM     32  O   UNL     1      -5.761  16.380  -7.309  1.00  0.00    -0.550 OA
ENDBRANCH   1  30
BRANCH  27  33
ATOM     33  O   UNL     1     -12.893  23.004 -12.432  1.00  0.00    -0.393 OA
ATOM     34  H   UNL     1     -12.882  23.928 -12.069  1.00  0.00     0.210 HD
ENDBRANCH  27  33
TORSDOF 2
ENDMDL
MODEL 5
REMARK VINA RESULT:     6.550      2.050      8.213
REMARK INTER + INTRA:           6.850
REMARK INTER:                   6.453
REMARK INTRA:                   0.397
REMARK UNBOUND:                -0.275
REMARK SMILES C[C@H]1[C@H](C)CC[C@]2(C(=O)[O-])CC[C@@]3(C)C(=CC[C@@H]4[C@]5(C)CC[C@@H](O)C(C)(C)[C@@H]5CC[C@]43C)[C@H]12
REMARK SMILES IDX 7 1 6 2 11 3 33 4 5 5 12 6 15 7 2 8 3 9 13 10 16 11 1 12
REMARK SMILES IDX 4 13 14 14 31 15 17 16 18 17 30 18 32 19 19 20 29 21 28 22
REMARK SMILES IDX 21 23 20 24 25 25 22 26 23 27 26 28 27 29 8 30 9 31 10 32
REMARK SMILES IDX 24 33
REMARK H PARENT 24 34
REMARK Flexibility Score: inf
ROOT
ATOM      1  C   UNL     1      -9.933  14.661  -7.367  1.00  0.00     0.017 C 
ATOM      2  C   UNL     1     -11.415  14.179  -7.293  1.00  0.00     0.014 C 
ATOM      3  C   UNL     1      -9.868  15.944  -6.470  1.00  0.00     0.014 C 
ATOM      4  C   UNL     1      -9.416  14.991  -8.843  1.00  0.00     0.030 C 
ATOM      5  C   UNL     1     -11.844  13.292  -8.452  1.00  0.00     0.004 C 
ATOM      6  C   UNL     1      -8.528  16.708  -6.506  1.00  0.00     0.013 C 
ATOM      7  C   UNL     1      -9.015  16.477  -8.966  1.00  0.00    -0.063 C 
ATOM      8  C   UNL     1     -10.195  14.362 -10.069  1.00  0.00    -0.003 C 
ATOM      9  C   UNL     1     -11.683  14.012  -9.797  1.00  0.00    -0.011 C 
ATOM     10  C   UNL     1      -7.946  16.967  -7.953  1.00  0.00    -0.006 C 
ATOM     11  C   UNL     1      -9.816  17.355  -9.614  1.00  0.00    -0.027 C 
ATOM     12  C   UNL     1      -9.470  13.114 -10.628  1.00  0.00     0.008 C 
ATOM     13  C   UNL     1     -12.617  15.231  -9.910  1.00  0.00     0.008 C 
ATOM     14  C   UNL     1      -6.667  16.072  -8.101  1.00  0.00     0.017 C 
ATOM     15  C   UNL     1      -7.549  18.508  -8.229  1.00  0.00    -0.020 C 
ATOM     16  C   UNL     1      -9.649  18.844  -9.600  1.00  0.00     0.032 C 
ATOM     17  C   UNL     1      -8.847  19.358  -8.389  1.00  0.00     0.006 C 
ATOM     18  C   UNL     1      -6.744  19.116  -7.047  1.00  0.00     0.008 C 
ATOM     19  C   UNL     1      -6.693  18.577  -9.535  1.00  0.00     0.012 C 
ATOM     20  C   UNL     1      -8.750  20.976  -8.268  1.00  0.00    -0.025 C 
ATOM     21  C   UNL     1      -6.263  20.517  -7.362  1.00  0.00     0.005 C 
ATOM     22  C   UNL     1      -7.402  21.554  -7.591  1.00  0.00     0.003 C 
ATOM     23  C   UNL     1      -9.074  21.726  -9.624  1.00  0.00     0.010 C 
ATOM     24  C   UNL     1      -9.923  21.376  -7.318  1.00  0.00     0.012 C 
ATOM     25  C   UNL     1      -6.824  22.877  -8.264  1.00  0.00    -0.006 C 
ATOM     26  C   UNL     1      -7.888  22.055 -10.526  1.00  0.00     0.033 C 
ATOM     27  C   UNL     1      -6.658  22.653  -9.805  1.00  0.00     0.120 C 
ATOM     28  C   UNL     1      -7.698  24.125  -7.927  1.00  0.00     0.014 C 
ATOM     29  C   UNL     1      -5.421  23.234  -7.680  1.00  0.00     0.014 C 
ENDROOT
BRANCH   1  30
ATOM     30  C   UNL     1      -9.070  13.562  -6.745  1.00  0.00     0.048 C 
ATOM     31  O   UNL     1      -9.363  12.348  -6.914  1.00  0.00    -0.550 OA
ATOM     32  O   UNL     1      -7.967  13.878  -5.953  1.00  0.00    -0.550 OA
ENDBRANCH   1  30
BRANCH  27  33
ATOM     33  O   UNL     1      -6.291  23.848 -10.449  1.00  0.00    -0.393 OA
ATOM     34  H   UNL     1      -5.783  23.596 -11.264  1.00  0.00     0.210 HD
ENDBRANCH  27  33
TORSDOF 2
ENDMDL
