MODEL 1
REMARK VINA RESULT:    -5.210      0.000      0.000
REMARK INTER + INTRA:          -5.756
REMARK INTER:                  -5.515
REMARK INTRA:                  -0.241
REMARK UNBOUND:                -0.241
REMARK SMILES O=c1cc(-c2ccccc2)oc2ccccc12
REMARK SMILES IDX 4 1 3 2 2 3 1 4 17 5 16 6 15 7 14 8 13 9 12 10 11 11 5 12
REMARK SMILES IDX 8 13 7 14 9 15 6 16 10 17
REMARK H PARENT
REMARK Flexibility Score: inf
ROOT
ATOM      1  C   UNL     1       6.534   7.385  -3.712  1.00  0.00     0.138 A 
ATOM      2  C   UNL     1       5.582   8.401  -3.942  1.00  0.00     0.100 A 
ATOM      3  C   UNL     1       5.142   9.187  -2.875  1.00  0.00     0.193 A 
ATOM      4  O   UNL     1       4.292  10.095  -3.082  1.00  0.00    -0.289 OA
ATOM      5  C   UNL     1       5.651   8.954  -1.590  1.00  0.00     0.065 A 
ATOM      6  C   UNL     1       5.250   9.708  -0.472  1.00  0.00     0.016 A 
ATOM      7  C   UNL     1       5.790   9.433   0.788  1.00  0.00     0.001 A 
ATOM      8  C   UNL     1       6.729   8.409   0.942  1.00  0.00     0.004 A 
ATOM      9  C   UNL     1       7.133   7.654  -0.162  1.00  0.00     0.048 A 
ATOM     10  C   UNL     1       6.599   7.922  -1.428  1.00  0.00     0.138 A 
ATOM     11  O   UNL     1       6.990   7.198  -2.473  1.00  0.00    -0.456 OA
ENDROOT
BRANCH   1  12
ATOM     12  C   UNL     1       7.058   6.500  -4.797  1.00  0.00     0.017 A 
ATOM     13  C   UNL     1       8.138   4.850  -6.817  1.00  0.00     0.000 A 
ATOM     14  C   UNL     1       6.756   4.984  -6.690  1.00  0.00     0.001 A 
ATOM     15  C   UNL     1       8.986   5.532  -5.945  1.00  0.00     0.001 A 
ATOM     16  C   UNL     1       6.215   5.799  -5.691  1.00  0.00     0.012 A 
ATOM     17  C   UNL     1       8.453   6.350  -4.944  1.00  0.00     0.012 A 
ENDBRANCH   1  12
TORSDOF 1
ENDMDL
MODEL 2
REMARK VINA RESULT:    -5.138     19.853     21.275
REMARK INTER + INTRA:          -5.679
REMARK INTER:                  -5.413
REMARK INTRA:                  -0.266
REMARK UNBOUND:                -0.241
REMARK SMILES O=c1cc(-c2ccccc2)oc2ccccc12
REMARK SMILES IDX 4 1 3 2 2 3 1 4 17 5 16 6 15 7 14 8 13 9 12 10 11 11 5 12
REMARK SMILES IDX 8 13 7 14 9 15 6 16 10 17
REMARK H PARENT
REMARK Flexibility Score: inf
ROOT
ATOM      1  C   UNL     1      -3.686  -6.347   7.919  1.00  0.00     0.138 A 
ATOM      2  C   UNL     1      -3.005  -6.960   8.992  1.00  0.00     0.100 A 
ATOM      3  C   UNL     1      -2.176  -8.057   8.745  1.00  0.00     0.193 A 
ATOM      4  O   UNL     1      -1.568  -8.604   9.705  1.00  0.00    -0.289 OA
ATOM      5  C   UNL     1      -2.035  -8.535   7.435  1.00  0.00     0.065 A 
ATOM      6  C   UNL     1      -1.218  -9.635   7.118  1.00  0.00     0.016 A 
ATOM      7  C   UNL     1      -1.113 -10.070   5.793  1.00  0.00     0.001 A 
ATOM      8  C   UNL     1      -1.819  -9.415   4.780  1.00  0.00     0.004 A 
ATOM      9  C   UNL     1      -2.633  -8.321   5.085  1.00  0.00     0.048 A 
ATOM     10  C   UNL     1      -2.745  -7.877   6.408  1.00  0.00     0.138 A 
ATOM     11  O   UNL     1      -3.522  -6.835   6.689  1.00  0.00    -0.456 OA
ENDROOT
BRANCH   1  12
ATOM     12  C   UNL     1      -4.590  -5.169   8.095  1.00  0.00     0.017 A 
ATOM     13  C   UNL     1      -6.317  -2.949   8.332  1.00  0.00     0.000 A 
ATOM     14  C   UNL     1      -5.652  -3.438   9.455  1.00  0.00     0.001 A 
ATOM     15  C   UNL     1      -6.129  -3.558   7.092  1.00  0.00     0.001 A 
ATOM     16  C   UNL     1      -4.795  -4.538   9.344  1.00  0.00     0.012 A 
ATOM     17  C   UNL     1      -5.274  -4.657   6.972  1.00  0.00     0.012 A 
ENDBRANCH   1  12
TORSDOF 1
ENDMDL
MODEL 3
REMARK VINA RESULT:    -5.120     12.512     14.093
REMARK INTER + INTRA:          -5.660
REMARK INTER:                  -5.427
REMARK INTRA:                  -0.232
REMARK UNBOUND:                -0.241
REMARK SMILES O=c1cc(-c2ccccc2)oc2ccccc12
REMARK SMILES IDX 4 1 3 2 2 3 1 4 17 5 16 6 15 7 14 8 13 9 12 10 11 11 5 12
REMARK SMILES IDX 8 13 7 14 9 15 6 16 10 17
REMARK H PARENT
REMARK Flexibility Score: inf
ROOT
ATOM      1  C   UNL     1      -4.280   9.385   4.454  1.00  0.00     0.138 A 
ATOM      2  C   UNL     1      -2.947   9.607   4.858  1.00  0.00     0.100 A 
ATOM      3  C   UNL     1      -2.664   9.837   6.206  1.00  0.00     0.193 A 
ATOM      4  O   UNL     1      -1.472  10.035   6.566  1.00  0.00    -0.289 OA
ATOM      5  C   UNL     1      -3.711   9.844   7.139  1.00  0.00     0.065 A 
ATOM      6  C   UNL     1      -3.496  10.070   8.511  1.00  0.00     0.016 A 
ATOM      7  C   UNL     1      -4.576  10.066   9.398  1.00  0.00     0.001 A 
ATOM      8  C   UNL     1      -5.873   9.841   8.927  1.00  0.00     0.004 A 
ATOM      9  C   UNL     1      -6.096   9.616   7.565  1.00  0.00     0.048 A 
ATOM     10  C   UNL     1      -5.022   9.617   6.669  1.00  0.00     0.138 A 
ATOM     11  O   UNL     1      -5.244   9.402   5.376  1.00  0.00    -0.456 OA
ENDROOT
BRANCH   1  12
ATOM     12  C   UNL     1      -4.669   9.132   3.032  1.00  0.00     0.017 A 
ATOM     13  C   UNL     1      -5.436   8.566   0.376  1.00  0.00     0.000 A 
ATOM     14  C   UNL     1      -4.843   9.789   0.685  1.00  0.00     0.001 A 
ATOM     15  C   UNL     1      -5.650   7.622   1.380  1.00  0.00     0.001 A 
ATOM     16  C   UNL     1      -4.461  10.075   2.000  1.00  0.00     0.012 A 
ATOM     17  C   UNL     1      -5.270   7.901   2.696  1.00  0.00     0.012 A 
ENDBRANCH   1  12
TORSDOF 1
ENDMDL
MODEL 4
REMARK VINA RESULT:    -4.945     19.042     20.329
REMARK INTER + INTRA:          -5.475
REMARK INTER:                  -5.225
REMARK INTRA:                  -0.249
REMARK UNBOUND:                -0.241
REMARK SMILES O=c1cc(-c2ccccc2)oc2ccccc12
REMARK SMILES IDX 4 1 3 2 2 3 1 4 17 5 16 6 15 7 14 8 13 9 12 10 11 11 5 12
REMARK SMILES IDX 8 13 7 14 9 15 6 16 10 17
REMARK H PARENT
REMARK Flexibility Score: inf
ROOT
ATOM      1  C   UNL     1      -9.052  -5.300  -5.363  1.00  0.00     0.138 A 
ATOM      2  C   UNL     1      -8.985  -4.866  -6.704  1.00  0.00     0.100 A 
ATOM      3  C   UNL     1      -9.134  -3.509  -6.997  1.00  0.00     0.193 A 
ATOM      4  O   UNL     1      -9.074  -3.121  -8.195  1.00  0.00    -0.289 OA
ATOM      5  C   UNL     1      -9.350  -2.597  -5.954  1.00  0.00     0.065 A 
ATOM      6  C   UNL     1      -9.509  -1.218  -6.179  1.00  0.00     0.016 A 
ATOM      7  C   UNL     1      -9.721  -0.353  -5.101  1.00  0.00     0.001 A 
ATOM      8  C   UNL     1      -9.778  -0.854  -3.797  1.00  0.00     0.004 A 
ATOM      9  C   UNL     1      -9.621  -2.223  -3.564  1.00  0.00     0.048 A 
ATOM     10  C   UNL     1      -9.407  -3.098  -4.635  1.00  0.00     0.138 A 
ATOM     11  O   UNL     1      -9.260  -4.398  -4.403  1.00  0.00    -0.456 OA
ENDROOT
BRANCH   1  12
ATOM     12  C   UNL     1      -8.903  -6.734  -4.963  1.00  0.00     0.017 A 
ATOM     13  C   UNL     1      -8.692  -9.426  -4.143  1.00  0.00     0.000 A 
ATOM     14  C   UNL     1      -7.865  -8.938  -5.154  1.00  0.00     0.001 A 
ATOM     15  C   UNL     1      -9.623  -8.583  -3.538  1.00  0.00     0.001 A 
ATOM     16  C   UNL     1      -7.965  -7.605  -5.565  1.00  0.00     0.012 A 
ATOM     17  C   UNL     1      -9.729  -7.249  -3.943  1.00  0.00     0.012 A 
ENDBRANCH   1  12
TORSDOF 1
ENDMDL
MODEL 5
REMARK VINA RESULT:    -4.803      6.063      9.806
REMARK INTER + INTRA:          -5.325
REMARK INTER:                  -5.094
REMARK INTRA:                  -0.231
REMARK UNBOUND:                -0.241
REMARK SMILES O=c1cc(-c2ccccc2)oc2ccccc12
REMARK SMILES IDX 4 1 3 2 2 3 1 4 17 5 16 6 15 7 14 8 13 9 12 10 11 11 5 12
REMARK SMILES IDX 8 13 7 14 9 15 6 16 10 17
REMARK H PARENT
REMARK Flexibility Score: inf
ROOT
ATOM      1  C   UNL     1       6.594   1.334  -7.338  1.00  0.00     0.138 A 
ATOM      2  C   UNL     1       6.775   0.308  -6.386  1.00  0.00     0.100 A 
ATOM      3  C   UNL     1       6.198  -0.944  -6.605  1.00  0.00     0.193 A 
ATOM      4  O   UNL     1       6.359  -1.861  -5.754  1.00  0.00    -0.289 OA
ATOM      5  C   UNL     1       5.446  -1.164  -7.768  1.00  0.00     0.065 A 
ATOM      6  C   UNL     1       4.838  -2.401  -8.050  1.00  0.00     0.016 A 
ATOM      7  C   UNL     1       4.099  -2.565  -9.226  1.00  0.00     0.001 A 
ATOM      8  C   UNL     1       3.961  -1.503 -10.125  1.00  0.00     0.004 A 
ATOM      9  C   UNL     1       4.562  -0.271  -9.853  1.00  0.00     0.048 A 
ATOM     10  C   UNL     1       5.304  -0.096  -8.679  1.00  0.00     0.138 A 
ATOM     11  O   UNL     1       5.871   1.081  -8.429  1.00  0.00    -0.456 OA
ENDROOT
BRANCH   1  12
ATOM     12  C   UNL     1       7.177   2.702  -7.181  1.00  0.00     0.017 A 
ATOM     13  C   UNL     1       8.188   5.321  -6.880  1.00  0.00     0.000 A 
ATOM     14  C   UNL     1       9.065   4.244  -7.005  1.00  0.00     0.001 A 
ATOM     15  C   UNL     1       6.811   5.102  -6.903  1.00  0.00     0.001 A 
ATOM     16  C   UNL     1       8.570   2.945  -7.154  1.00  0.00     0.012 A 
ATOM     17  C   UNL     1       6.309   3.806  -7.053  1.00  0.00     0.012 A 
ENDBRANCH   1  12
TORSDOF 1
ENDMDL
MODEL 6
REMARK VINA RESULT:    -4.751     20.003     21.318
REMARK INTER + INTRA:          -5.269
REMARK INTER:                  -5.003
REMARK INTRA:                  -0.266
REMARK UNBOUND:                -0.241
REMARK SMILES O=c1cc(-c2ccccc2)oc2ccccc12
REMARK SMILES IDX 4 1 3 2 2 3 1 4 17 5 16 6 15 7 14 8 13 9 12 10 11 11 5 12
REMARK SMILES IDX 8 13 7 14 9 15 6 16 10 17
REMARK H PARENT
REMARK Flexibility Score: inf
ROOT
ATOM      1  C   UNL     1      -3.635  -6.289   7.921  1.00  0.00     0.138 A 
ATOM      2  C   UNL     1      -3.382  -6.788   6.625  1.00  0.00     0.100 A 
ATOM      3  C   UNL     1      -2.508  -7.865   6.460  1.00  0.00     0.193 A 
ATOM      4  O   UNL     1      -2.282  -8.310   5.303  1.00  0.00    -0.289 OA
ATOM      5  C   UNL     1      -1.894  -8.433   7.585  1.00  0.00     0.065 A 
ATOM      6  C   UNL     1      -1.004  -9.519   7.489  1.00  0.00     0.016 A 
ATOM      7  C   UNL     1      -0.419 -10.048   8.644  1.00  0.00     0.001 A 
ATOM      8  C   UNL     1      -0.715  -9.502   9.896  1.00  0.00     0.004 A 
ATOM      9  C   UNL     1      -1.599  -8.424  10.001  1.00  0.00     0.048 A 
ATOM     10  C   UNL     1      -2.190  -7.886   8.851  1.00  0.00     0.138 A 
ATOM     11  O   UNL     1      -3.029  -6.861   8.961  1.00  0.00    -0.456 OA
ENDROOT
BRANCH   1  12
ATOM     12  C   UNL     1      -4.557  -5.141   8.185  1.00  0.00     0.017 A 
ATOM     13  C   UNL     1      -6.319  -2.974   8.590  1.00  0.00     0.000 A 
ATOM     14  C   UNL     1      -5.608  -3.505   9.665  1.00  0.00     0.001 A 
ATOM     15  C   UNL     1      -6.158  -3.514   7.314  1.00  0.00     0.001 A 
ATOM     16  C   UNL     1      -4.734  -4.579   9.471  1.00  0.00     0.012 A 
ATOM     17  C   UNL     1      -5.285  -4.587   7.112  1.00  0.00     0.012 A 
ENDBRANCH   1  12
TORSDOF 1
ENDMDL
MODEL 7
REMARK VINA RESULT:    -4.719     18.945     20.816
REMARK INTER + INTRA:          -5.235
REMARK INTER:                  -4.982
REMARK INTRA:                  -0.253
REMARK UNBOUND:                -0.241
REMARK SMILES O=c1cc(-c2ccccc2)oc2ccccc12
REMARK SMILES IDX 4 1 3 2 2 3 1 4 17 5 16 6 15 7 14 8 13 9 12 10 11 11 5 12
REMARK SMILES IDX 8 13 7 14 9 15 6 16 10 17
REMARK H PARENT
REMARK Flexibility Score: inf
ROOT
ATOM      1  C   UNL     1      -9.194  -4.043  -6.224  1.00  0.00     0.138 A 
ATOM      2  C   UNL     1      -9.401  -4.156  -7.615  1.00  0.00     0.100 A 
ATOM      3  C   UNL     1      -9.203  -5.388  -8.243  1.00  0.00     0.193 A 
ATOM      4  O   UNL     1      -9.387  -5.489  -9.486  1.00  0.00    -0.289 OA
ATOM      5  C   UNL     1      -8.801  -6.494  -7.481  1.00  0.00     0.065 A 
ATOM      6  C   UNL     1      -8.584  -7.762  -8.051  1.00  0.00     0.016 A 
ATOM      7  C   UNL     1      -8.184  -8.832  -7.244  1.00  0.00     0.001 A 
ATOM      8  C   UNL     1      -7.997  -8.647  -5.871  1.00  0.00     0.004 A 
ATOM      9  C   UNL     1      -8.210  -7.391  -5.297  1.00  0.00     0.048 A 
ATOM     10  C   UNL     1      -8.612  -6.313  -6.095  1.00  0.00     0.138 A 
ATOM     11  O   UNL     1      -8.812  -5.122  -5.539  1.00  0.00    -0.456 OA
ENDROOT
BRANCH   1  12
ATOM     12  C   UNL     1      -9.384  -2.763  -5.474  1.00  0.00     0.017 A 
ATOM     13  C   UNL     1      -9.774  -0.399  -3.983  1.00  0.00     0.000 A 
ATOM     14  C   UNL     1      -9.280  -0.329  -5.285  1.00  0.00     0.001 A 
ATOM     15  C   UNL     1     -10.075  -1.638  -3.418  1.00  0.00     0.001 A 
ATOM     16  C   UNL     1      -9.084  -1.497  -6.028  1.00  0.00     0.012 A 
ATOM     17  C   UNL     1      -9.883  -2.810  -4.156  1.00  0.00     0.012 A 
ENDBRANCH   1  12
TORSDOF 1
ENDMDL
MODEL 8
REMARK VINA RESULT:    -4.653      5.054      8.442
REMARK INTER + INTRA:          -5.166
REMARK INTER:                  -4.902
REMARK INTRA:                  -0.264
REMARK UNBOUND:                -0.241
REMARK SMILES O=c1cc(-c2ccccc2)oc2ccccc12
REMARK SMILES IDX 4 1 3 2 2 3 1 4 17 5 16 6 15 7 14 8 13 9 12 10 11 11 5 12
REMARK SMILES IDX 8 13 7 14 9 15 6 16 10 17
REMARK H PARENT
REMARK Flexibility Score: inf
ROOT
ATOM      1  C   UNL     1       5.827   3.039  -7.799  1.00  0.00     0.138 A 
ATOM      2  C   UNL     1       5.255   2.406  -8.923  1.00  0.00     0.100 A 
ATOM      3  C   UNL     1       5.173   1.012  -8.960  1.00  0.00     0.193 A 
ATOM      4  O   UNL     1       4.662   0.447  -9.965  1.00  0.00    -0.289 OA
ATOM      5  C   UNL     1       5.661   0.262  -7.881  1.00  0.00     0.065 A 
ATOM      6  C   UNL     1       5.609  -1.144  -7.856  1.00  0.00     0.016 A 
ATOM      7  C   UNL     1       6.111  -1.842  -6.754  1.00  0.00     0.001 A 
ATOM      8  C   UNL     1       6.666  -1.148  -5.674  1.00  0.00     0.004 A 
ATOM      9  C   UNL     1       6.722   0.248  -5.690  1.00  0.00     0.048 A 
ATOM     10  C   UNL     1       6.222   0.957  -6.789  1.00  0.00     0.138 A 
ATOM     11  O   UNL     1       6.279   2.286  -6.795  1.00  0.00    -0.456 OA
ENDROOT
BRANCH   1  12
ATOM     12  C   UNL     1       5.953   4.524  -7.677  1.00  0.00     0.017 A 
ATOM     13  C   UNL     1       6.213   7.316  -7.354  1.00  0.00     0.000 A 
ATOM     14  C   UNL     1       5.891   6.785  -8.602  1.00  0.00     0.001 A 
ATOM     15  C   UNL     1       6.406   6.466  -6.265  1.00  0.00     0.001 A 
ATOM     16  C   UNL     1       5.762   5.402  -8.769  1.00  0.00     0.012 A 
ATOM     17  C   UNL     1       6.278   5.083  -6.424  1.00  0.00     0.012 A 
ENDBRANCH   1  12
TORSDOF 1
ENDMDL
