MODEL 1
REMARK VINA RESULT:    23.260      0.000      0.000
REMARK INTER + INTRA:          24.898
REMARK INTER:                  25.300
REMARK INTRA:                  -0.401
REMARK UNBOUND:                -0.401
REMARK SMILES C=C(C)[C@H]1CC[C@]2(C)CC[C@@]3(C)[C@H](CC[C@@H]4[C@@]5(C)CC[C@@H](O)C(C)(C)[C@@H]5CC[C@]43C)[C@H]12
REMARK SMILES IDX 4 1 5 2 6 3 7 4 31 5 13 6 14 7 15 8 16 9 17 10 19 11 20 12
REMARK SMILES IDX 21 13 23 14 26 15 27 16 28 17 29 18 11 19 10 20 9 21 12 22
REMARK SMILES IDX 30 23 24 24 25 25 18 26 8 27 2 28 3 29 1 30 22 31
REMARK H PARENT 22 32
REMARK Flexibility Score: inf
ROOT
ATOM      1  C   UNL     1      22.147  34.316  64.506  1.00  0.00     0.018 C 
ATOM      2  C   UNL     1      21.406  35.505  63.875  1.00  0.00     0.009 C 
ATOM      3  C   UNL     1      21.516  36.633  64.880  1.00  0.00     0.008 C 
ATOM      4  C   UNL     1      21.439  35.963  66.263  1.00  0.00    -0.029 C 
ATOM      5  C   UNL     1      22.109  34.570  66.051  1.00  0.00     0.006 C 
ATOM      6  C   UNL     1      23.474  34.396  66.823  1.00  0.00    -0.000 C 
ATOM      7  C   UNL     1      24.664  35.162  66.169  1.00  0.00     0.005 C 
ATOM      8  C   UNL     1      25.969  35.079  66.956  1.00  0.00     0.005 C 
ATOM      9  C   UNL     1      25.782  35.496  68.436  1.00  0.00     0.002 C 
ATOM     10  C   UNL     1      27.144  35.785  69.220  1.00  0.00    -0.026 C 
ATOM     11  C   UNL     1      27.889  36.978  68.525  1.00  0.00     0.010 C 
ATOM     12  C   UNL     1      29.051  37.562  69.344  1.00  0.00     0.033 C 
ATOM     13  C   UNL     1      28.607  38.020  70.739  1.00  0.00     0.120 C 
ATOM     14  C   UNL     1      27.910  36.881  71.551  1.00  0.00    -0.006 C 
ATOM     15  C   UNL     1      26.751  36.252  70.675  1.00  0.00     0.003 C 
ATOM     16  C   UNL     1      25.901  35.182  71.397  1.00  0.00     0.005 C 
ATOM     17  C   UNL     1      24.574  34.954  70.666  1.00  0.00     0.008 C 
ATOM     18  C   UNL     1      24.718  34.558  69.150  1.00  0.00    -0.024 C 
ATOM     19  C   UNL     1      23.299  34.692  68.373  1.00  0.00    -0.024 C 
ATOM     20  C   UNL     1      22.630  36.116  68.582  1.00  0.00     0.008 C 
ATOM     21  C   UNL     1      22.134  36.856  67.327  1.00  0.00     0.007 C 
ATOM     22  C   UNL     1      22.292  33.639  68.951  1.00  0.00     0.012 C 
ATOM     23  C   UNL     1      25.190  33.063  69.143  1.00  0.00     0.012 C 
ATOM     24  C   UNL     1      27.325  37.522  72.844  1.00  0.00     0.014 C 
ATOM     25  C   UNL     1      28.958  35.839  72.016  1.00  0.00     0.014 C 
ATOM     26  C   UNL     1      28.100  34.543  69.202  1.00  0.00     0.012 C 
ATOM     27  C   UNL     1      19.946  35.787  66.654  1.00  0.00     0.011 C 
ENDROOT
BRANCH   1  28
ATOM     28  C   UNL     1      21.600  32.943  64.091  1.00  0.00    -0.077 C 
ATOM     29  C   UNL     1      22.502  31.739  63.907  1.00  0.00     0.039 C 
ATOM     30  C   UNL     1      20.275  32.772  63.932  1.00  0.00     0.008 C 
ENDBRANCH   1  28
BRANCH  13  31
ATOM     31  O   UNL     1      27.741  39.124  70.608  1.00  0.00    -0.393 OA
ATOM     32  H   UNL     1      27.648  39.313  69.639  1.00  0.00     0.210 HD
ENDBRANCH  13  31
TORSDOF 2
ENDMDL
MODEL 2
REMARK VINA RESULT:    24.897      2.424      4.995
REMARK INTER + INTRA:          26.679
REMARK INTER:                  27.109
REMARK INTRA:                  -0.430
REMARK UNBOUND:                -0.401
REMARK SMILES C=C(C)[C@H]1CC[C@]2(C)CC[C@@]3(C)[C@H](CC[C@@H]4[C@@]5(C)CC[C@@H](O)C(C)(C)[C@@H]5CC[C@]43C)[C@H]12
REMARK SMILES IDX 4 1 5 2 6 3 7 4 31 5 13 6 14 7 15 8 16 9 17 10 19 11 20 12
REMARK SMILES IDX 21 13 23 14 26 15 27 16 28 17 29 18 11 19 10 20 9 21 12 22
REMARK SMILES IDX 30 23 24 24 25 25 18 26 8 27 2 28 3 29 1 30 22 31
REMARK H PARENT 22 32
REMARK Flexibility Score: inf
ROOT
ATOM      1  C   UNL     1      17.904  36.877  66.890  1.00  0.00     0.018 C 
ATOM      2  C   UNL     1      16.957  36.343  67.977  1.00  0.00     0.009 C 
ATOM      3  C   UNL     1      17.649  35.127  68.557  1.00  0.00     0.008 C 
ATOM      4  C   UNL     1      18.371  34.459  67.374  1.00  0.00    -0.029 C 
ATOM      5  C   UNL     1      18.769  35.648  66.447  1.00  0.00     0.006 C 
ATOM      6  C   UNL     1      20.326  35.887  66.350  1.00  0.00    -0.000 C 
ATOM      7  C   UNL     1      20.935  36.560  67.617  1.00  0.00     0.005 C 
ATOM      8  C   UNL     1      22.454  36.712  67.576  1.00  0.00     0.005 C 
ATOM      9  C   UNL     1      23.162  35.372  67.260  1.00  0.00     0.002 C 
ATOM     10  C   UNL     1      24.733  35.367  67.557  1.00  0.00    -0.026 C 
ATOM     11  C   UNL     1      24.963  35.630  69.086  1.00  0.00     0.010 C 
ATOM     12  C   UNL     1      26.396  35.350  69.568  1.00  0.00     0.033 C 
ATOM     13  C   UNL     1      26.846  33.918  69.252  1.00  0.00     0.120 C 
ATOM     14  C   UNL     1      26.724  33.572  67.733  1.00  0.00    -0.006 C 
ATOM     15  C   UNL     1      25.260  33.915  67.238  1.00  0.00     0.003 C 
ATOM     16  C   UNL     1      24.962  33.520  65.774  1.00  0.00     0.005 C 
ATOM     17  C   UNL     1      23.452  33.474  65.517  1.00  0.00     0.008 C 
ATOM     18  C   UNL     1      22.687  34.807  65.854  1.00  0.00    -0.024 C 
ATOM     19  C   UNL     1      21.083  34.565  65.904  1.00  0.00    -0.024 C 
ATOM     20  C   UNL     1      20.685  33.362  66.859  1.00  0.00     0.008 C 
ATOM     21  C   UNL     1      19.570  33.616  67.890  1.00  0.00     0.007 C 
ATOM     22  C   UNL     1      20.574  34.182  64.472  1.00  0.00     0.012 C 
ATOM     23  C   UNL     1      23.039  35.805  64.697  1.00  0.00     0.012 C 
ATOM     24  C   UNL     1      27.005  32.048  67.579  1.00  0.00     0.014 C 
ATOM     25  C   UNL     1      27.828  34.302  66.928  1.00  0.00     0.014 C 
ATOM     26  C   UNL     1      25.478  36.491  66.757  1.00  0.00     0.012 C 
ATOM     27  C   UNL     1      17.374  33.517  66.644  1.00  0.00     0.011 C 
ENDROOT
BRANCH   1  28
ATOM     28  C   UNL     1      17.191  37.583  65.727  1.00  0.00    -0.077 C 
ATOM     29  C   UNL     1      16.876  39.065  65.758  1.00  0.00     0.039 C 
ATOM     30  C   UNL     1      16.876  36.890  64.617  1.00  0.00     0.008 C 
ENDBRANCH   1  28
BRANCH  13  31
ATOM     31  O   UNL     1      26.085  33.015  70.020  1.00  0.00    -0.393 OA
ATOM     32  H   UNL     1      25.241  33.474  70.266  1.00  0.00     0.210 HD
ENDBRANCH  13  31
TORSDOF 2
ENDMDL
