MODEL 1
REMARK VINA RESULT:    -3.863      0.000      0.000
REMARK INTER + INTRA:          -4.575
REMARK INTER:                  -4.541
REMARK INTRA:                  -0.034
REMARK UNBOUND:                -0.034
REMARK SMILES O=C([O-])CCC(=O)[O-]
REMARK SMILES IDX 4 1 2 2 1 3 3 4 5 5 6 6 7 7 8 8
REMARK H PARENT
REMARK Flexibility Score: inf
ROOT
ATOM      1  C   UNL     1       1.375  15.340 -11.893  1.00  0.00     0.059 C 
ENDROOT
BRANCH   1   2
ATOM      2  C   UNL     1       1.536  16.821 -12.047  1.00  0.00     0.042 C 
ATOM      3  O   UNL     1       1.330  17.586 -11.069  1.00  0.00    -0.550 OA
ATOM      4  O   UNL     1       1.953  17.353 -13.260  1.00  0.00    -0.550 OA
ENDBRANCH   1   2
BRANCH   1   5
ATOM      5  C   UNL     1       1.050  14.666 -13.231  1.00  0.00     0.059 C 
BRANCH   5   6
ATOM      6  C   UNL     1       1.371  13.203 -13.204  1.00  0.00     0.042 C 
ATOM      7  O   UNL     1       2.529  12.804 -13.493  1.00  0.00    -0.550 OA
ATOM      8  O   UNL     1       0.380  12.278 -12.898  1.00  0.00    -0.550 OA
ENDBRANCH   5   6
ENDBRANCH   1   5
TORSDOF 3
ENDMDL
MODEL 2
REMARK VINA RESULT:    -3.817      0.701      4.366
REMARK INTER + INTRA:          -4.521
REMARK INTER:                  -4.489
REMARK INTRA:                  -0.032
REMARK UNBOUND:                -0.034
REMARK SMILES O=C([O-])CCC(=O)[O-]
REMARK SMILES IDX 4 1 2 2 1 3 3 4 5 5 6 6 7 7 8 8
REMARK H PARENT
REMARK Flexibility Score: inf
ROOT
ATOM      1  C   UNL     1       0.938  14.644 -13.231  1.00  0.00     0.059 C 
ENDROOT
BRANCH   1   2
ATOM      2  C   UNL     1       1.354  13.205 -13.190  1.00  0.00     0.042 C 
ATOM      3  O   UNL     1       2.550  12.884 -13.415  1.00  0.00    -0.550 OA
ATOM      4  O   UNL     1       0.428  12.223 -12.864  1.00  0.00    -0.550 OA
ENDBRANCH   1   2
BRANCH   1   5
ATOM      5  C   UNL     1       1.470  15.419 -12.020  1.00  0.00     0.059 C 
BRANCH   5   6
ATOM      6  C   UNL     1       1.339  16.899 -12.211  1.00  0.00     0.042 C 
ATOM      7  O   UNL     1       0.401  17.366 -12.909  1.00  0.00    -0.550 OA
ATOM      8  O   UNL     1       2.275  17.759 -11.650  1.00  0.00    -0.550 OA
ENDBRANCH   5   6
ENDBRANCH   1   5
TORSDOF 3
ENDMDL
MODEL 3
REMARK VINA RESULT:    -3.320     10.069     10.963
REMARK INTER + INTRA:          -3.937
REMARK INTER:                  -3.848
REMARK INTRA:                  -0.088
REMARK UNBOUND:                -0.034
REMARK SMILES O=C([O-])CCC(=O)[O-]
REMARK SMILES IDX 4 1 2 2 1 3 3 4 5 5 6 6 7 7 8 8
REMARK H PARENT
REMARK Flexibility Score: inf
ROOT
ATOM      1  C   UNL     1       5.269   6.156 -18.745  1.00  0.00     0.059 C 
ENDROOT
BRANCH   1   2
ATOM      2  C   UNL     1       3.948   6.818 -18.502  1.00  0.00     0.042 C 
ATOM      3  O   UNL     1       2.904   6.124 -18.376  1.00  0.00    -0.550 OA
ATOM      4  O   UNL     1       3.875   8.199 -18.375  1.00  0.00    -0.550 OA
ENDBRANCH   1   2
BRANCH   1   5
ATOM      5  C   UNL     1       6.437   7.068 -18.355  1.00  0.00     0.059 C 
BRANCH   5   6
ATOM      6  C   UNL     1       7.016   6.687 -17.026  1.00  0.00     0.042 C 
ATOM      7  O   UNL     1       7.750   7.495 -16.400  1.00  0.00    -0.550 OA
ATOM      8  O   UNL     1       6.775   5.424 -16.499  1.00  0.00    -0.550 OA
ENDBRANCH   5   6
ENDBRANCH   1   5
TORSDOF 3
ENDMDL
MODEL 4
REMARK VINA RESULT:    -3.224      9.127     10.138
REMARK INTER + INTRA:          -3.823
REMARK INTER:                  -3.702
REMARK INTRA:                  -0.121
REMARK UNBOUND:                -0.034
REMARK SMILES O=C([O-])CCC(=O)[O-]
REMARK SMILES IDX 4 1 2 2 1 3 3 4 5 5 6 6 7 7 8 8
REMARK H PARENT
REMARK Flexibility Score: inf
ROOT
ATOM      1  C   UNL     1       0.594  10.187  -4.236  1.00  0.00     0.059 C 
ENDROOT
BRANCH   1   2
ATOM      2  C   UNL     1       1.509   9.420  -3.331  1.00  0.00     0.042 C 
ATOM      3  O   UNL     1       1.041   8.764  -2.364  1.00  0.00    -0.550 OA
ATOM      4  O   UNL     1       2.875   9.397  -3.580  1.00  0.00    -0.550 OA
ENDBRANCH   1   2
BRANCH   1   5
ATOM      5  C   UNL     1       0.618  11.687  -3.924  1.00  0.00     0.059 C 
BRANCH   5   6
ATOM      6  C   UNL     1       1.372  12.456  -4.966  1.00  0.00     0.042 C 
ATOM      7  O   UNL     1       0.751  13.080  -5.866  1.00  0.00    -0.550 OA
ATOM      8  O   UNL     1       2.761  12.450  -4.965  1.00  0.00    -0.550 OA
ENDBRANCH   5   6
ENDBRANCH   1   5
TORSDOF 3
ENDMDL
MODEL 5
REMARK VINA RESULT:    -3.197      9.079      9.535
REMARK INTER + INTRA:          -3.792
REMARK INTER:                  -3.671
REMARK INTRA:                  -0.121
REMARK UNBOUND:                -0.034
REMARK SMILES O=C([O-])CCC(=O)[O-]
REMARK SMILES IDX 4 1 2 2 1 3 3 4 5 5 6 6 7 7 8 8
REMARK H PARENT
REMARK Flexibility Score: inf
ROOT
ATOM      1  C   UNL     1       0.728  11.759  -3.885  1.00  0.00     0.059 C 
ENDROOT
BRANCH   1   2
ATOM      2  C   UNL     1       1.393  12.536  -4.980  1.00  0.00     0.042 C 
ATOM      3  O   UNL     1       0.700  13.161  -5.824  1.00  0.00    -0.550 OA
ATOM      4  O   UNL     1       2.778  12.603  -5.042  1.00  0.00    -0.550 OA
ENDBRANCH   1   2
BRANCH   1   5
ATOM      5  C   UNL     1       0.635  10.268  -4.229  1.00  0.00     0.059 C 
BRANCH   5   6
ATOM      6  C   UNL     1       1.577   9.450  -3.399  1.00  0.00     0.042 C 
ATOM      7  O   UNL     1       2.812   9.467  -3.642  1.00  0.00    -0.550 OA
ATOM      8  O   UNL     1       1.085   8.639  -2.384  1.00  0.00    -0.550 OA
ENDBRANCH   5   6
ENDBRANCH   1   5
TORSDOF 3
ENDMDL
MODEL 6
REMARK VINA RESULT:    -3.179      9.124      9.640
REMARK INTER + INTRA:          -3.771
REMARK INTER:                  -3.649
REMARK INTRA:                  -0.121
REMARK UNBOUND:                -0.034
REMARK SMILES O=C([O-])CCC(=O)[O-]
REMARK SMILES IDX 4 1 2 2 1 3 3 4 5 5 6 6 7 7 8 8
REMARK H PARENT
REMARK Flexibility Score: inf
ROOT
ATOM      1  C   UNL     1       0.658  11.749  -3.859  1.00  0.00     0.059 C 
ENDROOT
BRANCH   1   2
ATOM      2  C   UNL     1       1.429  12.530  -4.878  1.00  0.00     0.042 C 
ATOM      3  O   UNL     1       2.687  12.484  -4.893  1.00  0.00    -0.550 OA
ATOM      4  O   UNL     1       0.757  13.277  -5.836  1.00  0.00    -0.550 OA
ENDBRANCH   1   2
BRANCH   1   5
ATOM      5  C   UNL     1       0.600  10.259  -4.216  1.00  0.00     0.059 C 
BRANCH   5   6
ATOM      6  C   UNL     1       1.492   9.445  -3.329  1.00  0.00     0.042 C 
ATOM      7  O   UNL     1       1.011   8.824  -2.345  1.00  0.00    -0.550 OA
ATOM      8  O   UNL     1       2.860   9.404  -3.566  1.00  0.00    -0.550 OA
ENDBRANCH   5   6
ENDBRANCH   1   5
TORSDOF 3
ENDMDL
MODEL 7
REMARK VINA RESULT:    -3.176      9.202     10.231
REMARK INTER + INTRA:          -3.768
REMARK INTER:                  -3.644
REMARK INTRA:                  -0.123
REMARK UNBOUND:                -0.034
REMARK SMILES O=C([O-])CCC(=O)[O-]
REMARK SMILES IDX 4 1 2 2 1 3 3 4 5 5 6 6 7 7 8 8
REMARK H PARENT
REMARK Flexibility Score: inf
ROOT
ATOM      1  C   UNL     1       0.651  10.141  -4.182  1.00  0.00     0.059 C 
ENDROOT
BRANCH   1   2
ATOM      2  C   UNL     1       1.572   9.337  -3.317  1.00  0.00     0.042 C 
ATOM      3  O   UNL     1       2.810   9.324  -3.549  1.00  0.00    -0.550 OA
ATOM      4  O   UNL     1       1.069   8.635  -2.229  1.00  0.00    -0.550 OA
ENDBRANCH   1   2
BRANCH   1   5
ATOM      5  C   UNL     1       0.711  11.633  -3.837  1.00  0.00     0.059 C 
BRANCH   5   6
ATOM      6  C   UNL     1       1.455  12.410  -4.880  1.00  0.00     0.042 C 
ATOM      7  O   UNL     1       2.713  12.455  -4.859  1.00  0.00    -0.550 OA
ATOM      8  O   UNL     1       0.756  13.117  -5.851  1.00  0.00    -0.550 OA
ENDBRANCH   5   6
ENDBRANCH   1   5
TORSDOF 3
ENDMDL
MODEL 8
REMARK VINA RESULT:    -3.138      8.619      9.167
REMARK INTER + INTRA:          -3.722
REMARK INTER:                  -3.656
REMARK INTRA:                  -0.066
REMARK UNBOUND:                -0.034
REMARK SMILES O=C([O-])CCC(=O)[O-]
REMARK SMILES IDX 4 1 2 2 1 3 3 4 5 5 6 6 7 7 8 8
REMARK H PARENT
REMARK Flexibility Score: inf
ROOT
ATOM      1  C   UNL     1       2.196  12.382  -4.016  1.00  0.00     0.059 C 
ENDROOT
BRANCH   1   2
ATOM      2  C   UNL     1       2.026  12.839  -5.432  1.00  0.00     0.042 C 
ATOM      3  O   UNL     1       0.876  13.055  -5.895  1.00  0.00    -0.550 OA
ATOM      4  O   UNL     1       3.142  13.066  -6.228  1.00  0.00    -0.550 OA
ENDBRANCH   1   2
BRANCH   1   5
ATOM      5  C   UNL     1       2.245  10.853  -3.918  1.00  0.00     0.059 C 
BRANCH   5   6
ATOM      6  C   UNL     1       0.925  10.285  -3.495  1.00  0.00     0.042 C 
ATOM      7  O   UNL     1      -0.098  10.462  -4.205  1.00  0.00    -0.550 OA
ATOM      8  O   UNL     1       0.819   9.592  -2.295  1.00  0.00    -0.550 OA
ENDBRANCH   5   6
ENDBRANCH   1   5
TORSDOF 3
ENDMDL
MODEL 9
REMARK VINA RESULT:    -3.032     10.098     10.792
REMARK INTER + INTRA:          -3.598
REMARK INTER:                  -3.484
REMARK INTRA:                  -0.115
REMARK UNBOUND:                -0.034
REMARK SMILES O=C([O-])CCC(=O)[O-]
REMARK SMILES IDX 4 1 2 2 1 3 3 4 5 5 6 6 7 7 8 8
REMARK H PARENT
REMARK Flexibility Score: inf
ROOT
ATOM      1  C   UNL     1       1.762  11.257  -3.661  1.00  0.00     0.059 C 
ENDROOT
BRANCH   1   2
ATOM      2  C   UNL     1       0.622  11.392  -4.622  1.00  0.00     0.042 C 
ATOM      3  O   UNL     1      -0.331  10.570  -4.596  1.00  0.00    -0.550 OA
ATOM      4  O   UNL     1       0.591  12.451  -5.520  1.00  0.00    -0.550 OA
ENDBRANCH   1   2
BRANCH   1   5
ATOM      5  C   UNL     1       1.271  11.157  -2.213  1.00  0.00     0.059 C 
BRANCH   5   6
ATOM      6  C   UNL     1       1.532   9.800  -1.634  1.00  0.00     0.042 C 
ATOM      7  O   UNL     1       2.235   9.679  -0.596  1.00  0.00    -0.550 OA
ATOM      8  O   UNL     1       1.033   8.667  -2.263  1.00  0.00    -0.550 OA
ENDBRANCH   5   6
ENDBRANCH   1   5
TORSDOF 3
ENDMDL
