MODEL 1
REMARK VINA RESULT:    -3.721      0.000      0.000
REMARK INTER + INTRA:         -12.351
REMARK INTER:                  -8.507
REMARK INTRA:                  -3.844
REMARK UNBOUND:                -3.844
REMARK SMILES CCCCCCCCCCCCCCCCCCCCCCCC(=O)[O-]
REMARK SMILES IDX 13 1 14 2 15 3 16 4 17 5 18 6 19 7 20 8 21 9 22 10 23 11
REMARK SMILES IDX 24 12 25 13 26 14 12 15 11 16 10 17 9 18 8 19 7 20 6 21 5 22
REMARK SMILES IDX 4 23 3 24 2 25 1 26
REMARK H PARENT
REMARK Flexibility Score: inf
ROOT
ATOM      1  C   UNL     1       8.785   8.216  47.868  1.00  0.00     0.000 C 
ENDROOT
BRANCH   1   2
ATOM      2  C   UNL     1       7.422   7.528  48.045  1.00  0.00     0.000 C 
BRANCH   2   3
ATOM      3  C   UNL     1       7.551   6.007  48.235  1.00  0.00     0.000 C 
BRANCH   3   4
ATOM      4  C   UNL     1       6.866   5.511  49.519  1.00  0.00     0.000 C 
BRANCH   4   5
ATOM      5  C   UNL     1       7.579   5.993  50.792  1.00  0.00     0.000 C 
BRANCH   5   6
ATOM      6  C   UNL     1       7.375   5.003  51.945  1.00  0.00     0.000 C 
BRANCH   6   7
ATOM      7  C   UNL     1       7.918   3.613  51.579  1.00  0.00     0.000 C 
BRANCH   7   8
ATOM      8  C   UNL     1       6.889   2.489  51.796  1.00  0.00     0.000 C 
BRANCH   8   9
ATOM      9  C   UNL     1       5.630   2.577  50.913  1.00  0.00     0.000 C 
BRANCH   9  10
ATOM     10  C   UNL     1       5.594   1.504  49.812  1.00  0.00     0.006 C 
BRANCH  10  11
ATOM     11  C   UNL     1       6.785   1.620  48.851  1.00  0.00     0.053 C 
BRANCH  11  12
ATOM     12  C   UNL     1       6.401   2.289  47.567  1.00  0.00     0.041 C 
ATOM     13  O   UNL     1       5.455   3.119  47.541  1.00  0.00    -0.550 OA
ATOM     14  O   UNL     1       7.107   2.015  46.402  1.00  0.00    -0.550 OA
ENDBRANCH  11  12
ENDBRANCH  10  11
ENDBRANCH   9  10
ENDBRANCH   8   9
ENDBRANCH   7   8
ENDBRANCH   6   7
ENDBRANCH   5   6
ENDBRANCH   4   5
ENDBRANCH   3   4
ENDBRANCH   2   3
ENDBRANCH   1   2
BRANCH   1  15
ATOM     15  C   UNL     1       8.900   9.515  48.686  1.00  0.00     0.000 C 
BRANCH  15  16
ATOM     16  C   UNL     1       8.014   9.501  49.941  1.00  0.00     0.000 C 
BRANCH  16  17
ATOM     17  C   UNL     1       7.165  10.776  50.078  1.00  0.00     0.000 C 
BRANCH  17  18
ATOM     18  C   UNL     1       6.649  11.294  48.723  1.00  0.00    -0.000 C 
BRANCH  18  19
ATOM     19  C   UNL     1       5.308  10.685  48.266  1.00  0.00    -0.000 C 
BRANCH  19  20
ATOM     20  C   UNL     1       4.191  10.683  49.331  1.00  0.00    -0.000 C 
BRANCH  20  21
ATOM     21  C   UNL     1       3.459   9.339  49.502  1.00  0.00    -0.000 C 
BRANCH  21  22
ATOM     22  C   UNL     1       4.375   8.224  50.026  1.00  0.00    -0.000 C 
BRANCH  22  23
ATOM     23  C   UNL     1       4.172   8.010  51.534  1.00  0.00    -0.000 C 
BRANCH  23  24
ATOM     24  C   UNL     1       4.025   6.527  51.917  1.00  0.00    -0.000 C 
BRANCH  24  25
ATOM     25  C   UNL     1       3.476   5.621  50.799  1.00  0.00    -0.003 C 
ATOM     26  C   UNL     1       2.281   4.778  51.243  1.00  0.00     0.004 C 
ENDBRANCH  24  25
ENDBRANCH  23  24
ENDBRANCH  22  23
ENDBRANCH  21  22
ENDBRANCH  20  21
ENDBRANCH  19  20
ENDBRANCH  18  19
ENDBRANCH  17  18
ENDBRANCH  16  17
ENDBRANCH  15  16
ENDBRANCH   1  15
TORSDOF 22
ENDMDL
MODEL 2
REMARK VINA RESULT:    -3.720      2.626      4.801
REMARK INTER + INTRA:         -12.349
REMARK INTER:                  -8.580
REMARK INTRA:                  -3.769
REMARK UNBOUND:                -3.844
REMARK SMILES CCCCCCCCCCCCCCCCCCCCCCCC(=O)[O-]
REMARK SMILES IDX 13 1 14 2 15 3 16 4 17 5 18 6 19 7 20 8 21 9 22 10 23 11
REMARK SMILES IDX 24 12 25 13 26 14 12 15 11 16 10 17 9 18 8 19 7 20 6 21 5 22
REMARK SMILES IDX 4 23 3 24 2 25 1 26
REMARK H PARENT
REMARK Flexibility Score: inf
ROOT
ATOM      1  C   UNL     1       6.311   1.722  47.872  1.00  0.00     0.000 C 
ENDROOT
BRANCH   1   2
ATOM      2  C   UNL     1       7.091   1.267  49.116  1.00  0.00     0.000 C 
BRANCH   2   3
ATOM      3  C   UNL     1       6.245   0.387  50.052  1.00  0.00     0.000 C 
BRANCH   3   4
ATOM      4  C   UNL     1       6.281   0.870  51.511  1.00  0.00     0.000 C 
BRANCH   4   5
ATOM      5  C   UNL     1       6.856   2.287  51.649  1.00  0.00     0.000 C 
BRANCH   5   6
ATOM      6  C   UNL     1       5.771   3.279  52.088  1.00  0.00     0.000 C 
BRANCH   6   7
ATOM      7  C   UNL     1       4.385   2.615  52.086  1.00  0.00     0.000 C 
BRANCH   7   8
ATOM      8  C   UNL     1       3.474   3.129  50.956  1.00  0.00     0.000 C 
BRANCH   8   9
ATOM      9  C   UNL     1       2.835   2.032  50.084  1.00  0.00     0.000 C 
BRANCH   9  10
ATOM     10  C   UNL     1       2.593   0.721  50.851  1.00  0.00     0.006 C 
BRANCH  10  11
ATOM     11  C   UNL     1       2.331  -0.461  49.910  1.00  0.00     0.053 C 
BRANCH  11  12
ATOM     12  C   UNL     1       0.911  -0.490  49.433  1.00  0.00     0.041 C 
ATOM     13  O   UNL     1       0.623  -0.102  48.270  1.00  0.00    -0.550 OA
ATOM     14  O   UNL     1      -0.092  -0.970  50.266  1.00  0.00    -0.550 OA
ENDBRANCH  11  12
ENDBRANCH  10  11
ENDBRANCH   9  10
ENDBRANCH   8   9
ENDBRANCH   7   8
ENDBRANCH   6   7
ENDBRANCH   5   6
ENDBRANCH   4   5
ENDBRANCH   3   4
ENDBRANCH   2   3
ENDBRANCH   1   2
BRANCH   1  15
ATOM     15  C   UNL     1       5.698   3.124  48.041  1.00  0.00     0.000 C 
BRANCH  15  16
ATOM     16  C   UNL     1       6.764   4.227  48.123  1.00  0.00     0.000 C 
BRANCH  16  17
ATOM     17  C   UNL     1       6.511   5.205  49.283  1.00  0.00     0.000 C 
BRANCH  17  18
ATOM     18  C   UNL     1       7.519   6.368  49.310  1.00  0.00    -0.000 C 
BRANCH  18  19
ATOM     19  C   UNL     1       7.551   7.225  48.028  1.00  0.00    -0.000 C 
BRANCH  19  20
ATOM     20  C   UNL     1       7.375   8.742  48.248  1.00  0.00    -0.000 C 
BRANCH  20  21
ATOM     21  C   UNL     1       5.921   9.245  48.180  1.00  0.00    -0.000 C 
BRANCH  21  22
ATOM     22  C   UNL     1       5.240   9.286  49.555  1.00  0.00    -0.000 C 
BRANCH  22  23
ATOM     23  C   UNL     1       3.716   9.148  49.416  1.00  0.00    -0.000 C 
BRANCH  23  24
ATOM     24  C   UNL     1       3.097   8.223  50.479  1.00  0.00    -0.000 C 
BRANCH  24  25
ATOM     25  C   UNL     1       3.903   6.944  50.773  1.00  0.00    -0.003 C 
ATOM     26  C   UNL     1       4.019   6.640  52.266  1.00  0.00     0.004 C 
ENDBRANCH  24  25
ENDBRANCH  23  24
ENDBRANCH  22  23
ENDBRANCH  21  22
ENDBRANCH  20  21
ENDBRANCH  19  20
ENDBRANCH  18  19
ENDBRANCH  17  18
ENDBRANCH  16  17
ENDBRANCH  15  16
ENDBRANCH   1  15
TORSDOF 22
ENDMDL
MODEL 3
REMARK VINA RESULT:    -3.693      2.358      5.551
REMARK INTER + INTRA:         -12.287
REMARK INTER:                  -8.673
REMARK INTRA:                  -3.614
REMARK UNBOUND:                -3.844
REMARK SMILES CCCCCCCCCCCCCCCCCCCCCCCC(=O)[O-]
REMARK SMILES IDX 13 1 14 2 15 3 16 4 17 5 18 6 19 7 20 8 21 9 22 10 23 11
REMARK SMILES IDX 24 12 25 13 26 14 12 15 11 16 10 17 9 18 8 19 7 20 6 21 5 22
REMARK SMILES IDX 4 23 3 24 2 25 1 26
REMARK H PARENT
REMARK Flexibility Score: inf
ROOT
ATOM      1  C   UNL     1       5.401   3.048  48.053  1.00  0.00     0.000 C 
ENDROOT
BRANCH   1   2
ATOM      2  C   UNL     1       6.707   2.369  48.499  1.00  0.00     0.000 C 
BRANCH   2   3
ATOM      3  C   UNL     1       6.479   0.938  49.015  1.00  0.00     0.000 C 
BRANCH   3   4
ATOM      4  C   UNL     1       6.568   0.840  50.547  1.00  0.00     0.000 C 
BRANCH   4   5
ATOM      5  C   UNL     1       7.321   2.024  51.171  1.00  0.00     0.000 C 
BRANCH   5   6
ATOM      6  C   UNL     1       6.525   2.631  52.332  1.00  0.00     0.000 C 
BRANCH   6   7
ATOM      7  C   UNL     1       6.569   4.166  52.287  1.00  0.00     0.000 C 
BRANCH   7   8
ATOM      8  C   UNL     1       7.562   4.709  51.244  1.00  0.00     0.000 C 
BRANCH   8   9
ATOM      9  C   UNL     1       7.367   6.189  50.866  1.00  0.00     0.000 C 
BRANCH   9  10
ATOM     10  C   UNL     1       6.608   6.374  49.540  1.00  0.00     0.006 C 
BRANCH  10  11
ATOM     11  C   UNL     1       7.546   6.352  48.327  1.00  0.00     0.053 C 
BRANCH  11  12
ATOM     12  C   UNL     1       7.823   7.732  47.812  1.00  0.00     0.041 C 
ATOM     13  O   UNL     1       6.956   8.638  47.927  1.00  0.00    -0.550 OA
ATOM     14  O   UNL     1       9.048   8.022  47.227  1.00  0.00    -0.550 OA
ENDBRANCH  11  12
ENDBRANCH  10  11
ENDBRANCH   9  10
ENDBRANCH   8   9
ENDBRANCH   7   8
ENDBRANCH   6   7
ENDBRANCH   5   6
ENDBRANCH   4   5
ENDBRANCH   3   4
ENDBRANCH   2   3
ENDBRANCH   1   2
BRANCH   1  15
ATOM     15  C   UNL     1       4.591   3.603  49.238  1.00  0.00     0.000 C 
BRANCH  15  16
ATOM     16  C   UNL     1       3.491   2.636  49.704  1.00  0.00     0.000 C 
BRANCH  16  17
ATOM     17  C   UNL     1       3.050   2.901  51.154  1.00  0.00     0.000 C 
BRANCH  17  18
ATOM     18  C   UNL     1       2.208   4.182  51.294  1.00  0.00    -0.000 C 
BRANCH  18  19
ATOM     19  C   UNL     1       2.817   5.259  52.215  1.00  0.00    -0.000 C 
BRANCH  19  20
ATOM     20  C   UNL     1       3.629   6.355  51.495  1.00  0.00    -0.000 C 
BRANCH  20  21
ATOM     21  C   UNL     1       2.816   7.238  50.530  1.00  0.00    -0.000 C 
BRANCH  21  22
ATOM     22  C   UNL     1       3.514   8.566  50.206  1.00  0.00    -0.000 C 
BRANCH  22  23
ATOM     23  C   UNL     1       2.680   9.759  50.698  1.00  0.00    -0.000 C 
BRANCH  23  24
ATOM     24  C   UNL     1       2.716  10.957  49.732  1.00  0.00    -0.000 C 
BRANCH  24  25
ATOM     25  C   UNL     1       1.354  11.337  49.120  1.00  0.00    -0.003 C 
ATOM     26  C   UNL     1       0.307  11.705  50.170  1.00  0.00     0.004 C 
ENDBRANCH  24  25
ENDBRANCH  23  24
ENDBRANCH  22  23
ENDBRANCH  21  22
ENDBRANCH  20  21
ENDBRANCH  19  20
ENDBRANCH  18  19
ENDBRANCH  17  18
ENDBRANCH  16  17
ENDBRANCH  15  16
ENDBRANCH   1  15
TORSDOF 22
ENDMDL
MODEL 4
REMARK VINA RESULT:    -3.681      2.364      3.954
REMARK INTER + INTRA:         -12.259
REMARK INTER:                  -8.541
REMARK INTRA:                  -3.718
REMARK UNBOUND:                -3.844
REMARK SMILES CCCCCCCCCCCCCCCCCCCCCCCC(=O)[O-]
REMARK SMILES IDX 13 1 14 2 15 3 16 4 17 5 18 6 19 7 20 8 21 9 22 10 23 11
REMARK SMILES IDX 24 12 25 13 26 14 12 15 11 16 10 17 9 18 8 19 7 20 6 21 5 22
REMARK SMILES IDX 4 23 3 24 2 25 1 26
REMARK H PARENT
REMARK Flexibility Score: inf
ROOT
ATOM      1  C   UNL     1       6.751   4.605  48.632  1.00  0.00     0.000 C 
ENDROOT
BRANCH   1   2
ATOM      2  C   UNL     1       5.730   3.520  48.254  1.00  0.00     0.000 C 
BRANCH   2   3
ATOM      3  C   UNL     1       6.399   2.248  47.706  1.00  0.00     0.000 C 
BRANCH   3   4
ATOM      4  C   UNL     1       6.106   1.008  48.566  1.00  0.00     0.000 C 
BRANCH   4   5
ATOM      5  C   UNL     1       6.949   0.969  49.850  1.00  0.00     0.000 C 
BRANCH   5   6
ATOM      6  C   UNL     1       6.126   0.443  51.032  1.00  0.00     0.000 C 
BRANCH   6   7
ATOM      7  C   UNL     1       6.027   1.496  52.146  1.00  0.00     0.000 C 
BRANCH   7   8
ATOM      8  C   UNL     1       5.004   2.605  51.836  1.00  0.00     0.000 C 
BRANCH   8   9
ATOM      9  C   UNL     1       3.534   2.226  52.094  1.00  0.00     0.000 C 
BRANCH   9  10
ATOM     10  C   UNL     1       2.646   2.391  50.848  1.00  0.00     0.006 C 
BRANCH  10  11
ATOM     11  C   UNL     1       2.654   1.140  49.961  1.00  0.00     0.053 C 
BRANCH  11  12
ATOM     12  C   UNL     1       1.343   0.415  50.009  1.00  0.00     0.041 C 
ATOM     13  O   UNL     1       0.902  -0.168  48.984  1.00  0.00    -0.550 OA
ATOM     14  O   UNL     1       0.621   0.363  51.194  1.00  0.00    -0.550 OA
ENDBRANCH  11  12
ENDBRANCH  10  11
ENDBRANCH   9  10
ENDBRANCH   8   9
ENDBRANCH   7   8
ENDBRANCH   6   7
ENDBRANCH   5   6
ENDBRANCH   4   5
ENDBRANCH   3   4
ENDBRANCH   2   3
ENDBRANCH   1   2
BRANCH   1  15
ATOM     15  C   UNL     1       7.107   4.582  50.130  1.00  0.00     0.000 C 
BRANCH  15  16
ATOM     16  C   UNL     1       7.520   5.965  50.658  1.00  0.00     0.000 C 
BRANCH  16  17
ATOM     17  C   UNL     1       7.681   7.001  49.533  1.00  0.00     0.000 C 
BRANCH  17  18
ATOM     18  C   UNL     1       7.889   8.430  50.066  1.00  0.00    -0.000 C 
BRANCH  18  19
ATOM     19  C   UNL     1       7.349   9.547  49.150  1.00  0.00    -0.000 C 
BRANCH  19  20
ATOM     20  C   UNL     1       6.364   9.082  48.058  1.00  0.00    -0.000 C 
BRANCH  20  21
ATOM     21  C   UNL     1       4.946   9.674  48.165  1.00  0.00    -0.000 C 
BRANCH  21  22
ATOM     22  C   UNL     1       4.498   9.887  49.618  1.00  0.00    -0.000 C 
BRANCH  22  23
ATOM     23  C   UNL     1       3.529   8.779  50.061  1.00  0.00    -0.000 C 
BRANCH  23  24
ATOM     24  C   UNL     1       4.217   7.669  50.876  1.00  0.00    -0.000 C 
BRANCH  24  25
ATOM     25  C   UNL     1       3.747   6.239  50.549  1.00  0.00    -0.003 C 
ATOM     26  C   UNL     1       2.272   6.005  50.871  1.00  0.00     0.004 C 
ENDBRANCH  24  25
ENDBRANCH  23  24
ENDBRANCH  22  23
ENDBRANCH  21  22
ENDBRANCH  20  21
ENDBRANCH  19  20
ENDBRANCH  18  19
ENDBRANCH  17  18
ENDBRANCH  16  17
ENDBRANCH  15  16
ENDBRANCH   1  15
TORSDOF 22
ENDMDL
MODEL 5
REMARK VINA RESULT:    -3.673      2.811      6.623
REMARK INTER + INTRA:         -12.241
REMARK INTER:                  -8.000
REMARK INTRA:                  -4.241
REMARK UNBOUND:                -3.844
REMARK SMILES CCCCCCCCCCCCCCCCCCCCCCCC(=O)[O-]
REMARK SMILES IDX 13 1 14 2 15 3 16 4 17 5 18 6 19 7 20 8 21 9 22 10 23 11
REMARK SMILES IDX 24 12 25 13 26 14 12 15 11 16 10 17 9 18 8 19 7 20 6 21 5 22
REMARK SMILES IDX 4 23 3 24 2 25 1 26
REMARK H PARENT
REMARK Flexibility Score: inf
ROOT
ATOM      1  C   UNL     1       6.195   0.865  48.622  1.00  0.00     0.000 C 
ENDROOT
BRANCH   1   2
ATOM      2  C   UNL     1       7.122   0.946  49.846  1.00  0.00     0.000 C 
BRANCH   2   3
ATOM      3  C   UNL     1       6.346   0.920  51.174  1.00  0.00     0.000 C 
BRANCH   3   4
ATOM      4  C   UNL     1       6.713   2.095  52.096  1.00  0.00     0.000 C 
BRANCH   4   5
ATOM      5  C   UNL     1       7.490   3.199  51.364  1.00  0.00     0.000 C 
BRANCH   5   6
ATOM      6  C   UNL     1       7.784   4.377  52.301  1.00  0.00     0.000 C 
BRANCH   6   7
ATOM      7  C   UNL     1       6.481   4.985  52.844  1.00  0.00     0.000 C 
BRANCH   7   8
ATOM      8  C   UNL     1       6.121   6.326  52.180  1.00  0.00     0.000 C 
BRANCH   8   9
ATOM      9  C   UNL     1       7.127   6.824  51.125  1.00  0.00     0.000 C 
BRANCH   9  10
ATOM     10  C   UNL     1       6.572   6.763  49.692  1.00  0.00     0.006 C 
BRANCH  10  11
ATOM     11  C   UNL     1       7.666   6.466  48.658  1.00  0.00     0.053 C 
BRANCH  11  12
ATOM     12  C   UNL     1       8.100   7.705  47.935  1.00  0.00     0.041 C 
ATOM     13  O   UNL     1       7.303   8.670  47.794  1.00  0.00    -0.550 OA
ATOM     14  O   UNL     1       9.394   7.803  47.439  1.00  0.00    -0.550 OA
ENDBRANCH  11  12
ENDBRANCH  10  11
ENDBRANCH   9  10
ENDBRANCH   8   9
ENDBRANCH   7   8
ENDBRANCH   6   7
ENDBRANCH   5   6
ENDBRANCH   4   5
ENDBRANCH   3   4
ENDBRANCH   2   3
ENDBRANCH   1   2
BRANCH   1  15
ATOM     15  C   UNL     1       6.370   2.062  47.670  1.00  0.00     0.000 C 
BRANCH  15  16
ATOM     16  C   UNL     1       5.795   3.364  48.248  1.00  0.00     0.000 C 
BRANCH  16  17
ATOM     17  C   UNL     1       4.453   3.147  48.967  1.00  0.00     0.000 C 
BRANCH  17  18
ATOM     18  C   UNL     1       4.137   4.257  49.986  1.00  0.00    -0.000 C 
BRANCH  18  19
ATOM     19  C   UNL     1       3.111   3.868  51.069  1.00  0.00    -0.000 C 
BRANCH  19  20
ATOM     20  C   UNL     1       3.019   2.358  51.374  1.00  0.00    -0.000 C 
BRANCH  20  21
ATOM     21  C   UNL     1       1.595   1.774  51.343  1.00  0.00    -0.000 C 
BRANCH  21  22
ATOM     22  C   UNL     1       1.486   0.516  50.470  1.00  0.00    -0.000 C 
BRANCH  22  23
ATOM     23  C   UNL     1       2.873   0.057  49.992  1.00  0.00    -0.000 C 
BRANCH  23  24
ATOM     24  C   UNL     1       2.979  -1.470  49.835  1.00  0.00    -0.000 C 
BRANCH  24  25
ATOM     25  C   UNL     1       4.323  -2.076  50.282  1.00  0.00    -0.003 C 
ATOM     26  C   UNL     1       4.858  -3.128  49.311  1.00  0.00     0.004 C 
ENDBRANCH  24  25
ENDBRANCH  23  24
ENDBRANCH  22  23
ENDBRANCH  21  22
ENDBRANCH  20  21
ENDBRANCH  19  20
ENDBRANCH  18  19
ENDBRANCH  17  18
ENDBRANCH  16  17
ENDBRANCH  15  16
ENDBRANCH   1  15
TORSDOF 22
ENDMDL
MODEL 6
REMARK VINA RESULT:    -3.671      2.108      6.345
REMARK INTER + INTRA:         -12.237
REMARK INTER:                  -7.970
REMARK INTRA:                  -4.267
REMARK UNBOUND:                -3.844
REMARK SMILES CCCCCCCCCCCCCCCCCCCCCCCC(=O)[O-]
REMARK SMILES IDX 13 1 14 2 15 3 16 4 17 5 18 6 19 7 20 8 21 9 22 10 23 11
REMARK SMILES IDX 24 12 25 13 26 14 12 15 11 16 10 17 9 18 8 19 7 20 6 21 5 22
REMARK SMILES IDX 4 23 3 24 2 25 1 26
REMARK H PARENT
REMARK Flexibility Score: inf
ROOT
ATOM      1  C   UNL     1       6.324   5.266  49.580  1.00  0.00     0.000 C 
ENDROOT
BRANCH   1   2
ATOM      2  C   UNL     1       7.519   5.621  50.480  1.00  0.00     0.000 C 
BRANCH   2   3
ATOM      3  C   UNL     1       7.111   6.479  51.690  1.00  0.00     0.000 C 
BRANCH   3   4
ATOM      4  C   UNL     1       5.627   6.316  52.056  1.00  0.00     0.000 C 
BRANCH   4   5
ATOM      5  C   UNL     1       5.053   7.556  52.759  1.00  0.00     0.000 C 
BRANCH   5   6
ATOM      6  C   UNL     1       3.737   7.996  52.107  1.00  0.00     0.000 C 
BRANCH   6   7
ATOM      7  C   UNL     1       3.730   7.671  50.605  1.00  0.00     0.000 C 
BRANCH   7   8
ATOM      8  C   UNL     1       3.283   8.859  49.735  1.00  0.00     0.000 C 
BRANCH   8   9
ATOM      9  C   UNL     1       4.423   9.758  49.222  1.00  0.00     0.000 C 
BRANCH   9  10
ATOM     10  C   UNL     1       5.812   9.114  49.382  1.00  0.00     0.006 C 
BRANCH  10  11
ATOM     11  C   UNL     1       6.382   8.625  48.045  1.00  0.00     0.053 C 
BRANCH  11  12
ATOM     12  C   UNL     1       7.867   8.443  48.106  1.00  0.00     0.041 C 
ATOM     13  O   UNL     1       8.479   7.887  47.156  1.00  0.00    -0.550 OA
ATOM     14  O   UNL     1       8.580   8.911  49.202  1.00  0.00    -0.550 OA
ENDBRANCH  11  12
ENDBRANCH  10  11
ENDBRANCH   9  10
ENDBRANCH   8   9
ENDBRANCH   7   8
ENDBRANCH   6   7
ENDBRANCH   5   6
ENDBRANCH   4   5
ENDBRANCH   3   4
ENDBRANCH   2   3
ENDBRANCH   1   2
BRANCH   1  15
ATOM     15  C   UNL     1       6.753   4.556  48.284  1.00  0.00     0.000 C 
BRANCH  15  16
ATOM     16  C   UNL     1       5.833   3.380  47.924  1.00  0.00     0.000 C 
BRANCH  16  17
ATOM     17  C   UNL     1       6.615   2.149  47.435  1.00  0.00     0.000 C 
BRANCH  17  18
ATOM     18  C   UNL     1       7.017   1.205  48.583  1.00  0.00    -0.000 C 
BRANCH  18  19
ATOM     19  C   UNL     1       5.943   1.022  49.675  1.00  0.00    -0.000 C 
BRANCH  19  20
ATOM     20  C   UNL     1       6.324   1.565  51.067  1.00  0.00    -0.000 C 
BRANCH  20  21
ATOM     21  C   UNL     1       5.283   2.502  51.707  1.00  0.00    -0.000 C 
BRANCH  21  22
ATOM     22  C   UNL     1       3.942   2.501  50.960  1.00  0.00    -0.000 C 
BRANCH  22  23
ATOM     23  C   UNL     1       3.289   3.892  51.002  1.00  0.00    -0.000 C 
BRANCH  23  24
ATOM     24  C   UNL     1       1.881   3.877  51.623  1.00  0.00    -0.000 C 
BRANCH  24  25
ATOM     25  C   UNL     1       1.424   5.219  52.225  1.00  0.00    -0.003 C 
ATOM     26  C   UNL     1      -0.018   5.576  51.865  1.00  0.00     0.004 C 
ENDBRANCH  24  25
ENDBRANCH  23  24
ENDBRANCH  22  23
ENDBRANCH  21  22
ENDBRANCH  20  21
ENDBRANCH  19  20
ENDBRANCH  18  19
ENDBRANCH  17  18
ENDBRANCH  16  17
ENDBRANCH  15  16
ENDBRANCH   1  15
TORSDOF 22
ENDMDL
MODEL 7
REMARK VINA RESULT:    -3.666      1.955      4.979
REMARK INTER + INTRA:         -12.225
REMARK INTER:                  -8.325
REMARK INTRA:                  -3.901
REMARK UNBOUND:                -3.844
REMARK SMILES CCCCCCCCCCCCCCCCCCCCCCCC(=O)[O-]
REMARK SMILES IDX 13 1 14 2 15 3 16 4 17 5 18 6 19 7 20 8 21 9 22 10 23 11
REMARK SMILES IDX 24 12 25 13 26 14 12 15 11 16 10 17 9 18 8 19 7 20 6 21 5 22
REMARK SMILES IDX 4 23 3 24 2 25 1 26
REMARK H PARENT
REMARK Flexibility Score: inf
ROOT
ATOM      1  C   UNL     1       3.387   2.320  49.738  1.00  0.00     0.000 C 
ENDROOT
BRANCH   1   2
ATOM      2  C   UNL     1       4.283   3.453  49.210  1.00  0.00     0.000 C 
BRANCH   2   3
ATOM      3  C   UNL     1       5.421   2.934  48.315  1.00  0.00     0.000 C 
BRANCH   3   4
ATOM      4  C   UNL     1       6.746   3.676  48.554  1.00  0.00     0.000 C 
BRANCH   4   5
ATOM      5  C   UNL     1       6.542   5.059  49.188  1.00  0.00     0.000 C 
BRANCH   5   6
ATOM      6  C   UNL     1       7.245   5.150  50.548  1.00  0.00     0.000 C 
BRANCH   6   7
ATOM      7  C   UNL     1       7.548   3.750  51.105  1.00  0.00     0.000 C 
BRANCH   7   8
ATOM      8  C   UNL     1       6.520   3.283  52.152  1.00  0.00     0.000 C 
BRANCH   8   9
ATOM      9  C   UNL     1       6.554   1.778  52.474  1.00  0.00     0.000 C 
BRANCH   9  10
ATOM     10  C   UNL     1       6.496   0.894  51.216  1.00  0.00     0.006 C 
BRANCH  10  11
ATOM     11  C   UNL     1       5.492  -0.257  51.362  1.00  0.00     0.053 C 
BRANCH  11  12
ATOM     12  C   UNL     1       5.277  -0.976  50.066  1.00  0.00     0.041 C 
ATOM     13  O   UNL     1       5.672  -0.468  48.984  1.00  0.00    -0.550 OA
ATOM     14  O   UNL     1       4.662  -2.222  50.056  1.00  0.00    -0.550 OA
ENDBRANCH  11  12
ENDBRANCH  10  11
ENDBRANCH   9  10
ENDBRANCH   8   9
ENDBRANCH   7   8
ENDBRANCH   6   7
ENDBRANCH   5   6
ENDBRANCH   4   5
ENDBRANCH   3   4
ENDBRANCH   2   3
ENDBRANCH   1   2
BRANCH   1  15
ATOM     15  C   UNL     1       2.619   2.721  51.011  1.00  0.00     0.000 C 
BRANCH  15  16
ATOM     16  C   UNL     1       3.016   4.114  51.524  1.00  0.00     0.000 C 
BRANCH  16  17
ATOM     17  C   UNL     1       1.933   5.172  51.252  1.00  0.00     0.000 C 
BRANCH  17  18
ATOM     18  C   UNL     1       2.514   6.494  50.718  1.00  0.00    -0.000 C 
BRANCH  18  19
ATOM     19  C   UNL     1       3.989   6.748  51.088  1.00  0.00    -0.000 C 
BRANCH  19  20
ATOM     20  C   UNL     1       4.459   8.210  50.946  1.00  0.00    -0.000 C 
BRANCH  20  21
ATOM     21  C   UNL     1       4.021   8.911  49.646  1.00  0.00    -0.000 C 
BRANCH  21  22
ATOM     22  C   UNL     1       4.927  10.093  49.273  1.00  0.00    -0.000 C 
BRANCH  22  23
ATOM     23  C   UNL     1       5.631   9.842  47.930  1.00  0.00    -0.000 C 
BRANCH  23  24
ATOM     24  C   UNL     1       6.480   8.558  47.928  1.00  0.00    -0.000 C 
BRANCH  24  25
ATOM     25  C   UNL     1       7.944   8.748  48.368  1.00  0.00    -0.003 C 
ATOM     26  C   UNL     1       8.873   7.652  47.848  1.00  0.00     0.004 C 
ENDBRANCH  24  25
ENDBRANCH  23  24
ENDBRANCH  22  23
ENDBRANCH  21  22
ENDBRANCH  20  21
ENDBRANCH  19  20
ENDBRANCH  18  19
ENDBRANCH  17  18
ENDBRANCH  16  17
ENDBRANCH  15  16
ENDBRANCH   1  15
TORSDOF 22
ENDMDL
MODEL 8
REMARK VINA RESULT:    -3.659      2.597      5.814
REMARK INTER + INTRA:         -12.207
REMARK INTER:                  -8.060
REMARK INTRA:                  -4.147
REMARK UNBOUND:                -3.844
REMARK SMILES CCCCCCCCCCCCCCCCCCCCCCCC(=O)[O-]
REMARK SMILES IDX 13 1 14 2 15 3 16 4 17 5 18 6 19 7 20 8 21 9 22 10 23 11
REMARK SMILES IDX 24 12 25 13 26 14 12 15 11 16 10 17 9 18 8 19 7 20 6 21 5 22
REMARK SMILES IDX 4 23 3 24 2 25 1 26
REMARK H PARENT
REMARK Flexibility Score: inf
ROOT
ATOM      1  C   UNL     1       6.790   1.036  48.619  1.00  0.00     0.000 C 
ENDROOT
BRANCH   1   2
ATOM      2  C   UNL     1       5.519   0.519  49.315  1.00  0.00     0.000 C 
BRANCH   2   3
ATOM      3  C   UNL     1       5.739   0.243  50.812  1.00  0.00     0.000 C 
BRANCH   3   4
ATOM      4  C   UNL     1       6.805   1.160  51.432  1.00  0.00     0.000 C 
BRANCH   4   5
ATOM      5  C   UNL     1       6.293   1.902  52.676  1.00  0.00     0.000 C 
BRANCH   5   6
ATOM      6  C   UNL     1       4.760   1.884  52.734  1.00  0.00     0.000 C 
BRANCH   6   7
ATOM      7  C   UNL     1       4.181   3.272  52.421  1.00  0.00     0.000 C 
BRANCH   7   8
ATOM      8  C   UNL     1       2.743   3.215  51.875  1.00  0.00     0.000 C 
BRANCH   8   9
ATOM      9  C   UNL     1       2.537   2.269  50.676  1.00  0.00     0.000 C 
BRANCH   9  10
ATOM     10  C   UNL     1       1.531   1.143  50.968  1.00  0.00     0.006 C 
BRANCH  10  11
ATOM     11  C   UNL     1       2.162  -0.248  50.831  1.00  0.00     0.053 C 
BRANCH  11  12
ATOM     12  C   UNL     1       1.716  -0.942  49.580  1.00  0.00     0.041 C 
ATOM     13  O   UNL     1       2.343  -1.948  49.154  1.00  0.00    -0.550 OA
ATOM     14  O   UNL     1       0.593  -0.492  48.899  1.00  0.00    -0.550 OA
ENDBRANCH  11  12
ENDBRANCH  10  11
ENDBRANCH   9  10
ENDBRANCH   8   9
ENDBRANCH   7   8
ENDBRANCH   6   7
ENDBRANCH   5   6
ENDBRANCH   4   5
ENDBRANCH   3   4
ENDBRANCH   2   3
ENDBRANCH   1   2
BRANCH   1  15
ATOM     15  C   UNL     1       6.570   2.389  47.919  1.00  0.00     0.000 C 
BRANCH  15  16
ATOM     16  C   UNL     1       5.204   3.008  48.251  1.00  0.00     0.000 C 
BRANCH  16  17
ATOM     17  C   UNL     1       5.322   4.239  49.166  1.00  0.00     0.000 C 
BRANCH  17  18
ATOM     18  C   UNL     1       6.771   4.742  49.301  1.00  0.00    -0.000 C 
BRANCH  18  19
ATOM     19  C   UNL     1       7.326   4.736  50.739  1.00  0.00    -0.000 C 
BRANCH  19  20
ATOM     20  C   UNL     1       7.462   6.125  51.396  1.00  0.00    -0.000 C 
BRANCH  20  21
ATOM     21  C   UNL     1       6.159   6.941  51.468  1.00  0.00    -0.000 C 
BRANCH  21  22
ATOM     22  C   UNL     1       6.355   8.413  51.077  1.00  0.00    -0.000 C 
BRANCH  22  23
ATOM     23  C   UNL     1       7.505   8.564  50.069  1.00  0.00    -0.000 C 
BRANCH  23  24
ATOM     24  C   UNL     1       7.021   8.635  48.610  1.00  0.00    -0.000 C 
BRANCH  24  25
ATOM     25  C   UNL     1       7.761   7.701  47.635  1.00  0.00    -0.003 C 
ATOM     26  C   UNL     1       9.278   7.889  47.661  1.00  0.00     0.004 C 
ENDBRANCH  24  25
ENDBRANCH  23  24
ENDBRANCH  22  23
ENDBRANCH  21  22
ENDBRANCH  20  21
ENDBRANCH  19  20
ENDBRANCH  18  19
ENDBRANCH  17  18
ENDBRANCH  16  17
ENDBRANCH  15  16
ENDBRANCH   1  15
TORSDOF 22
ENDMDL
MODEL 9
REMARK VINA RESULT:    -3.644      2.328      4.857
REMARK INTER + INTRA:         -12.175
REMARK INTER:                  -7.858
REMARK INTRA:                  -4.317
REMARK UNBOUND:                -3.844
REMARK SMILES CCCCCCCCCCCCCCCCCCCCCCCC(=O)[O-]
REMARK SMILES IDX 13 1 14 2 15 3 16 4 17 5 18 6 19 7 20 8 21 9 22 10 23 11
REMARK SMILES IDX 24 12 25 13 26 14 12 15 11 16 10 17 9 18 8 19 7 20 6 21 5 22
REMARK SMILES IDX 4 23 3 24 2 25 1 26
REMARK H PARENT
REMARK Flexibility Score: inf
ROOT
ATOM      1  C   UNL     1       5.695   3.161  47.868  1.00  0.00     0.000 C 
ENDROOT
BRANCH   1   2
ATOM      2  C   UNL     1       6.352   1.779  47.715  1.00  0.00     0.000 C 
BRANCH   2   3
ATOM      3  C   UNL     1       7.138   1.359  48.969  1.00  0.00     0.000 C 
BRANCH   3   4
ATOM      4  C   UNL     1       6.220   0.986  50.144  1.00  0.00     0.000 C 
BRANCH   4   5
ATOM      5  C   UNL     1       6.680   1.605  51.472  1.00  0.00     0.000 C 
BRANCH   5   6
ATOM      6  C   UNL     1       5.516   1.702  52.465  1.00  0.00     0.000 C 
BRANCH   6   7
ATOM      7  C   UNL     1       4.870   3.096  52.423  1.00  0.00     0.000 C 
BRANCH   7   8
ATOM      8  C   UNL     1       3.387   3.059  52.013  1.00  0.00     0.000 C 
BRANCH   8   9
ATOM      9  C   UNL     1       3.117   3.315  50.518  1.00  0.00     0.000 C 
BRANCH   9  10
ATOM     10  C   UNL     1       2.864   2.022  49.725  1.00  0.00     0.006 C 
BRANCH  10  11
ATOM     11  C   UNL     1       2.234   0.924  50.591  1.00  0.00     0.053 C 
BRANCH  11  12
ATOM     12  C   UNL     1       1.908  -0.299  49.790  1.00  0.00     0.041 C 
ATOM     13  O   UNL     1       2.738  -1.241  49.701  1.00  0.00    -0.550 OA
ATOM     14  O   UNL     1       0.673  -0.410  49.163  1.00  0.00    -0.550 OA
ENDBRANCH  11  12
ENDBRANCH  10  11
ENDBRANCH   9  10
ENDBRANCH   8   9
ENDBRANCH   7   8
ENDBRANCH   6   7
ENDBRANCH   5   6
ENDBRANCH   4   5
ENDBRANCH   3   4
ENDBRANCH   2   3
ENDBRANCH   1   2
BRANCH   1  15
ATOM     15  C   UNL     1       6.699   4.246  48.298  1.00  0.00     0.000 C 
BRANCH  15  16
ATOM     16  C   UNL     1       6.227   5.027  49.535  1.00  0.00     0.000 C 
BRANCH  16  17
ATOM     17  C   UNL     1       7.324   5.150  50.607  1.00  0.00     0.000 C 
BRANCH  17  18
ATOM     18  C   UNL     1       7.013   6.235  51.653  1.00  0.00    -0.000 C 
BRANCH  18  19
ATOM     19  C   UNL     1       5.570   6.776  51.615  1.00  0.00    -0.000 C 
BRANCH  19  20
ATOM     20  C   UNL     1       5.420   8.272  51.961  1.00  0.00    -0.000 C 
BRANCH  20  21
ATOM     21  C   UNL     1       4.206   8.970  51.321  1.00  0.00    -0.000 C 
BRANCH  21  22
ATOM     22  C   UNL     1       4.177   8.832  49.793  1.00  0.00    -0.000 C 
BRANCH  22  23
ATOM     23  C   UNL     1       5.210   9.762  49.138  1.00  0.00    -0.000 C 
BRANCH  23  24
ATOM     24  C   UNL     1       5.905   9.126  47.921  1.00  0.00    -0.000 C 
BRANCH  24  25
ATOM     25  C   UNL     1       7.178   8.323  48.247  1.00  0.00    -0.003 C 
ATOM     26  C   UNL     1       8.029   8.969  49.340  1.00  0.00     0.004 C 
ENDBRANCH  24  25
ENDBRANCH  23  24
ENDBRANCH  22  23
ENDBRANCH  21  22
ENDBRANCH  20  21
ENDBRANCH  19  20
ENDBRANCH  18  19
ENDBRANCH  17  18
ENDBRANCH  16  17
ENDBRANCH  15  16
ENDBRANCH   1  15
TORSDOF 22
ENDMDL
