MODEL 1
REMARK VINA RESULT:    -5.477      0.000      0.000
REMARK INTER + INTRA:          -6.412
REMARK INTER:                  -6.278
REMARK INTRA:                  -0.134
REMARK UNBOUND:                -0.134
REMARK SMILES O=C([O-])C=Cc1ccc(O)cc1
REMARK SMILES IDX 6 1 7 2 12 3 8 4 11 5 9 6 5 7 4 8 2 9 1 10 3 11 10 12
REMARK H PARENT 10 13
REMARK Flexibility Score: inf
ROOT
ATOM      1  C   UNL     1       6.940   5.413  10.766  1.00  0.00    -0.025 A 
ATOM      2  C   UNL     1       7.904   6.258  11.341  1.00  0.00     0.012 A 
ATOM      3  C   UNL     1       5.913   5.986   9.986  1.00  0.00     0.012 A 
ATOM      4  C   UNL     1       7.862   7.639  11.125  1.00  0.00     0.047 A 
ATOM      5  C   UNL     1       5.875   7.368   9.773  1.00  0.00     0.047 A 
ATOM      6  C   UNL     1       6.851   8.197  10.339  1.00  0.00     0.115 A 
ENDROOT
BRANCH   1   7
ATOM      7  C   UNL     1       7.022   3.956  11.033  1.00  0.00     0.010 C 
ATOM      8  C   UNL     1       7.211   3.032  10.079  1.00  0.00     0.025 C 
BRANCH   8   9
ATOM      9  C   UNL     1       7.298   1.595  10.384  1.00  0.00     0.064 C 
ATOM     10  O   UNL     1       6.623   0.749   9.740  1.00  0.00    -0.545 OA
ATOM     11  O   UNL     1       8.141   1.163  11.400  1.00  0.00    -0.545 OA
ENDBRANCH   8   9
ENDBRANCH   1   7
BRANCH   6  12
ATOM     12  O   UNL     1       6.822   9.574  10.131  1.00  0.00    -0.508 OA
ATOM     13  H   UNL     1       6.024  10.028   9.701  1.00  0.00     0.293 HD
ENDBRANCH   6  12
TORSDOF 3
ENDMDL
MODEL 2
REMARK VINA RESULT:    -5.127     12.872     14.603
REMARK INTER + INTRA:          -6.011
REMARK INTER:                  -5.875
REMARK INTRA:                  -0.136
REMARK UNBOUND:                -0.134
REMARK SMILES O=C([O-])C=Cc1ccc(O)cc1
REMARK SMILES IDX 6 1 7 2 12 3 8 4 11 5 9 6 5 7 4 8 2 9 1 10 3 11 10 12
REMARK H PARENT 10 13
REMARK Flexibility Score: inf
ROOT
ATOM      1  C   UNL     1      10.533  -4.894  19.668  1.00  0.00    -0.025 A 
ATOM      2  C   UNL     1      10.715  -6.211  20.124  1.00  0.00     0.012 A 
ATOM      3  C   UNL     1       9.264  -4.511  19.187  1.00  0.00     0.012 A 
ATOM      4  C   UNL     1       9.651  -7.118  20.125  1.00  0.00     0.047 A 
ATOM      5  C   UNL     1       8.203  -5.421  19.189  1.00  0.00     0.047 A 
ATOM      6  C   UNL     1       8.393  -6.726  19.661  1.00  0.00     0.115 A 
ENDROOT
BRANCH   1   7
ATOM      7  C   UNL     1      11.696  -3.973  19.679  1.00  0.00     0.010 C 
ATOM      8  C   UNL     1      12.161  -3.346  18.588  1.00  0.00     0.025 C 
BRANCH   8   9
ATOM      9  C   UNL     1      13.312  -2.430  18.638  1.00  0.00     0.064 C 
ATOM     10  O   UNL     1      13.153  -1.180  18.612  1.00  0.00    -0.545 OA
ATOM     11  O   UNL     1      14.596  -2.951  18.719  1.00  0.00    -0.545 OA
ENDBRANCH   8   9
ENDBRANCH   1   7
BRANCH   6  12
ATOM     12  O   UNL     1       7.341  -7.640  19.668  1.00  0.00    -0.508 OA
ATOM     13  H   UNL     1       7.065  -8.123  20.515  1.00  0.00     0.293 HD
ENDBRANCH   6  12
TORSDOF 3
ENDMDL
MODEL 3
REMARK VINA RESULT:    -4.958     12.848     14.707
REMARK INTER + INTRA:          -5.817
REMARK INTER:                  -5.669
REMARK INTRA:                  -0.148
REMARK UNBOUND:                -0.134
REMARK SMILES O=C([O-])C=Cc1ccc(O)cc1
REMARK SMILES IDX 6 1 7 2 12 3 8 4 11 5 9 6 5 7 4 8 2 9 1 10 3 11 10 12
REMARK H PARENT 10 13
REMARK Flexibility Score: inf
ROOT
ATOM      1  C   UNL     1      10.560  -5.077  19.740  1.00  0.00    -0.025 A 
ATOM      2  C   UNL     1       9.307  -4.552  19.382  1.00  0.00     0.012 A 
ATOM      3  C   UNL     1      10.645  -6.431  20.125  1.00  0.00     0.012 A 
ATOM      4  C   UNL     1       8.168  -5.363  19.383  1.00  0.00     0.047 A 
ATOM      5  C   UNL     1       9.504  -7.238  20.125  1.00  0.00     0.047 A 
ATOM      6  C   UNL     1       8.263  -6.707  19.751  1.00  0.00     0.115 A 
ENDROOT
BRANCH   1   7
ATOM      7  C   UNL     1      11.737  -4.172  19.732  1.00  0.00     0.010 C 
ATOM      8  C   UNL     1      11.851  -3.104  18.930  1.00  0.00     0.025 C 
BRANCH   8   9
ATOM      9  C   UNL     1      13.029  -2.222  18.958  1.00  0.00     0.064 C 
ATOM     10  O   UNL     1      12.907  -0.970  19.028  1.00  0.00    -0.545 OA
ATOM     11  O   UNL     1      14.300  -2.780  18.906  1.00  0.00    -0.545 OA
ENDBRANCH   8   9
ENDBRANCH   1   7
BRANCH   6  12
ATOM     12  O   UNL     1       7.120  -7.504  19.748  1.00  0.00    -0.508 OA
ATOM     13  H   UNL     1       6.930  -8.161  20.496  1.00  0.00     0.293 HD
ENDBRANCH   6  12
TORSDOF 3
ENDMDL
MODEL 4
REMARK VINA RESULT:    -4.957     11.724     14.136
REMARK INTER + INTRA:          -5.816
REMARK INTER:                  -5.675
REMARK INTRA:                  -0.141
REMARK UNBOUND:                -0.134
REMARK SMILES O=C([O-])C=Cc1ccc(O)cc1
REMARK SMILES IDX 6 1 7 2 12 3 8 4 11 5 9 6 5 7 4 8 2 9 1 10 3 11 10 12
REMARK H PARENT 10 13
REMARK Flexibility Score: inf
ROOT
ATOM      1  C   UNL     1      10.016  -4.160  19.384  1.00  0.00    -0.025 A 
ATOM      2  C   UNL     1      10.731  -5.227  19.953  1.00  0.00     0.012 A 
ATOM      3  C   UNL     1       8.707  -4.392  18.914  1.00  0.00     0.012 A 
ATOM      4  C   UNL     1      10.145  -6.491  20.075  1.00  0.00     0.047 A 
ATOM      5  C   UNL     1       8.126  -5.658  19.038  1.00  0.00     0.047 A 
ATOM      6  C   UNL     1       8.843  -6.710  19.621  1.00  0.00     0.115 A 
ENDROOT
BRANCH   1   7
ATOM      7  C   UNL     1      10.684  -2.840  19.268  1.00  0.00     0.010 C 
ATOM      8  C   UNL     1      11.855  -2.649  18.642  1.00  0.00     0.025 C 
BRANCH   8   9
ATOM      9  C   UNL     1      12.483  -1.322  18.538  1.00  0.00     0.064 C 
ATOM     10  O   UNL     1      13.655  -1.119  18.955  1.00  0.00    -0.545 OA
ATOM     11  O   UNL     1      11.773  -0.274  17.968  1.00  0.00    -0.545 OA
ENDBRANCH   8   9
ENDBRANCH   1   7
BRANCH   6  12
ATOM     12  O   UNL     1       8.272  -7.974  19.749  1.00  0.00    -0.508 OA
ATOM     13  H   UNL     1       8.810  -8.817  19.585  1.00  0.00     0.293 HD
ENDBRANCH   6  12
TORSDOF 3
ENDMDL
MODEL 5
REMARK VINA RESULT:    -4.899     10.526     13.790
REMARK INTER + INTRA:          -5.749
REMARK INTER:                  -5.597
REMARK INTRA:                  -0.152
REMARK UNBOUND:                -0.134
REMARK SMILES O=C([O-])C=Cc1ccc(O)cc1
REMARK SMILES IDX 6 1 7 2 12 3 8 4 11 5 9 6 5 7 4 8 2 9 1 10 3 11 10 12
REMARK H PARENT 10 13
REMARK Flexibility Score: inf
ROOT
ATOM      1  C   UNL     1       9.573  -4.146  19.192  1.00  0.00    -0.025 A 
ATOM      2  C   UNL     1       8.371  -4.819  18.916  1.00  0.00     0.012 A 
ATOM      3  C   UNL     1      10.638  -4.867  19.771  1.00  0.00     0.012 A 
ATOM      4  C   UNL     1       8.240  -6.185  19.187  1.00  0.00     0.047 A 
ATOM      5  C   UNL     1      10.502  -6.233  20.040  1.00  0.00     0.047 A 
ATOM      6  C   UNL     1       9.304  -6.896  19.746  1.00  0.00     0.115 A 
ENDROOT
BRANCH   1   7
ATOM      7  C   UNL     1       9.658  -2.695  18.896  1.00  0.00     0.010 C 
ATOM      8  C   UNL     1       8.719  -2.015  18.221  1.00  0.00     0.025 C 
BRANCH   8   9
ATOM      9  C   UNL     1       8.833  -0.572  17.955  1.00  0.00     0.064 C 
ATOM     10  O   UNL     1       7.810   0.156  17.852  1.00  0.00    -0.545 OA
ATOM     11  O   UNL     1      10.092  -0.001  17.817  1.00  0.00    -0.545 OA
ENDBRANCH   8   9
ENDBRANCH   1   7
BRANCH   6  12
ATOM     12  O   UNL     1       9.161  -8.256  20.010  1.00  0.00    -0.508 OA
ATOM     13  H   UNL     1       9.542  -8.675  20.850  1.00  0.00     0.293 HD
ENDBRANCH   6  12
TORSDOF 3
ENDMDL
MODEL 6
REMARK VINA RESULT:    -4.681     10.113     12.033
REMARK INTER + INTRA:          -5.500
REMARK INTER:                  -5.366
REMARK INTRA:                  -0.134
REMARK UNBOUND:                -0.134
REMARK SMILES O=C([O-])C=Cc1ccc(O)cc1
REMARK SMILES IDX 6 1 7 2 12 3 8 4 11 5 9 6 5 7 4 8 2 9 1 10 3 11 10 12
REMARK H PARENT 10 13
REMARK Flexibility Score: inf
ROOT
ATOM      1  C   UNL     1       9.513  -2.852  18.365  1.00  0.00    -0.025 A 
ATOM      2  C   UNL     1       8.719  -1.700  18.491  1.00  0.00     0.012 A 
ATOM      3  C   UNL     1      10.865  -2.709  17.990  1.00  0.00     0.012 A 
ATOM      4  C   UNL     1       9.265  -0.431  18.271  1.00  0.00     0.047 A 
ATOM      5  C   UNL     1      11.406  -1.438  17.771  1.00  0.00     0.047 A 
ATOM      6  C   UNL     1      10.609  -0.296  17.914  1.00  0.00     0.115 A 
ENDROOT
BRANCH   1   7
ATOM      7  C   UNL     1       8.884  -4.176  18.599  1.00  0.00     0.010 C 
ATOM      8  C   UNL     1       9.356  -5.083  19.467  1.00  0.00     0.025 C 
BRANCH   8   9
ATOM      9  C   UNL     1       8.699  -6.382  19.681  1.00  0.00     0.064 C 
ATOM     10  O   UNL     1       9.370  -7.441  19.807  1.00  0.00    -0.545 OA
ATOM     11  O   UNL     1       7.313  -6.443  19.746  1.00  0.00    -0.545 OA
ENDBRANCH   8   9
ENDBRANCH   1   7
BRANCH   6  12
ATOM     12  O   UNL     1      11.140   0.973  17.699  1.00  0.00    -0.508 OA
ATOM     13  H   UNL     1      11.658   1.195  16.856  1.00  0.00     0.293 HD
ENDBRANCH   6  12
TORSDOF 3
ENDMDL
MODEL 7
REMARK VINA RESULT:    -4.449      9.798     11.872
REMARK INTER + INTRA:          -5.233
REMARK INTER:                  -5.082
REMARK INTRA:                  -0.151
REMARK UNBOUND:                -0.134
REMARK SMILES O=C([O-])C=Cc1ccc(O)cc1
REMARK SMILES IDX 6 1 7 2 12 3 8 4 11 5 9 6 5 7 4 8 2 9 1 10 3 11 10 12
REMARK H PARENT 10 13
REMARK Flexibility Score: inf
ROOT
ATOM      1  C   UNL     1       9.106  -2.785  18.458  1.00  0.00    -0.025 A 
ATOM      2  C   UNL     1       7.712  -2.664  18.338  1.00  0.00     0.012 A 
ATOM      3  C   UNL     1       9.912  -1.659  18.189  1.00  0.00     0.012 A 
ATOM      4  C   UNL     1       7.131  -1.443  17.982  1.00  0.00     0.047 A 
ATOM      5  C   UNL     1       9.327  -0.440  17.833  1.00  0.00     0.047 A 
ATOM      6  C   UNL     1       7.934  -0.328  17.732  1.00  0.00     0.115 A 
ENDROOT
BRANCH   1   7
ATOM      7  C   UNL     1       9.675  -4.105  18.828  1.00  0.00     0.010 C 
ATOM      8  C   UNL     1       8.959  -5.098  19.376  1.00  0.00     0.025 C 
BRANCH   8   9
ATOM      9  C   UNL     1       9.555  -6.399  19.721  1.00  0.00     0.064 C 
ATOM     10  O   UNL     1      10.746  -6.485  20.125  1.00  0.00    -0.545 OA
ATOM     11  O   UNL     1       8.792  -7.553  19.600  1.00  0.00    -0.545 OA
ENDBRANCH   8   9
ENDBRANCH   1   7
BRANCH   6  12
ATOM     12  O   UNL     1       7.342   0.882  17.379  1.00  0.00    -0.508 OA
ATOM     13  H   UNL     1       6.335   0.982  17.318  1.00  0.00     0.293 HD
ENDBRANCH   6  12
TORSDOF 3
ENDMDL
MODEL 8
REMARK VINA RESULT:    -4.286      1.047      5.907
REMARK INTER + INTRA:          -5.047
REMARK INTER:                  -4.914
REMARK INTRA:                  -0.133
REMARK UNBOUND:                -0.134
REMARK SMILES O=C([O-])C=Cc1ccc(O)cc1
REMARK SMILES IDX 6 1 7 2 12 3 8 4 11 5 9 6 5 7 4 8 2 9 1 10 3 11 10 12
REMARK H PARENT 10 13
REMARK Flexibility Score: inf
ROOT
ATOM      1  C   UNL     1       6.836   4.839  10.569  1.00  0.00    -0.025 A 
ATOM      2  C   UNL     1       6.258   3.969   9.629  1.00  0.00     0.012 A 
ATOM      3  C   UNL     1       7.745   4.314  11.511  1.00  0.00     0.012 A 
ATOM      4  C   UNL     1       6.597   2.612   9.611  1.00  0.00     0.047 A 
ATOM      5  C   UNL     1       8.081   2.957  11.490  1.00  0.00     0.047 A 
ATOM      6  C   UNL     1       7.510   2.103  10.538  1.00  0.00     0.115 A 
ENDROOT
BRANCH   1   7
ATOM      7  C   UNL     1       6.436   6.267  10.554  1.00  0.00     0.010 C 
ATOM      8  C   UNL     1       7.299   7.282  10.396  1.00  0.00     0.025 C 
BRANCH   8   9
ATOM      9  C   UNL     1       6.864   8.688  10.375  1.00  0.00     0.064 C 
ATOM     10  O   UNL     1       7.373   9.541  11.151  1.00  0.00    -0.545 OA
ATOM     11  O   UNL     1       5.875   9.083   9.484  1.00  0.00    -0.545 OA
ENDBRANCH   8   9
ENDBRANCH   1   7
BRANCH   6  12
ATOM     12  O   UNL     1       7.839   0.750  10.508  1.00  0.00    -0.508 OA
ATOM     13  H   UNL     1       7.458   0.097  11.184  1.00  0.00     0.293 HD
ENDBRANCH   6  12
TORSDOF 3
ENDMDL
MODEL 9
REMARK VINA RESULT:    -4.250     12.392     13.555
REMARK INTER + INTRA:          -5.006
REMARK INTER:                  -4.862
REMARK INTRA:                  -0.144
REMARK UNBOUND:                -0.134
REMARK SMILES O=C([O-])C=Cc1ccc(O)cc1
REMARK SMILES IDX 6 1 7 2 12 3 8 4 11 5 9 6 5 7 4 8 2 9 1 10 3 11 10 12
REMARK H PARENT 10 13
REMARK Flexibility Score: inf
ROOT
ATOM      1  C   UNL     1      10.835  -3.746  19.037  1.00  0.00    -0.025 A 
ATOM      2  C   UNL     1      11.902  -4.384  19.693  1.00  0.00     0.012 A 
ATOM      3  C   UNL     1      11.119  -2.693  18.142  1.00  0.00     0.012 A 
ATOM      4  C   UNL     1      13.223  -3.998  19.445  1.00  0.00     0.047 A 
ATOM      5  C   UNL     1      12.442  -2.311  17.898  1.00  0.00     0.047 A 
ATOM      6  C   UNL     1      13.497  -2.965  18.546  1.00  0.00     0.115 A 
ENDROOT
BRANCH   1   7
ATOM      7  C   UNL     1       9.451  -4.185  19.341  1.00  0.00     0.010 C 
ATOM      8  C   UNL     1       9.063  -5.469  19.359  1.00  0.00     0.025 C 
BRANCH   8   9
ATOM      9  C   UNL     1       7.682  -5.868  19.676  1.00  0.00     0.064 C 
ATOM     10  O   UNL     1       7.363  -7.081  19.794  1.00  0.00    -0.545 OA
ATOM     11  O   UNL     1       6.712  -4.889  19.850  1.00  0.00    -0.545 OA
ENDBRANCH   8   9
ENDBRANCH   1   7
BRANCH   6  12
ATOM     12  O   UNL     1      14.818  -2.591  18.309  1.00  0.00    -0.508 OA
ATOM     13  H   UNL     1      15.117  -2.251  17.402  1.00  0.00     0.293 HD
ENDBRANCH   6  12
TORSDOF 3
ENDMDL
