MODEL 1
REMARK VINA RESULT:    -3.105      0.000      0.000
REMARK INTER + INTRA:          -5.277
REMARK INTER:                  -5.646
REMARK INTRA:                   0.370
REMARK UNBOUND:                 0.370
REMARK SMILES CCCCCCCCCCCCCC[C@@H](C)C(=O)[O-]
REMARK SMILES IDX 9 1 10 2 11 3 12 4 13 5 14 6 15 7 16 8 17 9 18 10 19 11 8 12
REMARK SMILES IDX 7 13 6 14 5 15 4 16 3 17 2 18 1 19
REMARK H PARENT
REMARK Flexibility Score: inf
ROOT
ATOM      1  C   UNL     1      37.124  -4.833  15.069  1.00  0.00     0.000 C 
ENDROOT
BRANCH   1   2
ATOM      2  C   UNL     1      36.045  -5.926  14.965  1.00  0.00     0.000 C 
BRANCH   2   3
ATOM      3  C   UNL     1      36.444  -7.225  15.681  1.00  0.00     0.000 C 
BRANCH   3   4
ATOM      4  C   UNL     1      37.125  -8.233  14.743  1.00  0.00     0.000 C 
BRANCH   4   5
ATOM      5  C   UNL     1      36.475  -8.217  13.352  1.00  0.00     0.001 C 
BRANCH   5   6
ATOM      6  C   UNL     1      36.932  -9.381  12.452  1.00  0.00     0.009 C 
BRANCH   6   7
ATOM      7  C   UNL     1      36.549  -9.215  10.961  1.00  0.00     0.032 C 
ATOM      8  C   UNL     1      35.331 -10.080  10.616  1.00  0.00     0.014 C 
BRANCH   7   9
ATOM      9  C   UNL     1      36.253  -7.782  10.608  1.00  0.00     0.044 C 
ATOM     10  O   UNL     1      36.731  -6.840  11.294  1.00  0.00    -0.550 OA
ATOM     11  O   UNL     1      35.417  -7.492   9.538  1.00  0.00    -0.550 OA
ENDBRANCH   7   9
ENDBRANCH   6   7
ENDBRANCH   5   6
ENDBRANCH   4   5
ENDBRANCH   3   4
ENDBRANCH   2   3
ENDBRANCH   1   2
BRANCH   1  12
ATOM     12  C   UNL     1      37.076  -3.855  13.875  1.00  0.00     0.000 C 
BRANCH  12  13
ATOM     13  C   UNL     1      36.741  -2.408  14.277  1.00  0.00    -0.000 C 
BRANCH  13  14
ATOM     14  C   UNL     1      36.065  -2.314  15.653  1.00  0.00    -0.000 C 
BRANCH  14  15
ATOM     15  C   UNL     1      35.389  -0.953  15.888  1.00  0.00    -0.000 C 
BRANCH  15  16
ATOM     16  C   UNL     1      36.397   0.207  15.977  1.00  0.00    -0.000 C 
BRANCH  16  17
ATOM     17  C   UNL     1      35.815   1.526  15.425  1.00  0.00    -0.000 C 
BRANCH  17  18
ATOM     18  C   UNL     1      35.826   1.609  13.890  1.00  0.00    -0.003 C 
ATOM     19  C   UNL     1      34.899   0.591  13.229  1.00  0.00     0.004 C 
ENDBRANCH  17  18
ENDBRANCH  16  17
ENDBRANCH  15  16
ENDBRANCH  14  15
ENDBRANCH  13  14
ENDBRANCH  12  13
ENDBRANCH   1  12
TORSDOF 14
ENDMDL
MODEL 2
REMARK VINA RESULT:    -2.107     14.521     17.765
REMARK INTER + INTRA:          -3.463
REMARK INTER:                  -2.996
REMARK INTRA:                  -0.466
REMARK UNBOUND:                 0.370
REMARK SMILES CCCCCCCCCCCCCC[C@@H](C)C(=O)[O-]
REMARK SMILES IDX 9 1 10 2 11 3 12 4 13 5 14 6 15 7 16 8 17 9 18 10 19 11 8 12
REMARK SMILES IDX 7 13 6 14 5 15 4 16 3 17 2 18 1 19
REMARK H PARENT
REMARK Flexibility Score: inf
ROOT
ATOM      1  C   UNL     1      30.577   0.700  -1.140  1.00  0.00     0.000 C 
ENDROOT
BRANCH   1   2
ATOM      2  C   UNL     1      30.778   1.109   0.330  1.00  0.00     0.000 C 
BRANCH   2   3
ATOM      3  C   UNL     1      29.475   1.068   1.144  1.00  0.00     0.000 C 
BRANCH   3   4
ATOM      4  C   UNL     1      29.400   2.182   2.199  1.00  0.00     0.000 C 
BRANCH   4   5
ATOM      5  C   UNL     1      30.803   2.689   2.565  1.00  0.00     0.001 C 
BRANCH   5   6
ATOM      6  C   UNL     1      30.816   3.601   3.807  1.00  0.00     0.009 C 
BRANCH   6   7
ATOM      7  C   UNL     1      31.112   5.088   3.494  1.00  0.00     0.032 C 
ATOM      8  C   UNL     1      30.490   5.492   2.153  1.00  0.00     0.014 C 
BRANCH   7   9
ATOM      9  C   UNL     1      30.603   6.007   4.572  1.00  0.00     0.044 C 
ATOM     10  O   UNL     1      29.915   7.020   4.280  1.00  0.00    -0.550 OA
ATOM     11  O   UNL     1      30.921   5.756   5.901  1.00  0.00    -0.550 OA
ENDBRANCH   7   9
ENDBRANCH   6   7
ENDBRANCH   5   6
ENDBRANCH   4   5
ENDBRANCH   3   4
ENDBRANCH   2   3
ENDBRANCH   1   2
BRANCH   1  12
ATOM     12  C   UNL     1      31.346  -0.591  -1.493  1.00  0.00     0.000 C 
BRANCH  12  13
ATOM     13  C   UNL     1      31.974  -0.568  -2.898  1.00  0.00    -0.000 C 
BRANCH  13  14
ATOM     14  C   UNL     1      33.511  -0.578  -2.863  1.00  0.00    -0.000 C 
BRANCH  14  15
ATOM     15  C   UNL     1      34.127  -1.215  -4.120  1.00  0.00    -0.000 C 
BRANCH  15  16
ATOM     16  C   UNL     1      35.594  -1.634  -3.919  1.00  0.00    -0.000 C 
BRANCH  16  17
ATOM     17  C   UNL     1      35.799  -3.150  -4.125  1.00  0.00    -0.000 C 
BRANCH  17  18
ATOM     18  C   UNL     1      36.854  -3.760  -3.187  1.00  0.00    -0.003 C 
ATOM     19  C   UNL     1      36.738  -5.279  -3.063  1.00  0.00     0.004 C 
ENDBRANCH  17  18
ENDBRANCH  16  17
ENDBRANCH  15  16
ENDBRANCH  14  15
ENDBRANCH  13  14
ENDBRANCH  12  13
ENDBRANCH   1  12
TORSDOF 14
ENDMDL
MODEL 3
REMARK VINA RESULT:    -2.083     14.810     17.890
REMARK INTER + INTRA:          -3.418
REMARK INTER:                  -2.441
REMARK INTRA:                  -0.977
REMARK UNBOUND:                 0.370
REMARK SMILES CCCCCCCCCCCCCC[C@@H](C)C(=O)[O-]
REMARK SMILES IDX 9 1 10 2 11 3 12 4 13 5 14 6 15 7 16 8 17 9 18 10 19 11 8 12
REMARK SMILES IDX 7 13 6 14 5 15 4 16 3 17 2 18 1 19
REMARK H PARENT
REMARK Flexibility Score: inf
ROOT
ATOM      1  C   UNL     1      30.750   0.478  -1.131  1.00  0.00     0.000 C 
ENDROOT
BRANCH   1   2
ATOM      2  C   UNL     1      30.883   0.835   0.360  1.00  0.00     0.000 C 
BRANCH   2   3
ATOM      3  C   UNL     1      29.528   1.119   1.027  1.00  0.00     0.000 C 
BRANCH   3   4
ATOM      4  C   UNL     1      29.674   1.791   2.401  1.00  0.00     0.000 C 
BRANCH   4   5
ATOM      5  C   UNL     1      30.064   3.269   2.253  1.00  0.00     0.001 C 
BRANCH   5   6
ATOM      6  C   UNL     1      30.886   3.804   3.442  1.00  0.00     0.009 C 
BRANCH   6   7
ATOM      7  C   UNL     1      31.081   5.340   3.433  1.00  0.00     0.032 C 
ATOM      8  C   UNL     1      30.200   5.991   2.361  1.00  0.00     0.014 C 
BRANCH   7   9
ATOM      9  C   UNL     1      30.771   5.959   4.770  1.00  0.00     0.044 C 
ATOM     10  O   UNL     1      31.121   5.389   5.837  1.00  0.00    -0.550 OA
ATOM     11  O   UNL     1      30.061   7.151   4.832  1.00  0.00    -0.550 OA
ENDBRANCH   7   9
ENDBRANCH   6   7
ENDBRANCH   5   6
ENDBRANCH   4   5
ENDBRANCH   3   4
ENDBRANCH   2   3
ENDBRANCH   1   2
BRANCH   1  12
ATOM     12  C   UNL     1      31.474  -0.840  -1.480  1.00  0.00     0.000 C 
BRANCH  12  13
ATOM     13  C   UNL     1      31.559  -1.115  -2.991  1.00  0.00    -0.000 C 
BRANCH  13  14
ATOM     14  C   UNL     1      31.650   0.172  -3.827  1.00  0.00    -0.000 C 
BRANCH  14  15
ATOM     15  C   UNL     1      33.102   0.582  -4.125  1.00  0.00    -0.000 C 
BRANCH  15  16
ATOM     16  C   UNL     1      33.330   2.099  -4.003  1.00  0.00    -0.000 C 
BRANCH  16  17
ATOM     17  C   UNL     1      32.005   2.892  -4.046  1.00  0.00    -0.000 C 
BRANCH  17  18
ATOM     18  C   UNL     1      32.100   4.283  -3.399  1.00  0.00    -0.003 C 
ATOM     19  C   UNL     1      33.373   5.036  -3.782  1.00  0.00     0.004 C 
ENDBRANCH  17  18
ENDBRANCH  16  17
ENDBRANCH  15  16
ENDBRANCH  14  15
ENDBRANCH  13  14
ENDBRANCH  12  13
ENDBRANCH   1  12
TORSDOF 14
ENDMDL
MODEL 4
REMARK VINA RESULT:    -2.050     14.866     17.834
REMARK INTER + INTRA:          -3.358
REMARK INTER:                  -2.720
REMARK INTRA:                  -0.639
REMARK UNBOUND:                 0.370
REMARK SMILES CCCCCCCCCCCCCC[C@@H](C)C(=O)[O-]
REMARK SMILES IDX 9 1 10 2 11 3 12 4 13 5 14 6 15 7 16 8 17 9 18 10 19 11 8 12
REMARK SMILES IDX 7 13 6 14 5 15 4 16 3 17 2 18 1 19
REMARK H PARENT
REMARK Flexibility Score: inf
ROOT
ATOM      1  C   UNL     1      30.812   1.164  -0.126  1.00  0.00     0.000 C 
ENDROOT
BRANCH   1   2
ATOM      2  C   UNL     1      29.656   0.808   0.826  1.00  0.00     0.000 C 
BRANCH   2   3
ATOM      3  C   UNL     1      29.717   1.583   2.152  1.00  0.00     0.000 C 
BRANCH   3   4
ATOM      4  C   UNL     1      30.776   2.695   2.139  1.00  0.00     0.000 C 
BRANCH   4   5
ATOM      5  C   UNL     1      30.775   3.472   3.464  1.00  0.00     0.001 C 
BRANCH   5   6
ATOM      6  C   UNL     1      30.389   4.955   3.300  1.00  0.00     0.009 C 
BRANCH   6   7
ATOM      7  C   UNL     1      31.228   5.925   4.168  1.00  0.00     0.032 C 
ATOM      8  C   UNL     1      32.058   6.861   3.282  1.00  0.00     0.014 C 
BRANCH   7   9
ATOM      9  C   UNL     1      30.368   6.749   5.089  1.00  0.00     0.044 C 
ATOM     10  O   UNL     1      29.872   7.839   4.699  1.00  0.00    -0.550 OA
ATOM     11  O   UNL     1      30.147   6.324   6.392  1.00  0.00    -0.550 OA
ENDBRANCH   7   9
ENDBRANCH   6   7
ENDBRANCH   5   6
ENDBRANCH   4   5
ENDBRANCH   3   4
ENDBRANCH   2   3
ENDBRANCH   1   2
BRANCH   1  12
ATOM     12  C   UNL     1      30.684   0.448  -1.487  1.00  0.00     0.000 C 
BRANCH  12  13
ATOM     13  C   UNL     1      31.412  -0.907  -1.541  1.00  0.00    -0.000 C 
BRANCH  13  14
ATOM     14  C   UNL     1      31.275  -1.603  -2.904  1.00  0.00    -0.000 C 
BRANCH  14  15
ATOM     15  C   UNL     1      32.167  -0.971  -3.985  1.00  0.00    -0.000 C 
BRANCH  15  16
ATOM     16  C   UNL     1      33.220  -0.012  -3.402  1.00  0.00    -0.000 C 
BRANCH  16  17
ATOM     17  C   UNL     1      33.227   1.353  -4.125  1.00  0.00    -0.000 C 
BRANCH  17  18
ATOM     18  C   UNL     1      31.862   2.060  -4.115  1.00  0.00    -0.003 C 
ATOM     19  C   UNL     1      31.915   3.456  -3.498  1.00  0.00     0.004 C 
ENDBRANCH  17  18
ENDBRANCH  16  17
ENDBRANCH  15  16
ENDBRANCH  14  15
ENDBRANCH  13  14
ENDBRANCH  12  13
ENDBRANCH   1  12
TORSDOF 14
ENDMDL
MODEL 5
REMARK VINA RESULT:    -1.986     15.447     17.660
REMARK INTER + INTRA:          -3.243
REMARK INTER:                  -2.381
REMARK INTRA:                  -0.862
REMARK UNBOUND:                 0.370
REMARK SMILES CCCCCCCCCCCCCC[C@@H](C)C(=O)[O-]
REMARK SMILES IDX 9 1 10 2 11 3 12 4 13 5 14 6 15 7 16 8 17 9 18 10 19 11 8 12
REMARK SMILES IDX 7 13 6 14 5 15 4 16 3 17 2 18 1 19
REMARK H PARENT
REMARK Flexibility Score: inf
ROOT
ATOM      1  C   UNL     1      31.466  -0.191  -0.294  1.00  0.00     0.000 C 
ENDROOT
BRANCH   1   2
ATOM      2  C   UNL     1      31.389  -0.713  -1.739  1.00  0.00     0.000 C 
BRANCH   2   3
ATOM      3  C   UNL     1      30.721   0.286  -2.698  1.00  0.00     0.000 C 
BRANCH   3   4
ATOM      4  C   UNL     1      31.403   0.332  -4.073  1.00  0.00     0.000 C 
BRANCH   4   5
ATOM      5  C   UNL     1      32.506   1.401  -4.105  1.00  0.00     0.001 C 
BRANCH   5   6
ATOM      6  C   UNL     1      31.973   2.833  -3.905  1.00  0.00     0.009 C 
BRANCH   6   7
ATOM      7  C   UNL     1      33.020   3.822  -3.336  1.00  0.00     0.032 C 
ATOM      8  C   UNL     1      34.332   3.733  -4.124  1.00  0.00     0.014 C 
BRANCH   7   9
ATOM      9  C   UNL     1      32.526   5.244  -3.356  1.00  0.00     0.044 C 
ATOM     10  O   UNL     1      33.061   6.098  -4.112  1.00  0.00    -0.550 OA
ATOM     11  O   UNL     1      31.495   5.629  -2.511  1.00  0.00    -0.550 OA
ENDBRANCH   7   9
ENDBRANCH   6   7
ENDBRANCH   5   6
ENDBRANCH   4   5
ENDBRANCH   3   4
ENDBRANCH   2   3
ENDBRANCH   1   2
BRANCH   1  12
ATOM     12  C   UNL     1      30.390   0.878  -0.005  1.00  0.00     0.000 C 
BRANCH  12  13
ATOM     13  C   UNL     1      29.729   0.729   1.376  1.00  0.00    -0.000 C 
BRANCH  13  14
ATOM     14  C   UNL     1      29.444   2.081   2.049  1.00  0.00    -0.000 C 
BRANCH  14  15
ATOM     15  C   UNL     1      30.690   2.979   2.126  1.00  0.00    -0.000 C 
BRANCH  15  16
ATOM     16  C   UNL     1      30.679   3.912   3.349  1.00  0.00    -0.000 C 
BRANCH  16  17
ATOM     17  C   UNL     1      30.525   5.395   2.947  1.00  0.00    -0.000 C 
BRANCH  17  18
ATOM     18  C   UNL     1      31.218   6.369   3.916  1.00  0.00    -0.003 C 
ATOM     19  C   UNL     1      30.244   7.055   4.872  1.00  0.00     0.004 C 
ENDBRANCH  17  18
ENDBRANCH  16  17
ENDBRANCH  15  16
ENDBRANCH  14  15
ENDBRANCH  13  14
ENDBRANCH  12  13
ENDBRANCH   1  12
TORSDOF 14
ENDMDL
MODEL 6
REMARK VINA RESULT:    -1.964      1.398      2.472
REMARK INTER + INTRA:          -3.201
REMARK INTER:                  -2.488
REMARK INTRA:                  -0.713
REMARK UNBOUND:                 0.370
REMARK SMILES CCCCCCCCCCCCCC[C@@H](C)C(=O)[O-]
REMARK SMILES IDX 9 1 10 2 11 3 12 4 13 5 14 6 15 7 16 8 17 9 18 10 19 11 8 12
REMARK SMILES IDX 7 13 6 14 5 15 4 16 3 17 2 18 1 19
REMARK H PARENT
REMARK Flexibility Score: inf
ROOT
ATOM      1  C   UNL     1      34.644  -7.167  14.655  1.00  0.00     0.000 C 
ENDROOT
BRANCH   1   2
ATOM      2  C   UNL     1      34.691  -8.624  15.148  1.00  0.00     0.000 C 
BRANCH   2   3
ATOM      3  C   UNL     1      36.088  -9.043  15.636  1.00  0.00     0.000 C 
BRANCH   3   4
ATOM      4  C   UNL     1      36.729 -10.116  14.743  1.00  0.00     0.000 C 
BRANCH   4   5
ATOM      5  C   UNL     1      37.124  -9.532  13.378  1.00  0.00     0.001 C 
BRANCH   5   6
ATOM      6  C   UNL     1      36.318 -10.125  12.206  1.00  0.00     0.009 C 
BRANCH   6   7
ATOM      7  C   UNL     1      36.289  -9.229  10.943  1.00  0.00     0.032 C 
ATOM      8  C   UNL     1      36.479 -10.073   9.678  1.00  0.00     0.014 C 
BRANCH   7   9
ATOM      9  C   UNL     1      35.006  -8.450  10.830  1.00  0.00     0.044 C 
ATOM     10  O   UNL     1      33.968  -8.833  11.432  1.00  0.00    -0.550 OA
ATOM     11  O   UNL     1      34.953  -7.319  10.027  1.00  0.00    -0.550 OA
ENDBRANCH   7   9
ENDBRANCH   6   7
ENDBRANCH   5   6
ENDBRANCH   4   5
ENDBRANCH   3   4
ENDBRANCH   2   3
ENDBRANCH   1   2
BRANCH   1  12
ATOM     12  C   UNL     1      35.180  -6.179  15.713  1.00  0.00     0.000 C 
BRANCH  12  13
ATOM     13  C   UNL     1      36.691  -5.913  15.598  1.00  0.00    -0.000 C 
BRANCH  13  14
ATOM     14  C   UNL     1      37.014  -4.663  14.764  1.00  0.00    -0.000 C 
BRANCH  14  15
ATOM     15  C   UNL     1      37.067  -3.382  15.613  1.00  0.00    -0.000 C 
BRANCH  15  16
ATOM     16  C   UNL     1      36.609  -2.134  14.838  1.00  0.00    -0.000 C 
BRANCH  16  17
ATOM     17  C   UNL     1      36.693  -0.854  15.697  1.00  0.00    -0.000 C 
BRANCH  17  18
ATOM     18  C   UNL     1      36.314   0.426  14.932  1.00  0.00    -0.003 C 
ATOM     19  C   UNL     1      36.375   1.682  15.799  1.00  0.00     0.004 C 
ENDBRANCH  17  18
ENDBRANCH  16  17
ENDBRANCH  15  16
ENDBRANCH  14  15
ENDBRANCH  13  14
ENDBRANCH  12  13
ENDBRANCH   1  12
TORSDOF 14
ENDMDL
MODEL 7
REMARK VINA RESULT:    -1.755     14.820     16.756
REMARK INTER + INTRA:          -2.821
REMARK INTER:                  -1.883
REMARK INTRA:                  -0.938
REMARK UNBOUND:                 0.370
REMARK SMILES CCCCCCCCCCCCCC[C@@H](C)C(=O)[O-]
REMARK SMILES IDX 9 1 10 2 11 3 12 4 13 5 14 6 15 7 16 8 17 9 18 10 19 11 8 12
REMARK SMILES IDX 7 13 6 14 5 15 4 16 3 17 2 18 1 19
REMARK H PARENT
REMARK Flexibility Score: inf
ROOT
ATOM      1  C   UNL     1      30.712   1.416   0.269  1.00  0.00     0.000 C 
ENDROOT
BRANCH   1   2
ATOM      2  C   UNL     1      30.567   0.316  -0.798  1.00  0.00     0.000 C 
BRANCH   2   3
ATOM      3  C   UNL     1      31.892  -0.405  -1.093  1.00  0.00     0.000 C 
BRANCH   3   4
ATOM      4  C   UNL     1      31.867  -1.165  -2.428  1.00  0.00     0.000 C 
BRANCH   4   5
ATOM      5  C   UNL     1      31.881  -0.192  -3.616  1.00  0.00     0.001 C 
BRANCH   5   6
ATOM      6  C   UNL     1      32.817   1.014  -3.405  1.00  0.00     0.009 C 
BRANCH   6   7
ATOM      7  C   UNL     1      32.351   2.306  -4.120  1.00  0.00     0.032 C 
ATOM      8  C   UNL     1      30.886   2.611  -3.786  1.00  0.00     0.014 C 
BRANCH   7   9
ATOM      9  C   UNL     1      33.199   3.494  -3.752  1.00  0.00     0.044 C 
ATOM     10  O   UNL     1      34.422   3.528  -4.053  1.00  0.00    -0.550 OA
ATOM     11  O   UNL     1      32.640   4.550  -3.044  1.00  0.00    -0.550 OA
ENDBRANCH   7   9
ENDBRANCH   6   7
ENDBRANCH   5   6
ENDBRANCH   4   5
ENDBRANCH   3   4
ENDBRANCH   2   3
ENDBRANCH   1   2
BRANCH   1  12
ATOM     12  C   UNL     1      29.595   1.345   1.331  1.00  0.00     0.000 C 
BRANCH  12  13
ATOM     13  C   UNL     1      30.016   1.894   2.705  1.00  0.00    -0.000 C 
BRANCH  13  14
ATOM     14  C   UNL     1      31.006   3.065   2.601  1.00  0.00    -0.000 C 
BRANCH  14  15
ATOM     15  C   UNL     1      30.804   4.111   3.710  1.00  0.00    -0.000 C 
BRANCH  15  16
ATOM     16  C   UNL     1      30.336   5.473   3.167  1.00  0.00    -0.000 C 
BRANCH  16  17
ATOM     17  C   UNL     1      30.698   6.634   4.118  1.00  0.00    -0.000 C 
BRANCH  17  18
ATOM     18  C   UNL     1      31.146   6.168   5.514  1.00  0.00    -0.003 C 
ATOM     19  C   UNL     1      29.995   6.080   6.514  1.00  0.00     0.004 C 
ENDBRANCH  17  18
ENDBRANCH  16  17
ENDBRANCH  15  16
ENDBRANCH  14  15
ENDBRANCH  13  14
ENDBRANCH  12  13
ENDBRANCH   1  12
TORSDOF 14
ENDMDL
MODEL 8
REMARK VINA RESULT:    -1.400     14.586     15.821
REMARK INTER + INTRA:          -2.176
REMARK INTER:                  -1.521
REMARK INTRA:                  -0.655
REMARK UNBOUND:                 0.370
REMARK SMILES CCCCCCCCCCCCCC[C@@H](C)C(=O)[O-]
REMARK SMILES IDX 9 1 10 2 11 3 12 4 13 5 14 6 15 7 16 8 17 9 18 10 19 11 8 12
REMARK SMILES IDX 7 13 6 14 5 15 4 16 3 17 2 18 1 19
REMARK H PARENT
REMARK Flexibility Score: inf
ROOT
ATOM      1  C   UNL     1      30.944   2.636   2.446  1.00  0.00     0.000 C 
ENDROOT
BRANCH   1   2
ATOM      2  C   UNL     1      29.911   1.502   2.318  1.00  0.00     0.000 C 
BRANCH   2   3
ATOM      3  C   UNL     1      29.612   1.132   0.857  1.00  0.00     0.000 C 
BRANCH   3   4
ATOM      4  C   UNL     1      30.874   0.737   0.076  1.00  0.00     0.000 C 
BRANCH   4   5
ATOM      5  C   UNL     1      30.545   0.452  -1.397  1.00  0.00     0.001 C 
BRANCH   5   6
ATOM      6  C   UNL     1      31.323  -0.746  -1.974  1.00  0.00     0.009 C 
BRANCH   6   7
ATOM      7  C   UNL     1      31.580  -0.656  -3.498  1.00  0.00     0.032 C 
ATOM      8  C   UNL     1      30.731   0.456  -4.125  1.00  0.00     0.014 C 
BRANCH   7   9
ATOM      9  C   UNL     1      33.031  -0.408  -3.815  1.00  0.00     0.044 C 
ATOM     10  O   UNL     1      33.451   0.760  -4.026  1.00  0.00    -0.550 OA
ATOM     11  O   UNL     1      33.910  -1.479  -3.910  1.00  0.00    -0.550 OA
ENDBRANCH   7   9
ENDBRANCH   6   7
ENDBRANCH   5   6
ENDBRANCH   4   5
ENDBRANCH   3   4
ENDBRANCH   2   3
ENDBRANCH   1   2
BRANCH   1  12
ATOM     12  C   UNL     1      30.678   3.528   3.678  1.00  0.00     0.000 C 
BRANCH  12  13
ATOM     13  C   UNL     1      31.309   4.927   3.573  1.00  0.00    -0.000 C 
BRANCH  13  14
ATOM     14  C   UNL     1      30.320   5.991   3.071  1.00  0.00    -0.000 C 
BRANCH  14  15
ATOM     15  C   UNL     1      29.660   6.774   4.218  1.00  0.00    -0.000 C 
BRANCH  15  16
ATOM     16  C   UNL     1      30.655   7.163   5.325  1.00  0.00    -0.000 C 
BRANCH  16  17
ATOM     17  C   UNL     1      30.081   6.916   6.737  1.00  0.00    -0.000 C 
BRANCH  17  18
ATOM     18  C   UNL     1      29.774   8.209   7.511  1.00  0.00    -0.003 C 
ATOM     19  C   UNL     1      30.019   9.472   6.687  1.00  0.00     0.004 C 
ENDBRANCH  17  18
ENDBRANCH  16  17
ENDBRANCH  15  16
ENDBRANCH  14  15
ENDBRANCH  13  14
ENDBRANCH  12  13
ENDBRANCH   1  12
TORSDOF 14
ENDMDL
MODEL 9
REMARK VINA RESULT:    -1.361     14.294     17.788
REMARK INTER + INTRA:          -2.106
REMARK INTER:                  -1.419
REMARK INTRA:                  -0.687
REMARK UNBOUND:                 0.370
REMARK SMILES CCCCCCCCCCCCCC[C@@H](C)C(=O)[O-]
REMARK SMILES IDX 9 1 10 2 11 3 12 4 13 5 14 6 15 7 16 8 17 9 18 10 19 11 8 12
REMARK SMILES IDX 7 13 6 14 5 15 4 16 3 17 2 18 1 19
REMARK H PARENT
REMARK Flexibility Score: inf
ROOT
ATOM      1  C   UNL     1      31.302  -0.584  -1.820  1.00  0.00     0.000 C 
ENDROOT
BRANCH   1   2
ATOM      2  C   UNL     1      30.619   0.696  -1.307  1.00  0.00     0.000 C 
BRANCH   2   3
ATOM      3  C   UNL     1      30.765   0.880   0.212  1.00  0.00     0.000 C 
BRANCH   3   4
ATOM      4  C   UNL     1      29.412   1.040   0.922  1.00  0.00     0.000 C 
BRANCH   4   5
ATOM      5  C   UNL     1      29.590   1.674   2.310  1.00  0.00     0.001 C 
BRANCH   5   6
ATOM      6  C   UNL     1      29.999   3.159   2.253  1.00  0.00     0.009 C 
BRANCH   6   7
ATOM      7  C   UNL     1      30.750   3.655   3.514  1.00  0.00     0.032 C 
ATOM      8  C   UNL     1      32.239   3.300   3.430  1.00  0.00     0.014 C 
BRANCH   7   9
ATOM      9  C   UNL     1      30.606   5.140   3.711  1.00  0.00     0.044 C 
ATOM     10  O   UNL     1      31.043   5.694   4.754  1.00  0.00    -0.550 OA
ATOM     11  O   UNL     1      29.953   5.905   2.753  1.00  0.00    -0.550 OA
ENDBRANCH   7   9
ENDBRANCH   6   7
ENDBRANCH   5   6
ENDBRANCH   4   5
ENDBRANCH   3   4
ENDBRANCH   2   3
ENDBRANCH   1   2
BRANCH   1  12
ATOM     12  C   UNL     1      31.139  -0.758  -3.345  1.00  0.00     0.000 C 
BRANCH  12  13
ATOM     13  C   UNL     1      32.373  -1.368  -4.031  1.00  0.00    -0.000 C 
BRANCH  13  14
ATOM     14  C   UNL     1      33.629  -0.496  -3.883  1.00  0.00    -0.000 C 
BRANCH  14  15
ATOM     15  C   UNL     1      34.774  -1.223  -3.158  1.00  0.00    -0.000 C 
BRANCH  15  16
ATOM     16  C   UNL     1      35.949  -1.566  -4.091  1.00  0.00    -0.000 C 
BRANCH  16  17
ATOM     17  C   UNL     1      36.247  -3.080  -4.119  1.00  0.00    -0.000 C 
BRANCH  17  18
ATOM     18  C   UNL     1      36.854  -3.611  -2.809  1.00  0.00    -0.003 C 
ATOM     19  C   UNL     1      36.798  -5.134  -2.698  1.00  0.00     0.004 C 
ENDBRANCH  17  18
ENDBRANCH  16  17
ENDBRANCH  15  16
ENDBRANCH  14  15
ENDBRANCH  13  14
ENDBRANCH  12  13
ENDBRANCH   1  12
TORSDOF 14
ENDMDL
