MODEL 1
REMARK VINA RESULT:     4.506      0.000      0.000
REMARK INTER + INTRA:           4.956
REMARK INTER:                   4.901
REMARK INTRA:                   0.056
REMARK UNBOUND:                 0.056
REMARK SMILES C[C@H]1[C@H]2C3=CC[C@@H]4[C@]5(C)CC[C@@H](O)C(C)(C)[C@@H]5CC[C@]4(C)[C@]3(C)CC[C@@]2(C(=O)[O-])CC[C@@H]1C
REMARK SMILES IDX 26 1 30 2 25 3 3 4 31 5 24 6 4 7 2 8 32 9 22 10 5 11 1 12
REMARK SMILES IDX 33 13 23 14 20 15 6 16 7 17 19 18 21 19 8 20 18 21 17 22
REMARK SMILES IDX 10 23 9 24 14 25 11 26 12 27 15 28 16 29 27 30 28 31 29 32
REMARK SMILES IDX 13 33
REMARK H PARENT 13 34
REMARK Flexibility Score: inf
ROOT
ATOM      1  C   UNL     1      93.850 113.174 106.863  1.00  0.00     0.017 C 
ATOM      2  C   UNL     1      92.960 114.023 105.911  1.00  0.00     0.014 C 
ATOM      3  C   UNL     1      94.195 111.819 106.204  1.00  0.00     0.014 C 
ATOM      4  C   UNL     1      93.164 112.904 108.254  1.00  0.00     0.030 C 
ATOM      5  C   UNL     1      91.494 113.602 105.875  1.00  0.00     0.004 C 
ATOM      6  C   UNL     1      95.255 111.061 107.012  1.00  0.00     0.013 C 
ATOM      7  C   UNL     1      93.868 111.813 109.082  1.00  0.00    -0.063 C 
ATOM      8  C   UNL     1      91.596 112.705 108.247  1.00  0.00    -0.003 C 
ATOM      9  C   UNL     1      90.858 113.652 107.269  1.00  0.00    -0.011 C 
ATOM     10  C   UNL     1      94.845 110.748 108.506  1.00  0.00    -0.006 C 
ATOM     11  C   UNL     1      93.624 111.807 110.407  1.00  0.00    -0.027 C 
ATOM     12  C   UNL     1      91.107 111.255 108.060  1.00  0.00     0.008 C 
ATOM     13  C   UNL     1      90.762 115.087 107.820  1.00  0.00     0.008 C 
ATOM     14  C   UNL     1      94.100 109.373 108.407  1.00  0.00     0.017 C 
ATOM     15  C   UNL     1      96.119 110.650 109.507  1.00  0.00    -0.020 C 
ATOM     16  C   UNL     1      94.160 110.736 111.296  1.00  0.00     0.032 C 
ATOM     17  C   UNL     1      95.672 110.450 111.037  1.00  0.00     0.006 C 
ATOM     18  C   UNL     1      96.965 111.948 109.453  1.00  0.00     0.008 C 
ATOM     19  C   UNL     1      97.025 109.464 109.042  1.00  0.00     0.012 C 
ATOM     20  C   UNL     1      96.595 111.086 112.202  1.00  0.00    -0.025 C 
ATOM     21  C   UNL     1      98.200 111.949 110.358  1.00  0.00     0.005 C 
ATOM     22  C   UNL     1      98.095 111.206 111.731  1.00  0.00     0.003 C 
ATOM     23  C   UNL     1      96.139 112.516 112.674  1.00  0.00     0.010 C 
ATOM     24  C   UNL     1      96.453 110.092 113.405  1.00  0.00     0.012 C 
ATOM     25  C   UNL     1      99.099 111.856 112.788  1.00  0.00    -0.006 C 
ATOM     26  C   UNL     1      97.067 113.171 113.718  1.00  0.00     0.033 C 
ATOM     27  C   UNL     1      98.541 113.233 113.273  1.00  0.00     0.120 C 
ATOM     28  C   UNL     1     100.496 112.089 112.135  1.00  0.00     0.014 C 
ATOM     29  C   UNL     1      99.373 110.901 113.989  1.00  0.00     0.014 C 
ENDROOT
BRANCH   1  30
ATOM     30  C   UNL     1      95.136 113.992 107.032  1.00  0.00     0.048 C 
ATOM     31  O   UNL     1      95.501 114.362 108.181  1.00  0.00    -0.550 OA
ATOM     32  O   UNL     1      95.976 114.254 105.956  1.00  0.00    -0.550 OA
ENDBRANCH   1  30
BRANCH  27  33
ATOM     33  O   UNL     1      99.350 113.797 114.280  1.00  0.00    -0.393 OA
ATOM     34  H   UNL     1      99.500 114.754 114.064  1.00  0.00     0.210 HD
ENDBRANCH  27  33
TORSDOF 2
ENDMDL
MODEL 2
REMARK VINA RESULT:     6.122      1.512      2.413
REMARK INTER + INTRA:           6.714
REMARK INTER:                   6.584
REMARK INTRA:                   0.130
REMARK UNBOUND:                 0.056
REMARK SMILES C[C@H]1[C@H]2C3=CC[C@@H]4[C@]5(C)CC[C@@H](O)C(C)(C)[C@@H]5CC[C@]4(C)[C@]3(C)CC[C@@]2(C(=O)[O-])CC[C@@H]1C
REMARK SMILES IDX 26 1 30 2 25 3 3 4 31 5 24 6 4 7 2 8 32 9 22 10 5 11 1 12
REMARK SMILES IDX 33 13 23 14 20 15 6 16 7 17 19 18 21 19 8 20 18 21 17 22
REMARK SMILES IDX 10 23 9 24 14 25 11 26 12 27 15 28 16 29 27 30 28 31 29 32
REMARK SMILES IDX 13 33
REMARK H PARENT 13 34
REMARK Flexibility Score: inf
ROOT
ATOM      1  C   UNL     1      96.188 113.093 107.271  1.00  0.00     0.017 C 
ATOM      2  C   UNL     1      95.261 113.695 106.175  1.00  0.00     0.014 C 
ATOM      3  C   UNL     1      97.031 111.940 106.682  1.00  0.00     0.014 C 
ATOM      4  C   UNL     1      95.387 112.557 108.514  1.00  0.00     0.030 C 
ATOM      5  C   UNL     1      94.018 112.863 105.875  1.00  0.00     0.004 C 
ATOM      6  C   UNL     1      98.115 111.483 107.666  1.00  0.00     0.013 C 
ATOM      7  C   UNL     1      96.234 111.676 109.453  1.00  0.00    -0.063 C 
ATOM      8  C   UNL     1      93.976 111.905 108.225  1.00  0.00    -0.003 C 
ATOM      9  C   UNL     1      93.168 112.646 107.132  1.00  0.00    -0.011 C 
ATOM     10  C   UNL     1      97.568 110.981 109.060  1.00  0.00    -0.006 C 
ATOM     11  C   UNL     1      95.779 111.524 110.713  1.00  0.00    -0.027 C 
ATOM     12  C   UNL     1      93.984 110.388 107.950  1.00  0.00     0.008 C 
ATOM     13  C   UNL     1      92.552 113.956 107.660  1.00  0.00     0.008 C 
ATOM     14  C   UNL     1      97.298 109.455 108.826  1.00  0.00     0.017 C 
ATOM     15  C   UNL     1      98.621 111.207 110.274  1.00  0.00    -0.020 C 
ATOM     16  C   UNL     1      96.451 110.611 111.682  1.00  0.00     0.032 C 
ATOM     17  C   UNL     1      98.001 110.798 111.698  1.00  0.00     0.006 C 
ATOM     18  C   UNL     1      99.036 112.697 110.375  1.00  0.00     0.008 C 
ATOM     19  C   UNL     1      99.907 110.368 109.977  1.00  0.00     0.012 C 
ATOM     20  C   UNL     1      98.477 111.612 113.012  1.00  0.00    -0.025 C 
ATOM     21  C   UNL     1     100.040 113.011 111.489  1.00  0.00     0.005 C 
ATOM     22  C   UNL     1      99.929 112.195 112.818  1.00  0.00     0.003 C 
ATOM     23  C   UNL     1      97.539 112.815 113.397  1.00  0.00     0.010 C 
ATOM     24  C   UNL     1      98.436 110.554 114.167  1.00  0.00     0.012 C 
ATOM     25  C   UNL     1     100.496 113.051 114.040  1.00  0.00    -0.006 C 
ATOM     26  C   UNL     1      98.036 113.655 114.593  1.00  0.00     0.033 C 
ATOM     27  C   UNL     1      99.476 114.174 114.420  1.00  0.00     0.120 C 
ATOM     28  C   UNL     1     101.849 113.722 113.649  1.00  0.00     0.014 C 
ATOM     29  C   UNL     1     100.834 112.154 115.269  1.00  0.00     0.014 C 
ENDROOT
BRANCH   1  30
ATOM     30  C   UNL     1      97.120 114.244 107.670  1.00  0.00     0.048 C 
ATOM     31  O   UNL     1      96.718 115.132 108.469  1.00  0.00    -0.550 OA
ATOM     32  O   UNL     1      98.447 114.280 107.254  1.00  0.00    -0.550 OA
ENDBRANCH   1  30
BRANCH  27  33
ATOM     33  O   UNL     1      99.894 114.893 115.557  1.00  0.00    -0.393 OA
ATOM     34  H   UNL     1     100.506 114.317 116.086  1.00  0.00     0.210 HD
ENDBRANCH  27  33
TORSDOF 2
ENDMDL
MODEL 3
REMARK VINA RESULT:     6.224      2.537      3.425
REMARK INTER + INTRA:           6.825
REMARK INTER:                   5.056
REMARK INTRA:                   1.770
REMARK UNBOUND:                 0.056
REMARK SMILES C[C@H]1[C@H]2C3=CC[C@@H]4[C@]5(C)CC[C@@H](O)C(C)(C)[C@@H]5CC[C@]4(C)[C@]3(C)CC[C@@]2(C(=O)[O-])CC[C@@H]1C
REMARK SMILES IDX 26 1 30 2 25 3 3 4 31 5 24 6 4 7 2 8 32 9 22 10 5 11 1 12
REMARK SMILES IDX 33 13 23 14 20 15 6 16 7 17 19 18 21 19 8 20 18 21 17 22
REMARK SMILES IDX 10 23 9 24 14 25 11 26 12 27 15 28 16 29 27 30 28 31 29 32
REMARK SMILES IDX 13 33
REMARK H PARENT 13 34
REMARK Flexibility Score: inf
ROOT
ATOM      1  C   UNL     1      93.656 112.669 107.065  1.00  0.00     0.017 C 
ATOM      2  C   UNL     1      92.283 113.379 106.885  1.00  0.00     0.014 C 
ATOM      3  C   UNL     1      93.586 111.226 106.517  1.00  0.00     0.014 C 
ATOM      4  C   UNL     1      94.122 112.623 108.568  1.00  0.00     0.030 C 
ATOM      5  C   UNL     1      91.228 112.979 107.912  1.00  0.00     0.004 C 
ATOM      6  C   UNL     1      94.976 110.582 106.466  1.00  0.00     0.013 C 
ATOM      7  C   UNL     1      95.297 111.658 108.813  1.00  0.00    -0.063 C 
ATOM      8  C   UNL     1      92.991 112.448 109.658  1.00  0.00    -0.003 C 
ATOM      9  C   UNL     1      91.703 113.248 109.344  1.00  0.00    -0.011 C 
ATOM     10  C   UNL     1      95.718 110.504 107.859  1.00  0.00    -0.006 C 
ATOM     11  C   UNL     1      96.017 111.855 109.936  1.00  0.00    -0.027 C 
ATOM     12  C   UNL     1      92.641 110.994 110.032  1.00  0.00     0.008 C 
ATOM     13  C   UNL     1      91.874 114.752 109.635  1.00  0.00     0.008 C 
ATOM     14  C   UNL     1      95.234 109.141 108.462  1.00  0.00     0.017 C 
ATOM     15  C   UNL     1      97.335 110.539 107.721  1.00  0.00    -0.020 C 
ATOM     16  C   UNL     1      97.109 110.923 110.338  1.00  0.00     0.032 C 
ATOM     17  C   UNL     1      98.064 110.578 109.152  1.00  0.00     0.006 C 
ATOM     18  C   UNL     1      97.796 111.801 106.948  1.00  0.00     0.008 C 
ATOM     19  C   UNL     1      97.790 109.283 106.909  1.00  0.00     0.012 C 
ATOM     20  C   UNL     1      99.468 111.368 109.284  1.00  0.00    -0.025 C 
ATOM     21  C   UNL     1      99.311 111.919 106.755  1.00  0.00     0.005 C 
ATOM     22  C   UNL     1     100.232 111.393 107.905  1.00  0.00     0.003 C 
ATOM     23  C   UNL     1      99.323 112.860 109.764  1.00  0.00     0.010 C 
ATOM     24  C   UNL     1     100.270 110.568 110.367  1.00  0.00     0.012 C 
ATOM     25  C   UNL     1     101.621 112.179 107.901  1.00  0.00    -0.006 C 
ATOM     26  C   UNL     1     100.648 113.650 109.802  1.00  0.00     0.033 C 
ATOM     27  C   UNL     1     101.416 113.622 108.467  1.00  0.00     0.120 C 
ATOM     28  C   UNL     1     102.177 112.291 106.448  1.00  0.00     0.014 C 
ATOM     29  C   UNL     1     102.722 111.412 108.694  1.00  0.00     0.014 C 
ENDROOT
BRANCH   1  30
ATOM     30  C   UNL     1      94.633 113.485 106.210  1.00  0.00     0.048 C 
ATOM     31  O   UNL     1      94.344 114.665 105.875  1.00  0.00    -0.550 OA
ATOM     32  O   UNL     1      95.890 112.992 105.875  1.00  0.00    -0.550 OA
ENDBRANCH   1  30
BRANCH  27  33
ATOM     33  O   UNL     1     102.637 114.319 108.571  1.00  0.00    -0.393 OA
ATOM     34  H   UNL     1     102.549 114.999 109.289  1.00  0.00     0.210 HD
ENDBRANCH  27  33
TORSDOF 2
ENDMDL
MODEL 4
REMARK VINA RESULT:     7.440      3.652      6.081
REMARK INTER + INTRA:           8.148
REMARK INTER:                   8.161
REMARK INTRA:                  -0.013
REMARK UNBOUND:                 0.056
REMARK SMILES C[C@H]1[C@H]2C3=CC[C@@H]4[C@]5(C)CC[C@@H](O)C(C)(C)[C@@H]5CC[C@]4(C)[C@]3(C)CC[C@@]2(C(=O)[O-])CC[C@@H]1C
REMARK SMILES IDX 26 1 30 2 25 3 3 4 31 5 24 6 4 7 2 8 32 9 22 10 5 11 1 12
REMARK SMILES IDX 33 13 23 14 20 15 6 16 7 17 19 18 21 19 8 20 18 21 17 22
REMARK SMILES IDX 10 23 9 24 14 25 11 26 12 27 15 28 16 29 27 30 28 31 29 32
REMARK SMILES IDX 13 33
REMARK H PARENT 13 34
REMARK Flexibility Score: inf
ROOT
ATOM      1  C   UNL     1      93.992 111.638 109.153  1.00  0.00     0.017 C 
ATOM      2  C   UNL     1      92.717 112.511 109.334  1.00  0.00     0.014 C 
ATOM      3  C   UNL     1      95.236 112.398 109.664  1.00  0.00     0.014 C 
ATOM      4  C   UNL     1      94.230 111.218 107.655  1.00  0.00     0.030 C 
ATOM      5  C   UNL     1      92.549 113.607 108.286  1.00  0.00     0.004 C 
ATOM      6  C   UNL     1      96.465 111.483 109.715  1.00  0.00     0.013 C 
ATOM      7  C   UNL     1      95.634 110.638 107.399  1.00  0.00    -0.063 C 
ATOM      8  C   UNL     1      93.827 112.271 106.548  1.00  0.00    -0.003 C 
ATOM      9  C   UNL     1      92.515 113.030 106.867  1.00  0.00    -0.011 C 
ATOM     10  C   UNL     1      96.864 110.838 108.329  1.00  0.00    -0.006 C 
ATOM     11  C   UNL     1      95.785 109.887 106.290  1.00  0.00    -0.027 C 
ATOM     12  C   UNL     1      94.932 113.263 106.134  1.00  0.00     0.008 C 
ATOM     13  C   UNL     1      91.270 112.158 106.615  1.00  0.00     0.008 C 
ATOM     14  C   UNL     1      97.822 111.899 107.687  1.00  0.00     0.017 C 
ATOM     15  C   UNL     1      97.606 109.403 108.486  1.00  0.00    -0.020 C 
ATOM     16  C   UNL     1      97.118 109.362 105.877  1.00  0.00     0.032 C 
ATOM     17  C   UNL     1      97.895 108.712 107.065  1.00  0.00     0.006 C 
ATOM     18  C   UNL     1      96.728 108.414 109.295  1.00  0.00     0.008 C 
ATOM     19  C   UNL     1      98.941 109.618 109.271  1.00  0.00     0.012 C 
ATOM     20  C   UNL     1      97.867 107.099 106.969  1.00  0.00    -0.025 C 
ATOM     21  C   UNL     1      97.349 107.030 109.508  1.00  0.00     0.005 C 
ATOM     22  C   UNL     1      98.231 106.445 108.356  1.00  0.00     0.003 C 
ATOM     23  C   UNL     1      96.479 106.506 106.524  1.00  0.00     0.010 C 
ATOM     24  C   UNL     1      98.934 106.750 105.875  1.00  0.00     0.012 C 
ATOM     25  C   UNL     1      98.202 104.850 108.395  1.00  0.00    -0.006 C 
ATOM     26  C   UNL     1      96.414 104.964 106.520  1.00  0.00     0.033 C 
ATOM     27  C   UNL     1      96.826 104.331 107.863  1.00  0.00     0.120 C 
ATOM     28  C   UNL     1      98.392 104.340 109.856  1.00  0.00     0.014 C 
ATOM     29  C   UNL     1      99.388 104.229 107.596  1.00  0.00     0.014 C 
ENDROOT
BRANCH   1  30
ATOM     30  C   UNL     1      93.754 110.410 110.039  1.00  0.00     0.048 C 
ATOM     31  O   UNL     1      93.683 109.263 109.520  1.00  0.00    -0.550 OA
ATOM     32  O   UNL     1      93.719 110.511 111.426  1.00  0.00    -0.550 OA
ENDBRANCH   1  30
BRANCH  27  33
ATOM     33  O   UNL     1      96.793 102.924 107.790  1.00  0.00    -0.393 OA
ATOM     34  H   UNL     1      95.942 102.652 107.358  1.00  0.00     0.210 HD
ENDBRANCH  27  33
TORSDOF 2
ENDMDL
