MODEL 1
REMARK VINA RESULT:     0.000      0.000      0.000
REMARK INTER + INTRA:          -1.706
REMARK INTER:                   0.000
REMARK INTRA:                  -1.706
REMARK UNBOUND:                -1.706
REMARK SMILES OC[C@H]1O[C@@H](O[C@@]2(CO)O[C@H](CO)[C@@H](O)[C@H]2O)[C@H](O)[C@H](O)[C@H]1O
REMARK SMILES IDX 6 1 5 2 3 3 22 4 4 5 20 6 18 7 2 8 1 9 23 11 21 13 19 15
REMARK SMILES IDX 7 17 16 18 10 19 14 20 11 21 8 22 9 23 17 25 15 27 12 29
REMARK SMILES IDX 13 30
REMARK H PARENT 1 10 23 12 21 14 19 16 9 24 17 26 15 28 13 31
REMARK Flexibility Score: inf
ROOT
ATOM      1  O   UNL     1      -1.140  16.615 -48.986  1.00  0.00    -0.313 OA
ENDROOT
BRANCH   1   2
ATOM      2  C   UNL     1       0.042  16.148 -48.351  1.00  0.00     0.285 C 
ATOM      3  C   UNL     1       1.624  16.786 -46.740  1.00  0.00     0.178 C 
ATOM      4  C   UNL     1       2.640  15.823 -47.449  1.00  0.00     0.177 C 
ATOM      5  O   UNL     1       0.584  17.223 -47.607  1.00  0.00    -0.341 OA
ATOM      6  C   UNL     1       2.526  15.963 -48.977  1.00  0.00     0.179 C 
ATOM      7  C   UNL     1       1.065  15.710 -49.434  1.00  0.00     0.202 C 
BRANCH   3   8
ATOM      8  C   UNL     1       2.290  18.036 -46.135  1.00  0.00     0.191 C 
BRANCH   8   9
ATOM      9  O   UNL     1       2.832  18.856 -47.136  1.00  0.00    -0.394 OA
ATOM     10  H   UNL     1       2.189  18.848 -47.893  1.00  0.00     0.210 HD
ENDBRANCH   8   9
ENDBRANCH   3   8
BRANCH   4  11
ATOM     11  O   UNL     1       3.966  16.057 -47.046  1.00  0.00    -0.387 OA
ATOM     12  H   UNL     1       4.486  16.248 -47.870  1.00  0.00     0.211 HD
ENDBRANCH   4  11
BRANCH   6  13
ATOM     13  O   UNL     1       3.397  15.067 -49.622  1.00  0.00    -0.387 OA
ATOM     14  H   UNL     1       3.749  15.531 -50.425  1.00  0.00     0.211 HD
ENDBRANCH   6  13
BRANCH   7  15
ATOM     15  O   UNL     1       0.863  14.365 -49.794  1.00  0.00    -0.385 OA
ATOM     16  H   UNL     1      -0.111  14.231 -49.927  1.00  0.00     0.211 HD
ENDBRANCH   7  15
ENDBRANCH   1   2
BRANCH   1  17
ATOM     17  C   UNL     1      -2.233  15.697 -48.979  1.00  0.00     0.224 C 
ATOM     18  C   UNL     1      -3.498  16.326 -48.349  1.00  0.00     0.208 C 
ATOM     19  O   UNL     1      -1.917  14.495 -48.293  1.00  0.00    -0.337 OA
ATOM     20  C   UNL     1      -4.115  15.158 -47.610  1.00  0.00     0.180 C 
ATOM     21  C   UNL     1      -2.915  14.261 -47.321  1.00  0.00     0.179 C 
BRANCH  17  22
ATOM     22  C   UNL     1      -2.494  15.331 -50.453  1.00  0.00     0.225 C 
BRANCH  22  23
ATOM     23  O   UNL     1      -1.992  14.056 -50.751  1.00  0.00    -0.391 OA
ATOM     24  H   UNL     1      -1.780  13.634 -49.878  1.00  0.00     0.210 HD
ENDBRANCH  22  23
ENDBRANCH  17  22
BRANCH  18  25
ATOM     25  O   UNL     1      -3.159  17.361 -47.458  1.00  0.00    -0.385 OA
ATOM     26  H   UNL     1      -2.486  16.991 -46.828  1.00  0.00     0.211 HD
ENDBRANCH  18  25
BRANCH  20  27
ATOM     27  O   UNL     1      -4.747  15.549 -46.418  1.00  0.00    -0.387 OA
ATOM     28  H   UNL     1      -4.041  15.941 -45.842  1.00  0.00     0.211 HD
ENDBRANCH  20  27
BRANCH  21  29
ATOM     29  C   UNL     1      -3.285  12.775 -47.318  1.00  0.00     0.191 C 
BRANCH  29  30
ATOM     30  O   UNL     1      -3.202  12.258 -48.618  1.00  0.00    -0.394 OA
ATOM     31  H   UNL     1      -2.234  12.145 -48.808  1.00  0.00     0.210 HD
ENDBRANCH  29  30
ENDBRANCH  21  29
ENDBRANCH   1  17
TORSDOF 13
ENDMDL
MODEL 2
REMARK VINA RESULT:     0.000     10.313     12.801
REMARK INTER + INTRA:          -1.705
REMARK INTER:                   0.000
REMARK INTRA:                  -1.705
REMARK UNBOUND:                -1.706
REMARK SMILES OC[C@H]1O[C@@H](O[C@@]2(CO)O[C@H](CO)[C@@H](O)[C@H]2O)[C@H](O)[C@H](O)[C@H]1O
REMARK SMILES IDX 6 1 5 2 3 3 22 4 4 5 20 6 18 7 2 8 1 9 23 11 21 13 19 15
REMARK SMILES IDX 7 17 16 18 10 19 14 20 11 21 8 22 9 23 17 25 15 27 12 29
REMARK SMILES IDX 13 30
REMARK H PARENT 1 10 23 12 21 14 19 16 9 24 17 26 15 28 13 31
REMARK Flexibility Score: inf
ROOT
ATOM      1  O   UNL     1       8.726  12.591 -40.036  1.00  0.00    -0.313 OA
ENDROOT
BRANCH   1   2
ATOM      2  C   UNL     1       7.307  12.651 -40.090  1.00  0.00     0.285 C 
ATOM      3  C   UNL     1       5.441  13.002 -38.714  1.00  0.00     0.178 C 
ATOM      4  C   UNL     1       4.600  12.182 -39.754  1.00  0.00     0.177 C 
ATOM      5  O   UNL     1       6.828  12.690 -38.760  1.00  0.00    -0.341 OA
ATOM      6  C   UNL     1       5.390  10.948 -40.219  1.00  0.00     0.179 C 
ATOM      7  C   UNL     1       6.768  11.374 -40.790  1.00  0.00     0.202 C 
BRANCH   3   8
ATOM      8  C   UNL     1       4.963  12.817 -37.261  1.00  0.00     0.191 C 
BRANCH   8   9
ATOM      9  O   UNL     1       5.157  11.496 -36.829  1.00  0.00    -0.394 OA
ATOM     10  H   UNL     1       4.524  10.931 -37.344  1.00  0.00     0.210 HD
ENDBRANCH   8   9
ENDBRANCH   3   8
BRANCH   4  11
ATOM     11  O   UNL     1       3.354  11.784 -39.236  1.00  0.00    -0.387 OA
ATOM     12  H   UNL     1       3.122  12.432 -38.521  1.00  0.00     0.211 HD
ENDBRANCH   4  11
BRANCH   6  13
ATOM     13  O   UNL     1       4.665  10.234 -41.190  1.00  0.00    -0.387 OA
ATOM     14  H   UNL     1       4.946   9.284 -41.122  1.00  0.00     0.211 HD
ENDBRANCH   6  13
BRANCH   7  15
ATOM     15  O   UNL     1       6.716  11.554 -42.184  1.00  0.00    -0.385 OA
ATOM     16  H   UNL     1       7.052  12.467 -42.384  1.00  0.00     0.211 HD
ENDBRANCH   7  15
ENDBRANCH   1   2
BRANCH   1  17
ATOM     17  C   UNL     1       9.402  13.400 -40.999  1.00  0.00     0.224 C 
ATOM     18  C   UNL     1      10.397  14.373 -40.324  1.00  0.00     0.208 C 
ATOM     19  O   UNL     1       8.498  14.139 -41.805  1.00  0.00    -0.337 OA
ATOM     20  C   UNL     1      10.281  15.613 -41.184  1.00  0.00     0.180 C 
ATOM     21  C   UNL     1       8.873  15.500 -41.762  1.00  0.00     0.179 C 
BRANCH  17  22
ATOM     22  C   UNL     1      10.153  12.423 -41.926  1.00  0.00     0.225 C 
BRANCH  22  23
ATOM     23  O   UNL     1       9.490  12.285 -43.153  1.00  0.00    -0.391 OA
ATOM     24  H   UNL     1       9.765  13.063 -43.704  1.00  0.00     0.210 HD
ENDBRANCH  22  23
ENDBRANCH  17  22
BRANCH  18  25
ATOM     25  O   UNL     1      10.017  14.645 -38.997  1.00  0.00    -0.385 OA
ATOM     26  H   UNL     1       9.346  15.377 -39.032  1.00  0.00     0.211 HD
ENDBRANCH  18  25
BRANCH  20  27
ATOM     27  O   UNL     1      10.424  16.797 -40.442  1.00  0.00    -0.387 OA
ATOM     28  H   UNL     1      10.054  17.527 -41.003  1.00  0.00     0.211 HD
ENDBRANCH  20  27
BRANCH  21  29
ATOM     29  C   UNL     1       8.770  16.102 -43.167  1.00  0.00     0.191 C 
BRANCH  29  30
ATOM     30  O   UNL     1       9.111  15.141 -44.127  1.00  0.00    -0.394 OA
ATOM     31  H   UNL     1      10.079  15.266 -44.310  1.00  0.00     0.210 HD
ENDBRANCH  29  30
ENDBRANCH  21  29
ENDBRANCH   1  17
TORSDOF 13
ENDMDL
MODEL 3
REMARK VINA RESULT:     0.000      6.895      7.940
REMARK INTER + INTRA:          -1.705
REMARK INTER:                   0.000
REMARK INTRA:                  -1.705
REMARK UNBOUND:                -1.706
REMARK SMILES OC[C@H]1O[C@@H](O[C@@]2(CO)O[C@H](CO)[C@@H](O)[C@H]2O)[C@H](O)[C@H](O)[C@H]1O
REMARK SMILES IDX 6 1 5 2 3 3 22 4 4 5 20 6 18 7 2 8 1 9 23 11 21 13 19 15
REMARK SMILES IDX 7 17 16 18 10 19 14 20 11 21 8 22 9 23 17 25 15 27 12 29
REMARK SMILES IDX 13 30
REMARK H PARENT 1 10 23 12 21 14 19 16 9 24 17 26 15 28 13 31
REMARK Flexibility Score: inf
ROOT
ATOM      1  O   UNL     1       1.482  12.212 -43.011  1.00  0.00    -0.313 OA
ENDROOT
BRANCH   1   2
ATOM      2  C   UNL     1       0.792  11.633 -41.913  1.00  0.00     0.285 C 
ATOM      3  C   UNL     1       0.315  12.015 -39.648  1.00  0.00     0.178 C 
ATOM      4  C   UNL     1       0.128  10.466 -39.492  1.00  0.00     0.177 C 
ATOM      5  O   UNL     1       1.145  12.360 -40.752  1.00  0.00    -0.341 OA
ATOM      6  C   UNL     1       1.231   9.718 -40.259  1.00  0.00     0.179 C 
ATOM      7  C   UNL     1       1.245  10.157 -41.746  1.00  0.00     0.202 C 
BRANCH   3   8
ATOM      8  C   UNL     1       0.898  12.690 -38.392  1.00  0.00     0.191 C 
BRANCH   8   9
ATOM      9  O   UNL     1       2.208  12.252 -38.144  1.00  0.00    -0.394 OA
ATOM     10  H   UNL     1       2.229  11.280 -38.347  1.00  0.00     0.210 HD
ENDBRANCH   8   9
ENDBRANCH   3   8
BRANCH   4  11
ATOM     11  O   UNL     1       0.127  10.063 -38.144  1.00  0.00    -0.387 OA
ATOM     12  H   UNL     1      -0.811  10.131 -37.827  1.00  0.00     0.211 HD
ENDBRANCH   4  11
BRANCH   6  13
ATOM     13  O   UNL     1       1.042   8.328 -40.166  1.00  0.00    -0.387 OA
ATOM     14  H   UNL     1       1.848   7.898 -40.557  1.00  0.00     0.211 HD
ENDBRANCH   6  13
BRANCH   7  15
ATOM     15  O   UNL     1       0.462   9.302 -42.543  1.00  0.00    -0.385 OA
ATOM     16  H   UNL     1      -0.340   9.811 -42.834  1.00  0.00     0.211 HD
ENDBRANCH   7  15
ENDBRANCH   1   2
BRANCH   1  17
ATOM     17  C   UNL     1       0.716  12.333 -44.210  1.00  0.00     0.224 C 
ATOM     18  C   UNL     1       0.689  13.792 -44.722  1.00  0.00     0.208 C 
ATOM     19  O   UNL     1      -0.615  11.870 -44.042  1.00  0.00    -0.337 OA
ATOM     20  C   UNL     1      -0.714  13.922 -45.274  1.00  0.00     0.180 C 
ATOM     21  C   UNL     1      -1.497  12.887 -44.472  1.00  0.00     0.179 C 
BRANCH  17  22
ATOM     22  C   UNL     1       1.396  11.415 -45.246  1.00  0.00     0.225 C 
BRANCH  22  23
ATOM     23  O   UNL     1       0.670  10.228 -45.418  1.00  0.00    -0.391 OA
ATOM     24  H   UNL     1       0.225  10.305 -46.303  1.00  0.00     0.210 HD
ENDBRANCH  22  23
ENDBRANCH  17  22
BRANCH  18  25
ATOM     25  O   UNL     1       0.900  14.702 -43.668  1.00  0.00    -0.385 OA
ATOM     26  H   UNL     1       1.838  15.018 -43.743  1.00  0.00     0.211 HD
ENDBRANCH  18  25
BRANCH  20  27
ATOM     27  O   UNL     1      -1.248  15.208 -45.087  1.00  0.00    -0.387 OA
ATOM     28  H   UNL     1      -1.576  15.243 -44.151  1.00  0.00     0.211 HD
ENDBRANCH  20  27
BRANCH  21  29
ATOM     29  C   UNL     1      -2.638  12.262 -45.282  1.00  0.00     0.191 C 
BRANCH  29  30
ATOM     30  O   UNL     1      -2.163  11.163 -46.010  1.00  0.00    -0.394 OA
ATOM     31  H   UNL     1      -1.309  10.897 -45.580  1.00  0.00     0.210 HD
ENDBRANCH  29  30
ENDBRANCH  21  29
ENDBRANCH   1  17
TORSDOF 13
ENDMDL
MODEL 4
REMARK VINA RESULT:     0.000      2.495      6.564
REMARK INTER + INTRA:          -1.705
REMARK INTER:                   0.000
REMARK INTRA:                  -1.705
REMARK UNBOUND:                -1.706
REMARK SMILES OC[C@H]1O[C@@H](O[C@@]2(CO)O[C@H](CO)[C@@H](O)[C@H]2O)[C@H](O)[C@H](O)[C@H]1O
REMARK SMILES IDX 6 1 5 2 3 3 22 4 4 5 20 6 18 7 2 8 1 9 23 11 21 13 19 15
REMARK SMILES IDX 7 17 16 18 10 19 14 20 11 21 8 22 9 23 17 25 15 27 12 29
REMARK SMILES IDX 13 30
REMARK H PARENT 1 10 23 12 21 14 19 16 9 24 17 26 15 28 13 31
REMARK Flexibility Score: inf
ROOT
ATOM      1  O   UNL     1      -0.735  14.810 -47.434  1.00  0.00    -0.313 OA
ENDROOT
BRANCH   1   2
ATOM      2  C   UNL     1      -0.837  13.815 -46.425  1.00  0.00     0.285 C 
ATOM      3  C   UNL     1      -1.533  11.597 -46.112  1.00  0.00     0.178 C 
ATOM      4  C   UNL     1      -1.755  11.948 -44.599  1.00  0.00     0.177 C 
ATOM      5  O   UNL     1      -1.590  12.741 -46.956  1.00  0.00    -0.341 OA
ATOM      6  C   UNL     1      -2.424  13.326 -44.467  1.00  0.00     0.179 C 
ATOM      7  C   UNL     1      -1.584  14.406 -45.199  1.00  0.00     0.202 C 
BRANCH   3   8
ATOM      8  C   UNL     1      -2.539  10.562 -46.652  1.00  0.00     0.191 C 
BRANCH   8   9
ATOM      9  O   UNL     1      -3.844  11.077 -46.652  1.00  0.00    -0.394 OA
ATOM     10  H   UNL     1      -4.237  10.858 -45.766  1.00  0.00     0.210 HD
ENDBRANCH   8   9
ENDBRANCH   3   8
BRANCH   4  11
ATOM     11  O   UNL     1      -2.527  10.978 -43.935  1.00  0.00    -0.387 OA
ATOM     12  H   UNL     1      -1.908  10.481 -43.338  1.00  0.00     0.211 HD
ENDBRANCH   4  11
BRANCH   6  13
ATOM     13  O   UNL     1      -2.582  13.672 -43.113  1.00  0.00    -0.387 OA
ATOM     14  H   UNL     1      -3.522  13.468 -42.869  1.00  0.00     0.211 HD
ENDBRANCH   6  13
BRANCH   7  15
ATOM     15  O   UNL     1      -0.683  15.039 -44.324  1.00  0.00    -0.385 OA
ATOM     16  H   UNL     1      -0.170  14.331 -43.854  1.00  0.00     0.211 HD
ENDBRANCH   7  15
ENDBRANCH   1   2
BRANCH   1  17
ATOM     17  C   UNL     1       0.546  15.431 -47.543  1.00  0.00     0.224 C 
ATOM     18  C   UNL     1       1.113  15.316 -48.978  1.00  0.00     0.208 C 
ATOM     19  O   UNL     1       1.482  14.890 -46.624  1.00  0.00    -0.337 OA
ATOM     20  C   UNL     1       2.594  15.125 -48.732  1.00  0.00     0.180 C 
ATOM     21  C   UNL     1       2.636  14.500 -47.341  1.00  0.00     0.179 C 
BRANCH  17  22
ATOM     22  C   UNL     1       0.336  16.912 -47.168  1.00  0.00     0.225 C 
BRANCH  22  23
ATOM     23  O   UNL     1       0.803  17.173 -45.873  1.00  0.00    -0.391 OA
ATOM     24  H   UNL     1       0.065  17.643 -45.403  1.00  0.00     0.210 HD
ENDBRANCH  22  23
ENDBRANCH  17  22
BRANCH  18  25
ATOM     25  O   UNL     1       0.568  14.205 -49.649  1.00  0.00    -0.385 OA
ATOM     26  H   UNL     1       1.161  14.014 -50.422  1.00  0.00     0.211 HD
ENDBRANCH  18  25
BRANCH  20  27
ATOM     27  O   UNL     1       3.191  14.276 -49.679  1.00  0.00    -0.387 OA
ATOM     28  H   UNL     1       2.566  13.517 -49.810  1.00  0.00     0.211 HD
ENDBRANCH  20  27
BRANCH  21  29
ATOM     29  C   UNL     1       3.886  14.909 -46.555  1.00  0.00     0.191 C 
BRANCH  29  30
ATOM     30  O   UNL     1       3.653  16.110 -45.874  1.00  0.00    -0.394 OA
ATOM     31  H   UNL     1       4.070  16.004 -44.979  1.00  0.00     0.210 HD
ENDBRANCH  29  30
ENDBRANCH  21  29
ENDBRANCH   1  17
TORSDOF 13
ENDMDL
MODEL 5
REMARK VINA RESULT:     0.000      6.160      8.421
REMARK INTER + INTRA:          -1.705
REMARK INTER:                   0.000
REMARK INTRA:                  -1.705
REMARK UNBOUND:                -1.706
REMARK SMILES OC[C@H]1O[C@@H](O[C@@]2(CO)O[C@H](CO)[C@@H](O)[C@H]2O)[C@H](O)[C@H](O)[C@H]1O
REMARK SMILES IDX 6 1 5 2 3 3 22 4 4 5 20 6 18 7 2 8 1 9 23 11 21 13 19 15
REMARK SMILES IDX 7 17 16 18 10 19 14 20 11 21 8 22 9 23 17 25 15 27 12 29
REMARK SMILES IDX 13 30
REMARK H PARENT 1 10 23 12 21 14 19 16 9 24 17 26 15 28 13 31
REMARK Flexibility Score: inf
ROOT
ATOM      1  O   UNL     1       7.503  15.111 -47.253  1.00  0.00    -0.313 OA
ENDROOT
BRANCH   1   2
ATOM      2  C   UNL     1       6.854  16.080 -46.442  1.00  0.00     0.285 C 
ATOM      3  C   UNL     1       7.295  18.046 -45.241  1.00  0.00     0.178 C 
ATOM      4  C   UNL     1       6.051  17.705 -44.349  1.00  0.00     0.177 C 
ATOM      5  O   UNL     1       7.856  16.897 -45.866  1.00  0.00    -0.341 OA
ATOM      6  C   UNL     1       6.036  16.205 -44.011  1.00  0.00     0.179 C 
ATOM      7  C   UNL     1       6.072  15.359 -45.311  1.00  0.00     0.202 C 
BRANCH   3   8
ATOM      8  C   UNL     1       8.422  18.759 -44.469  1.00  0.00     0.191 C 
BRANCH   8   9
ATOM      9  O   UNL     1       8.975  17.920 -43.490  1.00  0.00    -0.394 OA
ATOM     10  H   UNL     1       9.937  17.815 -43.713  1.00  0.00     0.210 HD
ENDBRANCH   8   9
ENDBRANCH   3   8
BRANCH   4  11
ATOM     11  O   UNL     1       6.021  18.462 -43.164  1.00  0.00    -0.387 OA
ATOM     12  H   UNL     1       6.344  19.371 -43.398  1.00  0.00     0.211 HD
ENDBRANCH   4  11
BRANCH   6  13
ATOM     13  O   UNL     1       4.896  15.880 -43.254  1.00  0.00    -0.387 OA
ATOM     14  H   UNL     1       5.110  16.082 -42.306  1.00  0.00     0.211 HD
ENDBRANCH   6  13
BRANCH   7  15
ATOM     15  O   UNL     1       4.777  15.018 -45.740  1.00  0.00    -0.385 OA
ATOM     16  H   UNL     1       4.825  14.808 -46.709  1.00  0.00     0.211 HD
ENDBRANCH   7  15
ENDBRANCH   1   2
BRANCH   1  17
ATOM     17  C   UNL     1       6.866  14.845 -48.503  1.00  0.00     0.224 C 
ATOM     18  C   UNL     1       7.835  15.054 -49.690  1.00  0.00     0.208 C 
ATOM     19  O   UNL     1       5.711  15.648 -48.695  1.00  0.00    -0.337 OA
ATOM     20  C   UNL     1       6.932  15.637 -50.755  1.00  0.00     0.180 C 
ATOM     21  C   UNL     1       5.824  16.301 -49.943  1.00  0.00     0.179 C 
BRANCH  17  22
ATOM     22  C   UNL     1       6.401  13.376 -48.443  1.00  0.00     0.225 C 
BRANCH  22  23
ATOM     23  O   UNL     1       5.020  13.295 -48.217  1.00  0.00    -0.391 OA
ATOM     24  H   UNL     1       4.723  12.444 -48.634  1.00  0.00     0.210 HD
ENDBRANCH  22  23
ENDBRANCH  17  22
BRANCH  18  25
ATOM     25  O   UNL     1       8.861  15.957 -49.353  1.00  0.00    -0.385 OA
ATOM     26  H   UNL     1       9.437  16.053 -50.155  1.00  0.00     0.211 HD
ENDBRANCH  18  25
BRANCH  20  27
ATOM     27  O   UNL     1       7.592  16.577 -51.564  1.00  0.00    -0.387 OA
ATOM     28  H   UNL     1       7.788  17.358 -50.984  1.00  0.00     0.211 HD
ENDBRANCH  20  27
BRANCH  21  29
ATOM     29  C   UNL     1       4.472  16.265 -50.662  1.00  0.00     0.191 C 
BRANCH  29  30
ATOM     30  O   UNL     1       3.803  15.070 -50.366  1.00  0.00    -0.394 OA
ATOM     31  H   UNL     1       4.179  14.751 -49.504  1.00  0.00     0.210 HD
ENDBRANCH  29  30
ENDBRANCH  21  29
ENDBRANCH   1  17
TORSDOF 13
ENDMDL
MODEL 6
REMARK VINA RESULT:     0.000     12.296     14.186
REMARK INTER + INTRA:          -1.705
REMARK INTER:                   0.000
REMARK INTRA:                  -1.705
REMARK UNBOUND:                -1.706
REMARK SMILES OC[C@H]1O[C@@H](O[C@@]2(CO)O[C@H](CO)[C@@H](O)[C@H]2O)[C@H](O)[C@H](O)[C@H]1O
REMARK SMILES IDX 6 1 5 2 3 3 22 4 4 5 20 6 18 7 2 8 1 9 23 11 21 13 19 15
REMARK SMILES IDX 7 17 16 18 10 19 14 20 11 21 8 22 9 23 17 25 15 27 12 29
REMARK SMILES IDX 13 30
REMARK H PARENT 1 10 23 12 21 14 19 16 9 24 17 26 15 28 13 31
REMARK Flexibility Score: inf
ROOT
ATOM      1  O   UNL     1       9.972  15.997 -41.171  1.00  0.00    -0.313 OA
ENDROOT
BRANCH   1   2
ATOM      2  C   UNL     1      10.918  16.126 -42.224  1.00  0.00     0.285 C 
ATOM      3  C   UNL     1      11.899  17.746 -43.607  1.00  0.00     0.178 C 
ATOM      4  C   UNL     1      12.166  16.603 -44.648  1.00  0.00     0.177 C 
ATOM      5  O   UNL     1      10.824  17.446 -42.725  1.00  0.00    -0.341 OA
ATOM      6  C   UNL     1      10.937  15.684 -44.753  1.00  0.00     0.179 C 
ATOM      7  C   UNL     1      10.562  15.125 -43.356  1.00  0.00     0.202 C 
BRANCH   3   8
ATOM      8  C   UNL     1      11.606  19.110 -44.261  1.00  0.00     0.191 C 
BRANCH   8   9
ATOM      9  O   UNL     1      10.405  19.077 -44.985  1.00  0.00    -0.394 OA
ATOM     10  H   UNL     1       9.675  18.948 -44.323  1.00  0.00     0.210 HD
ENDBRANCH   8   9
ENDBRANCH   3   8
BRANCH   4  11
ATOM     11  O   UNL     1      12.495  17.106 -45.919  1.00  0.00    -0.387 OA
ATOM     12  H   UNL     1      13.028  16.405 -46.375  1.00  0.00     0.211 HD
ENDBRANCH   4  11
BRANCH   6  13
ATOM     13  O   UNL     1      11.185  14.627 -45.646  1.00  0.00    -0.387 OA
ATOM     14  H   UNL     1      10.574  14.750 -46.419  1.00  0.00     0.211 HD
ENDBRANCH   6  13
BRANCH   7  15
ATOM     15  O   UNL     1      11.163  13.875 -43.122  1.00  0.00    -0.385 OA
ATOM     16  H   UNL     1      10.880  13.567 -42.221  1.00  0.00     0.211 HD
ENDBRANCH   7  15
ENDBRANCH   1   2
BRANCH   1  17
ATOM     17  C   UNL     1      10.432  15.269 -40.032  1.00  0.00     0.224 C 
ATOM     18  C   UNL     1      10.294  16.099 -38.734  1.00  0.00     0.208 C 
ATOM     19  O   UNL     1      11.779  14.847 -40.176  1.00  0.00    -0.337 OA
ATOM     20  C   UNL     1      11.524  15.695 -37.951  1.00  0.00     0.180 C 
ATOM     21  C   UNL     1      12.504  15.275 -39.042  1.00  0.00     0.179 C 
BRANCH  17  22
ATOM     22  C   UNL     1       9.558  14.002 -39.952  1.00  0.00     0.225 C 
BRANCH  22  23
ATOM     23  O   UNL     1      10.259  12.878 -40.410  1.00  0.00    -0.391 OA
ATOM     24  H   UNL     1       9.580  12.271 -40.804  1.00  0.00     0.210 HD
ENDBRANCH  22  23
ENDBRANCH  17  22
BRANCH  18  25
ATOM     25  O   UNL     1      10.307  17.479 -39.013  1.00  0.00    -0.385 OA
ATOM     26  H   UNL     1      11.103  17.652 -39.581  1.00  0.00     0.211 HD
ENDBRANCH  18  25
BRANCH  20  27
ATOM     27  O   UNL     1      12.047  16.752 -37.188  1.00  0.00    -0.387 OA
ATOM     28  H   UNL     1      13.008  16.820 -37.423  1.00  0.00     0.211 HD
ENDBRANCH  20  27
BRANCH  21  29
ATOM     29  C   UNL     1      13.442  14.154 -38.583  1.00  0.00     0.191 C 
BRANCH  29  30
ATOM     30  O   UNL     1      12.846  12.907 -38.811  1.00  0.00    -0.394 OA
ATOM     31  H   UNL     1      11.979  13.094 -39.257  1.00  0.00     0.210 HD
ENDBRANCH  29  30
ENDBRANCH  21  29
ENDBRANCH   1  17
TORSDOF 13
ENDMDL
MODEL 7
REMARK VINA RESULT:     0.000      6.821      9.601
REMARK INTER + INTRA:          -1.705
REMARK INTER:                   0.000
REMARK INTRA:                  -1.705
REMARK UNBOUND:                -1.706
REMARK SMILES OC[C@H]1O[C@@H](O[C@@]2(CO)O[C@H](CO)[C@@H](O)[C@H]2O)[C@H](O)[C@H](O)[C@H]1O
REMARK SMILES IDX 6 1 5 2 3 3 22 4 4 5 20 6 18 7 2 8 1 9 23 11 21 13 19 15
REMARK SMILES IDX 7 17 16 18 10 19 14 20 11 21 8 22 9 23 17 25 15 27 12 29
REMARK SMILES IDX 13 30
REMARK H PARENT 1 10 23 12 21 14 19 16 9 24 17 26 15 28 13 31
REMARK Flexibility Score: inf
ROOT
ATOM      1  O   UNL     1       6.941  13.436 -51.642  1.00  0.00    -0.313 OA
ENDROOT
BRANCH   1   2
ATOM      2  C   UNL     1       6.127  12.272 -51.674  1.00  0.00     0.285 C 
ATOM      3  C   UNL     1       6.240   9.978 -52.150  1.00  0.00     0.178 C 
ATOM      4  C   UNL     1       4.702  10.031 -52.454  1.00  0.00     0.177 C 
ATOM      5  O   UNL     1       6.874  11.244 -52.296  1.00  0.00    -0.341 OA
ATOM      6  C   UNL     1       4.365  11.294 -53.265  1.00  0.00     0.179 C 
ATOM      7  C   UNL     1       4.855  12.561 -52.516  1.00  0.00     0.202 C 
BRANCH   3   8
ATOM      8  C   UNL     1       7.001   8.966 -53.027  1.00  0.00     0.191 C 
BRANCH   8   9
ATOM      9  O   UNL     1       6.975   9.346 -54.377  1.00  0.00    -0.394 OA
ATOM     10  H   UNL     1       6.252   8.819 -54.809  1.00  0.00     0.210 HD
ENDBRANCH   8   9
ENDBRANCH   3   8
BRANCH   4  11
ATOM     11  O   UNL     1       4.256   8.889 -53.143  1.00  0.00    -0.387 OA
ATOM     12  H   UNL     1       3.432   9.152 -53.629  1.00  0.00     0.211 HD
ENDBRANCH   4  11
BRANCH   6  13
ATOM     13  O   UNL     1       2.981  11.376 -53.499  1.00  0.00    -0.387 OA
ATOM     14  H   UNL     1       2.860  11.848 -54.364  1.00  0.00     0.211 HD
ENDBRANCH   6  13
BRANCH   7  15
ATOM     15  O   UNL     1       3.840  13.111 -51.713  1.00  0.00    -0.385 OA
ATOM     16  H   UNL     1       4.189  13.952 -51.317  1.00  0.00     0.211 HD
ENDBRANCH   7  15
ENDBRANCH   1   2
BRANCH   1  17
ATOM     17  C   UNL     1       6.877  14.185 -50.428  1.00  0.00     0.224 C 
ATOM     18  C   UNL     1       8.280  14.381 -49.806  1.00  0.00     0.208 C 
ATOM     19  O   UNL     1       6.021  13.580 -49.471  1.00  0.00    -0.337 OA
ATOM     20  C   UNL     1       7.999  14.291 -48.322  1.00  0.00     0.180 C 
ATOM     21  C   UNL     1       6.737  13.435 -48.262  1.00  0.00     0.179 C 
BRANCH  17  22
ATOM     22  C   UNL     1       6.261  15.549 -50.799  1.00  0.00     0.225 C 
BRANCH  22  23
ATOM     23  O   UNL     1       4.918  15.619 -50.403  1.00  0.00    -0.391 OA
ATOM     24  H   UNL     1       4.927  15.887 -49.447  1.00  0.00     0.210 HD
ENDBRANCH  22  23
ENDBRANCH  17  22
BRANCH  18  25
ATOM     25  O   UNL     1       9.160  13.361 -50.214  1.00  0.00    -0.385 OA
ATOM     26  H   UNL     1       9.576  13.660 -51.065  1.00  0.00     0.211 HD
ENDBRANCH  18  25
BRANCH  20  27
ATOM     27  O   UNL     1       9.049  13.685 -47.613  1.00  0.00    -0.387 OA
ATOM     28  H   UNL     1       9.225  12.816 -48.058  1.00  0.00     0.211 HD
ENDBRANCH  20  27
BRANCH  21  29
ATOM     29  C   UNL     1       5.832  13.814 -47.086  1.00  0.00     0.191 C 
BRANCH  29  30
ATOM     30  O   UNL     1       4.965  14.848 -47.461  1.00  0.00    -0.394 OA
ATOM     31  H   UNL     1       5.098  14.978 -48.436  1.00  0.00     0.210 HD
ENDBRANCH  29  30
ENDBRANCH  21  29
ENDBRANCH   1  17
TORSDOF 13
ENDMDL
MODEL 8
REMARK VINA RESULT:     0.001      6.849      9.213
REMARK INTER + INTRA:          -1.705
REMARK INTER:                   0.000
REMARK INTRA:                  -1.705
REMARK UNBOUND:                -1.706
REMARK SMILES OC[C@H]1O[C@@H](O[C@@]2(CO)O[C@H](CO)[C@@H](O)[C@H]2O)[C@H](O)[C@H](O)[C@H]1O
REMARK SMILES IDX 6 1 5 2 3 3 22 4 4 5 20 6 18 7 2 8 1 9 23 11 21 13 19 15
REMARK SMILES IDX 7 17 16 18 10 19 14 20 11 21 8 22 9 23 17 25 15 27 12 29
REMARK SMILES IDX 13 30
REMARK H PARENT 1 10 23 12 21 14 19 16 9 24 17 26 15 28 13 31
REMARK Flexibility Score: inf
ROOT
ATOM      1  O   UNL     1       6.992  17.127 -47.726  1.00  0.00    -0.313 OA
ENDROOT
BRANCH   1   2
ATOM      2  C   UNL     1       7.671  15.881 -47.642  1.00  0.00     0.285 C 
ATOM      3  C   UNL     1       7.393  13.703 -46.818  1.00  0.00     0.178 C 
ATOM      4  C   UNL     1       8.957  13.596 -46.755  1.00  0.00     0.177 C 
ATOM      5  O   UNL     1       6.931  15.048 -46.769  1.00  0.00    -0.341 OA
ATOM      6  C   UNL     1       9.556  14.900 -46.201  1.00  0.00     0.179 C 
ATOM      7  C   UNL     1       9.087  16.111 -47.049  1.00  0.00     0.202 C 
BRANCH   3   8
ATOM      8  C   UNL     1       6.683  12.920 -45.697  1.00  0.00     0.191 C 
BRANCH   8   9
ATOM      9  O   UNL     1       6.971  13.466 -44.437  1.00  0.00    -0.394 OA
ATOM     10  H   UNL     1       7.870  13.883 -44.504  1.00  0.00     0.210 HD
ENDBRANCH   8   9
ENDBRANCH   3   8
BRANCH   4  11
ATOM     11  O   UNL     1       9.386  12.506 -45.977  1.00  0.00    -0.387 OA
ATOM     12  H   UNL     1       8.586  11.943 -45.808  1.00  0.00     0.211 HD
ENDBRANCH   4  11
BRANCH   6  13
ATOM     13  O   UNL     1      10.960  14.833 -46.188  1.00  0.00    -0.387 OA
ATOM     14  H   UNL     1      11.280  15.549 -45.580  1.00  0.00     0.211 HD
ENDBRANCH   6  13
BRANCH   7  15
ATOM     15  O   UNL     1      10.009  16.416 -48.066  1.00  0.00    -0.385 OA
ATOM     16  H   UNL     1       9.516  16.876 -48.795  1.00  0.00     0.211 HD
ENDBRANCH   7  15
ENDBRANCH   1   2
BRANCH   1  17
ATOM     17  C   UNL     1       6.936  17.697 -49.034  1.00  0.00     0.224 C 
ATOM     18  C   UNL     1       5.479  17.990 -49.463  1.00  0.00     0.208 C 
ATOM     19  O   UNL     1       7.552  16.866 -50.005  1.00  0.00    -0.337 OA
ATOM     20  C   UNL     1       5.500  17.671 -50.943  1.00  0.00     0.180 C 
ATOM     21  C   UNL     1       6.636  16.659 -51.061  1.00  0.00     0.179 C 
BRANCH  17  22
ATOM     22  C   UNL     1       7.747  19.006 -48.965  1.00  0.00     0.225 C 
BRANCH  22  23
ATOM     23  O   UNL     1       9.006  18.848 -49.562  1.00  0.00    -0.391 OA
ATOM     24  H   UNL     1       8.878  18.206 -50.308  1.00  0.00     0.210 HD
ENDBRANCH  22  23
ENDBRANCH  17  22
BRANCH  18  25
ATOM     25  O   UNL     1       4.573  17.154 -48.783  1.00  0.00    -0.385 OA
ATOM     26  H   UNL     1       3.814  17.725 -48.494  1.00  0.00     0.211 HD
ENDBRANCH  18  25
BRANCH  20  27
ATOM     27  O   UNL     1       4.289  17.119 -51.391  1.00  0.00    -0.387 OA
ATOM     28  H   UNL     1       3.778  16.865 -50.579  1.00  0.00     0.211 HD
ENDBRANCH  20  27
BRANCH  21  29
ATOM     29  C   UNL     1       7.370  16.761 -52.401  1.00  0.00     0.191 C 
BRANCH  29  30
ATOM     30  O   UNL     1       8.393  17.714 -52.316  1.00  0.00    -0.394 OA
ATOM     31  H   UNL     1       8.525  18.058 -53.238  1.00  0.00     0.210 HD
ENDBRANCH  29  30
ENDBRANCH  21  29
ENDBRANCH   1  17
TORSDOF 13
ENDMDL
MODEL 9
REMARK VINA RESULT:     0.001      1.979      3.477
REMARK INTER + INTRA:          -1.704
REMARK INTER:                   0.000
REMARK INTRA:                  -1.704
REMARK UNBOUND:                -1.706
REMARK SMILES OC[C@H]1O[C@@H](O[C@@]2(CO)O[C@H](CO)[C@@H](O)[C@H]2O)[C@H](O)[C@H](O)[C@H]1O
REMARK SMILES IDX 6 1 5 2 3 3 22 4 4 5 20 6 18 7 2 8 1 9 23 11 21 13 19 15
REMARK SMILES IDX 7 17 16 18 10 19 14 20 11 21 8 22 9 23 17 25 15 27 12 29
REMARK SMILES IDX 13 30
REMARK H PARENT 1 10 23 12 21 14 19 16 9 24 17 26 15 28 13 31
REMARK Flexibility Score: inf
ROOT
ATOM      1  O   UNL     1      -0.763  15.924 -47.438  1.00  0.00    -0.313 OA
ENDROOT
BRANCH   1   2
ATOM      2  C   UNL     1       0.603  15.541 -47.361  1.00  0.00     0.285 C 
ATOM      3  C   UNL     1       2.030  14.089 -46.196  1.00  0.00     0.178 C 
ATOM      4  C   UNL     1       3.204  15.075 -46.533  1.00  0.00     0.177 C 
ATOM      5  O   UNL     1       0.756  14.723 -46.217  1.00  0.00    -0.341 OA
ATOM      6  C   UNL     1       2.744  16.530 -46.344  1.00  0.00     0.179 C 
ATOM      7  C   UNL     1       1.481  16.812 -47.200  1.00  0.00     0.202 C 
BRANCH   3   8
ATOM      8  C   UNL     1       2.189  13.396 -44.830  1.00  0.00     0.191 C 
BRANCH   8   9
ATOM      9  O   UNL     1       2.113  14.323 -43.779  1.00  0.00    -0.394 OA
ATOM     10  H   UNL     1       3.046  14.574 -43.551  1.00  0.00     0.210 HD
ENDBRANCH   8   9
ENDBRANCH   3   8
BRANCH   4  11
ATOM     11  O   UNL     1       4.346  14.830 -45.750  1.00  0.00    -0.387 OA
ATOM     12  H   UNL     1       4.211  13.948 -45.316  1.00  0.00     0.211 HD
ENDBRANCH   4  11
BRANCH   6  13
ATOM     13  O   UNL     1       3.773  17.423 -46.692  1.00  0.00    -0.387 OA
ATOM     14  H   UNL     1       3.577  18.284 -46.238  1.00  0.00     0.211 HD
ENDBRANCH   6  13
BRANCH   7  15
ATOM     15  O   UNL     1       1.819  17.346 -48.457  1.00  0.00    -0.385 OA
ATOM     16  H   UNL     1       1.268  16.882 -49.141  1.00  0.00     0.211 HD
ENDBRANCH   7  15
ENDBRANCH   1   2
BRANCH   1  17
ATOM     17  C   UNL     1      -1.322  15.907 -48.751  1.00  0.00     0.224 C 
ATOM     18  C   UNL     1      -2.585  15.016 -48.819  1.00  0.00     0.208 C 
ATOM     19  O   UNL     1      -0.387  15.468 -49.724  1.00  0.00    -0.337 OA
ATOM     20  C   UNL     1      -2.474  14.390 -50.192  1.00  0.00     0.180 C 
ATOM     21  C   UNL     1      -0.973  14.414 -50.462  1.00  0.00     0.179 C 
BRANCH  17  22
ATOM     22  C   UNL     1      -1.680  17.369 -49.083  1.00  0.00     0.225 C 
BRANCH  22  23
ATOM     23  O   UNL     1      -0.742  17.929 -49.961  1.00  0.00    -0.391 OA
ATOM     24  H   UNL     1      -0.847  18.914 -49.885  1.00  0.00     0.210 HD
ENDBRANCH  22  23
ENDBRANCH  17  22
BRANCH  18  25
ATOM     25  O   UNL     1      -2.564  14.031 -47.814  1.00  0.00    -0.385 OA
ATOM     26  H   UNL     1      -1.621  13.942 -47.517  1.00  0.00     0.211 HD
ENDBRANCH  18  25
BRANCH  20  27
ATOM     27  O   UNL     1      -2.967  13.075 -50.224  1.00  0.00    -0.387 OA
ATOM     28  H   UNL     1      -2.229  12.506 -50.567  1.00  0.00     0.211 HD
ENDBRANCH  20  27
BRANCH  21  29
ATOM     29  C   UNL     1      -0.650  14.592 -51.948  1.00  0.00     0.191 C 
BRANCH  29  30
ATOM     30  O   UNL     1      -0.605  15.954 -52.270  1.00  0.00    -0.394 OA
ATOM     31  H   UNL     1       0.243  16.300 -51.886  1.00  0.00     0.210 HD
ENDBRANCH  29  30
ENDBRANCH  21  29
ENDBRANCH   1  17
TORSDOF 13
ENDMDL
