MODEL 1
REMARK VINA RESULT:    -0.321      0.000      0.000
REMARK INTER + INTRA:           0.969
REMARK INTER:                  -0.434
REMARK INTRA:                   1.403
REMARK UNBOUND:                 1.403
REMARK SMILES O=c1c(-c2ccc(O)cc2)coc2c([C@H]3O[C@H](CO)[C@H](O)[C@@H](O)[C@@H]3O)c(O)ccc12
REMARK SMILES IDX 3 1 11 2 12 3 13 4 30 5 2 6 1 7 29 8 28 9 26 10 14 11 4 12
REMARK SMILES IDX 5 13 6 14 7 15 10 16 9 17 8 18 15 20 24 21 16 22 22 23 17 24
REMARK SMILES IDX 20 25 25 26 23 28 18 30 19 31 21 33 27 35
REMARK H PARENT 8 19 25 27 23 29 19 32 21 34 27 36
REMARK Flexibility Score: inf
ROOT
ATOM      1  C   UNL     1      53.999  68.964  58.701  1.00  0.00     0.065 A 
ATOM      2  C   UNL     1      52.650  68.628  58.501  1.00  0.00     0.208 A 
ATOM      3  O   UNL     1      51.708  69.059  59.336  1.00  0.00    -0.463 OA
ATOM      4  C   UNL     1      51.942  69.797  60.414  1.00  0.00     0.147 A 
ATOM      5  C   UNL     1      53.283  70.134  60.720  1.00  0.00     0.066 A 
ATOM      6  C   UNL     1      54.308  69.745  59.833  1.00  0.00     0.200 A 
ATOM      7  O   UNL     1      55.502  70.101  60.057  1.00  0.00    -0.288 OA
ATOM      8  C   UNL     1      53.568  70.744  61.945  1.00  0.00     0.020 A 
ATOM      9  C   UNL     1      52.533  71.124  62.797  1.00  0.00     0.047 A 
ATOM     10  C   UNL     1      51.200  70.794  62.510  1.00  0.00     0.125 A 
ATOM     11  C   UNL     1      50.861  70.159  61.282  1.00  0.00     0.069 A 
ENDROOT
BRANCH   1  12
ATOM     12  C   UNL     1      55.047  68.391  57.803  1.00  0.00    -0.011 A 
ATOM     13  C   UNL     1      55.446  67.046  57.926  1.00  0.00     0.013 A 
ATOM     14  C   UNL     1      56.353  66.484  57.023  1.00  0.00     0.047 A 
ATOM     15  C   UNL     1      56.865  67.249  55.970  1.00  0.00     0.115 A 
ATOM     16  C   UNL     1      55.585  69.156  56.750  1.00  0.00     0.013 A 
ATOM     17  C   UNL     1      56.478  68.587  55.840  1.00  0.00     0.047 A 
BRANCH  15  18
ATOM     18  O   UNL     1      57.754  66.679  55.062  1.00  0.00    -0.508 OA
ATOM     19  H   UNL     1      57.768  66.974  54.093  1.00  0.00     0.293 HD
ENDBRANCH  15  18
ENDBRANCH   1  12
BRANCH  11  20
ATOM     20  C   UNL     1      49.412  69.658  60.999  1.00  0.00     0.188 C 
ATOM     21  C   UNL     1      48.631  69.203  62.288  1.00  0.00     0.179 C 
ATOM     22  O   UNL     1      49.363  68.650  59.982  1.00  0.00    -0.362 OA
ATOM     23  C   UNL     1      47.581  68.129  61.959  1.00  0.00     0.177 C 
ATOM     24  C   UNL     1      49.520  67.340  60.518  1.00  0.00     0.176 C 
ATOM     25  C   UNL     1      48.243  66.908  61.297  1.00  0.00     0.177 C 
BRANCH  21  26
ATOM     26  O   UNL     1      48.006  70.277  62.952  1.00  0.00    -0.387 OA
ATOM     27  H   UNL     1      47.714  69.963  63.844  1.00  0.00     0.211 HD
ENDBRANCH  21  26
BRANCH  23  28
ATOM     28  O   UNL     1      46.876  67.765  63.128  1.00  0.00    -0.387 OA
ATOM     29  H   UNL     1      47.148  68.382  63.856  1.00  0.00     0.211 HD
ENDBRANCH  23  28
BRANCH  24  30
ATOM     30  C   UNL     1      49.943  66.351  59.401  1.00  0.00     0.191 C 
BRANCH  30  31
ATOM     31  O   UNL     1      50.242  67.047  58.214  1.00  0.00    -0.394 OA
ATOM     32  H   UNL     1      49.708  67.887  58.242  1.00  0.00     0.210 HD
ENDBRANCH  30  31
ENDBRANCH  24  30
BRANCH  25  33
ATOM     33  O   UNL     1      47.298  66.279  60.468  1.00  0.00    -0.388 OA
ATOM     34  H   UNL     1      46.938  65.502  60.975  1.00  0.00     0.211 HD
ENDBRANCH  25  33
ENDBRANCH  11  20
BRANCH  10  35
ATOM     35  O   UNL     1      50.245  71.018  63.502  1.00  0.00    -0.507 OA
ATOM     36  H   UNL     1      49.632  70.277  63.819  1.00  0.00     0.293 HD
ENDBRANCH  10  35
TORSDOF 9
ENDMDL
MODEL 2
REMARK VINA RESULT:     2.632     15.446     18.764
REMARK INTER + INTRA:           4.958
REMARK INTER:                   5.037
REMARK INTRA:                  -0.080
REMARK UNBOUND:                 1.403
REMARK SMILES O=c1c(-c2ccc(O)cc2)coc2c([C@H]3O[C@H](CO)[C@H](O)[C@@H](O)[C@@H]3O)c(O)ccc12
REMARK SMILES IDX 3 1 11 2 12 3 13 4 30 5 2 6 1 7 29 8 28 9 26 10 14 11 4 12
REMARK SMILES IDX 5 13 6 14 7 15 10 16 9 17 8 18 15 20 24 21 16 22 22 23 17 24
REMARK SMILES IDX 20 25 25 26 23 28 18 30 19 31 21 33 27 35
REMARK H PARENT 8 19 25 27 23 29 19 32 21 34 27 36
REMARK Flexibility Score: inf
ROOT
ATOM      1  C   UNL     1      54.740  52.058  55.103  1.00  0.00     0.065 A 
ATOM      2  C   UNL     1      55.600  51.077  55.624  1.00  0.00     0.208 A 
ATOM      3  O   UNL     1      56.632  51.413  56.392  1.00  0.00    -0.463 OA
ATOM      4  C   UNL     1      56.957  52.660  56.710  1.00  0.00     0.147 A 
ATOM      5  C   UNL     1      56.174  53.714  56.180  1.00  0.00     0.066 A 
ATOM      6  C   UNL     1      55.037  53.403  55.406  1.00  0.00     0.200 A 
ATOM      7  O   UNL     1      54.288  54.333  54.986  1.00  0.00    -0.288 OA
ATOM      8  C   UNL     1      56.609  55.032  56.345  1.00  0.00     0.020 A 
ATOM      9  C   UNL     1      57.731  55.309  57.123  1.00  0.00     0.047 A 
ATOM     10  C   UNL     1      58.519  54.277  57.651  1.00  0.00     0.125 A 
ATOM     11  C   UNL     1      58.126  52.916  57.498  1.00  0.00     0.069 A 
ENDROOT
BRANCH   1  12
ATOM     12  C   UNL     1      53.644  51.664  54.167  1.00  0.00    -0.011 A 
ATOM     13  C   UNL     1      52.337  51.438  54.640  1.00  0.00     0.013 A 
ATOM     14  C   UNL     1      51.292  51.167  53.752  1.00  0.00     0.047 A 
ATOM     15  C   UNL     1      51.529  51.134  52.374  1.00  0.00     0.115 A 
ATOM     16  C   UNL     1      53.873  51.608  52.779  1.00  0.00     0.013 A 
ATOM     17  C   UNL     1      52.824  51.353  51.894  1.00  0.00     0.047 A 
BRANCH  15  18
ATOM     18  O   UNL     1      50.480  50.881  51.492  1.00  0.00    -0.508 OA
ATOM     19  H   UNL     1      50.391  51.402  50.628  1.00  0.00     0.293 HD
ENDBRANCH  15  18
ENDBRANCH   1  12
BRANCH  11  20
ATOM     20  C   UNL     1      59.052  51.747  57.952  1.00  0.00     0.188 C 
ATOM     21  C   UNL     1      59.204  51.623  59.513  1.00  0.00     0.179 C 
ATOM     22  O   UNL     1      60.331  51.771  57.307  1.00  0.00    -0.362 OA
ATOM     23  C   UNL     1      60.557  51.003  59.898  1.00  0.00     0.177 C 
ATOM     24  C   UNL     1      61.276  52.560  58.023  1.00  0.00     0.176 C 
ATOM     25  C   UNL     1      61.718  51.837  59.330  1.00  0.00     0.177 C 
BRANCH  21  26
ATOM     26  O   UNL     1      58.166  50.876  60.103  1.00  0.00    -0.387 OA
ATOM     27  H   UNL     1      58.549  50.337  60.839  1.00  0.00     0.211 HD
ENDBRANCH  21  26
BRANCH  23  28
ATOM     28  O   UNL     1      60.652  50.875  61.303  1.00  0.00    -0.387 OA
ATOM     29  H   UNL     1      59.763  51.087  61.690  1.00  0.00     0.211 HD
ENDBRANCH  23  28
BRANCH  24  30
ATOM     30  C   UNL     1      62.453  52.961  57.094  1.00  0.00     0.191 C 
BRANCH  30  31
ATOM     31  O   UNL     1      62.579  54.362  57.038  1.00  0.00    -0.394 OA
ATOM     32  H   UNL     1      61.880  54.730  57.644  1.00  0.00     0.210 HD
ENDBRANCH  30  31
ENDBRANCH  24  30
BRANCH  25  33
ATOM     33  O   UNL     1      62.822  50.992  59.126  1.00  0.00    -0.388 OA
ATOM     34  H   UNL     1      62.520  50.258  58.524  1.00  0.00     0.211 HD
ENDBRANCH  25  33
ENDBRANCH  11  20
BRANCH  10  35
ATOM     35  O   UNL     1      59.737  54.621  58.238  1.00  0.00    -0.507 OA
ATOM     36  H   UNL     1      59.931  55.571  58.527  1.00  0.00     0.293 HD
ENDBRANCH  10  35
TORSDOF 9
ENDMDL
