MODEL 1
REMARK VINA RESULT:    -3.502      0.000      0.000
REMARK INTER + INTRA:          -3.951
REMARK INTER:                  -3.911
REMARK INTRA:                  -0.039
REMARK UNBOUND:                -0.039
REMARK SMILES CCCC(=O)[O-]
REMARK SMILES IDX 3 1 4 2 5 3 6 4 2 5 1 6
REMARK H PARENT
REMARK Flexibility Score: inf
ROOT
ATOM      1  C   UNL     1      19.290   9.733  39.775  1.00  0.00     0.052 C 
ENDROOT
BRANCH   1   2
ATOM      2  C   UNL     1      20.238   9.545  40.916  1.00  0.00     0.041 C 
ATOM      3  O   UNL     1      20.592  10.530  41.615  1.00  0.00    -0.550 OA
ATOM      4  O   UNL     1      20.693   8.272  41.240  1.00  0.00    -0.550 OA
ENDBRANCH   1   2
BRANCH   1   5
ATOM      5  C   UNL     1      18.728   8.384  39.317  1.00  0.00     0.003 C 
ATOM      6  C   UNL     1      17.300   8.185  39.817  1.00  0.00     0.004 C 
ENDBRANCH   1   5
TORSDOF 2
ENDMDL
MODEL 2
REMARK VINA RESULT:    -3.491     10.102     10.801
REMARK INTER + INTRA:          -3.939
REMARK INTER:                  -3.895
REMARK INTRA:                  -0.043
REMARK UNBOUND:                -0.039
REMARK SMILES CCCC(=O)[O-]
REMARK SMILES IDX 3 1 4 2 5 3 6 4 2 5 1 6
REMARK H PARENT
REMARK Flexibility Score: inf
ROOT
ATOM      1  C   UNL     1       9.456   9.135  45.245  1.00  0.00     0.052 C 
ENDROOT
BRANCH   1   2
ATOM      2  C   UNL     1       9.108   9.081  43.792  1.00  0.00     0.041 C 
ATOM      3  O   UNL     1       8.789  10.133  43.177  1.00  0.00    -0.550 OA
ATOM      4  O   UNL     1       9.183   7.877  43.103  1.00  0.00    -0.550 OA
ENDBRANCH   1   2
BRANCH   1   5
ATOM      5  C   UNL     1      10.934   9.489  45.429  1.00  0.00     0.003 C 
ATOM      6  C   UNL     1      11.790   8.232  45.552  1.00  0.00     0.004 C 
ENDBRANCH   1   5
TORSDOF 2
ENDMDL
MODEL 3
REMARK VINA RESULT:    -3.207      6.824      7.529
REMARK INTER + INTRA:          -3.621
REMARK INTER:                  -3.552
REMARK INTRA:                  -0.069
REMARK UNBOUND:                -0.039
REMARK SMILES CCCC(=O)[O-]
REMARK SMILES IDX 3 1 4 2 5 3 6 4 2 5 1 6
REMARK H PARENT
REMARK Flexibility Score: inf
ROOT
ATOM      1  C   UNL     1      19.600  16.471  42.612  1.00  0.00     0.052 C 
ENDROOT
BRANCH   1   2
ATOM      2  C   UNL     1      20.951  16.653  41.996  1.00  0.00     0.041 C 
ATOM      3  O   UNL     1      21.154  16.311  40.801  1.00  0.00    -0.550 OA
ATOM      4  O   UNL     1      21.973  17.248  42.725  1.00  0.00    -0.550 OA
ENDBRANCH   1   2
BRANCH   1   5
ATOM      5  C   UNL     1      19.246  14.983  42.694  1.00  0.00     0.003 C 
ATOM      6  C   UNL     1      20.093  14.273  43.746  1.00  0.00     0.004 C 
ENDBRANCH   1   5
TORSDOF 2
ENDMDL
MODEL 4
REMARK VINA RESULT:    -3.109      5.538      6.602
REMARK INTER + INTRA:          -3.512
REMARK INTER:                  -3.447
REMARK INTRA:                  -0.065
REMARK UNBOUND:                -0.039
REMARK SMILES CCCC(=O)[O-]
REMARK SMILES IDX 3 1 4 2 5 3 6 4 2 5 1 6
REMARK H PARENT
REMARK Flexibility Score: inf
ROOT
ATOM      1  C   UNL     1      19.163  15.034  42.648  1.00  0.00     0.052 C 
ENDROOT
BRANCH   1   2
ATOM      2  C   UNL     1      20.039  13.956  43.203  1.00  0.00     0.041 C 
ATOM      3  O   UNL     1      20.390  13.984  44.412  1.00  0.00    -0.550 OA
ATOM      4  O   UNL     1      20.429  12.894  42.397  1.00  0.00    -0.550 OA
ENDBRANCH   1   2
BRANCH   1   5
ATOM      5  C   UNL     1      19.930  16.357  42.566  1.00  0.00     0.003 C 
ATOM      6  C   UNL     1      20.953  16.331  41.433  1.00  0.00     0.004 C 
ENDBRANCH   1   5
TORSDOF 2
ENDMDL
MODEL 5
REMARK VINA RESULT:    -3.050     11.483     12.180
REMARK INTER + INTRA:          -3.446
REMARK INTER:                  -3.382
REMARK INTRA:                  -0.064
REMARK UNBOUND:                -0.039
REMARK SMILES CCCC(=O)[O-]
REMARK SMILES IDX 3 1 4 2 5 3 6 4 2 5 1 6
REMARK H PARENT
REMARK Flexibility Score: inf
ROOT
ATOM      1  C   UNL     1      10.119  15.050  41.907  1.00  0.00     0.052 C 
ENDROOT
BRANCH   1   2
ATOM      2  C   UNL     1       9.266  13.895  41.488  1.00  0.00     0.041 C 
ATOM      3  O   UNL     1       8.966  12.996  42.316  1.00  0.00    -0.550 OA
ATOM      4  O   UNL     1       8.762  13.836  40.194  1.00  0.00    -0.550 OA
ENDBRANCH   1   2
BRANCH   1   5
ATOM      5  C   UNL     1       9.321  16.356  41.841  1.00  0.00     0.003 C 
ATOM      6  C   UNL     1       8.326  16.452  42.994  1.00  0.00     0.004 C 
ENDBRANCH   1   5
TORSDOF 2
ENDMDL
MODEL 6
REMARK VINA RESULT:    -2.980     11.759     12.554
REMARK INTER + INTRA:          -3.368
REMARK INTER:                  -3.336
REMARK INTRA:                  -0.032
REMARK UNBOUND:                -0.039
REMARK SMILES CCCC(=O)[O-]
REMARK SMILES IDX 3 1 4 2 5 3 6 4 2 5 1 6
REMARK H PARENT
REMARK Flexibility Score: inf
ROOT
ATOM      1  C   UNL     1       8.508  14.733  42.307  1.00  0.00     0.052 C 
ENDROOT
BRANCH   1   2
ATOM      2  C   UNL     1       8.645  16.180  42.662  1.00  0.00     0.041 C 
ATOM      3  O   UNL     1       7.975  16.665  43.611  1.00  0.00    -0.550 OA
ATOM      4  O   UNL     1       9.548  16.982  41.976  1.00  0.00    -0.550 OA
ENDBRANCH   1   2
BRANCH   1   5
ATOM      5  C   UNL     1       9.708  14.271  41.475  1.00  0.00     0.003 C 
ATOM      6  C   UNL     1       9.254  13.620  40.171  1.00  0.00     0.004 C 
ENDBRANCH   1   5
TORSDOF 2
ENDMDL
MODEL 7
REMARK VINA RESULT:    -2.938      2.454      3.275
REMARK INTER + INTRA:          -3.321
REMARK INTER:                  -3.308
REMARK INTRA:                  -0.012
REMARK UNBOUND:                -0.039
REMARK SMILES CCCC(=O)[O-]
REMARK SMILES IDX 3 1 4 2 5 3 6 4 2 5 1 6
REMARK H PARENT
REMARK Flexibility Score: inf
ROOT
ATOM      1  C   UNL     1      19.970   8.288  39.439  1.00  0.00     0.052 C 
ENDROOT
BRANCH   1   2
ATOM      2  C   UNL     1      18.609   8.909  39.446  1.00  0.00     0.041 C 
ATOM      3  O   UNL     1      18.483  10.159  39.522  1.00  0.00    -0.550 OA
ATOM      4  O   UNL     1      17.480   8.109  39.320  1.00  0.00    -0.550 OA
ENDBRANCH   1   2
BRANCH   1   5
ATOM      5  C   UNL     1      21.052   9.372  39.447  1.00  0.00     0.003 C 
ATOM      6  C   UNL     1      22.432   8.774  39.184  1.00  0.00     0.004 C 
ENDBRANCH   1   5
TORSDOF 2
ENDMDL
MODEL 8
REMARK VINA RESULT:    -2.893      5.385      5.929
REMARK INTER + INTRA:          -3.271
REMARK INTER:                  -3.244
REMARK INTRA:                  -0.027
REMARK UNBOUND:                -0.039
REMARK SMILES CCCC(=O)[O-]
REMARK SMILES IDX 3 1 4 2 5 3 6 4 2 5 1 6
REMARK H PARENT
REMARK Flexibility Score: inf
ROOT
ATOM      1  C   UNL     1      20.388  12.011  44.311  1.00  0.00     0.052 C 
ENDROOT
BRANCH   1   2
ATOM      2  C   UNL     1      19.793  11.490  45.580  1.00  0.00     0.041 C 
ATOM      3  O   UNL     1      19.233  12.277  46.388  1.00  0.00    -0.550 OA
ATOM      4  O   UNL     1      19.812  10.127  45.849  1.00  0.00    -0.550 OA
ENDBRANCH   1   2
BRANCH   1   5
ATOM      5  C   UNL     1      20.361  13.542  44.296  1.00  0.00     0.003 C 
ATOM      6  C   UNL     1      19.849  14.070  42.959  1.00  0.00     0.004 C 
ENDBRANCH   1   5
TORSDOF 2
ENDMDL
MODEL 9
REMARK VINA RESULT:    -2.851     20.279     20.832
REMARK INTER + INTRA:          -3.223
REMARK INTER:                  -3.216
REMARK INTRA:                  -0.007
REMARK UNBOUND:                -0.039
REMARK SMILES CCCC(=O)[O-]
REMARK SMILES IDX 3 1 4 2 5 3 6 4 2 5 1 6
REMARK H PARENT
REMARK Flexibility Score: inf
ROOT
ATOM      1  C   UNL     1       6.323  25.847  40.432  1.00  0.00     0.052 C 
ENDROOT
BRANCH   1   2
ATOM      2  C   UNL     1       7.048  24.544  40.552  1.00  0.00     0.041 C 
ATOM      3  O   UNL     1       6.495  23.560  41.110  1.00  0.00    -0.550 OA
ATOM      4  O   UNL     1       8.317  24.401  40.003  1.00  0.00    -0.550 OA
ENDBRANCH   1   2
BRANCH   1   5
ATOM      5  C   UNL     1       5.955  26.122  38.972  1.00  0.00     0.003 C 
ATOM      6  C   UNL     1       5.568  27.584  38.768  1.00  0.00     0.004 C 
ENDBRANCH   1   5
TORSDOF 2
ENDMDL
