MODEL 1
REMARK VINA RESULT:    -4.015      0.000      0.000
REMARK INTER + INTRA:          -5.629
REMARK INTER:                  -5.424
REMARK INTRA:                  -0.205
REMARK UNBOUND:                -0.205
REMARK SMILES CCCCCCC=CC(=O)[O-]
REMARK SMILES IDX 5 1 6 2 7 3 8 4 9 5 10 6 11 7 4 8 3 9 2 10 1 11
REMARK H PARENT
REMARK Flexibility Score: inf
ROOT
ATOM      1  C   UNL     1      45.995  26.836   4.771  1.00  0.00     0.004 C 
ENDROOT
BRANCH   1   2
ATOM      2  C   UNL     1      45.327  25.659   4.049  1.00  0.00     0.027 C 
BRANCH   2   3
ATOM      3  C   UNL     1      45.045  25.991   2.612  1.00  0.00    -0.025 C 
ATOM      4  C   UNL     1      43.996  26.741   2.261  1.00  0.00     0.020 C 
BRANCH   4   5
ATOM      5  C   UNL     1      43.716  27.086   0.859  1.00  0.00     0.064 C 
ATOM      6  O   UNL     1      44.496  26.691  -0.046  1.00  0.00    -0.545 OA
ATOM      7  O   UNL     1      42.602  27.844   0.517  1.00  0.00    -0.545 OA
ENDBRANCH   4   5
ENDBRANCH   2   3
ENDBRANCH   1   2
BRANCH   1   8
ATOM      8  C   UNL     1      45.996  26.621   6.290  1.00  0.00     0.000 C 
BRANCH   8   9
ATOM      9  C   UNL     1      46.049  27.962   7.035  1.00  0.00    -0.000 C 
BRANCH   9  10
ATOM     10  C   UNL     1      45.295  27.924   8.373  1.00  0.00    -0.003 C 
ATOM     11  C   UNL     1      45.242  26.523   8.983  1.00  0.00     0.004 C 
ENDBRANCH   9  10
ENDBRANCH   8   9
ENDBRANCH   1   8
TORSDOF 6
ENDMDL
MODEL 2
REMARK VINA RESULT:    -3.891      3.985      6.232
REMARK INTER + INTRA:          -5.462
REMARK INTER:                  -5.110
REMARK INTRA:                  -0.351
REMARK UNBOUND:                -0.205
REMARK SMILES CCCCCCC=CC(=O)[O-]
REMARK SMILES IDX 5 1 6 2 7 3 8 4 9 5 10 6 11 7 4 8 3 9 2 10 1 11
REMARK H PARENT
REMARK Flexibility Score: inf
ROOT
ATOM      1  C   UNL     1      46.240  26.009   4.375  1.00  0.00     0.004 C 
ENDROOT
BRANCH   1   2
ATOM      2  C   UNL     1      46.290  27.486   4.786  1.00  0.00     0.027 C 
BRANCH   2   3
ATOM      3  C   UNL     1      45.914  27.663   6.229  1.00  0.00    -0.025 C 
ATOM      4  C   UNL     1      45.803  26.618   7.055  1.00  0.00     0.020 C 
BRANCH   4   5
ATOM      5  C   UNL     1      45.450  26.778   8.473  1.00  0.00     0.064 C 
ATOM      6  O   UNL     1      45.101  27.908   8.904  1.00  0.00    -0.545 OA
ATOM      7  O   UNL     1      45.496  25.698   9.349  1.00  0.00    -0.545 OA
ENDBRANCH   4   5
ENDBRANCH   2   3
ENDBRANCH   1   2
BRANCH   1   8
ATOM      8  C   UNL     1      45.141  25.764   3.333  1.00  0.00     0.000 C 
BRANCH   8   9
ATOM      9  C   UNL     1      44.740  27.074   2.641  1.00  0.00    -0.000 C 
BRANCH   9  10
ATOM     10  C   UNL     1      43.655  26.869   1.572  1.00  0.00    -0.003 C 
ATOM     11  C   UNL     1      42.517  27.883   1.682  1.00  0.00     0.004 C 
ENDBRANCH   9  10
ENDBRANCH   8   9
ENDBRANCH   1   8
TORSDOF 6
ENDMDL
MODEL 3
REMARK VINA RESULT:    -3.830      4.633      6.830
REMARK INTER + INTRA:          -5.378
REMARK INTER:                  -4.957
REMARK INTRA:                  -0.421
REMARK UNBOUND:                -0.205
REMARK SMILES CCCCCCC=CC(=O)[O-]
REMARK SMILES IDX 5 1 6 2 7 3 8 4 9 5 10 6 11 7 4 8 3 9 2 10 1 11
REMARK H PARENT
REMARK Flexibility Score: inf
ROOT
ATOM      1  C   UNL     1      44.067  27.609  -1.366  1.00  0.00     0.004 C 
ENDROOT
BRANCH   1   2
ATOM      2  C   UNL     1      43.226  28.834  -1.745  1.00  0.00     0.027 C 
BRANCH   2   3
ATOM      3  C   UNL     1      42.657  28.698  -3.128  1.00  0.00    -0.025 C 
ATOM      4  C   UNL     1      43.275  27.979  -4.070  1.00  0.00     0.020 C 
BRANCH   4   5
ATOM      5  C   UNL     1      42.722  27.825  -5.424  1.00  0.00     0.064 C 
ATOM      6  O   UNL     1      41.591  28.308  -5.693  1.00  0.00    -0.545 OA
ATOM      7  O   UNL     1      43.429  27.151  -6.414  1.00  0.00    -0.545 OA
ENDBRANCH   4   5
ENDBRANCH   2   3
ENDBRANCH   1   2
BRANCH   1   8
ATOM      8  C   UNL     1      43.298  26.689  -0.409  1.00  0.00     0.000 C 
BRANCH   8   9
ATOM      9  C   UNL     1      42.392  27.504   0.526  1.00  0.00    -0.000 C 
BRANCH   9  10
ATOM     10  C   UNL     1      43.033  27.752   1.900  1.00  0.00    -0.003 C 
ATOM     11  C   UNL     1      44.098  26.715   2.252  1.00  0.00     0.004 C 
ENDBRANCH   9  10
ENDBRANCH   8   9
ENDBRANCH   1   8
TORSDOF 6
ENDMDL
MODEL 4
REMARK VINA RESULT:    -3.810      3.343      4.539
REMARK INTER + INTRA:          -5.352
REMARK INTER:                  -5.095
REMARK INTRA:                  -0.256
REMARK UNBOUND:                -0.205
REMARK SMILES CCCCCCC=CC(=O)[O-]
REMARK SMILES IDX 5 1 6 2 7 3 8 4 9 5 10 6 11 7 4 8 3 9 2 10 1 11
REMARK H PARENT
REMARK Flexibility Score: inf
ROOT
ATOM      1  C   UNL     1      43.063  27.489   1.873  1.00  0.00     0.004 C 
ENDROOT
BRANCH   1   2
ATOM      2  C   UNL     1      42.593  27.821   0.452  1.00  0.00     0.027 C 
BRANCH   2   3
ATOM      3  C   UNL     1      43.495  27.203  -0.578  1.00  0.00    -0.025 C 
ATOM      4  C   UNL     1      43.591  27.703  -1.813  1.00  0.00     0.020 C 
BRANCH   4   5
ATOM      5  C   UNL     1      44.480  27.117  -2.827  1.00  0.00     0.064 C 
ATOM      6  O   UNL     1      45.643  26.762  -2.504  1.00  0.00    -0.545 OA
ATOM      7  O   UNL     1      44.055  26.949  -4.141  1.00  0.00    -0.545 OA
ENDBRANCH   4   5
ENDBRANCH   2   3
ENDBRANCH   1   2
BRANCH   1   8
ATOM      8  C   UNL     1      44.411  26.756   1.850  1.00  0.00     0.000 C 
BRANCH   8   9
ATOM      9  C   UNL     1      44.879  26.422   3.273  1.00  0.00    -0.000 C 
BRANCH   9  10
ATOM     10  C   UNL     1      45.497  25.019   3.377  1.00  0.00    -0.003 C 
ATOM     11  C   UNL     1      46.981  25.052   3.740  1.00  0.00     0.004 C 
ENDBRANCH   9  10
ENDBRANCH   8   9
ENDBRANCH   1   8
TORSDOF 6
ENDMDL
MODEL 5
REMARK VINA RESULT:    -3.793      1.177      2.128
REMARK INTER + INTRA:          -5.328
REMARK INTER:                  -5.040
REMARK INTRA:                  -0.288
REMARK UNBOUND:                -0.205
REMARK SMILES CCCCCCC=CC(=O)[O-]
REMARK SMILES IDX 5 1 6 2 7 3 8 4 9 5 10 6 11 7 4 8 3 9 2 10 1 11
REMARK H PARENT
REMARK Flexibility Score: inf
ROOT
ATOM      1  C   UNL     1      45.164  25.501   3.648  1.00  0.00     0.004 C 
ENDROOT
BRANCH   1   2
ATOM      2  C   UNL     1      44.786  26.830   2.981  1.00  0.00     0.027 C 
BRANCH   2   3
ATOM      3  C   UNL     1      44.071  26.602   1.680  1.00  0.00    -0.025 C 
ATOM      4  C   UNL     1      44.373  27.306   0.585  1.00  0.00     0.020 C 
BRANCH   4   5
ATOM      5  C   UNL     1      43.692  27.084  -0.699  1.00  0.00     0.064 C 
ATOM      6  O   UNL     1      42.968  27.992  -1.184  1.00  0.00    -0.545 OA
ATOM      7  O   UNL     1      43.833  25.883  -1.386  1.00  0.00    -0.545 OA
ENDBRANCH   4   5
ENDBRANCH   2   3
ENDBRANCH   1   2
BRANCH   1   8
ATOM      8  C   UNL     1      46.559  25.581   4.281  1.00  0.00     0.000 C 
BRANCH   8   9
ATOM      9  C   UNL     1      46.678  26.809   5.196  1.00  0.00    -0.000 C 
BRANCH   9  10
ATOM     10  C   UNL     1      46.003  26.596   6.559  1.00  0.00    -0.003 C 
ATOM     11  C   UNL     1      45.715  27.908   7.288  1.00  0.00     0.004 C 
ENDBRANCH   9  10
ENDBRANCH   8   9
ENDBRANCH   1   8
TORSDOF 6
ENDMDL
MODEL 6
REMARK VINA RESULT:    -3.707      5.366      6.824
REMARK INTER + INTRA:          -5.213
REMARK INTER:                  -4.802
REMARK INTRA:                  -0.411
REMARK UNBOUND:                -0.205
REMARK SMILES CCCCCCC=CC(=O)[O-]
REMARK SMILES IDX 5 1 6 2 7 3 8 4 9 5 10 6 11 7 4 8 3 9 2 10 1 11
REMARK H PARENT
REMARK Flexibility Score: inf
ROOT
ATOM      1  C   UNL     1      43.958  27.524  -1.281  1.00  0.00     0.004 C 
ENDROOT
BRANCH   1   2
ATOM      2  C   UNL     1      43.222  28.802  -1.704  1.00  0.00     0.027 C 
BRANCH   2   3
ATOM      3  C   UNL     1      42.727  28.701  -3.118  1.00  0.00    -0.025 C 
ATOM      4  C   UNL     1      43.264  27.840  -3.988  1.00  0.00     0.020 C 
BRANCH   4   5
ATOM      5  C   UNL     1      42.780  27.721  -5.371  1.00  0.00     0.064 C 
ATOM      6  O   UNL     1      43.469  27.097  -6.219  1.00  0.00    -0.545 OA
ATOM      7  O   UNL     1      41.572  28.290  -5.758  1.00  0.00    -0.545 OA
ENDBRANCH   4   5
ENDBRANCH   2   3
ENDBRANCH   1   2
BRANCH   1   8
ATOM      8  C   UNL     1      43.145  26.740  -0.242  1.00  0.00     0.000 C 
BRANCH   8   9
ATOM      9  C   UNL     1      43.370  27.302   1.169  1.00  0.00    -0.000 C 
BRANCH   9  10
ATOM     10  C   UNL     1      42.091  27.895   1.779  1.00  0.00    -0.003 C 
ATOM     11  C   UNL     1      42.081  29.424   1.761  1.00  0.00     0.004 C 
ENDBRANCH   9  10
ENDBRANCH   8   9
ENDBRANCH   1   8
TORSDOF 6
ENDMDL
MODEL 7
REMARK VINA RESULT:    -3.700      3.634      7.081
REMARK INTER + INTRA:          -5.203
REMARK INTER:                  -4.949
REMARK INTRA:                  -0.254
REMARK UNBOUND:                -0.205
REMARK SMILES CCCCCCC=CC(=O)[O-]
REMARK SMILES IDX 5 1 6 2 7 3 8 4 9 5 10 6 11 7 4 8 3 9 2 10 1 11
REMARK H PARENT
REMARK Flexibility Score: inf
ROOT
ATOM      1  C   UNL     1      42.596  27.314   0.416  1.00  0.00     0.004 C 
ENDROOT
BRANCH   1   2
ATOM      2  C   UNL     1      42.983  27.438   1.895  1.00  0.00     0.027 C 
BRANCH   2   3
ATOM      3  C   UNL     1      44.413  27.036   2.118  1.00  0.00    -0.025 C 
ATOM      4  C   UNL     1      44.739  26.061   2.973  1.00  0.00     0.020 C 
BRANCH   4   5
ATOM      5  C   UNL     1      46.133  25.648   3.191  1.00  0.00     0.064 C 
ATOM      6  O   UNL     1      46.873  25.409   2.202  1.00  0.00    -0.545 OA
ATOM      7  O   UNL     1      46.647  25.513   4.476  1.00  0.00    -0.545 OA
ENDBRANCH   4   5
ENDBRANCH   2   3
ENDBRANCH   1   2
BRANCH   1   8
ATOM      8  C   UNL     1      43.832  27.064  -0.458  1.00  0.00     0.000 C 
BRANCH   8   9
ATOM      9  C   UNL     1      43.663  27.702  -1.844  1.00  0.00    -0.000 C 
BRANCH   9  10
ATOM     10  C   UNL     1      44.484  26.986  -2.927  1.00  0.00    -0.003 C 
ATOM     11  C   UNL     1      43.698  26.773  -4.221  1.00  0.00     0.004 C 
ENDBRANCH   9  10
ENDBRANCH   8   9
ENDBRANCH   1   8
TORSDOF 6
ENDMDL
MODEL 8
REMARK VINA RESULT:    -3.629      3.825      5.644
REMARK INTER + INTRA:          -5.107
REMARK INTER:                  -4.821
REMARK INTRA:                  -0.286
REMARK UNBOUND:                -0.205
REMARK SMILES CCCCCCC=CC(=O)[O-]
REMARK SMILES IDX 5 1 6 2 7 3 8 4 9 5 10 6 11 7 4 8 3 9 2 10 1 11
REMARK H PARENT
REMARK Flexibility Score: inf
ROOT
ATOM      1  C   UNL     1      42.903  27.143   0.251  1.00  0.00     0.004 C 
ENDROOT
BRANCH   1   2
ATOM      2  C   UNL     1      43.017  28.400  -0.620  1.00  0.00     0.027 C 
BRANCH   2   3
ATOM      3  C   UNL     1      43.247  28.045  -2.061  1.00  0.00    -0.025 C 
ATOM      4  C   UNL     1      42.705  28.759  -3.052  1.00  0.00     0.020 C 
BRANCH   4   5
ATOM      5  C   UNL     1      42.933  28.431  -4.467  1.00  0.00     0.064 C 
ATOM      6  O   UNL     1      44.110  28.299  -4.893  1.00  0.00    -0.545 OA
ATOM      7  O   UNL     1      41.867  28.267  -5.345  1.00  0.00    -0.545 OA
ENDBRANCH   4   5
ENDBRANCH   2   3
ENDBRANCH   1   2
BRANCH   1   8
ATOM      8  C   UNL     1      42.818  27.510   1.738  1.00  0.00     0.000 C 
BRANCH   8   9
ATOM      9  C   UNL     1      44.197  27.904   2.286  1.00  0.00    -0.000 C 
BRANCH   9  10
ATOM     10  C   UNL     1      45.218  26.760   2.193  1.00  0.00    -0.003 C 
ATOM     11  C   UNL     1      45.031  25.710   3.287  1.00  0.00     0.004 C 
ENDBRANCH   9  10
ENDBRANCH   8   9
ENDBRANCH   1   8
TORSDOF 6
ENDMDL
MODEL 9
REMARK VINA RESULT:    -3.606      3.727      6.907
REMARK INTER + INTRA:          -5.077
REMARK INTER:                  -4.527
REMARK INTRA:                  -0.550
REMARK UNBOUND:                -0.205
REMARK SMILES CCCCCCC=CC(=O)[O-]
REMARK SMILES IDX 5 1 6 2 7 3 8 4 9 5 10 6 11 7 4 8 3 9 2 10 1 11
REMARK H PARENT
REMARK Flexibility Score: inf
ROOT
ATOM      1  C   UNL     1      42.659  29.087   0.646  1.00  0.00     0.004 C 
ENDROOT
BRANCH   1   2
ATOM      2  C   UNL     1      42.365  27.591   0.808  1.00  0.00     0.027 C 
BRANCH   2   3
ATOM      3  C   UNL     1      43.613  26.823   1.133  1.00  0.00    -0.025 C 
ATOM      4  C   UNL     1      44.192  26.905   2.335  1.00  0.00     0.020 C 
BRANCH   4   5
ATOM      5  C   UNL     1      45.407  26.148   2.671  1.00  0.00     0.064 C 
ATOM      6  O   UNL     1      45.305  24.981   3.131  1.00  0.00    -0.545 OA
ATOM      7  O   UNL     1      46.669  26.702   2.489  1.00  0.00    -0.545 OA
ENDBRANCH   4   5
ENDBRANCH   2   3
ENDBRANCH   1   2
BRANCH   1   8
ATOM      8  C   UNL     1      43.439  29.357  -0.647  1.00  0.00     0.000 C 
BRANCH   8   9
ATOM      9  C   UNL     1      42.612  28.964  -1.880  1.00  0.00    -0.000 C 
BRANCH   9  10
ATOM     10  C   UNL     1      43.467  28.330  -2.987  1.00  0.00    -0.003 C 
ATOM     11  C   UNL     1      44.158  27.043  -2.537  1.00  0.00     0.004 C 
ENDBRANCH   9  10
ENDBRANCH   8   9
ENDBRANCH   1   8
TORSDOF 6
ENDMDL
