MODEL 1
REMARK VINA RESULT:    -5.437      0.000      0.000
REMARK INTER + INTRA:          -6.928
REMARK INTER:                  -6.708
REMARK INTRA:                  -0.220
REMARK UNBOUND:                -0.220
REMARK SMILES O=c1c(O)c(-c2cc(O)c(O)c(O)c2)oc2cc(O)cc(O)c12
REMARK SMILES IDX 5 1 3 2 2 3 1 4 23 5 21 6 20 7 18 8 17 9 16 10 15 11 6 12
REMARK SMILES IDX 7 13 8 14 14 15 10 16 12 17 9 18 11 20 13 22 4 24 22 26
REMARK SMILES IDX 19 28
REMARK H PARENT 9 19 11 21 13 23 4 25 22 27 19 29
REMARK Flexibility Score: inf
ROOT
ATOM      1  C   UNL     1      36.414 -95.191  30.374  1.00  0.00     0.180 A 
ATOM      2  C   UNL     1      37.428 -95.582  29.482  1.00  0.00     0.208 A 
ATOM      3  C   UNL     1      38.760 -95.587  29.927  1.00  0.00     0.238 A 
ATOM      4  O   UNL     1      39.669 -95.886  29.108  1.00  0.00    -0.285 OA
ATOM      5  C   UNL     1      39.060 -95.218  31.260  1.00  0.00     0.111 A 
ATOM      6  C   UNL     1      40.369 -95.226  31.829  1.00  0.00     0.134 A 
ATOM      7  C   UNL     1      40.565 -94.716  33.118  1.00  0.00     0.093 A 
ATOM      8  C   UNL     1      39.488 -94.260  33.883  1.00  0.00     0.123 A 
ATOM      9  C   UNL     1      38.199 -94.303  33.359  1.00  0.00     0.094 A 
ATOM     10  C   UNL     1      37.977 -94.773  32.063  1.00  0.00     0.146 A 
ATOM     11  O   UNL     1      36.733 -94.788  31.598  1.00  0.00    -0.452 OA
ENDROOT
BRANCH   1  12
ATOM     12  C   UNL     1      34.985 -95.185  29.986  1.00  0.00     0.029 A 
ATOM     13  C   UNL     1      34.113 -96.127  30.548  1.00  0.00     0.062 A 
ATOM     14  C   UNL     1      32.760 -96.164  30.188  1.00  0.00     0.162 A 
ATOM     15  C   UNL     1      34.494 -94.292  29.022  1.00  0.00     0.062 A 
ATOM     16  C   UNL     1      32.266 -95.245  29.232  1.00  0.00     0.200 A 
ATOM     17  C   UNL     1      33.146 -94.314  28.650  1.00  0.00     0.162 A 
BRANCH  14  18
ATOM     18  O   UNL     1      31.952 -97.125  30.801  1.00  0.00    -0.504 OA
ATOM     19  H   UNL     1      31.400 -96.955  31.629  1.00  0.00     0.293 HD
ENDBRANCH  14  18
BRANCH  16  20
ATOM     20  O   UNL     1      30.926 -95.227  28.839  1.00  0.00    -0.502 OA
ATOM     21  H   UNL     1      30.512 -95.893  28.201  1.00  0.00     0.293 HD
ENDBRANCH  16  20
BRANCH  17  22
ATOM     22  O   UNL     1      32.701 -93.403  27.693  1.00  0.00    -0.504 OA
ATOM     23  H   UNL     1      32.348 -93.695  26.789  1.00  0.00     0.293 HD
ENDBRANCH  17  22
ENDBRANCH   1  12
BRANCH   2  24
ATOM     24  O   UNL     1      37.112 -95.922  28.164  1.00  0.00    -0.502 OA
ATOM     25  H   UNL     1      37.587 -96.667  27.666  1.00  0.00     0.293 HD
ENDBRANCH   2  24
BRANCH   6  26
ATOM     26  O   UNL     1      41.496 -95.744  31.185  1.00  0.00    -0.507 OA
ATOM     27  H   UNL     1      41.696 -95.638  30.202  1.00  0.00     0.293 HD
ENDBRANCH   6  26
BRANCH   8  28
ATOM     28  O   UNL     1      39.691 -93.768  35.172  1.00  0.00    -0.508 OA
ATOM     29  H   UNL     1      40.110 -94.339  35.897  1.00  0.00     0.293 HD
ENDBRANCH   8  28
TORSDOF 7
ENDMDL
MODEL 2
REMARK VINA RESULT:    -5.435      0.156      1.772
REMARK INTER + INTRA:          -6.925
REMARK INTER:                  -6.732
REMARK INTRA:                  -0.193
REMARK UNBOUND:                -0.220
REMARK SMILES O=c1c(O)c(-c2cc(O)c(O)c(O)c2)oc2cc(O)cc(O)c12
REMARK SMILES IDX 5 1 3 2 2 3 1 4 23 5 21 6 20 7 18 8 17 9 16 10 15 11 6 12
REMARK SMILES IDX 7 13 8 14 14 15 10 16 12 17 9 18 11 20 13 22 4 24 22 26
REMARK SMILES IDX 19 28
REMARK H PARENT 9 19 11 21 13 23 4 25 22 27 19 29
REMARK Flexibility Score: inf
ROOT
ATOM      1  C   UNL     1      36.327 -95.207  30.292  1.00  0.00     0.180 A 
ATOM      2  C   UNL     1      37.336 -95.531  29.369  1.00  0.00     0.208 A 
ATOM      3  C   UNL     1      38.676 -95.494  29.787  1.00  0.00     0.238 A 
ATOM      4  O   UNL     1      39.579 -95.732  28.943  1.00  0.00    -0.285 OA
ATOM      5  C   UNL     1      38.989 -95.152  31.125  1.00  0.00     0.111 A 
ATOM      6  C   UNL     1      40.309 -95.123  31.668  1.00  0.00     0.134 A 
ATOM      7  C   UNL     1      40.511 -94.644  32.967  1.00  0.00     0.093 A 
ATOM      8  C   UNL     1      39.433 -94.254  33.767  1.00  0.00     0.123 A 
ATOM      9  C   UNL     1      38.136 -94.334  33.267  1.00  0.00     0.094 A 
ATOM     10  C   UNL     1      37.906 -94.775  31.962  1.00  0.00     0.146 A 
ATOM     11  O   UNL     1      36.654 -94.827  31.522  1.00  0.00    -0.452 OA
ENDROOT
BRANCH   1  12
ATOM     12  C   UNL     1      34.890 -95.247  29.932  1.00  0.00     0.029 A 
ATOM     13  C   UNL     1      34.386 -94.329  29.001  1.00  0.00     0.062 A 
ATOM     14  C   UNL     1      33.030 -94.323  28.654  1.00  0.00     0.162 A 
ATOM     15  C   UNL     1      34.008 -96.147  30.548  1.00  0.00     0.062 A 
ATOM     16  C   UNL     1      32.149 -95.250  29.261  1.00  0.00     0.200 A 
ATOM     17  C   UNL     1      32.650 -96.156  30.213  1.00  0.00     0.162 A 
BRANCH  14  18
ATOM     18  O   UNL     1      32.606 -93.386  27.709  1.00  0.00    -0.504 OA
ATOM     19  H   UNL     1      31.976 -92.623  27.911  1.00  0.00     0.293 HD
ENDBRANCH  14  18
BRANCH  16  20
ATOM     20  O   UNL     1      30.788 -95.298  28.950  1.00  0.00    -0.502 OA
ATOM     21  H   UNL     1      30.114 -94.603  29.238  1.00  0.00     0.293 HD
ENDBRANCH  16  20
BRANCH  17  22
ATOM     22  O   UNL     1      31.811 -97.074  30.846  1.00  0.00    -0.504 OA
ATOM     23  H   UNL     1      31.168 -97.663  30.331  1.00  0.00     0.293 HD
ENDBRANCH  17  22
ENDBRANCH   1  12
BRANCH   2  24
ATOM     24  O   UNL     1      37.007 -95.845  28.048  1.00  0.00    -0.502 OA
ATOM     25  H   UNL     1      36.136 -95.553  27.621  1.00  0.00     0.293 HD
ENDBRANCH   2  24
BRANCH   6  26
ATOM     26  O   UNL     1      41.442 -95.576  30.987  1.00  0.00    -0.507 OA
ATOM     27  H   UNL     1      42.336 -95.762  31.417  1.00  0.00     0.293 HD
ENDBRANCH   6  26
BRANCH   8  28
ATOM     28  O   UNL     1      39.642 -93.793  35.066  1.00  0.00    -0.508 OA
ATOM     29  H   UNL     1      38.868 -93.570  35.680  1.00  0.00     0.293 HD
ENDBRANCH   8  28
TORSDOF 7
ENDMDL
MODEL 3
REMARK VINA RESULT:    -5.247      1.704      6.561
REMARK INTER + INTRA:          -6.694
REMARK INTER:                  -6.371
REMARK INTRA:                  -0.323
REMARK UNBOUND:                -0.220
REMARK SMILES O=c1c(O)c(-c2cc(O)c(O)c(O)c2)oc2cc(O)cc(O)c12
REMARK SMILES IDX 5 1 3 2 2 3 1 4 23 5 21 6 20 7 18 8 17 9 16 10 15 11 6 12
REMARK SMILES IDX 7 13 8 14 14 15 10 16 12 17 9 18 11 20 13 22 4 24 22 26
REMARK SMILES IDX 19 28
REMARK H PARENT 9 19 11 21 13 23 4 25 22 27 19 29
REMARK Flexibility Score: inf
ROOT
ATOM      1  C   UNL     1      37.544 -95.458  31.686  1.00  0.00     0.180 A 
ATOM      2  C   UNL     1      38.190 -96.254  30.724  1.00  0.00     0.208 A 
ATOM      3  C   UNL     1      37.624 -96.368  29.444  1.00  0.00     0.238 A 
ATOM      4  O   UNL     1      38.177 -97.124  28.604  1.00  0.00    -0.285 OA
ATOM      5  C   UNL     1      36.430 -95.671  29.137  1.00  0.00     0.111 A 
ATOM      6  C   UNL     1      35.791 -95.682  27.861  1.00  0.00     0.134 A 
ATOM      7  C   UNL     1      34.544 -95.063  27.707  1.00  0.00     0.093 A 
ATOM      8  C   UNL     1      33.946 -94.377  28.768  1.00  0.00     0.123 A 
ATOM      9  C   UNL     1      34.589 -94.311  30.001  1.00  0.00     0.094 A 
ATOM     10  C   UNL     1      35.817 -94.949  30.194  1.00  0.00     0.146 A 
ATOM     11  O   UNL     1      36.392 -94.869  31.388  1.00  0.00    -0.452 OA
ENDROOT
BRANCH   1  12
ATOM     12  C   UNL     1      38.094 -95.269  33.049  1.00  0.00     0.029 A 
ATOM     13  C   UNL     1      37.484 -95.915  34.134  1.00  0.00     0.062 A 
ATOM     14  C   UNL     1      37.963 -95.742  35.438  1.00  0.00     0.162 A 
ATOM     15  C   UNL     1      39.177 -94.411  33.287  1.00  0.00     0.062 A 
ATOM     16  C   UNL     1      39.072 -94.893  35.669  1.00  0.00     0.200 A 
ATOM     17  C   UNL     1      39.669 -94.227  34.583  1.00  0.00     0.162 A 
BRANCH  14  18
ATOM     18  O   UNL     1      37.310 -96.429  36.464  1.00  0.00    -0.504 OA
ATOM     19  H   UNL     1      37.647 -97.287  36.875  1.00  0.00     0.293 HD
ENDBRANCH  14  18
BRANCH  16  20
ATOM     20  O   UNL     1      39.600 -94.688  36.946  1.00  0.00    -0.502 OA
ATOM     21  H   UNL     1      39.042 -94.601  37.784  1.00  0.00     0.293 HD
ENDBRANCH  16  20
BRANCH  17  22
ATOM     22  O   UNL     1      40.753 -93.370  34.772  1.00  0.00    -0.504 OA
ATOM     23  H   UNL     1      40.854 -92.799  35.603  1.00  0.00     0.293 HD
ENDBRANCH  17  22
ENDBRANCH   1  12
BRANCH   2  24
ATOM     24  O   UNL     1      39.356 -96.950  31.055  1.00  0.00    -0.502 OA
ATOM     25  H   UNL     1      40.127 -97.058  30.407  1.00  0.00     0.293 HD
ENDBRANCH   2  24
BRANCH   6  26
ATOM     26  O   UNL     1      36.346 -96.258  26.715  1.00  0.00    -0.507 OA
ATOM     27  H   UNL     1      37.334 -96.304  26.515  1.00  0.00     0.293 HD
ENDBRANCH   6  26
BRANCH   8  28
ATOM     28  O   UNL     1      32.712 -93.750  28.602  1.00  0.00    -0.508 OA
ATOM     29  H   UNL     1      32.643 -92.793  28.276  1.00  0.00     0.293 HD
ENDBRANCH   8  28
TORSDOF 7
ENDMDL
MODEL 4
REMARK VINA RESULT:    -5.247      1.471      7.084
REMARK INTER + INTRA:          -6.694
REMARK INTER:                  -6.502
REMARK INTRA:                  -0.192
REMARK UNBOUND:                -0.220
REMARK SMILES O=c1c(O)c(-c2cc(O)c(O)c(O)c2)oc2cc(O)cc(O)c12
REMARK SMILES IDX 5 1 3 2 2 3 1 4 23 5 21 6 20 7 18 8 17 9 16 10 15 11 6 12
REMARK SMILES IDX 7 13 8 14 14 15 10 16 12 17 9 18 11 20 13 22 4 24 22 26
REMARK SMILES IDX 19 28
REMARK H PARENT 9 19 11 21 13 23 4 25 22 27 19 29
REMARK Flexibility Score: inf
ROOT
ATOM      1  C   UNL     1      35.471 -95.467  30.005  1.00  0.00     0.180 A 
ATOM      2  C   UNL     1      35.280 -95.103  28.661  1.00  0.00     0.208 A 
ATOM      3  C   UNL     1      33.980 -95.125  28.130  1.00  0.00     0.238 A 
ATOM      4  O   UNL     1      33.820 -94.850  26.912  1.00  0.00    -0.285 OA
ATOM      5  C   UNL     1      32.888 -95.493  28.952  1.00  0.00     0.111 A 
ATOM      6  C   UNL     1      31.524 -95.511  28.530  1.00  0.00     0.134 A 
ATOM      7  C   UNL     1      30.542 -96.017  29.389  1.00  0.00     0.093 A 
ATOM      8  C   UNL     1      30.865 -96.445  30.680  1.00  0.00     0.123 A 
ATOM      9  C   UNL     1      32.183 -96.377  31.122  1.00  0.00     0.094 A 
ATOM     10  C   UNL     1      33.191 -95.910  30.275  1.00  0.00     0.146 A 
ATOM     11  O   UNL     1      34.436 -95.871  30.733  1.00  0.00    -0.452 OA
ENDROOT
BRANCH   1  12
ATOM     12  C   UNL     1      36.809 -95.445  30.643  1.00  0.00     0.029 A 
ATOM     13  C   UNL     1      37.075 -94.511  31.654  1.00  0.00     0.062 A 
ATOM     14  C   UNL     1      38.334 -94.447  32.263  1.00  0.00     0.162 A 
ATOM     15  C   UNL     1      37.835 -96.300  30.217  1.00  0.00     0.062 A 
ATOM     16  C   UNL     1      39.359 -95.329  31.845  1.00  0.00     0.200 A 
ATOM     17  C   UNL     1      39.098 -96.250  30.814  1.00  0.00     0.162 A 
BRANCH  14  18
ATOM     18  O   UNL     1      38.519 -93.498  33.271  1.00  0.00    -0.504 OA
ATOM     19  H   UNL     1      37.995 -93.479  34.134  1.00  0.00     0.293 HD
ENDBRANCH  14  18
BRANCH  16  20
ATOM     20  O   UNL     1      40.632 -95.319  32.420  1.00  0.00    -0.502 OA
ATOM     21  H   UNL     1      41.322 -94.599  32.259  1.00  0.00     0.293 HD
ENDBRANCH  16  20
BRANCH  17  22
ATOM     22  O   UNL     1      40.087 -97.125  30.362  1.00  0.00    -0.504 OA
ATOM     23  H   UNL     1      40.567 -97.766  30.983  1.00  0.00     0.293 HD
ENDBRANCH  17  22
ENDBRANCH   1  12
BRANCH   2  24
ATOM     24  O   UNL     1      36.374 -94.764  27.861  1.00  0.00    -0.502 OA
ATOM     25  H   UNL     1      36.321 -94.052  27.141  1.00  0.00     0.293 HD
ENDBRANCH   2  24
BRANCH   6  26
ATOM     26  O   UNL     1      31.083 -95.021  27.298  1.00  0.00    -0.507 OA
ATOM     27  H   UNL     1      31.683 -94.814  26.513  1.00  0.00     0.293 HD
ENDBRANCH   6  26
BRANCH   8  28
ATOM     28  O   UNL     1      29.878 -96.934  31.534  1.00  0.00    -0.508 OA
ATOM     29  H   UNL     1      29.507 -97.872  31.434  1.00  0.00     0.293 HD
ENDBRANCH   8  28
TORSDOF 7
ENDMDL
MODEL 5
REMARK VINA RESULT:    -5.200      9.250     10.733
REMARK INTER + INTRA:          -6.636
REMARK INTER:                  -6.417
REMARK INTRA:                  -0.219
REMARK UNBOUND:                -0.220
REMARK SMILES O=c1c(O)c(-c2cc(O)c(O)c(O)c2)oc2cc(O)cc(O)c12
REMARK SMILES IDX 5 1 3 2 2 3 1 4 23 5 21 6 20 7 18 8 17 9 16 10 15 11 6 12
REMARK SMILES IDX 7 13 8 14 14 15 10 16 12 17 9 18 11 20 13 22 4 24 22 26
REMARK SMILES IDX 19 28
REMARK H PARENT 9 19 11 21 13 23 4 25 22 27 19 29
REMARK Flexibility Score: inf
ROOT
ATOM      1  C   UNL     1      30.919 -92.156  37.725  1.00  0.00     0.180 A 
ATOM      2  C   UNL     1      29.718 -92.782  37.349  1.00  0.00     0.208 A 
ATOM      3  C   UNL     1      29.605 -94.175  37.489  1.00  0.00     0.238 A 
ATOM      4  O   UNL     1      28.548 -94.737  37.102  1.00  0.00    -0.285 OA
ATOM      5  C   UNL     1      30.686 -94.921  38.018  1.00  0.00     0.111 A 
ATOM      6  C   UNL     1      30.666 -96.330  38.242  1.00  0.00     0.134 A 
ATOM      7  C   UNL     1      31.838 -96.982  38.646  1.00  0.00     0.093 A 
ATOM      8  C   UNL     1      33.010 -96.265  38.899  1.00  0.00     0.123 A 
ATOM      9  C   UNL     1      33.023 -94.881  38.740  1.00  0.00     0.094 A 
ATOM     10  C   UNL     1      31.880 -94.208  38.303  1.00  0.00     0.146 A 
ATOM     11  O   UNL     1      31.939 -92.890  38.156  1.00  0.00    -0.452 OA
ENDROOT
BRANCH   1  12
ATOM     12  C   UNL     1      31.105 -90.689  37.629  1.00  0.00     0.029 A 
ATOM     13  C   UNL     1      30.345 -89.843  38.448  1.00  0.00     0.062 A 
ATOM     14  C   UNL     1      30.478 -88.451  38.369  1.00  0.00     0.162 A 
ATOM     15  C   UNL     1      31.984 -90.123  36.694  1.00  0.00     0.062 A 
ATOM     16  C   UNL     1      31.385 -87.887  37.440  1.00  0.00     0.200 A 
ATOM     17  C   UNL     1      32.130 -88.736  36.602  1.00  0.00     0.162 A 
BRANCH  14  18
ATOM     18  O   UNL     1      29.695 -87.675  39.228  1.00  0.00    -0.504 OA
ATOM     19  H   UNL     1      28.725 -87.863  39.434  1.00  0.00     0.293 HD
ENDBRANCH  14  18
BRANCH  16  20
ATOM     20  O   UNL     1      31.567 -86.507  37.321  1.00  0.00    -0.502 OA
ATOM     21  H   UNL     1      30.996 -85.907  36.743  1.00  0.00     0.293 HD
ENDBRANCH  16  20
BRANCH  17  22
ATOM     22  O   UNL     1      33.021 -88.218  35.662  1.00  0.00    -0.504 OA
ATOM     23  H   UNL     1      33.761 -88.777  35.252  1.00  0.00     0.293 HD
ENDBRANCH  17  22
ENDBRANCH   1  12
BRANCH   2  24
ATOM     24  O   UNL     1      28.672 -92.030  36.810  1.00  0.00    -0.502 OA
ATOM     25  H   UNL     1      27.879 -92.457  36.344  1.00  0.00     0.293 HD
ENDBRANCH   2  24
BRANCH   6  26
ATOM     26  O   UNL     1      29.525 -97.125  38.108  1.00  0.00    -0.507 OA
ATOM     27  H   UNL     1      28.589 -96.771  37.974  1.00  0.00     0.293 HD
ENDBRANCH   6  26
BRANCH   8  28
ATOM     28  O   UNL     1      34.168 -96.920  39.316  1.00  0.00    -0.508 OA
ATOM     29  H   UNL     1      34.259 -97.927  39.252  1.00  0.00     0.293 HD
ENDBRANCH   8  28
TORSDOF 7
ENDMDL
MODEL 6
REMARK VINA RESULT:    -5.096     18.126     19.180
REMARK INTER + INTRA:          -6.507
REMARK INTER:                  -6.893
REMARK INTRA:                   0.386
REMARK UNBOUND:                -0.220
REMARK SMILES O=c1c(O)c(-c2cc(O)c(O)c(O)c2)oc2cc(O)cc(O)c12
REMARK SMILES IDX 5 1 3 2 2 3 1 4 23 5 21 6 20 7 18 8 17 9 16 10 15 11 6 12
REMARK SMILES IDX 7 13 8 14 14 15 10 16 12 17 9 18 11 20 13 22 4 24 22 26
REMARK SMILES IDX 19 28
REMARK H PARENT 9 19 11 21 13 23 4 25 22 27 19 29
REMARK Flexibility Score: inf
ROOT
ATOM      1  C   UNL     1      37.514 -77.288  34.237  1.00  0.00     0.180 A 
ATOM      2  C   UNL     1      38.074 -77.285  35.527  1.00  0.00     0.208 A 
ATOM      3  C   UNL     1      37.217 -77.291  36.640  1.00  0.00     0.238 A 
ATOM      4  O   UNL     1      37.722 -77.234  37.791  1.00  0.00    -0.285 OA
ATOM      5  C   UNL     1      35.814 -77.316  36.450  1.00  0.00     0.111 A 
ATOM      6  C   UNL     1      34.854 -77.364  37.505  1.00  0.00     0.134 A 
ATOM      7  C   UNL     1      33.491 -77.254  37.204  1.00  0.00     0.093 A 
ATOM      8  C   UNL     1      33.051 -77.163  35.880  1.00  0.00     0.123 A 
ATOM      9  C   UNL     1      33.977 -77.174  34.840  1.00  0.00     0.094 A 
ATOM     10  C   UNL     1      35.346 -77.248  35.112  1.00  0.00     0.146 A 
ATOM     11  O   UNL     1      36.195 -77.245  34.091  1.00  0.00    -0.452 OA
ENDROOT
BRANCH   1  12
ATOM     12  C   UNL     1      38.353 -77.307  33.016  1.00  0.00     0.029 A 
ATOM     13  C   UNL     1      37.757 -77.086  31.767  1.00  0.00     0.062 A 
ATOM     14  C   UNL     1      38.515 -77.119  30.590  1.00  0.00     0.162 A 
ATOM     15  C   UNL     1      39.723 -77.601  33.075  1.00  0.00     0.062 A 
ATOM     16  C   UNL     1      39.902 -77.393  30.659  1.00  0.00     0.200 A 
ATOM     17  C   UNL     1      40.495 -77.639  31.911  1.00  0.00     0.162 A 
BRANCH  14  18
ATOM     18  O   UNL     1      37.852 -76.876  29.385  1.00  0.00    -0.504 OA
ATOM     19  H   UNL     1      36.976 -77.305  29.124  1.00  0.00     0.293 HD
ENDBRANCH  14  18
BRANCH  16  20
ATOM     20  O   UNL     1      40.711 -77.431  29.521  1.00  0.00    -0.502 OA
ATOM     21  H   UNL     1      40.445 -77.055  28.622  1.00  0.00     0.293 HD
ENDBRANCH  16  20
BRANCH  17  22
ATOM     22  O   UNL     1      41.855 -77.928  32.019  1.00  0.00    -0.504 OA
ATOM     23  H   UNL     1      42.558 -77.203  32.108  1.00  0.00     0.293 HD
ENDBRANCH  17  22
ENDBRANCH   1  12
BRANCH   2  24
ATOM     24  O   UNL     1      39.460 -77.239  35.692  1.00  0.00    -0.502 OA
ATOM     25  H   UNL     1      40.086 -77.887  35.227  1.00  0.00     0.293 HD
ENDBRANCH   2  24
BRANCH   6  26
ATOM     26  O   UNL     1      35.183 -77.546  38.851  1.00  0.00    -0.507 OA
ATOM     27  H   UNL     1      34.514 -77.585  39.606  1.00  0.00     0.293 HD
ENDBRANCH   6  26
BRANCH   8  28
ATOM     28  O   UNL     1      31.691 -77.068  35.588  1.00  0.00    -0.508 OA
ATOM     29  H   UNL     1      31.286 -76.214  35.223  1.00  0.00     0.293 HD
ENDBRANCH   8  28
TORSDOF 7
ENDMDL
MODEL 7
REMARK VINA RESULT:    -5.049      3.870      7.429
REMARK INTER + INTRA:          -6.449
REMARK INTER:                  -6.486
REMARK INTRA:                   0.037
REMARK UNBOUND:                -0.220
REMARK SMILES O=c1c(O)c(-c2cc(O)c(O)c(O)c2)oc2cc(O)cc(O)c12
REMARK SMILES IDX 5 1 3 2 2 3 1 4 23 5 21 6 20 7 18 8 17 9 16 10 15 11 6 12
REMARK SMILES IDX 7 13 8 14 14 15 10 16 12 17 9 18 11 20 13 22 4 24 22 26
REMARK SMILES IDX 19 28
REMARK H PARENT 9 19 11 21 13 23 4 25 22 27 19 29
REMARK Flexibility Score: inf
ROOT
ATOM      1  C   UNL     1      39.524 -95.147  35.714  1.00  0.00     0.180 A 
ATOM      2  C   UNL     1      40.652 -94.718  36.434  1.00  0.00     0.208 A 
ATOM      3  C   UNL     1      40.676 -94.893  37.828  1.00  0.00     0.238 A 
ATOM      4  O   UNL     1      41.664 -94.458  38.474  1.00  0.00    -0.285 OA
ATOM      5  C   UNL     1      39.581 -95.511  38.480  1.00  0.00     0.111 A 
ATOM      6  C   UNL     1      39.517 -95.775  39.881  1.00  0.00     0.134 A 
ATOM      7  C   UNL     1      38.331 -96.271  40.436  1.00  0.00     0.093 A 
ATOM      8  C   UNL     1      37.230 -96.574  39.630  1.00  0.00     0.123 A 
ATOM      9  C   UNL     1      37.303 -96.374  38.254  1.00  0.00     0.094 A 
ATOM     10  C   UNL     1      38.461 -95.847  37.676  1.00  0.00     0.146 A 
ATOM     11  O   UNL     1      38.485 -95.663  36.361  1.00  0.00    -0.452 OA
ENDROOT
BRANCH   1  12
ATOM     12  C   UNL     1      39.436 -95.019  34.241  1.00  0.00     0.029 A 
ATOM     13  C   UNL     1      38.227 -94.620  33.654  1.00  0.00     0.062 A 
ATOM     14  C   UNL     1      38.101 -94.509  32.264  1.00  0.00     0.162 A 
ATOM     15  C   UNL     1      40.520 -95.344  33.413  1.00  0.00     0.062 A 
ATOM     16  C   UNL     1      39.207 -94.816  31.435  1.00  0.00     0.200 A 
ATOM     17  C   UNL     1      40.413 -95.239  32.023  1.00  0.00     0.162 A 
BRANCH  14  18
ATOM     18  O   UNL     1      36.868 -94.095  31.756  1.00  0.00    -0.504 OA
ATOM     19  H   UNL     1      36.712 -93.829  30.794  1.00  0.00     0.293 HD
ENDBRANCH  14  18
BRANCH  16  20
ATOM     20  O   UNL     1      39.145 -94.717  30.043  1.00  0.00    -0.502 OA
ATOM     21  H   UNL     1      39.627 -95.336  29.407  1.00  0.00     0.293 HD
ENDBRANCH  16  20
BRANCH  17  22
ATOM     22  O   UNL     1      41.520 -95.566  31.240  1.00  0.00    -0.504 OA
ATOM     23  H   UNL     1      42.452 -95.229  31.452  1.00  0.00     0.293 HD
ENDBRANCH  17  22
ENDBRANCH   1  12
BRANCH   2  24
ATOM     24  O   UNL     1      41.712 -94.092  35.774  1.00  0.00    -0.502 OA
ATOM     25  H   UNL     1      42.682 -94.278  36.003  1.00  0.00     0.293 HD
ENDBRANCH   2  24
BRANCH   6  26
ATOM     26  O   UNL     1      40.589 -95.596  40.759  1.00  0.00    -0.507 OA
ATOM     27  H   UNL     1      40.522 -95.637  41.765  1.00  0.00     0.293 HD
ENDBRANCH   6  26
BRANCH   8  28
ATOM     28  O   UNL     1      36.058 -97.081  40.189  1.00  0.00    -0.508 OA
ATOM     29  H   UNL     1      36.081 -97.774  40.928  1.00  0.00     0.293 HD
ENDBRANCH   8  28
TORSDOF 7
ENDMDL
MODEL 8
REMARK VINA RESULT:    -4.968      3.581      8.681
REMARK INTER + INTRA:          -6.349
REMARK INTER:                  -6.563
REMARK INTRA:                   0.214
REMARK UNBOUND:                -0.220
REMARK SMILES O=c1c(O)c(-c2cc(O)c(O)c(O)c2)oc2cc(O)cc(O)c12
REMARK SMILES IDX 5 1 3 2 2 3 1 4 23 5 21 6 20 7 18 8 17 9 16 10 15 11 6 12
REMARK SMILES IDX 7 13 8 14 14 15 10 16 12 17 9 18 11 20 13 22 4 24 22 26
REMARK SMILES IDX 19 28
REMARK H PARENT 9 19 11 21 13 23 4 25 22 27 19 29
REMARK Flexibility Score: inf
ROOT
ATOM      1  C   UNL     1      40.426 -95.146  35.655  1.00  0.00     0.180 A 
ATOM      2  C   UNL     1      41.531 -95.250  34.792  1.00  0.00     0.208 A 
ATOM      3  C   UNL     1      41.318 -95.198  33.405  1.00  0.00     0.238 A 
ATOM      4  O   UNL     1      42.304 -95.345  32.636  1.00  0.00    -0.285 OA
ATOM      5  C   UNL     1      40.007 -95.027  32.899  1.00  0.00     0.111 A 
ATOM      6  C   UNL     1      39.680 -94.920  31.513  1.00  0.00     0.134 A 
ATOM      7  C   UNL     1      38.336 -94.884  31.122  1.00  0.00     0.093 A 
ATOM      8  C   UNL     1      37.310 -94.884  32.070  1.00  0.00     0.123 A 
ATOM      9  C   UNL     1      37.620 -94.929  33.426  1.00  0.00     0.094 A 
ATOM     10  C   UNL     1      38.950 -95.001  33.846  1.00  0.00     0.146 A 
ATOM     11  O   UNL     1      39.202 -95.052  35.149  1.00  0.00    -0.452 OA
ENDROOT
BRANCH   1  12
ATOM     12  C   UNL     1      40.574 -95.168  37.129  1.00  0.00     0.029 A 
ATOM     13  C   UNL     1      41.535 -96.004  37.713  1.00  0.00     0.062 A 
ATOM     14  C   UNL     1      41.687 -96.066  39.104  1.00  0.00     0.162 A 
ATOM     15  C   UNL     1      39.733 -94.412  37.958  1.00  0.00     0.062 A 
ATOM     16  C   UNL     1      40.851 -95.283  39.934  1.00  0.00     0.200 A 
ATOM     17  C   UNL     1      39.871 -94.461  39.348  1.00  0.00     0.162 A 
BRANCH  14  18
ATOM     18  O   UNL     1      42.675 -96.915  39.610  1.00  0.00    -0.504 OA
ATOM     19  H   UNL     1      42.635 -97.351  40.519  1.00  0.00     0.293 HD
ENDBRANCH  14  18
BRANCH  16  20
ATOM     20  O   UNL     1      40.961 -95.296  41.327  1.00  0.00    -0.502 OA
ATOM     21  H   UNL     1      40.853 -96.122  41.898  1.00  0.00     0.293 HD
ENDBRANCH  16  20
BRANCH  17  22
ATOM     22  O   UNL     1      39.017 -93.686  40.133  1.00  0.00    -0.504 OA
ATOM     23  H   UNL     1      39.289 -92.781  40.498  1.00  0.00     0.293 HD
ENDBRANCH  17  22
ENDBRANCH   1  12
BRANCH   2  24
ATOM     24  O   UNL     1      42.814 -95.440  35.312  1.00  0.00    -0.502 OA
ATOM     25  H   UNL     1      43.265 -94.758  35.910  1.00  0.00     0.293 HD
ENDBRANCH   2  24
BRANCH   6  26
ATOM     26  O   UNL     1      40.630 -94.819  30.494  1.00  0.00    -0.507 OA
ATOM     27  H   UNL     1      41.627 -94.758  30.640  1.00  0.00     0.293 HD
ENDBRANCH   6  26
BRANCH   8  28
ATOM     28  O   UNL     1      35.975 -94.832  31.671  1.00  0.00    -0.508 OA
ATOM     29  H   UNL     1      35.521 -95.627  31.236  1.00  0.00     0.293 HD
ENDBRANCH   8  28
TORSDOF 7
ENDMDL
MODEL 9
REMARK VINA RESULT:    -4.863      3.705      7.600
REMARK INTER + INTRA:          -6.220
REMARK INTER:                  -6.400
REMARK INTRA:                   0.179
REMARK UNBOUND:                -0.220
REMARK SMILES O=c1c(O)c(-c2cc(O)c(O)c(O)c2)oc2cc(O)cc(O)c12
REMARK SMILES IDX 5 1 3 2 2 3 1 4 23 5 21 6 20 7 18 8 17 9 16 10 15 11 6 12
REMARK SMILES IDX 7 13 8 14 14 15 10 16 12 17 9 18 11 20 13 22 4 24 22 26
REMARK SMILES IDX 19 28
REMARK H PARENT 9 19 11 21 13 23 4 25 22 27 19 29
REMARK Flexibility Score: inf
ROOT
ATOM      1  C   UNL     1      39.452 -95.009  34.003  1.00  0.00     0.180 A 
ATOM      2  C   UNL     1      38.244 -94.726  33.342  1.00  0.00     0.208 A 
ATOM      3  C   UNL     1      38.205 -94.792  31.940  1.00  0.00     0.238 A 
ATOM      4  O   UNL     1      37.136 -94.485  31.350  1.00  0.00    -0.285 OA
ATOM      5  C   UNL     1      39.368 -95.156  31.218  1.00  0.00     0.111 A 
ATOM      6  C   UNL     1      39.431 -95.293  29.799  1.00  0.00     0.134 A 
ATOM      7  C   UNL     1      40.666 -95.529  29.182  1.00  0.00     0.093 A 
ATOM      8  C   UNL     1      41.829 -95.699  29.940  1.00  0.00     0.123 A 
ATOM      9  C   UNL     1      41.766 -95.625  31.329  1.00  0.00     0.094 A 
ATOM     10  C   UNL     1      40.555 -95.355  31.970  1.00  0.00     0.146 A 
ATOM     11  O   UNL     1      40.542 -95.283  33.296  1.00  0.00    -0.452 OA
ENDROOT
BRANCH   1  12
ATOM     12  C   UNL     1      39.564 -94.985  35.480  1.00  0.00     0.029 A 
ATOM     13  C   UNL     1      40.787 -94.640  36.073  1.00  0.00     0.062 A 
ATOM     14  C   UNL     1      40.935 -94.628  37.465  1.00  0.00     0.162 A 
ATOM     15  C   UNL     1      38.489 -95.356  36.301  1.00  0.00     0.062 A 
ATOM     16  C   UNL     1      39.840 -94.981  38.289  1.00  0.00     0.200 A 
ATOM     17  C   UNL     1      38.620 -95.350  37.693  1.00  0.00     0.162 A 
BRANCH  14  18
ATOM     18  O   UNL     1      42.181 -94.262  37.981  1.00  0.00    -0.504 OA
ATOM     19  H   UNL     1      42.723 -94.835  38.611  1.00  0.00     0.293 HD
ENDBRANCH  14  18
BRANCH  16  20
ATOM     20  O   UNL     1      39.924 -94.980  39.683  1.00  0.00    -0.502 OA
ATOM     21  H   UNL     1      39.245 -95.411  40.294  1.00  0.00     0.293 HD
ENDBRANCH  16  20
BRANCH  17  22
ATOM     22  O   UNL     1      37.521 -95.720  38.469  1.00  0.00    -0.504 OA
ATOM     23  H   UNL     1      37.237 -95.197  39.289  1.00  0.00     0.293 HD
ENDBRANCH  17  22
ENDBRANCH   1  12
BRANCH   2  24
ATOM     24  O   UNL     1      37.114 -94.349  34.072  1.00  0.00    -0.502 OA
ATOM     25  H   UNL     1      36.418 -93.710  33.705  1.00  0.00     0.293 HD
ENDBRANCH   2  24
BRANCH   6  26
ATOM     26  O   UNL     1      38.316 -95.234  28.959  1.00  0.00    -0.507 OA
ATOM     27  H   UNL     1      38.054 -94.431  28.406  1.00  0.00     0.293 HD
ENDBRANCH   6  26
BRANCH   8  28
ATOM     28  O   UNL     1      43.051 -95.949  29.319  1.00  0.00    -0.508 OA
ATOM     29  H   UNL     1      43.279 -96.863  28.947  1.00  0.00     0.293 HD
ENDBRANCH   8  28
TORSDOF 7
ENDMDL
