MODEL 1
REMARK VINA RESULT:    -0.541      0.000      0.000
REMARK INTER + INTRA:          -0.735
REMARK INTER:                  -0.652
REMARK INTRA:                  -0.083
REMARK UNBOUND:                -0.083
REMARK SMILES CC[C@@H](C)[C@@H]([NH3+])C(=O)[O-]
REMARK SMILES IDX 3 1 4 2 5 3 6 4 7 8 8 9 9 10 2 11 1 12
REMARK H PARENT 6 5 6 6 6 7
REMARK Flexibility Score: inf
ROOT
ATOM      1  C   UNL     1      -1.375   3.659  -4.216  1.00  0.00     0.050 C 
ATOM      2  C   UNL     1      -2.275   3.414  -2.988  1.00  0.00     0.014 C 
ENDROOT
BRANCH   1   3
ATOM      3  C   UNL     1      -1.294   2.424  -5.166  1.00  0.00     0.230 C 
BRANCH   3   4
ATOM      4  N   UNL     1      -1.944   2.679  -6.461  1.00  0.00    -0.350 N 
ATOM      5  H   UNL     1      -2.461   1.839  -6.807  1.00  0.00     0.345 HD
ATOM      6  H   UNL     1      -2.626   3.467  -6.359  1.00  0.00     0.345 HD
ATOM      7  H   UNL     1      -1.230   2.961  -7.172  1.00  0.00     0.345 HD
ENDBRANCH   3   4
BRANCH   3   8
ATOM      8  C   UNL     1       0.122   1.933  -5.362  1.00  0.00     0.099 C 
ATOM      9  O   UNL     1       1.046   2.308  -4.593  1.00  0.00    -0.544 OA
ATOM     10  O   UNL     1       0.404   1.032  -6.381  1.00  0.00    -0.544 OA
ENDBRANCH   3   8
ENDBRANCH   1   3
BRANCH   1  11
ATOM     11  C   UNL     1      -1.827   4.919  -4.998  1.00  0.00     0.006 C 
ATOM     12  C   UNL     1      -2.044   6.138  -4.098  1.00  0.00     0.004 C 
ENDBRANCH   1  11
TORSDOF 4
ENDMDL
MODEL 2
REMARK VINA RESULT:    -0.283      4.048      5.747
REMARK INTER + INTRA:          -0.424
REMARK INTER:                  -0.343
REMARK INTRA:                  -0.081
REMARK UNBOUND:                -0.083
REMARK SMILES CC[C@@H](C)[C@@H]([NH3+])C(=O)[O-]
REMARK SMILES IDX 3 1 4 2 5 3 6 4 7 8 8 9 9 10 2 11 1 12
REMARK H PARENT 6 5 6 6 6 7
REMARK Flexibility Score: inf
ROOT
ATOM      1  C   UNL     1       1.305   0.258  -8.035  1.00  0.00     0.050 C 
ATOM      2  C   UNL     1       0.374  -0.801  -8.660  1.00  0.00     0.014 C 
ENDROOT
BRANCH   1   3
ATOM      3  C   UNL     1       1.625  -0.023  -6.534  1.00  0.00     0.230 C 
BRANCH   3   4
ATOM      4  N   UNL     1       3.049  -0.322  -6.319  1.00  0.00    -0.350 N 
ATOM      5  H   UNL     1       3.623  -0.097  -7.164  1.00  0.00     0.345 HD
ATOM      6  H   UNL     1       3.407   0.246  -5.517  1.00  0.00     0.345 HD
ATOM      7  H   UNL     1       3.171  -1.333  -6.079  1.00  0.00     0.345 HD
ENDBRANCH   3   4
BRANCH   3   8
ATOM      8  C   UNL     1       1.166   1.092  -5.623  1.00  0.00     0.099 C 
ATOM      9  O   UNL     1       1.925   1.543  -4.724  1.00  0.00    -0.544 OA
ATOM     10  O   UNL     1      -0.093   1.652  -5.798  1.00  0.00    -0.544 OA
ENDBRANCH   3   8
ENDBRANCH   1   3
BRANCH   1  11
ATOM     11  C   UNL     1       2.613   0.406  -8.853  1.00  0.00     0.006 C 
ATOM     12  C   UNL     1       2.476  -0.079 -10.298  1.00  0.00     0.004 C 
ENDBRANCH   1  11
TORSDOF 4
ENDMDL
MODEL 3
REMARK VINA RESULT:     0.129      2.193      2.901
REMARK INTER + INTRA:           0.072
REMARK INTER:                  -0.258
REMARK INTRA:                   0.330
REMARK UNBOUND:                -0.083
REMARK SMILES CC[C@@H](C)[C@@H]([NH3+])C(=O)[O-]
REMARK SMILES IDX 3 1 4 2 5 3 6 4 7 8 8 9 9 10 2 11 1 12
REMARK H PARENT 6 5 6 6 6 7
REMARK Flexibility Score: inf
ROOT
ATOM      1  C   UNL     1      -0.604   1.847  -5.223  1.00  0.00     0.050 C 
ATOM      2  C   UNL     1      -1.671   1.811  -6.335  1.00  0.00     0.014 C 
ENDROOT
BRANCH   1   3
ATOM      3  C   UNL     1       0.851   1.719  -5.771  1.00  0.00     0.230 C 
BRANCH   3   4
ATOM      4  N   UNL     1       1.857   1.834  -4.704  1.00  0.00    -0.350 N 
ATOM      5  H   UNL     1       1.417   2.050  -3.780  1.00  0.00     0.345 HD
ATOM      6  H   UNL     1       2.378   0.931  -4.617  1.00  0.00     0.345 HD
ATOM      7  H   UNL     1       2.547   2.584  -4.940  1.00  0.00     0.345 HD
ENDBRANCH   3   4
BRANCH   3   8
ATOM      8  C   UNL     1       1.061   0.455  -6.573  1.00  0.00     0.099 C 
ATOM      9  O   UNL     1       0.458   0.276  -7.664  1.00  0.00    -0.544 OA
ATOM     10  O   UNL     1       1.955  -0.508  -6.121  1.00  0.00    -0.544 OA
ENDBRANCH   3   8
ENDBRANCH   1   3
BRANCH   1  11
ATOM     11  C   UNL     1      -0.747   3.121  -4.351  1.00  0.00     0.006 C 
ATOM     12  C   UNL     1      -1.872   4.046  -4.821  1.00  0.00     0.004 C 
ENDBRANCH   1  11
TORSDOF 4
ENDMDL
MODEL 4
REMARK VINA RESULT:     0.427      2.484      3.911
REMARK INTER + INTRA:           0.430
REMARK INTER:                   0.511
REMARK INTRA:                  -0.080
REMARK UNBOUND:                -0.083
REMARK SMILES CC[C@@H](C)[C@@H]([NH3+])C(=O)[O-]
REMARK SMILES IDX 3 1 4 2 5 3 6 4 7 8 8 9 9 10 2 11 1 12
REMARK H PARENT 6 5 6 6 6 7
REMARK Flexibility Score: inf
ROOT
ATOM      1  C   UNL     1      -0.483   2.312  -4.802  1.00  0.00     0.050 C 
ATOM      2  C   UNL     1       1.045   2.200  -4.634  1.00  0.00     0.014 C 
ENDROOT
BRANCH   1   3
ATOM      3  C   UNL     1      -1.004   3.778  -4.672  1.00  0.00     0.230 C 
BRANCH   3   4
ATOM      4  N   UNL     1      -1.957   4.122  -5.738  1.00  0.00    -0.350 N 
ATOM      5  H   UNL     1      -1.662   3.731  -6.661  1.00  0.00     0.345 HD
ATOM      6  H   UNL     1      -2.899   3.733  -5.501  1.00  0.00     0.345 HD
ATOM      7  H   UNL     1      -2.047   5.161  -5.817  1.00  0.00     0.345 HD
ENDBRANCH   3   4
BRANCH   3   8
ATOM      8  C   UNL     1      -1.591   4.067  -3.310  1.00  0.00     0.099 C 
ATOM      9  O   UNL     1      -2.759   3.696  -3.020  1.00  0.00    -0.544 OA
ATOM     10  O   UNL     1      -0.824   4.720  -2.353  1.00  0.00    -0.544 OA
ENDBRANCH   3   8
ENDBRANCH   1   3
BRANCH   1  11
ATOM     11  C   UNL     1      -0.946   1.686  -6.142  1.00  0.00     0.006 C 
ATOM     12  C   UNL     1       0.131   0.827  -6.807  1.00  0.00     0.004 C 
ENDBRANCH   1  11
TORSDOF 4
ENDMDL
MODEL 5
REMARK VINA RESULT:     0.659      3.426      4.362
REMARK INTER + INTRA:           0.710
REMARK INTER:                   0.535
REMARK INTRA:                   0.175
REMARK UNBOUND:                -0.083
REMARK SMILES CC[C@@H](C)[C@@H]([NH3+])C(=O)[O-]
REMARK SMILES IDX 3 1 4 2 5 3 6 4 7 8 8 9 9 10 2 11 1 12
REMARK H PARENT 6 5 6 6 6 7
REMARK Flexibility Score: inf
ROOT
ATOM      1  C   UNL     1       1.205   1.352  -6.174  1.00  0.00     0.050 C 
ATOM      2  C   UNL     1       1.618   1.510  -4.697  1.00  0.00     0.014 C 
ENDROOT
BRANCH   1   3
ATOM      3  C   UNL     1       1.987   0.218  -6.907  1.00  0.00     0.230 C 
BRANCH   3   4
ATOM      4  N   UNL     1       1.970  -1.043  -6.150  1.00  0.00    -0.350 N 
ATOM      5  H   UNL     1       1.237  -1.037  -5.405  1.00  0.00     0.345 HD
ATOM      6  H   UNL     1       1.772  -1.838  -6.801  1.00  0.00     0.345 HD
ATOM      7  H   UNL     1       2.905  -1.211  -5.712  1.00  0.00     0.345 HD
ENDBRANCH   3   4
BRANCH   3   8
ATOM      8  C   UNL     1       1.507   0.001  -8.323  1.00  0.00     0.099 C 
ATOM      9  O   UNL     1       2.108   0.530  -9.296  1.00  0.00    -0.544 OA
ATOM     10  O   UNL     1       0.410  -0.818  -8.562  1.00  0.00    -0.544 OA
ENDBRANCH   3   8
ENDBRANCH   1   3
BRANCH   1  11
ATOM     11  C   UNL     1      -0.324   1.133  -6.307  1.00  0.00     0.006 C 
ATOM     12  C   UNL     1      -1.149   2.201  -5.586  1.00  0.00     0.004 C 
ENDBRANCH   1  11
TORSDOF 4
ENDMDL
MODEL 6
REMARK VINA RESULT:     0.667      2.444      3.777
REMARK INTER + INTRA:           0.720
REMARK INTER:                   0.339
REMARK INTRA:                   0.381
REMARK UNBOUND:                -0.083
REMARK SMILES CC[C@@H](C)[C@@H]([NH3+])C(=O)[O-]
REMARK SMILES IDX 3 1 4 2 5 3 6 4 7 8 8 9 9 10 2 11 1 12
REMARK H PARENT 6 5 6 6 6 7
REMARK Flexibility Score: inf
ROOT
ATOM      1  C   UNL     1      -1.222   2.527  -5.278  1.00  0.00     0.050 C 
ATOM      2  C   UNL     1      -2.255   1.663  -4.528  1.00  0.00     0.014 C 
ENDROOT
BRANCH   1   3
ATOM      3  C   UNL     1      -1.220   4.016  -4.809  1.00  0.00     0.230 C 
BRANCH   3   4
ATOM      4  N   UNL     1      -2.060   4.866  -5.667  1.00  0.00    -0.350 N 
ATOM      5  H   UNL     1      -1.586   5.769  -5.899  1.00  0.00     0.345 HD
ATOM      6  H   UNL     1      -2.266   4.363  -6.561  1.00  0.00     0.345 HD
ATOM      7  H   UNL     1      -2.970   5.068  -5.192  1.00  0.00     0.345 HD
ENDBRANCH   3   4
BRANCH   3   8
ATOM      8  C   UNL     1      -1.607   4.169  -3.356  1.00  0.00     0.099 C 
ATOM      9  O   UNL     1      -2.800   4.007  -2.987  1.00  0.00    -0.544 OA
ATOM     10  O   UNL     1      -0.632   4.457  -2.409  1.00  0.00    -0.544 OA
ENDBRANCH   3   8
ENDBRANCH   1   3
BRANCH   1  11
ATOM     11  C   UNL     1       0.200   1.920  -5.169  1.00  0.00     0.006 C 
ATOM     12  C   UNL     1       0.524   0.944  -6.302  1.00  0.00     0.004 C 
ENDBRANCH   1  11
TORSDOF 4
ENDMDL
MODEL 7
REMARK VINA RESULT:     0.742      3.137      4.192
REMARK INTER + INTRA:           0.810
REMARK INTER:                   0.815
REMARK INTRA:                  -0.005
REMARK UNBOUND:                -0.083
REMARK SMILES CC[C@@H](C)[C@@H]([NH3+])C(=O)[O-]
REMARK SMILES IDX 3 1 4 2 5 3 6 4 7 8 8 9 9 10 2 11 1 12
REMARK H PARENT 6 5 6 6 6 7
REMARK Flexibility Score: inf
ROOT
ATOM      1  C   UNL     1       0.944   1.185  -6.347  1.00  0.00     0.050 C 
ATOM      2  C   UNL     1       1.554   1.265  -4.934  1.00  0.00     0.014 C 
ENDROOT
BRANCH   1   3
ATOM      3  C   UNL     1       1.419  -0.070  -7.145  1.00  0.00     0.230 C 
BRANCH   3   4
ATOM      4  N   UNL     1       0.502  -0.405  -8.245  1.00  0.00    -0.350 N 
ATOM      5  H   UNL     1      -0.058  -1.262  -8.034  1.00  0.00     0.345 HD
ATOM      6  H   UNL     1      -0.159   0.391  -8.401  1.00  0.00     0.345 HD
ATOM      7  H   UNL     1       1.041  -0.555  -9.129  1.00  0.00     0.345 HD
ENDBRANCH   3   4
BRANCH   3   8
ATOM      8  C   UNL     1       2.837   0.065  -7.649  1.00  0.00     0.099 C 
ATOM      9  O   UNL     1       3.815  -0.215  -6.906  1.00  0.00    -0.544 OA
ATOM     10  O   UNL     1       3.069   0.469  -8.958  1.00  0.00    -0.544 OA
ENDBRANCH   3   8
ENDBRANCH   1   3
BRANCH   1  11
ATOM     11  C   UNL     1      -0.604   1.241  -6.292  1.00  0.00     0.006 C 
ATOM     12  C   UNL     1      -1.133   2.397  -5.441  1.00  0.00     0.004 C 
ENDBRANCH   1  11
TORSDOF 4
ENDMDL
MODEL 8
REMARK VINA RESULT:     0.832      2.972      3.973
REMARK INTER + INTRA:           0.919
REMARK INTER:                   0.972
REMARK INTRA:                  -0.054
REMARK UNBOUND:                -0.083
REMARK SMILES CC[C@@H](C)[C@@H]([NH3+])C(=O)[O-]
REMARK SMILES IDX 3 1 4 2 5 3 6 4 7 8 8 9 9 10 2 11 1 12
REMARK H PARENT 6 5 6 6 6 7
REMARK Flexibility Score: inf
ROOT
ATOM      1  C   UNL     1      -1.862   3.218  -4.428  1.00  0.00     0.050 C 
ATOM      2  C   UNL     1      -2.651   2.002  -3.904  1.00  0.00     0.014 C 
ENDROOT
BRANCH   1   3
ATOM      3  C   UNL     1      -1.975   4.464  -3.495  1.00  0.00     0.230 C 
BRANCH   3   4
ATOM      4  N   UNL     1      -0.942   4.466  -2.448  1.00  0.00    -0.350 N 
ATOM      5  H   UNL     1      -0.049   4.889  -2.787  1.00  0.00     0.345 HD
ATOM      6  H   UNL     1      -1.279   5.021  -1.627  1.00  0.00     0.345 HD
ATOM      7  H   UNL     1      -0.759   3.489  -2.123  1.00  0.00     0.345 HD
ENDBRANCH   3   4
BRANCH   3   8
ATOM      8  C   UNL     1      -1.967   5.767  -4.261  1.00  0.00     0.099 C 
ATOM      9  O   UNL     1      -1.906   6.870  -3.656  1.00  0.00    -0.544 OA
ATOM     10  O   UNL     1      -1.991   5.750  -5.650  1.00  0.00    -0.544 OA
ENDBRANCH   3   8
ENDBRANCH   1   3
BRANCH   1  11
ATOM     11  C   UNL     1      -0.375   2.857  -4.676  1.00  0.00     0.006 C 
ATOM     12  C   UNL     1      -0.190   1.773  -5.740  1.00  0.00     0.004 C 
ENDBRANCH   1  11
TORSDOF 4
ENDMDL
MODEL 9
REMARK VINA RESULT:     0.953      4.512      5.539
REMARK INTER + INTRA:           1.065
REMARK INTER:                   1.159
REMARK INTRA:                  -0.095
REMARK UNBOUND:                -0.083
REMARK SMILES CC[C@@H](C)[C@@H]([NH3+])C(=O)[O-]
REMARK SMILES IDX 3 1 4 2 5 3 6 4 7 8 8 9 9 10 2 11 1 12
REMARK H PARENT 6 5 6 6 6 7
REMARK Flexibility Score: inf
ROOT
ATOM      1  C   UNL     1       1.146   0.075  -6.891  1.00  0.00     0.050 C 
ATOM      2  C   UNL     1       0.100   1.139  -6.500  1.00  0.00     0.014 C 
ENDROOT
BRANCH   1   3
ATOM      3  C   UNL     1       1.704   0.274  -8.335  1.00  0.00     0.230 C 
BRANCH   3   4
ATOM      4  N   UNL     1       3.174   0.313  -8.358  1.00  0.00    -0.350 N 
ATOM      5  H   UNL     1       3.552   1.055  -7.727  1.00  0.00     0.345 HD
ATOM      6  H   UNL     1       3.552  -0.611  -8.043  1.00  0.00     0.345 HD
ATOM      7  H   UNL     1       3.514   0.484  -9.333  1.00  0.00     0.345 HD
ENDBRANCH   3   4
BRANCH   3   8
ATOM      8  C   UNL     1       1.178  -0.754  -9.309  1.00  0.00     0.099 C 
ATOM      9  O   UNL     1       1.888  -1.157 -10.267  1.00  0.00    -0.544 OA
ATOM     10  O   UNL     1      -0.092  -1.289  -9.127  1.00  0.00    -0.544 OA
ENDBRANCH   3   8
ENDBRANCH   1   3
BRANCH   1  11
ATOM     11  C   UNL     1       2.303   0.024  -5.862  1.00  0.00     0.006 C 
ATOM     12  C   UNL     1       2.230   1.141  -4.819  1.00  0.00     0.004 C 
ENDBRANCH   1  11
TORSDOF 4
ENDMDL
