MODEL 1
REMARK VINA RESULT:    -6.009      0.000      0.000
REMARK INTER + INTRA:         -10.168
REMARK INTER:                  -9.171
REMARK INTRA:                  -0.997
REMARK UNBOUND:                -0.997
REMARK SMILES CC(=O)CCC=C(C)CCC=C(C)CCC=C(C)C
REMARK SMILES IDX 10 1 11 2 12 3 13 4 14 5 15 6 16 7 18 8 17 9 19 10 9 11 7 12
REMARK SMILES IDX 6 13 8 14 5 15 4 16 2 17 3 18 1 19
REMARK H PARENT
REMARK Flexibility Score: inf
ROOT
ATOM      1  C   UNL     1     -61.015 -77.596 220.960  1.00  0.00     0.032 C 
ENDROOT
BRANCH   1   2
ATOM      2  C   UNL     1     -61.699 -76.380 221.530  1.00  0.00    -0.028 C 
ATOM      3  C   UNL     1     -63.012 -76.315 221.854  1.00  0.00    -0.077 C 
ATOM      4  C   UNL     1     -63.546 -75.025 222.421  1.00  0.00     0.039 C 
BRANCH   3   5
ATOM      5  C   UNL     1     -63.980 -77.456 221.609  1.00  0.00     0.034 C 
BRANCH   5   6
ATOM      6  C   UNL     1     -64.416 -78.086 222.936  1.00  0.00     0.032 C 
BRANCH   6   7
ATOM      7  C   UNL     1     -63.218 -78.564 223.719  1.00  0.00    -0.028 C 
ATOM      8  C   UNL     1     -61.888 -79.108 225.713  1.00  0.00     0.039 C 
ATOM      9  C   UNL     1     -63.171 -78.653 225.066  1.00  0.00    -0.080 C 
ATOM     10  C   UNL     1     -64.367 -78.328 225.932  1.00  0.00     0.039 C 
ENDBRANCH   6   7
ENDBRANCH   5   6
ENDBRANCH   3   5
ENDBRANCH   1   2
BRANCH   1  11
ATOM     11  C   UNL     1     -61.173 -77.648 219.436  1.00  0.00     0.034 C 
BRANCH  11  12
ATOM     12  C   UNL     1     -59.858 -77.353 218.751  1.00  0.00    -0.077 C 
ATOM     13  C   UNL     1     -59.740 -76.225 218.013  1.00  0.00    -0.028 C 
ATOM     14  C   UNL     1     -58.722 -78.340 218.888  1.00  0.00     0.039 C 
BRANCH  13  15
ATOM     15  C   UNL     1     -58.477 -75.785 217.313  1.00  0.00     0.035 C 
BRANCH  15  16
ATOM     16  C   UNL     1     -58.779 -75.096 215.976  1.00  0.00     0.079 C 
BRANCH  16  17
ATOM     17  C   UNL     1     -58.197 -73.706 215.923  1.00  0.00     0.130 C 
ATOM     18  O   UNL     1     -58.334 -72.959 216.881  1.00  0.00    -0.300 OA
ATOM     19  C   UNL     1     -57.449 -73.219 214.717  1.00  0.00     0.087 C 
ENDBRANCH  16  17
ENDBRANCH  15  16
ENDBRANCH  13  15
ENDBRANCH  11  12
ENDBRANCH   1  11
TORSDOF 9
ENDMDL
MODEL 2
REMARK VINA RESULT:    -5.806      2.374      4.939
REMARK INTER + INTRA:          -9.857
REMARK INTER:                  -7.829
REMARK INTRA:                  -2.028
REMARK UNBOUND:                -0.997
REMARK SMILES CC(=O)CCC=C(C)CCC=C(C)CCC=C(C)C
REMARK SMILES IDX 10 1 11 2 12 3 13 4 14 5 15 6 16 7 18 8 17 9 19 10 9 11 7 12
REMARK SMILES IDX 6 13 8 14 5 15 4 16 2 17 3 18 1 19
REMARK H PARENT
REMARK Flexibility Score: inf
ROOT
ATOM      1  C   UNL     1     -65.056 -78.516 222.852  1.00  0.00     0.032 C 
ENDROOT
BRANCH   1   2
ATOM      2  C   UNL     1     -65.758 -78.957 224.111  1.00  0.00    -0.028 C 
ATOM      3  C   UNL     1     -65.274 -78.786 225.364  1.00  0.00    -0.077 C 
ATOM      4  C   UNL     1     -66.101 -79.278 226.523  1.00  0.00     0.039 C 
BRANCH   3   5
ATOM      5  C   UNL     1     -63.911 -78.187 225.647  1.00  0.00     0.034 C 
BRANCH   5   6
ATOM      6  C   UNL     1     -62.931 -79.271 226.108  1.00  0.00     0.032 C 
BRANCH   6   7
ATOM      7  C   UNL     1     -62.096 -79.762 224.951  1.00  0.00    -0.028 C 
ATOM      8  C   UNL     1     -60.121 -79.932 223.499  1.00  0.00     0.039 C 
ATOM      9  C   UNL     1     -60.817 -79.392 224.721  1.00  0.00    -0.080 C 
ATOM     10  C   UNL     1     -60.068 -78.471 225.658  1.00  0.00     0.039 C 
ENDBRANCH   6   7
ENDBRANCH   5   6
ENDBRANCH   3   5
ENDBRANCH   1   2
BRANCH   1  11
ATOM     11  C   UNL     1     -65.140 -76.994 222.684  1.00  0.00     0.034 C 
BRANCH  11  12
ATOM     12  C   UNL     1     -63.798 -76.425 222.284  1.00  0.00    -0.077 C 
ATOM     13  C   UNL     1     -62.727 -77.249 222.222  1.00  0.00    -0.028 C 
ATOM     14  C   UNL     1     -63.686 -74.947 221.992  1.00  0.00     0.039 C 
BRANCH  13  15
ATOM     15  C   UNL     1     -61.342 -76.826 221.796  1.00  0.00     0.035 C 
BRANCH  15  16
ATOM     16  C   UNL     1     -60.854 -77.622 220.579  1.00  0.00     0.079 C 
BRANCH  16  17
ATOM     17  C   UNL     1     -60.986 -76.825 219.305  1.00  0.00     0.130 C 
ATOM     18  O   UNL     1     -62.059 -76.314 219.024  1.00  0.00    -0.300 OA
ATOM     19  C   UNL     1     -59.823 -76.647 218.374  1.00  0.00     0.087 C 
ENDBRANCH  16  17
ENDBRANCH  15  16
ENDBRANCH  13  15
ENDBRANCH  11  12
ENDBRANCH   1  11
TORSDOF 9
ENDMDL
MODEL 3
REMARK VINA RESULT:    -5.750      3.981      7.884
REMARK INTER + INTRA:          -9.772
REMARK INTER:                  -7.012
REMARK INTRA:                  -2.760
REMARK UNBOUND:                -0.997
REMARK SMILES CC(=O)CCC=C(C)CCC=C(C)CCC=C(C)C
REMARK SMILES IDX 10 1 11 2 12 3 13 4 14 5 15 6 16 7 18 8 17 9 19 10 9 11 7 12
REMARK SMILES IDX 6 13 8 14 5 15 4 16 2 17 3 18 1 19
REMARK H PARENT
REMARK Flexibility Score: inf
ROOT
ATOM      1  C   UNL     1     -63.390 -75.677 222.121  1.00  0.00     0.032 C 
ENDROOT
BRANCH   1   2
ATOM      2  C   UNL     1     -62.746 -75.905 220.777  1.00  0.00    -0.028 C 
ATOM      3  C   UNL     1     -61.704 -76.740 220.553  1.00  0.00    -0.077 C 
ATOM      4  C   UNL     1     -61.176 -76.863 219.148  1.00  0.00     0.039 C 
BRANCH   3   5
ATOM      5  C   UNL     1     -61.003 -77.501 221.661  1.00  0.00     0.034 C 
BRANCH   5   6
ATOM      6  C   UNL     1     -60.557 -78.881 221.168  1.00  0.00     0.032 C 
BRANCH   6   7
ATOM      7  C   UNL     1     -61.304 -79.974 221.893  1.00  0.00    -0.028 C 
ATOM      8  C   UNL     1     -63.133 -81.554 222.337  1.00  0.00     0.039 C 
ATOM      9  C   UNL     1     -62.482 -80.495 221.485  1.00  0.00    -0.080 C 
ATOM     10  C   UNL     1     -63.149 -80.058 220.201  1.00  0.00     0.039 C 
ENDBRANCH   6   7
ENDBRANCH   5   6
ENDBRANCH   3   5
ENDBRANCH   1   2
BRANCH   1  11
ATOM     11  C   UNL     1     -64.746 -76.390 222.205  1.00  0.00     0.034 C 
BRANCH  11  12
ATOM     12  C   UNL     1     -64.633 -77.661 223.016  1.00  0.00    -0.077 C 
ATOM     13  C   UNL     1     -63.648 -77.766 223.938  1.00  0.00    -0.028 C 
ATOM     14  C   UNL     1     -65.606 -78.786 222.754  1.00  0.00     0.039 C 
BRANCH  13  15
ATOM     15  C   UNL     1     -63.446 -78.956 224.845  1.00  0.00     0.035 C 
BRANCH  15  16
ATOM     16  C   UNL     1     -63.831 -78.636 226.295  1.00  0.00     0.079 C 
BRANCH  16  17
ATOM     17  C   UNL     1     -65.327 -78.636 226.486  1.00  0.00     0.130 C 
ATOM     18  O   UNL     1     -65.947 -77.588 226.383  1.00  0.00    -0.300 OA
ATOM     19  C   UNL     1     -66.072 -79.900 226.800  1.00  0.00     0.087 C 
ENDBRANCH  16  17
ENDBRANCH  15  16
ENDBRANCH  13  15
ENDBRANCH  11  12
ENDBRANCH   1  11
TORSDOF 9
ENDMDL
MODEL 4
REMARK VINA RESULT:    -5.730      4.436      8.201
REMARK INTER + INTRA:          -9.741
REMARK INTER:                  -6.910
REMARK INTRA:                  -2.831
REMARK UNBOUND:                -0.997
REMARK SMILES CC(=O)CCC=C(C)CCC=C(C)CCC=C(C)C
REMARK SMILES IDX 10 1 11 2 12 3 13 4 14 5 15 6 16 7 18 8 17 9 19 10 9 11 7 12
REMARK SMILES IDX 6 13 8 14 5 15 4 16 2 17 3 18 1 19
REMARK H PARENT
REMARK Flexibility Score: inf
ROOT
ATOM      1  C   UNL     1     -63.764 -80.406 221.253  1.00  0.00     0.032 C 
ENDROOT
BRANCH   1   2
ATOM      2  C   UNL     1     -62.879 -80.303 220.037  1.00  0.00    -0.028 C 
ATOM      3  C   UNL     1     -61.650 -79.735 220.024  1.00  0.00    -0.077 C 
ATOM      4  C   UNL     1     -60.885 -79.716 218.727  1.00  0.00     0.039 C 
BRANCH   3   5
ATOM      5  C   UNL     1     -61.040 -79.058 221.236  1.00  0.00     0.034 C 
BRANCH   5   6
ATOM      6  C   UNL     1     -60.694 -77.599 220.921  1.00  0.00     0.032 C 
BRANCH   6   7
ATOM      7  C   UNL     1     -61.600 -76.661 221.678  1.00  0.00    -0.028 C 
ATOM      8  C   UNL     1     -63.479 -75.112 222.018  1.00  0.00     0.039 C 
ATOM      9  C   UNL     1     -62.691 -76.061 221.152  1.00  0.00    -0.080 C 
ATOM     10  C   UNL     1     -63.146 -76.328 219.735  1.00  0.00     0.039 C 
ENDBRANCH   6   7
ENDBRANCH   5   6
ENDBRANCH   3   5
ENDBRANCH   1   2
BRANCH   1  11
ATOM     11  C   UNL     1     -64.845 -79.318 221.235  1.00  0.00     0.034 C 
BRANCH  11  12
ATOM     12  C   UNL     1     -64.877 -78.573 222.551  1.00  0.00    -0.077 C 
ATOM     13  C   UNL     1     -63.865 -78.751 223.430  1.00  0.00    -0.028 C 
ATOM     14  C   UNL     1     -66.053 -77.675 222.855  1.00  0.00     0.039 C 
BRANCH  13  15
ATOM     15  C   UNL     1     -63.747 -78.040 224.757  1.00  0.00     0.035 C 
BRANCH  15  16
ATOM     16  C   UNL     1     -64.120 -78.958 225.928  1.00  0.00     0.079 C 
BRANCH  16  17
ATOM     17  C   UNL     1     -65.526 -78.703 226.408  1.00  0.00     0.130 C 
ATOM     18  O   UNL     1     -66.007 -77.586 226.297  1.00  0.00    -0.300 OA
ATOM     19  C   UNL     1     -66.351 -79.797 227.021  1.00  0.00     0.087 C 
ENDBRANCH  16  17
ENDBRANCH  15  16
ENDBRANCH  13  15
ENDBRANCH  11  12
ENDBRANCH   1  11
TORSDOF 9
ENDMDL
MODEL 5
REMARK VINA RESULT:    -5.728      4.746      8.082
REMARK INTER + INTRA:          -9.739
REMARK INTER:                  -7.458
REMARK INTRA:                  -2.281
REMARK UNBOUND:                -0.997
REMARK SMILES CC(=O)CCC=C(C)CCC=C(C)CCC=C(C)C
REMARK SMILES IDX 10 1 11 2 12 3 13 4 14 5 15 6 16 7 18 8 17 9 19 10 9 11 7 12
REMARK SMILES IDX 6 13 8 14 5 15 4 16 2 17 3 18 1 19
REMARK H PARENT
REMARK Flexibility Score: inf
ROOT
ATOM      1  C   UNL     1     -61.471 -78.485 225.028  1.00  0.00     0.032 C 
ENDROOT
BRANCH   1   2
ATOM      2  C   UNL     1     -60.481 -79.383 224.331  1.00  0.00    -0.028 C 
ATOM      3  C   UNL     1     -60.471 -79.634 223.000  1.00  0.00    -0.077 C 
ATOM      4  C   UNL     1     -59.409 -80.551 222.453  1.00  0.00     0.039 C 
BRANCH   3   5
ATOM      5  C   UNL     1     -61.520 -79.089 222.050  1.00  0.00     0.034 C 
BRANCH   5   6
ATOM      6  C   UNL     1     -61.056 -77.762 221.441  1.00  0.00     0.032 C 
BRANCH   6   7
ATOM      7  C   UNL     1     -61.820 -76.605 222.038  1.00  0.00    -0.028 C 
ATOM      8  C   UNL     1     -63.567 -74.884 222.187  1.00  0.00     0.039 C 
ATOM      9  C   UNL     1     -62.936 -76.067 221.499  1.00  0.00    -0.080 C 
ATOM     10  C   UNL     1     -63.570 -76.626 220.246  1.00  0.00     0.039 C 
ENDBRANCH   6   7
ENDBRANCH   5   6
ENDBRANCH   3   5
ENDBRANCH   1   2
BRANCH   1  11
ATOM     11  C   UNL     1     -62.610 -79.305 225.647  1.00  0.00     0.034 C 
BRANCH  11  12
ATOM     12  C   UNL     1     -63.758 -79.447 224.673  1.00  0.00    -0.077 C 
ATOM     13  C   UNL     1     -64.395 -78.334 224.243  1.00  0.00    -0.028 C 
ATOM     14  C   UNL     1     -64.178 -80.829 224.232  1.00  0.00     0.039 C 
BRANCH  13  15
ATOM     15  C   UNL     1     -65.525 -78.325 223.241  1.00  0.00     0.035 C 
BRANCH  15  16
ATOM     16  C   UNL     1     -66.415 -77.086 223.400  1.00  0.00     0.079 C 
BRANCH  16  17
ATOM     17  C   UNL     1     -67.540 -77.332 224.375  1.00  0.00     0.130 C 
ATOM     18  O   UNL     1     -67.626 -76.643 225.380  1.00  0.00    -0.300 OA
ATOM     19  C   UNL     1     -68.558 -78.408 224.135  1.00  0.00     0.087 C 
ENDBRANCH  16  17
ENDBRANCH  15  16
ENDBRANCH  13  15
ENDBRANCH  11  12
ENDBRANCH   1  11
TORSDOF 9
ENDMDL
MODEL 6
REMARK VINA RESULT:    -5.725      4.080      7.670
REMARK INTER + INTRA:          -9.734
REMARK INTER:                  -6.608
REMARK INTRA:                  -3.126
REMARK UNBOUND:                -0.997
REMARK SMILES CC(=O)CCC=C(C)CCC=C(C)CCC=C(C)C
REMARK SMILES IDX 10 1 11 2 12 3 13 4 14 5 15 6 16 7 18 8 17 9 19 10 9 11 7 12
REMARK SMILES IDX 6 13 8 14 5 15 4 16 2 17 3 18 1 19
REMARK H PARENT
REMARK Flexibility Score: inf
ROOT
ATOM      1  C   UNL     1     -60.336 -79.244 222.063  1.00  0.00     0.032 C 
ENDROOT
BRANCH   1   2
ATOM      2  C   UNL     1     -60.468 -78.495 220.761  1.00  0.00    -0.028 C 
ATOM      3  C   UNL     1     -61.064 -77.288 220.624  1.00  0.00    -0.077 C 
ATOM      4  C   UNL     1     -61.111 -76.665 219.253  1.00  0.00     0.039 C 
BRANCH   3   5
ATOM      5  C   UNL     1     -61.745 -76.567 221.771  1.00  0.00     0.034 C 
BRANCH   5   6
ATOM      6  C   UNL     1     -63.222 -76.317 221.450  1.00  0.00     0.032 C 
BRANCH   6   7
ATOM      7  C   UNL     1     -64.101 -77.296 222.188  1.00  0.00    -0.028 C 
ATOM      8  C   UNL     1     -65.516 -79.282 222.492  1.00  0.00     0.039 C 
ATOM      9  C   UNL     1     -64.617 -78.420 221.643  1.00  0.00    -0.080 C 
ATOM     10  C   UNL     1     -64.306 -78.839 220.224  1.00  0.00     0.039 C 
ENDBRANCH   6   7
ENDBRANCH   5   6
ENDBRANCH   3   5
ENDBRANCH   1   2
BRANCH   1  11
ATOM     11  C   UNL     1     -61.398 -80.345 222.171  1.00  0.00     0.034 C 
BRANCH  11  12
ATOM     12  C   UNL     1     -62.012 -80.363 223.552  1.00  0.00    -0.077 C 
ATOM     13  C   UNL     1     -61.856 -79.284 224.354  1.00  0.00    -0.028 C 
ATOM     14  C   UNL     1     -62.758 -81.595 224.007  1.00  0.00     0.039 C 
BRANCH  13  15
ATOM     15  C   UNL     1     -62.450 -79.149 225.736  1.00  0.00     0.035 C 
BRANCH  15  16
ATOM     16  C   UNL     1     -63.749 -78.332 225.718  1.00  0.00     0.079 C 
BRANCH  16  17
ATOM     17  C   UNL     1     -64.927 -79.153 226.178  1.00  0.00     0.130 C 
ATOM     18  O   UNL     1     -64.743 -80.283 226.605  1.00  0.00    -0.300 OA
ATOM     19  C   UNL     1     -66.324 -78.609 226.124  1.00  0.00     0.087 C 
ENDBRANCH  16  17
ENDBRANCH  15  16
ENDBRANCH  13  15
ENDBRANCH  11  12
ENDBRANCH   1  11
TORSDOF 9
ENDMDL
MODEL 7
REMARK VINA RESULT:    -5.722      2.942      8.190
REMARK INTER + INTRA:          -9.729
REMARK INTER:                  -7.952
REMARK INTRA:                  -1.776
REMARK UNBOUND:                -0.997
REMARK SMILES CC(=O)CCC=C(C)CCC=C(C)CCC=C(C)C
REMARK SMILES IDX 10 1 11 2 12 3 13 4 14 5 15 6 16 7 18 8 17 9 19 10 9 11 7 12
REMARK SMILES IDX 6 13 8 14 5 15 4 16 2 17 3 18 1 19
REMARK H PARENT
REMARK Flexibility Score: inf
ROOT
ATOM      1  C   UNL     1     -59.851 -75.529 217.233  1.00  0.00     0.032 C 
ENDROOT
BRANCH   1   2
ATOM      2  C   UNL     1     -58.842 -74.579 216.638  1.00  0.00    -0.028 C 
ATOM      3  C   UNL     1     -58.488 -74.550 215.332  1.00  0.00    -0.077 C 
ATOM      4  C   UNL     1     -57.467 -73.534 214.890  1.00  0.00     0.039 C 
BRANCH   3   5
ATOM      5  C   UNL     1     -59.020 -75.535 214.309  1.00  0.00     0.034 C 
BRANCH   5   6
ATOM      6  C   UNL     1     -57.923 -76.517 213.886  1.00  0.00     0.032 C 
BRANCH   6   7
ATOM      7  C   UNL     1     -58.028 -77.804 214.666  1.00  0.00    -0.028 C 
ATOM      8  C   UNL     1     -57.362 -79.528 216.285  1.00  0.00     0.039 C 
ATOM      9  C   UNL     1     -57.152 -78.193 215.618  1.00  0.00    -0.080 C 
ATOM     10  C   UNL     1     -55.988 -77.325 216.040  1.00  0.00     0.039 C 
ENDBRANCH   6   7
ENDBRANCH   5   6
ENDBRANCH   3   5
ENDBRANCH   1   2
BRANCH   1  11
ATOM     11  C   UNL     1     -59.151 -76.675 217.974  1.00  0.00     0.034 C 
BRANCH  11  12
ATOM     12  C   UNL     1     -60.080 -77.302 218.989  1.00  0.00    -0.077 C 
ATOM     13  C   UNL     1     -61.194 -76.631 219.362  1.00  0.00    -0.028 C 
ATOM     14  C   UNL     1     -59.721 -78.646 219.578  1.00  0.00     0.039 C 
BRANCH  13  15
ATOM     15  C   UNL     1     -62.228 -77.155 220.329  1.00  0.00     0.035 C 
BRANCH  15  16
ATOM     16  C   UNL     1     -61.934 -76.714 221.768  1.00  0.00     0.079 C 
BRANCH  16  17
ATOM     17  C   UNL     1     -63.149 -76.108 222.423  1.00  0.00     0.130 C 
ATOM     18  O   UNL     1     -63.809 -76.778 223.203  1.00  0.00    -0.300 OA
ATOM     19  C   UNL     1     -63.567 -74.696 222.136  1.00  0.00     0.087 C 
ENDBRANCH  16  17
ENDBRANCH  15  16
ENDBRANCH  13  15
ENDBRANCH  11  12
ENDBRANCH   1  11
TORSDOF 9
ENDMDL
MODEL 8
REMARK VINA RESULT:    -5.587      4.008      7.856
REMARK INTER + INTRA:          -9.523
REMARK INTER:                  -7.620
REMARK INTRA:                  -1.903
REMARK UNBOUND:                -0.997
REMARK SMILES CC(=O)CCC=C(C)CCC=C(C)CCC=C(C)C
REMARK SMILES IDX 10 1 11 2 12 3 13 4 14 5 15 6 16 7 18 8 17 9 19 10 9 11 7 12
REMARK SMILES IDX 6 13 8 14 5 15 4 16 2 17 3 18 1 19
REMARK H PARENT
REMARK Flexibility Score: inf
ROOT
ATOM      1  C   UNL     1     -63.104 -76.236 222.246  1.00  0.00     0.032 C 
ENDROOT
BRANCH   1   2
ATOM      2  C   UNL     1     -62.171 -76.228 221.062  1.00  0.00    -0.028 C 
ATOM      3  C   UNL     1     -61.564 -77.326 220.552  1.00  0.00    -0.077 C 
ATOM      4  C   UNL     1     -60.662 -77.153 219.358  1.00  0.00     0.039 C 
BRANCH   3   5
ATOM      5  C   UNL     1     -61.696 -78.704 221.169  1.00  0.00     0.034 C 
BRANCH   5   6
ATOM      6  C   UNL     1     -60.647 -78.905 222.268  1.00  0.00     0.032 C 
BRANCH   6   7
ATOM      7  C   UNL     1     -61.276 -78.789 223.634  1.00  0.00    -0.028 C 
ATOM      8  C   UNL     1     -61.520 -79.159 226.051  1.00  0.00     0.039 C 
ATOM      9  C   UNL     1     -60.756 -79.320 224.762  1.00  0.00    -0.080 C 
ATOM     10  C   UNL     1     -59.431 -80.049 224.768  1.00  0.00     0.039 C 
ENDBRANCH   6   7
ENDBRANCH   5   6
ENDBRANCH   3   5
ENDBRANCH   1   2
BRANCH   1  11
ATOM     11  C   UNL     1     -64.518 -76.657 221.825  1.00  0.00     0.034 C 
BRANCH  11  12
ATOM     12  C   UNL     1     -65.000 -77.822 222.660  1.00  0.00    -0.077 C 
ATOM     13  C   UNL     1     -64.668 -77.873 223.970  1.00  0.00    -0.028 C 
ATOM     14  C   UNL     1     -65.816 -78.908 222.000  1.00  0.00     0.039 C 
BRANCH  13  15
ATOM     15  C   UNL     1     -65.116 -78.950 224.928  1.00  0.00     0.035 C 
BRANCH  15  16
ATOM     16  C   UNL     1     -66.046 -78.394 226.014  1.00  0.00     0.079 C 
BRANCH  16  17
ATOM     17  C   UNL     1     -67.345 -77.897 225.431  1.00  0.00     0.130 C 
ATOM     18  O   UNL     1     -67.619 -76.708 225.498  1.00  0.00    -0.300 OA
ATOM     19  C   UNL     1     -68.311 -78.835 224.769  1.00  0.00     0.087 C 
ENDBRANCH  16  17
ENDBRANCH  15  16
ENDBRANCH  13  15
ENDBRANCH  11  12
ENDBRANCH   1  11
TORSDOF 9
ENDMDL
MODEL 9
REMARK VINA RESULT:    -5.532      9.781     11.764
REMARK INTER + INTRA:          -9.439
REMARK INTER:                  -7.036
REMARK INTRA:                  -2.402
REMARK UNBOUND:                -0.997
REMARK SMILES CC(=O)CCC=C(C)CCC=C(C)CCC=C(C)C
REMARK SMILES IDX 10 1 11 2 12 3 13 4 14 5 15 6 16 7 18 8 17 9 19 10 9 11 7 12
REMARK SMILES IDX 6 13 8 14 5 15 4 16 2 17 3 18 1 19
REMARK H PARENT
REMARK Flexibility Score: inf
ROOT
ATOM      1  C   UNL     1     -70.981 -76.100 217.633  1.00  0.00     0.032 C 
ENDROOT
BRANCH   1   2
ATOM      2  C   UNL     1     -72.388 -75.665 217.956  1.00  0.00    -0.028 C 
ATOM      3  C   UNL     1     -73.457 -75.852 217.147  1.00  0.00    -0.077 C 
ATOM      4  C   UNL     1     -74.803 -75.364 217.617  1.00  0.00     0.039 C 
BRANCH   3   5
ATOM      5  C   UNL     1     -73.349 -76.466 215.765  1.00  0.00     0.034 C 
BRANCH   5   6
ATOM      6  C   UNL     1     -73.648 -75.420 214.686  1.00  0.00     0.032 C 
BRANCH   6   7
ATOM      7  C   UNL     1     -72.508 -74.440 214.563  1.00  0.00    -0.028 C 
ATOM      8  C   UNL     1     -71.382 -72.258 214.648  1.00  0.00     0.039 C 
ATOM      9  C   UNL     1     -72.595 -73.126 214.862  1.00  0.00    -0.080 C 
ATOM     10  C   UNL     1     -73.862 -72.512 215.415  1.00  0.00     0.039 C 
ENDBRANCH   6   7
ENDBRANCH   5   6
ENDBRANCH   3   5
ENDBRANCH   1   2
BRANCH   1  11
ATOM     11  C   UNL     1     -70.115 -74.898 217.236  1.00  0.00     0.034 C 
BRANCH  11  12
ATOM     12  C   UNL     1     -69.111 -75.289 216.175  1.00  0.00    -0.077 C 
ATOM     13  C   UNL     1     -69.476 -76.176 215.221  1.00  0.00    -0.028 C 
ATOM     14  C   UNL     1     -67.722 -74.698 216.228  1.00  0.00     0.039 C 
BRANCH  13  15
ATOM     15  C   UNL     1     -68.592 -76.620 214.080  1.00  0.00     0.035 C 
BRANCH  15  16
ATOM     16  C   UNL     1     -68.253 -78.113 214.174  1.00  0.00     0.079 C 
BRANCH  16  17
ATOM     17  C   UNL     1     -66.954 -78.343 214.906  1.00  0.00     0.130 C 
ATOM     18  O   UNL     1     -66.067 -77.506 214.836  1.00  0.00    -0.300 OA
ATOM     19  C   UNL     1     -66.729 -79.581 215.723  1.00  0.00     0.087 C 
ENDBRANCH  16  17
ENDBRANCH  15  16
ENDBRANCH  13  15
ENDBRANCH  11  12
ENDBRANCH   1  11
TORSDOF 9
ENDMDL
