MODEL 1
REMARK VINA RESULT:    -3.400      0.000      0.000
REMARK INTER + INTRA:          -4.513
REMARK INTER:                  -4.393
REMARK INTRA:                  -0.119
REMARK UNBOUND:                -0.119
REMARK SMILES CCCCCCC(=O)[O-]
REMARK SMILES IDX 5 1 6 2 7 3 8 4 9 5 4 6 3 7 2 8 1 9
REMARK H PARENT
REMARK Flexibility Score: inf
ROOT
ATOM      1  C   UNL     1      59.028  21.176  23.042  1.00  0.00     0.006 C 
ENDROOT
BRANCH   1   2
ATOM      2  C   UNL     1      57.547  20.907  22.744  1.00  0.00     0.053 C 
BRANCH   2   3
ATOM      3  C   UNL     1      56.713  22.083  23.140  1.00  0.00     0.041 C 
ATOM      4  O   UNL     1      55.755  22.455  22.413  1.00  0.00    -0.550 OA
ATOM      5  O   UNL     1      57.023  22.801  24.289  1.00  0.00    -0.550 OA
ENDBRANCH   2   3
ENDBRANCH   1   2
BRANCH   1   6
ATOM      6  C   UNL     1      59.639  22.229  22.104  1.00  0.00     0.000 C 
BRANCH   6   7
ATOM      7  C   UNL     1      60.405  21.603  20.930  1.00  0.00    -0.000 C 
BRANCH   7   8
ATOM      8  C   UNL     1      61.453  22.577  20.378  1.00  0.00    -0.003 C 
ATOM      9  C   UNL     1      61.842  22.216  18.948  1.00  0.00     0.004 C 
ENDBRANCH   7   8
ENDBRANCH   6   7
ENDBRANCH   1   6
TORSDOF 5
ENDMDL
MODEL 2
REMARK VINA RESULT:    -3.367      0.398      1.145
REMARK INTER + INTRA:          -4.471
REMARK INTER:                  -4.321
REMARK INTRA:                  -0.150
REMARK UNBOUND:                -0.119
REMARK SMILES CCCCCCC(=O)[O-]
REMARK SMILES IDX 5 1 6 2 7 3 8 4 9 5 4 6 3 7 2 8 1 9
REMARK H PARENT
REMARK Flexibility Score: inf
ROOT
ATOM      1  C   UNL     1      59.295  21.289  22.779  1.00  0.00     0.006 C 
ENDROOT
BRANCH   1   2
ATOM      2  C   UNL     1      57.786  21.015  22.835  1.00  0.00     0.053 C 
BRANCH   2   3
ATOM      3  C   UNL     1      57.040  22.266  23.172  1.00  0.00     0.041 C 
ATOM      4  O   UNL     1      57.229  22.840  24.277  1.00  0.00    -0.550 OA
ATOM      5  O   UNL     1      56.098  22.775  22.286  1.00  0.00    -0.550 OA
ENDBRANCH   2   3
ENDBRANCH   1   2
BRANCH   1   6
ATOM      6  C   UNL     1      59.665  22.356  21.736  1.00  0.00     0.000 C 
BRANCH   6   7
ATOM      7  C   UNL     1      60.422  21.772  20.535  1.00  0.00    -0.000 C 
BRANCH   7   8
ATOM      8  C   UNL     1      61.765  22.484  20.336  1.00  0.00    -0.003 C 
ATOM      9  C   UNL     1      62.398  22.104  19.000  1.00  0.00     0.004 C 
ENDBRANCH   7   8
ENDBRANCH   6   7
ENDBRANCH   1   6
TORSDOF 5
ENDMDL
MODEL 3
REMARK VINA RESULT:    -3.317      3.537      5.460
REMARK INTER + INTRA:          -4.406
REMARK INTER:                  -4.322
REMARK INTRA:                  -0.084
REMARK UNBOUND:                -0.119
REMARK SMILES CCCCCCC(=O)[O-]
REMARK SMILES IDX 5 1 6 2 7 3 8 4 9 5 4 6 3 7 2 8 1 9
REMARK H PARENT
REMARK Flexibility Score: inf
ROOT
ATOM      1  C   UNL     1      60.064  22.060  21.214  1.00  0.00     0.006 C 
ENDROOT
BRANCH   1   2
ATOM      2  C   UNL     1      61.399  22.756  20.919  1.00  0.00     0.053 C 
BRANCH   2   3
ATOM      3  C   UNL     1      62.098  22.082  19.782  1.00  0.00     0.041 C 
ATOM      4  O   UNL     1      61.818  22.387  18.593  1.00  0.00    -0.550 OA
ATOM      5  O   UNL     1      63.027  21.079  20.033  1.00  0.00    -0.550 OA
ENDBRANCH   2   3
ENDBRANCH   1   2
BRANCH   1   6
ATOM      6  C   UNL     1      59.319  22.689  22.403  1.00  0.00     0.000 C 
BRANCH   6   7
ATOM      7  C   UNL     1      58.373  21.700  23.099  1.00  0.00    -0.000 C 
BRANCH   7   8
ATOM      8  C   UNL     1      57.206  22.436  23.767  1.00  0.00    -0.003 C 
ATOM      9  C   UNL     1      55.865  21.964  23.212  1.00  0.00     0.004 C 
ENDBRANCH   7   8
ENDBRANCH   6   7
ENDBRANCH   1   6
TORSDOF 5
ENDMDL
MODEL 4
REMARK VINA RESULT:    -3.094      1.659      2.074
REMARK INTER + INTRA:          -4.117
REMARK INTER:                  -3.924
REMARK INTRA:                  -0.193
REMARK UNBOUND:                -0.119
REMARK SMILES CCCCCCC(=O)[O-]
REMARK SMILES IDX 5 1 6 2 7 3 8 4 9 5 4 6 3 7 2 8 1 9
REMARK H PARENT
REMARK Flexibility Score: inf
ROOT
ATOM      1  C   UNL     1      59.235  22.350  21.977  1.00  0.00     0.006 C 
ENDROOT
BRANCH   1   2
ATOM      2  C   UNL     1      58.331  22.271  23.213  1.00  0.00     0.053 C 
BRANCH   2   3
ATOM      3  C   UNL     1      58.729  23.304  24.218  1.00  0.00     0.041 C 
ATOM      4  O   UNL     1      57.996  23.536  25.215  1.00  0.00    -0.550 OA
ATOM      5  O   UNL     1      59.887  24.048  24.029  1.00  0.00    -0.550 OA
ENDBRANCH   2   3
ENDBRANCH   1   2
BRANCH   1   6
ATOM      6  C   UNL     1      59.975  21.032  21.699  1.00  0.00     0.000 C 
BRANCH   6   7
ATOM      7  C   UNL     1      61.398  21.252  21.166  1.00  0.00    -0.000 C 
BRANCH   7   8
ATOM      8  C   UNL     1      61.478  22.535  20.330  1.00  0.00    -0.003 C 
ATOM      9  C   UNL     1      61.871  22.229  18.888  1.00  0.00     0.004 C 
ENDBRANCH   7   8
ENDBRANCH   6   7
ENDBRANCH   1   6
TORSDOF 5
ENDMDL
MODEL 5
REMARK VINA RESULT:    -2.977      3.950      5.071
REMARK INTER + INTRA:          -3.967
REMARK INTER:                  -3.667
REMARK INTRA:                  -0.299
REMARK UNBOUND:                -0.119
REMARK SMILES CCCCCCC(=O)[O-]
REMARK SMILES IDX 5 1 6 2 7 3 8 4 9 5 4 6 3 7 2 8 1 9
REMARK H PARENT
REMARK Flexibility Score: inf
ROOT
ATOM      1  C   UNL     1      60.106  22.300  21.148  1.00  0.00     0.006 C 
ENDROOT
BRANCH   1   2
ATOM      2  C   UNL     1      61.425  21.522  21.061  1.00  0.00     0.053 C 
BRANCH   2   3
ATOM      3  C   UNL     1      62.319  22.123  20.023  1.00  0.00     0.041 C 
ATOM      4  O   UNL     1      63.486  22.488  20.325  1.00  0.00    -0.550 OA
ATOM      5  O   UNL     1      61.847  22.329  18.733  1.00  0.00    -0.550 OA
ENDBRANCH   2   3
ENDBRANCH   1   2
BRANCH   1   6
ATOM      6  C   UNL     1      59.818  22.820  22.565  1.00  0.00     0.000 C 
BRANCH   6   7
ATOM      7  C   UNL     1      61.084  23.300  23.289  1.00  0.00    -0.000 C 
BRANCH   7   8
ATOM      8  C   UNL     1      61.098  24.828  23.414  1.00  0.00    -0.003 C 
ATOM      9  C   UNL     1      62.214  25.440  22.573  1.00  0.00     0.004 C 
ENDBRANCH   7   8
ENDBRANCH   6   7
ENDBRANCH   1   6
TORSDOF 5
ENDMDL
MODEL 6
REMARK VINA RESULT:    -2.962      2.740      3.165
REMARK INTER + INTRA:          -3.947
REMARK INTER:                  -3.661
REMARK INTRA:                  -0.286
REMARK UNBOUND:                -0.119
REMARK SMILES CCCCCCC(=O)[O-]
REMARK SMILES IDX 5 1 6 2 7 3 8 4 9 5 4 6 3 7 2 8 1 9
REMARK H PARENT
REMARK Flexibility Score: inf
ROOT
ATOM      1  C   UNL     1      58.099  21.378  22.796  1.00  0.00     0.006 C 
ENDROOT
BRANCH   1   2
ATOM      2  C   UNL     1      56.682  20.875  23.097  1.00  0.00     0.053 C 
BRANCH   2   3
ATOM      3  C   UNL     1      55.699  21.999  23.003  1.00  0.00     0.041 C 
ATOM      4  O   UNL     1      55.999  23.054  22.386  1.00  0.00    -0.550 OA
ATOM      5  O   UNL     1      54.468  21.901  23.640  1.00  0.00    -0.550 OA
ENDBRANCH   2   3
ENDBRANCH   1   2
BRANCH   1   6
ATOM      6  C   UNL     1      59.106  21.005  23.896  1.00  0.00     0.000 C 
BRANCH   6   7
ATOM      7  C   UNL     1      59.251  22.101  24.962  1.00  0.00    -0.000 C 
BRANCH   7   8
ATOM      8  C   UNL     1      58.953  23.484  24.369  1.00  0.00    -0.003 C 
ATOM      9  C   UNL     1      60.240  24.257  24.099  1.00  0.00     0.004 C 
ENDBRANCH   7   8
ENDBRANCH   6   7
ENDBRANCH   1   6
TORSDOF 5
ENDMDL
MODEL 7
REMARK VINA RESULT:    -2.930      2.631      4.874
REMARK INTER + INTRA:          -3.906
REMARK INTER:                  -3.655
REMARK INTRA:                  -0.252
REMARK UNBOUND:                -0.119
REMARK SMILES CCCCCCC(=O)[O-]
REMARK SMILES IDX 5 1 6 2 7 3 8 4 9 5 4 6 3 7 2 8 1 9
REMARK H PARENT
REMARK Flexibility Score: inf
ROOT
ATOM      1  C   UNL     1      58.369  21.622  24.154  1.00  0.00     0.006 C 
ENDROOT
BRANCH   1   2
ATOM      2  C   UNL     1      59.194  21.127  22.959  1.00  0.00     0.053 C 
BRANCH   2   3
ATOM      3  C   UNL     1      59.990  22.249  22.373  1.00  0.00     0.041 C 
ATOM      4  O   UNL     1      59.926  22.496  21.140  1.00  0.00    -0.550 OA
ATOM      5  O   UNL     1      60.842  22.994  23.179  1.00  0.00    -0.550 OA
ENDBRANCH   2   3
ENDBRANCH   1   2
BRANCH   1   6
ATOM      6  C   UNL     1      57.340  22.693  23.759  1.00  0.00     0.000 C 
BRANCH   6   7
ATOM      7  C   UNL     1      56.315  22.181  22.737  1.00  0.00    -0.000 C 
BRANCH   7   8
ATOM      8  C   UNL     1      55.204  21.381  23.429  1.00  0.00    -0.003 C 
ATOM      9  C   UNL     1      54.008  22.270  23.758  1.00  0.00     0.004 C 
ENDBRANCH   7   8
ENDBRANCH   6   7
ENDBRANCH   1   6
TORSDOF 5
ENDMDL
MODEL 8
REMARK VINA RESULT:    -2.913      3.785      5.493
REMARK INTER + INTRA:          -3.883
REMARK INTER:                  -3.744
REMARK INTRA:                  -0.139
REMARK UNBOUND:                -0.119
REMARK SMILES CCCCCCC(=O)[O-]
REMARK SMILES IDX 5 1 6 2 7 3 8 4 9 5 4 6 3 7 2 8 1 9
REMARK H PARENT
REMARK Flexibility Score: inf
ROOT
ATOM      1  C   UNL     1      60.128  21.834  21.060  1.00  0.00     0.006 C 
ENDROOT
BRANCH   1   2
ATOM      2  C   UNL     1      61.394  22.699  20.997  1.00  0.00     0.053 C 
BRANCH   2   3
ATOM      3  C   UNL     1      62.273  22.255  19.872  1.00  0.00     0.041 C 
ATOM      4  O   UNL     1      63.436  21.832  20.104  1.00  0.00    -0.550 OA
ATOM      5  O   UNL     1      61.827  22.353  18.559  1.00  0.00    -0.550 OA
ENDBRANCH   2   3
ENDBRANCH   1   2
BRANCH   1   6
ATOM      6  C   UNL     1      59.073  22.399  22.025  1.00  0.00     0.000 C 
BRANCH   6   7
ATOM      7  C   UNL     1      59.697  23.113  23.233  1.00  0.00    -0.000 C 
BRANCH   7   8
ATOM      8  C   UNL     1      58.783  23.012  24.460  1.00  0.00    -0.003 C 
ATOM      9  C   UNL     1      59.493  22.320  25.620  1.00  0.00     0.004 C 
ENDBRANCH   7   8
ENDBRANCH   6   7
ENDBRANCH   1   6
TORSDOF 5
ENDMDL
MODEL 9
REMARK VINA RESULT:    -2.784      2.312      2.797
REMARK INTER + INTRA:          -3.717
REMARK INTER:                  -3.562
REMARK INTRA:                  -0.155
REMARK UNBOUND:                -0.119
REMARK SMILES CCCCCCC(=O)[O-]
REMARK SMILES IDX 5 1 6 2 7 3 8 4 9 5 4 6 3 7 2 8 1 9
REMARK H PARENT
REMARK Flexibility Score: inf
ROOT
ATOM      1  C   UNL     1      59.072  22.254  23.824  1.00  0.00     0.006 C 
ENDROOT
BRANCH   1   2
ATOM      2  C   UNL     1      57.644  22.721  24.135  1.00  0.00     0.053 C 
BRANCH   2   3
ATOM      3  C   UNL     1      56.653  21.937  23.336  1.00  0.00     0.041 C 
ATOM      4  O   UNL     1      57.031  20.960  22.637  1.00  0.00    -0.550 OA
ATOM      5  O   UNL     1      55.316  22.314  23.322  1.00  0.00    -0.550 OA
ENDBRANCH   2   3
ENDBRANCH   1   2
BRANCH   1   6
ATOM      6  C   UNL     1      59.896  23.321  23.085  1.00  0.00     0.000 C 
BRANCH   6   7
ATOM      7  C   UNL     1      60.375  24.447  24.013  1.00  0.00    -0.000 C 
BRANCH   7   8
ATOM      8  C   UNL     1      61.275  25.432  23.258  1.00  0.00    -0.003 C 
ATOM      9  C   UNL     1      62.375  24.701  22.494  1.00  0.00     0.004 C 
ENDBRANCH   7   8
ENDBRANCH   6   7
ENDBRANCH   1   6
TORSDOF 5
ENDMDL
