MODEL 1
REMARK VINA RESULT:    -4.933      0.000      0.000
REMARK INTER + INTRA:         -10.271
REMARK INTER:                  -8.971
REMARK INTRA:                  -1.300
REMARK UNBOUND:                -1.300
REMARK SMILES CCCCCCCCCCCCCCCC(=O)[O-]
REMARK SMILES IDX 9 1 10 2 11 3 12 4 13 5 14 6 15 7 16 8 17 9 18 10 8 11 7 12
REMARK SMILES IDX 6 13 5 14 4 15 3 16 2 17 1 18
REMARK H PARENT
REMARK Flexibility Score: inf
ROOT
ATOM      1  C   UNL     1      26.474  -0.862  30.378  1.00  0.00     0.000 C 
ENDROOT
BRANCH   1   2
ATOM      2  C   UNL     1      26.881  -0.191  29.057  1.00  0.00     0.000 C 
BRANCH   2   3
ATOM      3  C   UNL     1      28.386  -0.341  28.806  1.00  0.00     0.000 C 
BRANCH   3   4
ATOM      4  C   UNL     1      29.132   0.960  29.138  1.00  0.00     0.000 C 
BRANCH   4   5
ATOM      5  C   UNL     1      29.965   0.853  30.425  1.00  0.00     0.000 C 
BRANCH   5   6
ATOM      6  C   UNL     1      29.262   1.482  31.640  1.00  0.00     0.006 C 
BRANCH   6   7
ATOM      7  C   UNL     1      28.131   2.433  31.227  1.00  0.00     0.053 C 
BRANCH   7   8
ATOM      8  C   UNL     1      28.447   3.854  31.578  1.00  0.00     0.041 C 
ATOM      9  O   UNL     1      29.291   4.114  32.476  1.00  0.00    -0.550 OA
ATOM     10  O   UNL     1      27.784   4.893  30.937  1.00  0.00    -0.550 OA
ENDBRANCH   7   8
ENDBRANCH   6   7
ENDBRANCH   5   6
ENDBRANCH   4   5
ENDBRANCH   3   4
ENDBRANCH   2   3
ENDBRANCH   1   2
BRANCH   1  11
ATOM     11  C   UNL     1      27.262  -2.151  30.656  1.00  0.00     0.000 C 
BRANCH  11  12
ATOM     12  C   UNL     1      26.358  -3.388  30.763  1.00  0.00    -0.000 C 
BRANCH  12  13
ATOM     13  C   UNL     1      27.092  -4.647  30.288  1.00  0.00    -0.000 C 
BRANCH  13  14
ATOM     14  C   UNL     1      28.605  -4.518  30.504  1.00  0.00    -0.000 C 
BRANCH  14  15
ATOM     15  C   UNL     1      29.282  -5.897  30.508  1.00  0.00    -0.000 C 
BRANCH  15  16
ATOM     16  C   UNL     1      28.304  -7.027  30.121  1.00  0.00    -0.000 C 
BRANCH  16  17
ATOM     17  C   UNL     1      28.694  -8.400  30.696  1.00  0.00    -0.003 C 
ATOM     18  C   UNL     1      28.487  -8.497  32.206  1.00  0.00     0.004 C 
ENDBRANCH  16  17
ENDBRANCH  15  16
ENDBRANCH  14  15
ENDBRANCH  13  14
ENDBRANCH  12  13
ENDBRANCH  11  12
ENDBRANCH   1  11
TORSDOF 14
ENDMDL
MODEL 2
REMARK VINA RESULT:    -4.889      4.175      9.340
REMARK INTER + INTRA:         -10.191
REMARK INTER:                  -9.110
REMARK INTRA:                  -1.081
REMARK UNBOUND:                -1.300
REMARK SMILES CCCCCCCCCCCCCCCC(=O)[O-]
REMARK SMILES IDX 9 1 10 2 11 3 12 4 13 5 14 6 15 7 16 8 17 9 18 10 8 11 7 12
REMARK SMILES IDX 6 13 5 14 4 15 3 16 2 17 1 18
REMARK H PARENT
REMARK Flexibility Score: inf
ROOT
ATOM      1  C   UNL     1      26.399   0.612  30.082  1.00  0.00     0.000 C 
ENDROOT
BRANCH   1   2
ATOM      2  C   UNL     1      27.081   0.932  31.420  1.00  0.00     0.000 C 
BRANCH   2   3
ATOM      3  C   UNL     1      27.955  -0.240  31.884  1.00  0.00     0.000 C 
BRANCH   3   4
ATOM      4  C   UNL     1      29.441   0.041  31.612  1.00  0.00     0.000 C 
BRANCH   4   5
ATOM      5  C   UNL     1      29.951  -0.655  30.339  1.00  0.00     0.000 C 
BRANCH   5   6
ATOM      6  C   UNL     1      29.084  -1.860  29.935  1.00  0.00     0.006 C 
BRANCH   6   7
ATOM      7  C   UNL     1      29.905  -3.151  29.824  1.00  0.00     0.053 C 
BRANCH   7   8
ATOM      8  C   UNL     1      29.032  -4.367  29.883  1.00  0.00     0.041 C 
ATOM      9  O   UNL     1      29.082  -5.230  28.966  1.00  0.00    -0.550 OA
ATOM     10  O   UNL     1      28.138  -4.532  30.933  1.00  0.00    -0.550 OA
ENDBRANCH   7   8
ENDBRANCH   6   7
ENDBRANCH   5   6
ENDBRANCH   4   5
ENDBRANCH   3   4
ENDBRANCH   2   3
ENDBRANCH   1   2
BRANCH   1  11
ATOM     11  C   UNL     1      26.818   1.573  28.958  1.00  0.00     0.000 C 
BRANCH  11  12
ATOM     12  C   UNL     1      27.874   2.592  29.412  1.00  0.00    -0.000 C 
BRANCH  12  13
ATOM     13  C   UNL     1      27.470   4.015  29.011  1.00  0.00    -0.000 C 
BRANCH  13  14
ATOM     14  C   UNL     1      27.674   4.994  30.175  1.00  0.00    -0.000 C 
BRANCH  14  15
ATOM     15  C   UNL     1      26.861   6.280  29.962  1.00  0.00    -0.000 C 
BRANCH  15  16
ATOM     16  C   UNL     1      27.683   7.548  30.279  1.00  0.00    -0.000 C 
BRANCH  16  17
ATOM     17  C   UNL     1      26.861   8.661  30.952  1.00  0.00    -0.003 C 
ATOM     18  C   UNL     1      26.631   9.867  30.045  1.00  0.00     0.004 C 
ENDBRANCH  16  17
ENDBRANCH  15  16
ENDBRANCH  14  15
ENDBRANCH  13  14
ENDBRANCH  12  13
ENDBRANCH  11  12
ENDBRANCH   1  11
TORSDOF 14
ENDMDL
MODEL 3
REMARK VINA RESULT:    -4.854      4.008      6.731
REMARK INTER + INTRA:         -10.127
REMARK INTER:                  -8.917
REMARK INTRA:                  -1.210
REMARK UNBOUND:                -1.300
REMARK SMILES CCCCCCCCCCCCCCCC(=O)[O-]
REMARK SMILES IDX 9 1 10 2 11 3 12 4 13 5 14 6 15 7 16 8 17 9 18 10 8 11 7 12
REMARK SMILES IDX 6 13 5 14 4 15 3 16 2 17 1 18
REMARK H PARENT
REMARK Flexibility Score: inf
ROOT
ATOM      1  C   UNL     1      28.770   3.838  31.988  1.00  0.00     0.000 C 
ENDROOT
BRANCH   1   2
ATOM      2  C   UNL     1      27.693   4.887  31.677  1.00  0.00     0.000 C 
BRANCH   2   3
ATOM      3  C   UNL     1      27.647   5.199  30.177  1.00  0.00     0.000 C 
BRANCH   3   4
ATOM      4  C   UNL     1      27.003   6.570  29.919  1.00  0.00     0.000 C 
BRANCH   4   5
ATOM      5  C   UNL     1      27.906   7.738  30.347  1.00  0.00     0.000 C 
BRANCH   5   6
ATOM      6  C   UNL     1      27.107   8.943  30.870  1.00  0.00     0.006 C 
BRANCH   6   7
ATOM      7  C   UNL     1      27.770  10.279  30.508  1.00  0.00     0.053 C 
BRANCH   7   8
ATOM      8  C   UNL     1      27.487  10.670  29.090  1.00  0.00     0.041 C 
ATOM      9  O   UNL     1      28.406  10.641  28.229  1.00  0.00    -0.550 OA
ATOM     10  O   UNL     1      26.217  11.098  28.727  1.00  0.00    -0.550 OA
ENDBRANCH   7   8
ENDBRANCH   6   7
ENDBRANCH   5   6
ENDBRANCH   4   5
ENDBRANCH   3   4
ENDBRANCH   2   3
ENDBRANCH   1   2
BRANCH   1  11
ATOM     11  C   UNL     1      28.457   2.466  31.370  1.00  0.00     0.000 C 
BRANCH  11  12
ATOM     12  C   UNL     1      29.504   1.400  31.731  1.00  0.00    -0.000 C 
BRANCH  12  13
ATOM     13  C   UNL     1      29.951   0.627  30.484  1.00  0.00    -0.000 C 
BRANCH  13  14
ATOM     14  C   UNL     1      29.191   1.101  29.240  1.00  0.00    -0.000 C 
BRANCH  14  15
ATOM     15  C   UNL     1      28.351  -0.037  28.639  1.00  0.00    -0.000 C 
BRANCH  15  16
ATOM     16  C   UNL     1      26.836   0.205  28.806  1.00  0.00    -0.000 C 
BRANCH  16  17
ATOM     17  C   UNL     1      26.286  -0.262  30.165  1.00  0.00    -0.003 C 
ATOM     18  C   UNL     1      26.950  -1.540  30.672  1.00  0.00     0.004 C 
ENDBRANCH  16  17
ENDBRANCH  15  16
ENDBRANCH  14  15
ENDBRANCH  13  14
ENDBRANCH  12  13
ENDBRANCH  11  12
ENDBRANCH   1  11
TORSDOF 14
ENDMDL
MODEL 4
REMARK VINA RESULT:    -4.817      4.100      6.454
REMARK INTER + INTRA:         -10.059
REMARK INTER:                  -8.838
REMARK INTRA:                  -1.221
REMARK UNBOUND:                -1.300
REMARK SMILES CCCCCCCCCCCCCCCC(=O)[O-]
REMARK SMILES IDX 9 1 10 2 11 3 12 4 13 5 14 6 15 7 16 8 17 9 18 10 8 11 7 12
REMARK SMILES IDX 6 13 5 14 4 15 3 16 2 17 1 18
REMARK H PARENT
REMARK Flexibility Score: inf
ROOT
ATOM      1  C   UNL     1      26.872   3.780  28.475  1.00  0.00     0.000 C 
ENDROOT
BRANCH   1   2
ATOM      2  C   UNL     1      26.887   5.095  29.269  1.00  0.00     0.000 C 
BRANCH   2   3
ATOM      3  C   UNL     1      27.950   5.057  30.373  1.00  0.00     0.000 C 
BRANCH   3   4
ATOM      4  C   UNL     1      28.417   6.474  30.737  1.00  0.00     0.000 C 
BRANCH   4   5
ATOM      5  C   UNL     1      27.413   7.556  30.309  1.00  0.00     0.000 C 
BRANCH   5   6
ATOM      6  C   UNL     1      28.090   8.760  29.632  1.00  0.00     0.006 C 
BRANCH   6   7
ATOM      7  C   UNL     1      27.339  10.071  29.896  1.00  0.00     0.053 C 
BRANCH   7   8
ATOM      8  C   UNL     1      27.302  10.403  31.356  1.00  0.00     0.041 C 
ATOM      9  O   UNL     1      28.258  11.027  31.889  1.00  0.00    -0.550 OA
ATOM     10  O   UNL     1      26.228   9.994  32.135  1.00  0.00    -0.550 OA
ENDBRANCH   7   8
ENDBRANCH   6   7
ENDBRANCH   5   6
ENDBRANCH   4   5
ENDBRANCH   3   4
ENDBRANCH   2   3
ENDBRANCH   1   2
BRANCH   1  11
ATOM     11  C   UNL     1      27.412   2.591  29.285  1.00  0.00     0.000 C 
BRANCH  11  12
ATOM     12  C   UNL     1      26.768   1.257  28.882  1.00  0.00    -0.000 C 
BRANCH  12  13
ATOM     13  C   UNL     1      26.264   0.496  30.114  1.00  0.00    -0.000 C 
BRANCH  13  14
ATOM     14  C   UNL     1      26.947   1.001  31.391  1.00  0.00    -0.000 C 
BRANCH  14  15
ATOM     15  C   UNL     1      28.037   0.024  31.857  1.00  0.00    -0.000 C 
BRANCH  15  16
ATOM     16  C   UNL     1      29.458   0.573  31.608  1.00  0.00    -0.000 C 
BRANCH  16  17
ATOM     17  C   UNL     1      30.218  -0.168  30.495  1.00  0.00    -0.003 C 
ATOM     18  C   UNL     1      29.464  -1.386  29.966  1.00  0.00     0.004 C 
ENDBRANCH  16  17
ENDBRANCH  15  16
ENDBRANCH  14  15
ENDBRANCH  13  14
ENDBRANCH  12  13
ENDBRANCH  11  12
ENDBRANCH   1  11
TORSDOF 14
ENDMDL
MODEL 5
REMARK VINA RESULT:    -4.763      4.486      9.962
REMARK INTER + INTRA:          -9.962
REMARK INTER:                  -8.786
REMARK INTRA:                  -1.175
REMARK UNBOUND:                -1.300
REMARK SMILES CCCCCCCCCCCCCCCC(=O)[O-]
REMARK SMILES IDX 9 1 10 2 11 3 12 4 13 5 14 6 15 7 16 8 17 9 18 10 8 11 7 12
REMARK SMILES IDX 6 13 5 14 4 15 3 16 2 17 1 18
REMARK H PARENT
REMARK Flexibility Score: inf
ROOT
ATOM      1  C   UNL     1      28.804   3.569  32.228  1.00  0.00     0.000 C 
ENDROOT
BRANCH   1   2
ATOM      2  C   UNL     1      28.518   2.350  31.338  1.00  0.00     0.000 C 
BRANCH   2   3
ATOM      3  C   UNL     1      29.497   1.209  31.639  1.00  0.00     0.000 C 
BRANCH   3   4
ATOM      4  C   UNL     1      29.998   0.557  30.341  1.00  0.00     0.000 C 
BRANCH   4   5
ATOM      5  C   UNL     1      29.199   1.006  29.107  1.00  0.00     0.000 C 
BRANCH   5   6
ATOM      6  C   UNL     1      28.255  -0.089  28.582  1.00  0.00     0.006 C 
BRANCH   6   7
ATOM      7  C   UNL     1      26.778   0.273  28.788  1.00  0.00     0.053 C 
BRANCH   7   8
ATOM      8  C   UNL     1      26.211  -0.390  30.006  1.00  0.00     0.041 C 
ATOM      9  O   UNL     1      25.075  -0.059  30.438  1.00  0.00    -0.550 OA
ATOM     10  O   UNL     1      26.953  -1.348  30.685  1.00  0.00    -0.550 OA
ENDBRANCH   7   8
ENDBRANCH   6   7
ENDBRANCH   5   6
ENDBRANCH   4   5
ENDBRANCH   3   4
ENDBRANCH   2   3
ENDBRANCH   1   2
BRANCH   1  11
ATOM     11  C   UNL     1      28.251   4.876  31.639  1.00  0.00     0.000 C 
BRANCH  11  12
ATOM     12  C   UNL     1      27.760   4.714  30.192  1.00  0.00    -0.000 C 
BRANCH  12  13
ATOM     13  C   UNL     1      26.979   5.952  29.737  1.00  0.00    -0.000 C 
BRANCH  13  14
ATOM     14  C   UNL     1      27.799   7.231  29.951  1.00  0.00    -0.000 C 
BRANCH  14  15
ATOM     15  C   UNL     1      26.989   8.282  30.724  1.00  0.00    -0.000 C 
BRANCH  15  16
ATOM     16  C   UNL     1      26.918   9.630  29.975  1.00  0.00    -0.000 C 
BRANCH  16  17
ATOM     17  C   UNL     1      28.194   9.960  29.182  1.00  0.00    -0.003 C 
ATOM     18  C   UNL     1      28.009  11.121  28.207  1.00  0.00     0.004 C 
ENDBRANCH  16  17
ENDBRANCH  15  16
ENDBRANCH  14  15
ENDBRANCH  13  14
ENDBRANCH  12  13
ENDBRANCH  11  12
ENDBRANCH   1  11
TORSDOF 14
ENDMDL
MODEL 6
REMARK VINA RESULT:    -4.705      3.764      6.184
REMARK INTER + INTRA:          -9.855
REMARK INTER:                  -8.590
REMARK INTRA:                  -1.266
REMARK UNBOUND:                -1.300
REMARK SMILES CCCCCCCCCCCCCCCC(=O)[O-]
REMARK SMILES IDX 9 1 10 2 11 3 12 4 13 5 14 6 15 7 16 8 17 9 18 10 8 11 7 12
REMARK SMILES IDX 6 13 5 14 4 15 3 16 2 17 1 18
REMARK H PARENT
REMARK Flexibility Score: inf
ROOT
ATOM      1  C   UNL     1      28.310   3.498  30.966  1.00  0.00     0.000 C 
ENDROOT
BRANCH   1   2
ATOM      2  C   UNL     1      27.590   3.688  29.623  1.00  0.00     0.000 C 
BRANCH   2   3
ATOM      3  C   UNL     1      27.486   5.174  29.261  1.00  0.00     0.000 C 
BRANCH   3   4
ATOM      4  C   UNL     1      27.202   6.026  30.508  1.00  0.00     0.000 C 
BRANCH   4   5
ATOM      5  C   UNL     1      28.191   7.192  30.665  1.00  0.00     0.000 C 
BRANCH   5   6
ATOM      6  C   UNL     1      27.767   8.441  29.872  1.00  0.00     0.006 C 
BRANCH   6   7
ATOM      7  C   UNL     1      27.718   9.696  30.752  1.00  0.00     0.053 C 
BRANCH   7   8
ATOM      8  C   UNL     1      26.363   9.893  31.360  1.00  0.00     0.041 C 
ATOM      9  O   UNL     1      26.020   9.228  32.374  1.00  0.00    -0.550 OA
ATOM     10  O   UNL     1      25.466  10.785  30.787  1.00  0.00    -0.550 OA
ENDBRANCH   7   8
ENDBRANCH   6   7
ENDBRANCH   5   6
ENDBRANCH   4   5
ENDBRANCH   3   4
ENDBRANCH   2   3
ENDBRANCH   1   2
BRANCH   1  11
ATOM     11  C   UNL     1      28.144   2.080  31.533  1.00  0.00     0.000 C 
BRANCH  11  12
ATOM     12  C   UNL     1      29.484   1.349  31.705  1.00  0.00    -0.000 C 
BRANCH  12  13
ATOM     13  C   UNL     1      29.971   0.775  30.369  1.00  0.00    -0.000 C 
BRANCH  13  14
ATOM     14  C   UNL     1      29.966  -0.759  30.394  1.00  0.00    -0.000 C 
BRANCH  14  15
ATOM     15  C   UNL     1      28.730  -1.319  29.673  1.00  0.00    -0.000 C 
BRANCH  15  16
ATOM     16  C   UNL     1      27.488  -1.359  30.589  1.00  0.00    -0.000 C 
BRANCH  16  17
ATOM     17  C   UNL     1      26.253  -0.675  29.979  1.00  0.00    -0.003 C 
ATOM     18  C   UNL     1      26.593   0.238  28.803  1.00  0.00     0.004 C 
ENDBRANCH  16  17
ENDBRANCH  15  16
ENDBRANCH  14  15
ENDBRANCH  13  14
ENDBRANCH  12  13
ENDBRANCH  11  12
ENDBRANCH   1  11
TORSDOF 14
ENDMDL
MODEL 7
REMARK VINA RESULT:    -4.702      3.928     10.006
REMARK INTER + INTRA:          -9.850
REMARK INTER:                  -8.722
REMARK INTRA:                  -1.128
REMARK UNBOUND:                -1.300
REMARK SMILES CCCCCCCCCCCCCCCC(=O)[O-]
REMARK SMILES IDX 9 1 10 2 11 3 12 4 13 5 14 6 15 7 16 8 17 9 18 10 8 11 7 12
REMARK SMILES IDX 6 13 5 14 4 15 3 16 2 17 1 18
REMARK H PARENT
REMARK Flexibility Score: inf
ROOT
ATOM      1  C   UNL     1      28.084   2.857  29.492  1.00  0.00     0.000 C 
ENDROOT
BRANCH   1   2
ATOM      2  C   UNL     1      27.981   2.613  31.005  1.00  0.00     0.000 C 
BRANCH   2   3
ATOM      3  C   UNL     1      29.159   1.770  31.506  1.00  0.00     0.000 C 
BRANCH   3   4
ATOM      4  C   UNL     1      29.769   0.942  30.365  1.00  0.00     0.000 C 
BRANCH   4   5
ATOM      5  C   UNL     1      29.712  -0.570  30.635  1.00  0.00     0.000 C 
BRANCH   5   6
ATOM      6  C   UNL     1      28.720  -1.300  29.714  1.00  0.00     0.006 C 
BRANCH   6   7
ATOM      7  C   UNL     1      27.305  -1.341  30.304  1.00  0.00     0.053 C 
BRANCH   7   8
ATOM      8  C   UNL     1      26.400  -0.350  29.640  1.00  0.00     0.041 C 
ATOM      9  O   UNL     1      26.638   0.040  28.466  1.00  0.00    -0.550 OA
ATOM     10  O   UNL     1      25.313   0.171  30.330  1.00  0.00    -0.550 OA
ENDBRANCH   7   8
ENDBRANCH   6   7
ENDBRANCH   5   6
ENDBRANCH   4   5
ENDBRANCH   3   4
ENDBRANCH   2   3
ENDBRANCH   1   2
BRANCH   1  11
ATOM     11  C   UNL     1      27.264   4.072  29.030  1.00  0.00     0.000 C 
BRANCH  11  12
ATOM     12  C   UNL     1      27.977   5.405  29.298  1.00  0.00    -0.000 C 
BRANCH  12  13
ATOM     13  C   UNL     1      27.096   6.339  30.136  1.00  0.00    -0.000 C 
BRANCH  13  14
ATOM     14  C   UNL     1      27.860   7.609  30.534  1.00  0.00    -0.000 C 
BRANCH  14  15
ATOM     15  C   UNL     1      26.893   8.728  30.946  1.00  0.00    -0.000 C 
BRANCH  15  16
ATOM     16  C   UNL     1      27.482  10.132  30.689  1.00  0.00    -0.000 C 
BRANCH  16  17
ATOM     17  C   UNL     1      28.680  10.128  29.724  1.00  0.00    -0.003 C 
ATOM     18  C   UNL     1      28.338  10.687  28.344  1.00  0.00     0.004 C 
ENDBRANCH  16  17
ENDBRANCH  15  16
ENDBRANCH  14  15
ENDBRANCH  13  14
ENDBRANCH  12  13
ENDBRANCH  11  12
ENDBRANCH   1  11
TORSDOF 14
ENDMDL
MODEL 8
REMARK VINA RESULT:    -4.683      4.240      6.800
REMARK INTER + INTRA:          -9.816
REMARK INTER:                  -8.640
REMARK INTRA:                  -1.175
REMARK UNBOUND:                -1.300
REMARK SMILES CCCCCCCCCCCCCCCC(=O)[O-]
REMARK SMILES IDX 9 1 10 2 11 3 12 4 13 5 14 6 15 7 16 8 17 9 18 10 8 11 7 12
REMARK SMILES IDX 6 13 5 14 4 15 3 16 2 17 1 18
REMARK H PARENT
REMARK Flexibility Score: inf
ROOT
ATOM      1  C   UNL     1      28.007   3.506  30.272  1.00  0.00     0.000 C 
ENDROOT
BRANCH   1   2
ATOM      2  C   UNL     1      27.434   4.890  29.933  1.00  0.00     0.000 C 
BRANCH   2   3
ATOM      3  C   UNL     1      28.129   5.987  30.748  1.00  0.00     0.000 C 
BRANCH   3   4
ATOM      4  C   UNL     1      28.022   7.348  30.044  1.00  0.00     0.000 C 
BRANCH   4   5
ATOM      5  C   UNL     1      26.893   8.222  30.615  1.00  0.00     0.000 C 
BRANCH   5   6
ATOM      6  C   UNL     1      27.330   9.678  30.847  1.00  0.00     0.006 C 
BRANCH   6   7
ATOM      7  C   UNL     1      28.517  10.075  29.959  1.00  0.00     0.053 C 
BRANCH   7   8
ATOM      8  C   UNL     1      28.080  10.400  28.564  1.00  0.00     0.041 C 
ATOM      9  O   UNL     1      27.069  11.124  28.368  1.00  0.00    -0.550 OA
ATOM     10  O   UNL     1      28.769   9.874  27.479  1.00  0.00    -0.550 OA
ENDBRANCH   7   8
ENDBRANCH   6   7
ENDBRANCH   5   6
ENDBRANCH   4   5
ENDBRANCH   3   4
ENDBRANCH   2   3
ENDBRANCH   1   2
BRANCH   1  11
ATOM     11  C   UNL     1      27.966   2.539  29.079  1.00  0.00     0.000 C 
BRANCH  11  12
ATOM     12  C   UNL     1      26.643   1.764  28.988  1.00  0.00    -0.000 C 
BRANCH  12  13
ATOM     13  C   UNL     1      26.897   0.266  28.786  1.00  0.00    -0.000 C 
BRANCH  13  14
ATOM     14  C   UNL     1      26.501  -0.534  30.034  1.00  0.00    -0.000 C 
BRANCH  14  15
ATOM     15  C   UNL     1      27.744  -0.998  30.809  1.00  0.00    -0.000 C 
BRANCH  15  16
ATOM     16  C   UNL     1      28.183   0.027  31.876  1.00  0.00    -0.000 C 
BRANCH  16  17
ATOM     17  C   UNL     1      29.638   0.498  31.714  1.00  0.00    -0.003 C 
ATOM     18  C   UNL     1      30.283   0.013  30.417  1.00  0.00     0.004 C 
ENDBRANCH  16  17
ENDBRANCH  15  16
ENDBRANCH  14  15
ENDBRANCH  13  14
ENDBRANCH  12  13
ENDBRANCH  11  12
ENDBRANCH   1  11
TORSDOF 14
ENDMDL
MODEL 9
REMARK VINA RESULT:    -4.668      4.298     10.277
REMARK INTER + INTRA:          -9.789
REMARK INTER:                  -8.680
REMARK INTRA:                  -1.109
REMARK UNBOUND:                -1.300
REMARK SMILES CCCCCCCCCCCCCCCC(=O)[O-]
REMARK SMILES IDX 9 1 10 2 11 3 12 4 13 5 14 6 15 7 16 8 17 9 18 10 8 11 7 12
REMARK SMILES IDX 6 13 5 14 4 15 3 16 2 17 1 18
REMARK H PARENT
REMARK Flexibility Score: inf
ROOT
ATOM      1  C   UNL     1      27.771   4.832  29.057  1.00  0.00     0.000 C 
ENDROOT
BRANCH   1   2
ATOM      2  C   UNL     1      26.912   3.602  28.727  1.00  0.00     0.000 C 
BRANCH   2   3
ATOM      3  C   UNL     1      27.561   2.320  29.262  1.00  0.00     0.000 C 
BRANCH   3   4
ATOM      4  C   UNL     1      26.818   1.074  28.756  1.00  0.00     0.000 C 
BRANCH   4   5
ATOM      5  C   UNL     1      26.332   0.169  29.900  1.00  0.00     0.000 C 
BRANCH   5   6
ATOM      6  C   UNL     1      26.843   0.628  31.276  1.00  0.00     0.006 C 
BRANCH   6   7
ATOM      7  C   UNL     1      27.826  -0.375  31.893  1.00  0.00     0.053 C 
BRANCH   7   8
ATOM      8  C   UNL     1      29.238  -0.086  31.485  1.00  0.00     0.041 C 
ATOM      9  O   UNL     1      29.730  -0.638  30.465  1.00  0.00    -0.550 OA
ATOM     10  O   UNL     1      30.023   0.766  32.251  1.00  0.00    -0.550 OA
ENDBRANCH   7   8
ENDBRANCH   6   7
ENDBRANCH   5   6
ENDBRANCH   4   5
ENDBRANCH   3   4
ENDBRANCH   2   3
ENDBRANCH   1   2
BRANCH   1  11
ATOM     11  C   UNL     1      27.944   5.046  30.569  1.00  0.00     0.000 C 
BRANCH  11  12
ATOM     12  C   UNL     1      27.180   6.273  31.086  1.00  0.00    -0.000 C 
BRANCH  12  13
ATOM     13  C   UNL     1      27.162   7.391  30.036  1.00  0.00    -0.000 C 
BRANCH  13  14
ATOM     14  C   UNL     1      28.415   8.269  30.145  1.00  0.00    -0.000 C 
BRANCH  14  15
ATOM     15  C   UNL     1      28.038   9.749  30.306  1.00  0.00    -0.000 C 
BRANCH  15  16
ATOM     16  C   UNL     1      26.565  10.020  29.934  1.00  0.00    -0.000 C 
BRANCH  16  17
ATOM     17  C   UNL     1      25.758  10.686  31.062  1.00  0.00    -0.003 C 
ATOM     18  C   UNL     1      26.507  10.722  32.392  1.00  0.00     0.004 C 
ENDBRANCH  16  17
ENDBRANCH  15  16
ENDBRANCH  14  15
ENDBRANCH  13  14
ENDBRANCH  12  13
ENDBRANCH  11  12
ENDBRANCH   1  11
TORSDOF 14
ENDMDL
