MODEL 1
REMARK VINA RESULT:    -4.632      0.000      0.000
REMARK INTER + INTRA:         -14.889
REMARK INTER:                 -11.673
REMARK INTRA:                  -3.216
REMARK UNBOUND:                -3.216
REMARK SMILES CCCCCCCCCCCCCCCCCCCCCCCCCCCC(=O)[O-]
REMARK SMILES IDX 15 1 16 2 17 3 18 4 19 5 20 6 21 7 22 8 23 9 24 10 25 11
REMARK SMILES IDX 26 12 27 13 28 14 29 15 30 16 14 17 13 18 12 19 11 20 10 21
REMARK SMILES IDX 9 22 8 23 7 24 6 25 5 26 4 27 3 28 2 29 1 30
REMARK H PARENT
REMARK Flexibility Score: inf
ROOT
ATOM      1  C   UNL     1      -1.991   2.604  -5.701  1.00  0.00     0.000 C 
ENDROOT
BRANCH   1   2
ATOM      2  C   UNL     1      -2.669   3.301  -4.508  1.00  0.00     0.000 C 
BRANCH   2   3
ATOM      3  C   UNL     1      -2.344   2.631  -3.163  1.00  0.00     0.000 C 
BRANCH   3   4
ATOM      4  C   UNL     1      -3.541   2.629  -2.197  1.00  0.00     0.000 C 
BRANCH   4   5
ATOM      5  C   UNL     1      -4.890   2.831  -2.913  1.00  0.00     0.000 C 
BRANCH   5   6
ATOM      6  C   UNL     1      -5.692   1.541  -3.179  1.00  0.00     0.000 C 
BRANCH   6   7
ATOM      7  C   UNL     1      -5.640   1.022  -4.629  1.00  0.00     0.000 C 
BRANCH   7   8
ATOM      8  C   UNL     1      -4.518   0.004  -4.917  1.00  0.00     0.000 C 
BRANCH   8   9
ATOM      9  C   UNL     1      -3.930  -0.681  -3.671  1.00  0.00     0.000 C 
BRANCH   9  10
ATOM     10  C   UNL     1      -4.204  -2.192  -3.635  1.00  0.00     0.000 C 
BRANCH  10  11
ATOM     11  C   UNL     1      -2.903  -2.992  -3.755  1.00  0.00     0.000 C 
BRANCH  11  12
ATOM     12  C   UNL     1      -2.893  -3.836  -5.037  1.00  0.00     0.006 C 
BRANCH  12  13
ATOM     13  C   UNL     1      -1.510  -4.431  -5.330  1.00  0.00     0.053 C 
BRANCH  13  14
ATOM     14  C   UNL     1      -1.538  -5.929  -5.343  1.00  0.00     0.041 C 
ATOM     15  O   UNL     1      -1.502  -6.555  -6.434  1.00  0.00    -0.550 OA
ATOM     16  O   UNL     1      -1.571  -6.633  -4.145  1.00  0.00    -0.550 OA
ENDBRANCH  13  14
ENDBRANCH  12  13
ENDBRANCH  11  12
ENDBRANCH  10  11
ENDBRANCH   9  10
ENDBRANCH   8   9
ENDBRANCH   7   8
ENDBRANCH   6   7
ENDBRANCH   5   6
ENDBRANCH   4   5
ENDBRANCH   3   4
ENDBRANCH   2   3
ENDBRANCH   1   2
BRANCH   1  17
ATOM     17  C   UNL     1      -1.196   3.587  -6.578  1.00  0.00     0.000 C 
BRANCH  17  18
ATOM     18  C   UNL     1       0.266   3.733  -6.127  1.00  0.00     0.000 C 
BRANCH  18  19
ATOM     19  C   UNL     1       0.436   4.956  -5.215  1.00  0.00     0.000 C 
BRANCH  19  20
ATOM     20  C   UNL     1       0.830   4.577  -3.776  1.00  0.00     0.000 C 
BRANCH  20  21
ATOM     21  C   UNL     1       1.122   3.078  -3.559  1.00  0.00     0.000 C 
BRANCH  21  22
ATOM     22  C   UNL     1       2.528   2.754  -3.013  1.00  0.00    -0.000 C 
BRANCH  22  23
ATOM     23  C   UNL     1       3.383   1.851  -3.920  1.00  0.00    -0.000 C 
BRANCH  23  24
ATOM     24  C   UNL     1       4.544   2.608  -4.586  1.00  0.00    -0.000 C 
BRANCH  24  25
ATOM     25  C   UNL     1       4.067   3.834  -5.382  1.00  0.00    -0.000 C 
BRANCH  25  26
ATOM     26  C   UNL     1       3.801   3.508  -6.862  1.00  0.00    -0.000 C 
BRANCH  26  27
ATOM     27  C   UNL     1       4.823   2.515  -7.445  1.00  0.00    -0.000 C 
BRANCH  27  28
ATOM     28  C   UNL     1       4.272   1.101  -7.720  1.00  0.00    -0.000 C 
BRANCH  28  29
ATOM     29  C   UNL     1       4.843   0.414  -8.972  1.00  0.00    -0.003 C 
ATOM     30  C   UNL     1       3.840   0.347 -10.124  1.00  0.00     0.004 C 
ENDBRANCH  28  29
ENDBRANCH  27  28
ENDBRANCH  26  27
ENDBRANCH  25  26
ENDBRANCH  24  25
ENDBRANCH  23  24
ENDBRANCH  22  23
ENDBRANCH  21  22
ENDBRANCH  20  21
ENDBRANCH  19  20
ENDBRANCH  18  19
ENDBRANCH  17  18
ENDBRANCH   1  17
TORSDOF 26
ENDMDL
MODEL 2
REMARK VINA RESULT:    -4.610      2.904      8.571
REMARK INTER + INTRA:         -14.832
REMARK INTER:                 -10.745
REMARK INTRA:                  -4.087
REMARK UNBOUND:                -3.216
REMARK SMILES CCCCCCCCCCCCCCCCCCCCCCCCCCCC(=O)[O-]
REMARK SMILES IDX 15 1 16 2 17 3 18 4 19 5 20 6 21 7 22 8 23 9 24 10 25 11
REMARK SMILES IDX 26 12 27 13 28 14 29 15 30 16 14 17 13 18 12 19 11 20 10 21
REMARK SMILES IDX 9 22 8 23 7 24 6 25 5 26 4 27 3 28 2 29 1 30
REMARK H PARENT
REMARK Flexibility Score: inf
ROOT
ATOM      1  C   UNL     1       0.262   3.129  -3.517  1.00  0.00     0.000 C 
ENDROOT
BRANCH   1   2
ATOM      2  C   UNL     1       1.790   3.206  -3.347  1.00  0.00     0.000 C 
BRANCH   2   3
ATOM      3  C   UNL     1       2.432   1.834  -3.087  1.00  0.00     0.000 C 
BRANCH   3   4
ATOM      4  C   UNL     1       3.777   1.662  -3.812  1.00  0.00     0.000 C 
BRANCH   4   5
ATOM      5  C   UNL     1       4.976   2.144  -2.974  1.00  0.00     0.000 C 
BRANCH   5   6
ATOM      6  C   UNL     1       5.386   3.614  -3.199  1.00  0.00     0.000 C 
BRANCH   6   7
ATOM      7  C   UNL     1       5.268   4.113  -4.653  1.00  0.00     0.000 C 
BRANCH   7   8
ATOM      8  C   UNL     1       4.152   5.149  -4.896  1.00  0.00     0.000 C 
BRANCH   8   9
ATOM      9  C   UNL     1       3.890   5.484  -6.376  1.00  0.00     0.000 C 
BRANCH   9  10
ATOM     10  C   UNL     1       2.621   4.813  -6.923  1.00  0.00     0.000 C 
BRANCH  10  11
ATOM     11  C   UNL     1       2.944   3.455  -7.555  1.00  0.00     0.000 C 
BRANCH  11  12
ATOM     12  C   UNL     1       4.249   3.521  -8.363  1.00  0.00     0.006 C 
BRANCH  12  13
ATOM     13  C   UNL     1       5.186   2.348  -8.051  1.00  0.00     0.053 C 
BRANCH  13  14
ATOM     14  C   UNL     1       4.637   1.047  -8.552  1.00  0.00     0.041 C 
ATOM     15  O   UNL     1       4.589   0.813  -9.787  1.00  0.00    -0.550 OA
ATOM     16  O   UNL     1       4.207   0.081  -7.650  1.00  0.00    -0.550 OA
ENDBRANCH  13  14
ENDBRANCH  12  13
ENDBRANCH  11  12
ENDBRANCH  10  11
ENDBRANCH   9  10
ENDBRANCH   8   9
ENDBRANCH   7   8
ENDBRANCH   6   7
ENDBRANCH   5   6
ENDBRANCH   4   5
ENDBRANCH   3   4
ENDBRANCH   2   3
ENDBRANCH   1   2
BRANCH   1  17
ATOM     17  C   UNL     1      -0.352   4.483  -3.911  1.00  0.00     0.000 C 
BRANCH  17  18
ATOM     18  C   UNL     1      -0.683   4.569  -5.410  1.00  0.00     0.000 C 
BRANCH  18  19
ATOM     19  C   UNL     1      -0.772   3.168  -6.030  1.00  0.00     0.000 C 
BRANCH  19  20
ATOM     20  C   UNL     1      -2.195   2.812  -6.499  1.00  0.00     0.000 C 
BRANCH  20  21
ATOM     21  C   UNL     1      -3.127   4.022  -6.713  1.00  0.00     0.000 C 
BRANCH  21  22
ATOM     22  C   UNL     1      -4.400   4.033  -5.842  1.00  0.00    -0.000 C 
BRANCH  22  23
ATOM     23  C   UNL     1      -4.173   4.409  -4.367  1.00  0.00    -0.000 C 
BRANCH  23  24
ATOM     24  C   UNL     1      -5.300   3.911  -3.447  1.00  0.00    -0.000 C 
BRANCH  24  25
ATOM     25  C   UNL     1      -4.923   2.621  -2.702  1.00  0.00    -0.000 C 
BRANCH  25  26
ATOM     26  C   UNL     1      -3.404   2.472  -2.515  1.00  0.00    -0.000 C 
BRANCH  26  27
ATOM     27  C   UNL     1      -2.824   1.274  -3.289  1.00  0.00    -0.000 C 
BRANCH  27  28
ATOM     28  C   UNL     1      -3.867   0.246  -3.774  1.00  0.00    -0.000 C 
BRANCH  28  29
ATOM     29  C   UNL     1      -3.612  -1.201  -3.320  1.00  0.00    -0.003 C 
ATOM     30  C   UNL     1      -4.589  -2.201  -3.940  1.00  0.00     0.004 C 
ENDBRANCH  28  29
ENDBRANCH  27  28
ENDBRANCH  26  27
ENDBRANCH  25  26
ENDBRANCH  24  25
ENDBRANCH  23  24
ENDBRANCH  22  23
ENDBRANCH  21  22
ENDBRANCH  20  21
ENDBRANCH  19  20
ENDBRANCH  18  19
ENDBRANCH  17  18
ENDBRANCH   1  17
TORSDOF 26
ENDMDL
MODEL 3
REMARK VINA RESULT:    -4.608      1.914      3.735
REMARK INTER + INTRA:         -14.827
REMARK INTER:                 -10.875
REMARK INTRA:                  -3.953
REMARK UNBOUND:                -3.216
REMARK SMILES CCCCCCCCCCCCCCCCCCCCCCCCCCCC(=O)[O-]
REMARK SMILES IDX 15 1 16 2 17 3 18 4 19 5 20 6 21 7 22 8 23 9 24 10 25 11
REMARK SMILES IDX 26 12 27 13 28 14 29 15 30 16 14 17 13 18 12 19 11 20 10 21
REMARK SMILES IDX 9 22 8 23 7 24 6 25 5 26 4 27 3 28 2 29 1 30
REMARK H PARENT
REMARK Flexibility Score: inf
ROOT
ATOM      1  C   UNL     1       0.255   3.010  -3.041  1.00  0.00     0.000 C 
ENDROOT
BRANCH   1   2
ATOM      2  C   UNL     1      -0.919   2.924  -4.033  1.00  0.00     0.000 C 
BRANCH   2   3
ATOM      3  C   UNL     1      -0.551   3.429  -5.438  1.00  0.00     0.000 C 
BRANCH   3   4
ATOM      4  C   UNL     1      -1.496   2.893  -6.527  1.00  0.00     0.000 C 
BRANCH   4   5
ATOM      5  C   UNL     1      -2.847   2.413  -5.965  1.00  0.00     0.000 C 
BRANCH   5   6
ATOM      6  C   UNL     1      -4.031   3.376  -6.188  1.00  0.00     0.000 C 
BRANCH   6   7
ATOM      7  C   UNL     1      -4.304   4.360  -5.033  1.00  0.00     0.000 C 
BRANCH   7   8
ATOM      8  C   UNL     1      -5.144   3.787  -3.875  1.00  0.00     0.000 C 
BRANCH   8   9
ATOM      9  C   UNL     1      -4.326   3.212  -2.704  1.00  0.00     0.000 C 
BRANCH   9  10
ATOM     10  C   UNL     1      -4.393   1.680  -2.626  1.00  0.00     0.000 C 
BRANCH  10  11
ATOM     11  C   UNL     1      -5.590   1.139  -3.415  1.00  0.00     0.000 C 
BRANCH  11  12
ATOM     12  C   UNL     1      -5.171  -0.033  -4.314  1.00  0.00     0.006 C 
BRANCH  12  13
ATOM     13  C   UNL     1      -3.796  -0.596  -3.931  1.00  0.00     0.053 C 
BRANCH  13  14
ATOM     14  C   UNL     1      -3.780  -2.094  -3.959  1.00  0.00     0.041 C 
ATOM     15  O   UNL     1      -4.768  -2.731  -4.410  1.00  0.00    -0.550 OA
ATOM     16  O   UNL     1      -2.659  -2.785  -3.515  1.00  0.00    -0.550 OA
ENDBRANCH  13  14
ENDBRANCH  12  13
ENDBRANCH  11  12
ENDBRANCH  10  11
ENDBRANCH   9  10
ENDBRANCH   8   9
ENDBRANCH   7   8
ENDBRANCH   6   7
ENDBRANCH   5   6
ENDBRANCH   4   5
ENDBRANCH   3   4
ENDBRANCH   2   3
ENDBRANCH   1   2
BRANCH   1  17
ATOM     17  C   UNL     1       1.620   2.879  -3.738  1.00  0.00     0.000 C 
BRANCH  17  18
ATOM     18  C   UNL     1       2.529   1.836  -3.068  1.00  0.00     0.000 C 
BRANCH  18  19
ATOM     19  C   UNL     1       3.939   1.872  -3.674  1.00  0.00     0.000 C 
BRANCH  19  20
ATOM     20  C   UNL     1       5.028   2.189  -2.633  1.00  0.00     0.000 C 
BRANCH  20  21
ATOM     21  C   UNL     1       5.627   3.606  -2.733  1.00  0.00     0.000 C 
BRANCH  21  22
ATOM     22  C   UNL     1       4.597   4.755  -2.753  1.00  0.00    -0.000 C 
BRANCH  22  23
ATOM     23  C   UNL     1       4.452   5.471  -4.107  1.00  0.00    -0.000 C 
BRANCH  23  24
ATOM     24  C   UNL     1       5.678   5.278  -5.015  1.00  0.00    -0.000 C 
BRANCH  24  25
ATOM     25  C   UNL     1       5.357   4.443  -6.266  1.00  0.00    -0.000 C 
BRANCH  25  26
ATOM     26  C   UNL     1       3.864   4.486  -6.634  1.00  0.00    -0.000 C 
BRANCH  26  27
ATOM     27  C   UNL     1       3.291   3.095  -6.957  1.00  0.00    -0.000 C 
BRANCH  27  28
ATOM     28  C   UNL     1       4.344   2.019  -7.294  1.00  0.00    -0.000 C 
BRANCH  28  29
ATOM     29  C   UNL     1       4.470   1.680  -8.789  1.00  0.00    -0.003 C 
ATOM     30  C   UNL     1       4.486   0.175  -9.059  1.00  0.00     0.004 C 
ENDBRANCH  28  29
ENDBRANCH  27  28
ENDBRANCH  26  27
ENDBRANCH  25  26
ENDBRANCH  24  25
ENDBRANCH  23  24
ENDBRANCH  22  23
ENDBRANCH  21  22
ENDBRANCH  20  21
ENDBRANCH  19  20
ENDBRANCH  18  19
ENDBRANCH  17  18
ENDBRANCH   1  17
TORSDOF 26
ENDMDL
MODEL 4
REMARK VINA RESULT:    -4.589      1.753      3.072
REMARK INTER + INTRA:         -14.780
REMARK INTER:                 -10.717
REMARK INTRA:                  -4.063
REMARK UNBOUND:                -3.216
REMARK SMILES CCCCCCCCCCCCCCCCCCCCCCCCCCCC(=O)[O-]
REMARK SMILES IDX 15 1 16 2 17 3 18 4 19 5 20 6 21 7 22 8 23 9 24 10 25 11
REMARK SMILES IDX 26 12 27 13 28 14 29 15 30 16 14 17 13 18 12 19 11 20 10 21
REMARK SMILES IDX 9 22 8 23 7 24 6 25 5 26 4 27 3 28 2 29 1 30
REMARK H PARENT
REMARK Flexibility Score: inf
ROOT
ATOM      1  C   UNL     1       0.282   4.189  -4.130  1.00  0.00     0.000 C 
ENDROOT
BRANCH   1   2
ATOM      2  C   UNL     1      -0.337   3.007  -4.897  1.00  0.00     0.000 C 
BRANCH   2   3
ATOM      3  C   UNL     1      -1.784   2.712  -4.471  1.00  0.00     0.000 C 
BRANCH   3   4
ATOM      4  C   UNL     1      -1.871   2.064  -3.078  1.00  0.00     0.000 C 
BRANCH   4   5
ATOM      5  C   UNL     1      -3.081   2.558  -2.262  1.00  0.00     0.000 C 
BRANCH   5   6
ATOM      6  C   UNL     1      -4.177   3.272  -3.080  1.00  0.00     0.000 C 
BRANCH   6   7
ATOM      7  C   UNL     1      -5.618   3.051  -2.579  1.00  0.00     0.000 C 
BRANCH   7   8
ATOM      8  C   UNL     1      -6.520   2.242  -3.532  1.00  0.00     0.000 C 
BRANCH   8   9
ATOM      9  C   UNL     1      -5.775   1.257  -4.451  1.00  0.00     0.000 C 
BRANCH   9  10
ATOM     10  C   UNL     1      -5.436  -0.069  -3.754  1.00  0.00     0.000 C 
BRANCH  10  11
ATOM     11  C   UNL     1      -4.107  -0.637  -4.266  1.00  0.00     0.000 C 
BRANCH  11  12
ATOM     12  C   UNL     1      -3.544  -1.681  -3.291  1.00  0.00     0.006 C 
BRANCH  12  13
ATOM     13  C   UNL     1      -3.182  -2.996  -3.994  1.00  0.00     0.053 C 
BRANCH  13  14
ATOM     14  C   UNL     1      -4.377  -3.634  -4.633  1.00  0.00     0.041 C 
ATOM     15  O   UNL     1      -5.275  -4.155  -3.921  1.00  0.00    -0.550 OA
ATOM     16  O   UNL     1      -4.514  -3.623  -6.016  1.00  0.00    -0.550 OA
ENDBRANCH  13  14
ENDBRANCH  12  13
ENDBRANCH  11  12
ENDBRANCH  10  11
ENDBRANCH   9  10
ENDBRANCH   8   9
ENDBRANCH   7   8
ENDBRANCH   6   7
ENDBRANCH   5   6
ENDBRANCH   4   5
ENDBRANCH   3   4
ENDBRANCH   2   3
ENDBRANCH   1   2
BRANCH   1  17
ATOM     17  C   UNL     1       1.562   3.791  -3.376  1.00  0.00     0.000 C 
BRANCH  17  18
ATOM     18  C   UNL     1       1.697   2.269  -3.202  1.00  0.00     0.000 C 
BRANCH  18  19
ATOM     19  C   UNL     1       3.174   1.849  -3.209  1.00  0.00     0.000 C 
BRANCH  19  20
ATOM     20  C   UNL     1       4.086   2.862  -2.494  1.00  0.00     0.000 C 
BRANCH  20  21
ATOM     21  C   UNL     1       5.309   3.323  -3.312  1.00  0.00     0.000 C 
BRANCH  21  22
ATOM     22  C   UNL     1       5.541   4.848  -3.345  1.00  0.00    -0.000 C 
BRANCH  22  23
ATOM     23  C   UNL     1       5.098   5.542  -4.645  1.00  0.00    -0.000 C 
BRANCH  23  24
ATOM     24  C   UNL     1       4.923   4.558  -5.814  1.00  0.00    -0.000 C 
BRANCH  24  25
ATOM     25  C   UNL     1       3.500   4.580  -6.393  1.00  0.00    -0.000 C 
BRANCH  25  26
ATOM     26  C   UNL     1       3.043   3.196  -6.886  1.00  0.00    -0.000 C 
BRANCH  26  27
ATOM     27  C   UNL     1       4.125   2.115  -6.707  1.00  0.00    -0.000 C 
BRANCH  27  28
ATOM     28  C   UNL     1       4.454   1.307  -7.979  1.00  0.00    -0.000 C 
BRANCH  28  29
ATOM     29  C   UNL     1       5.701   1.780  -8.744  1.00  0.00    -0.003 C 
ATOM     30  C   UNL     1       5.381   2.814  -9.824  1.00  0.00     0.004 C 
ENDBRANCH  28  29
ENDBRANCH  27  28
ENDBRANCH  26  27
ENDBRANCH  25  26
ENDBRANCH  24  25
ENDBRANCH  23  24
ENDBRANCH  22  23
ENDBRANCH  21  22
ENDBRANCH  20  21
ENDBRANCH  19  20
ENDBRANCH  18  19
ENDBRANCH  17  18
ENDBRANCH   1  17
TORSDOF 26
ENDMDL
MODEL 5
REMARK VINA RESULT:    -4.565      1.946      3.074
REMARK INTER + INTRA:         -14.719
REMARK INTER:                  -9.620
REMARK INTRA:                  -5.099
REMARK UNBOUND:                -3.216
REMARK SMILES CCCCCCCCCCCCCCCCCCCCCCCCCCCC(=O)[O-]
REMARK SMILES IDX 15 1 16 2 17 3 18 4 19 5 20 6 21 7 22 8 23 9 24 10 25 11
REMARK SMILES IDX 26 12 27 13 28 14 29 15 30 16 14 17 13 18 12 19 11 20 10 21
REMARK SMILES IDX 9 22 8 23 7 24 6 25 5 26 4 27 3 28 2 29 1 30
REMARK H PARENT
REMARK Flexibility Score: inf
ROOT
ATOM      1  C   UNL     1      -1.735   3.337  -3.703  1.00  0.00     0.000 C 
ENDROOT
BRANCH   1   2
ATOM      2  C   UNL     1      -2.078   2.340  -2.581  1.00  0.00     0.000 C 
BRANCH   2   3
ATOM      3  C   UNL     1      -3.512   2.507  -2.053  1.00  0.00     0.000 C 
BRANCH   3   4
ATOM      4  C   UNL     1      -4.420   3.271  -3.032  1.00  0.00     0.000 C 
BRANCH   4   5
ATOM      5  C   UNL     1      -5.916   2.982  -2.811  1.00  0.00     0.000 C 
BRANCH   5   6
ATOM      6  C   UNL     1      -6.812   3.174  -4.052  1.00  0.00     0.000 C 
BRANCH   6   7
ATOM      7  C   UNL     1      -6.070   3.574  -5.342  1.00  0.00     0.000 C 
BRANCH   7   8
ATOM      8  C   UNL     1      -5.995   2.471  -6.417  1.00  0.00     0.000 C 
BRANCH   8   9
ATOM      9  C   UNL     1      -4.578   1.944  -6.707  1.00  0.00     0.000 C 
BRANCH   9  10
ATOM     10  C   UNL     1      -4.123   0.874  -5.703  1.00  0.00     0.000 C 
BRANCH  10  11
ATOM     11  C   UNL     1      -5.294  -0.020  -5.282  1.00  0.00     0.000 C 
BRANCH  11  12
ATOM     12  C   UNL     1      -5.168  -0.434  -3.809  1.00  0.00     0.006 C 
BRANCH  12  13
ATOM     13  C   UNL     1      -3.734  -0.831  -3.437  1.00  0.00     0.053 C 
BRANCH  13  14
ATOM     14  C   UNL     1      -3.559  -2.319  -3.403  1.00  0.00     0.041 C 
ATOM     15  O   UNL     1      -2.503  -2.843  -3.842  1.00  0.00    -0.550 OA
ATOM     16  O   UNL     1      -4.552  -3.123  -2.855  1.00  0.00    -0.550 OA
ENDBRANCH  13  14
ENDBRANCH  12  13
ENDBRANCH  11  12
ENDBRANCH  10  11
ENDBRANCH   9  10
ENDBRANCH   8   9
ENDBRANCH   7   8
ENDBRANCH   6   7
ENDBRANCH   5   6
ENDBRANCH   4   5
ENDBRANCH   3   4
ENDBRANCH   2   3
ENDBRANCH   1   2
BRANCH   1  17
ATOM     17  C   UNL     1      -1.168   2.640  -4.951  1.00  0.00     0.000 C 
BRANCH  17  18
ATOM     18  C   UNL     1      -1.258   3.517  -6.211  1.00  0.00     0.000 C 
BRANCH  18  19
ATOM     19  C   UNL     1       0.143   3.854  -6.741  1.00  0.00     0.000 C 
BRANCH  19  20
ATOM     20  C   UNL     1       0.541   5.320  -6.485  1.00  0.00     0.000 C 
BRANCH  20  21
ATOM     21  C   UNL     1       1.678   5.511  -5.461  1.00  0.00     0.000 C 
BRANCH  21  22
ATOM     22  C   UNL     1       1.275   5.310  -3.985  1.00  0.00    -0.000 C 
BRANCH  22  23
ATOM     23  C   UNL     1       2.252   4.458  -3.158  1.00  0.00    -0.000 C 
BRANCH  23  24
ATOM     24  C   UNL     1       1.958   2.951  -3.259  1.00  0.00    -0.000 C 
BRANCH  24  25
ATOM     25  C   UNL     1       2.992   2.207  -4.120  1.00  0.00    -0.000 C 
BRANCH  25  26
ATOM     26  C   UNL     1       4.303   2.996  -4.277  1.00  0.00    -0.000 C 
BRANCH  26  27
ATOM     27  C   UNL     1       4.632   3.316  -5.746  1.00  0.00    -0.000 C 
BRANCH  27  28
ATOM     28  C   UNL     1       3.758   2.583  -6.783  1.00  0.00    -0.000 C 
BRANCH  28  29
ATOM     29  C   UNL     1       4.116   2.869  -8.252  1.00  0.00    -0.003 C 
ATOM     30  C   UNL     1       3.092   3.764  -8.951  1.00  0.00     0.004 C 
ENDBRANCH  28  29
ENDBRANCH  27  28
ENDBRANCH  26  27
ENDBRANCH  25  26
ENDBRANCH  24  25
ENDBRANCH  23  24
ENDBRANCH  22  23
ENDBRANCH  21  22
ENDBRANCH  20  21
ENDBRANCH  19  20
ENDBRANCH  18  19
ENDBRANCH  17  18
ENDBRANCH   1  17
TORSDOF 26
ENDMDL
MODEL 6
REMARK VINA RESULT:    -4.490      3.722      8.527
REMARK INTER + INTRA:         -14.532
REMARK INTER:                 -10.254
REMARK INTRA:                  -4.278
REMARK UNBOUND:                -3.216
REMARK SMILES CCCCCCCCCCCCCCCCCCCCCCCCCCCC(=O)[O-]
REMARK SMILES IDX 15 1 16 2 17 3 18 4 19 5 20 6 21 7 22 8 23 9 24 10 25 11
REMARK SMILES IDX 26 12 27 13 28 14 29 15 30 16 14 17 13 18 12 19 11 20 10 21
REMARK SMILES IDX 9 22 8 23 7 24 6 25 5 26 4 27 3 28 2 29 1 30
REMARK H PARENT
REMARK Flexibility Score: inf
ROOT
ATOM      1  C   UNL     1      -0.810   3.509  -6.301  1.00  0.00     0.000 C 
ENDROOT
BRANCH   1   2
ATOM      2  C   UNL     1      -0.912   2.953  -4.870  1.00  0.00     0.000 C 
BRANCH   2   3
ATOM      3  C   UNL     1       0.402   3.088  -4.083  1.00  0.00     0.000 C 
BRANCH   3   4
ATOM      4  C   UNL     1       0.552   4.464  -3.411  1.00  0.00     0.000 C 
BRANCH   4   5
ATOM      5  C   UNL     1       1.854   5.185  -3.807  1.00  0.00     0.000 C 
BRANCH   5   6
ATOM      6  C   UNL     1       1.794   5.967  -5.135  1.00  0.00     0.000 C 
BRANCH   6   7
ATOM      7  C   UNL     1       2.462   5.271  -6.337  1.00  0.00     0.000 C 
BRANCH   7   8
ATOM      8  C   UNL     1       4.004   5.244  -6.299  1.00  0.00     0.000 C 
BRANCH   8   9
ATOM      9  C   UNL     1       4.624   3.837  -6.215  1.00  0.00     0.000 C 
BRANCH   9  10
ATOM     10  C   UNL     1       3.578   2.735  -5.996  1.00  0.00     0.000 C 
BRANCH  10  11
ATOM     11  C   UNL     1       3.888   1.923  -4.735  1.00  0.00     0.000 C 
BRANCH  11  12
ATOM     12  C   UNL     1       4.736   2.740  -3.749  1.00  0.00     0.006 C 
BRANCH  12  13
ATOM     13  C   UNL     1       4.169   2.703  -2.325  1.00  0.00     0.053 C 
BRANCH  13  14
ATOM     14  C   UNL     1       5.119   3.297  -1.330  1.00  0.00     0.041 C 
ATOM     15  O   UNL     1       5.305   2.738  -0.218  1.00  0.00    -0.550 OA
ATOM     16  O   UNL     1       5.822   4.454  -1.646  1.00  0.00    -0.550 OA
ENDBRANCH  13  14
ENDBRANCH  12  13
ENDBRANCH  11  12
ENDBRANCH  10  11
ENDBRANCH   9  10
ENDBRANCH   8   9
ENDBRANCH   7   8
ENDBRANCH   6   7
ENDBRANCH   5   6
ENDBRANCH   4   5
ENDBRANCH   3   4
ENDBRANCH   2   3
ENDBRANCH   1   2
BRANCH   1  17
ATOM     17  C   UNL     1      -1.988   3.064  -7.186  1.00  0.00     0.000 C 
BRANCH  17  18
ATOM     18  C   UNL     1      -3.031   2.242  -6.413  1.00  0.00     0.000 C 
BRANCH  18  19
ATOM     19  C   UNL     1      -4.415   2.902  -6.494  1.00  0.00     0.000 C 
BRANCH  19  20
ATOM     20  C   UNL     1      -4.413   4.354  -5.980  1.00  0.00     0.000 C 
BRANCH  20  21
ATOM     21  C   UNL     1      -4.240   4.500  -4.455  1.00  0.00     0.000 C 
BRANCH  21  22
ATOM     22  C   UNL     1      -5.442   4.032  -3.609  1.00  0.00    -0.000 C 
BRANCH  22  23
ATOM     23  C   UNL     1      -5.130   2.904  -2.609  1.00  0.00    -0.000 C 
BRANCH  23  24
ATOM     24  C   UNL     1      -3.641   2.519  -2.594  1.00  0.00    -0.000 C 
BRANCH  24  25
ATOM     25  C   UNL     1      -3.404   1.072  -3.053  1.00  0.00    -0.000 C 
BRANCH  25  26
ATOM     26  C   UNL     1      -4.689   0.398  -3.564  1.00  0.00    -0.000 C 
BRANCH  26  27
ATOM     27  C   UNL     1      -4.432  -0.994  -4.169  1.00  0.00    -0.000 C 
BRANCH  27  28
ATOM     28  C   UNL     1      -3.372  -1.837  -3.431  1.00  0.00    -0.000 C 
BRANCH  28  29
ATOM     29  C   UNL     1      -3.086  -3.213  -4.058  1.00  0.00    -0.003 C 
ATOM     30  C   UNL     1      -3.690  -3.368  -5.454  1.00  0.00     0.004 C 
ENDBRANCH  28  29
ENDBRANCH  27  28
ENDBRANCH  26  27
ENDBRANCH  25  26
ENDBRANCH  24  25
ENDBRANCH  23  24
ENDBRANCH  22  23
ENDBRANCH  21  22
ENDBRANCH  20  21
ENDBRANCH  19  20
ENDBRANCH  18  19
ENDBRANCH  17  18
ENDBRANCH   1  17
TORSDOF 26
ENDMDL
MODEL 7
REMARK VINA RESULT:    -4.462      3.308      8.519
REMARK INTER + INTRA:         -14.461
REMARK INTER:                 -10.504
REMARK INTRA:                  -3.957
REMARK UNBOUND:                -3.216
REMARK SMILES CCCCCCCCCCCCCCCCCCCCCCCCCCCC(=O)[O-]
REMARK SMILES IDX 15 1 16 2 17 3 18 4 19 5 20 6 21 7 22 8 23 9 24 10 25 11
REMARK SMILES IDX 26 12 27 13 28 14 29 15 30 16 14 17 13 18 12 19 11 20 10 21
REMARK SMILES IDX 9 22 8 23 7 24 6 25 5 26 4 27 3 28 2 29 1 30
REMARK H PARENT
REMARK Flexibility Score: inf
ROOT
ATOM      1  C   UNL     1      -0.574   3.055  -4.398  1.00  0.00     0.000 C 
ENDROOT
BRANCH   1   2
ATOM      2  C   UNL     1       0.259   3.224  -3.114  1.00  0.00     0.000 C 
BRANCH   2   3
ATOM      3  C   UNL     1       1.360   4.287  -3.254  1.00  0.00     0.000 C 
BRANCH   3   4
ATOM      4  C   UNL     1       0.806   5.721  -3.239  1.00  0.00     0.000 C 
BRANCH   4   5
ATOM      5  C   UNL     1       1.150   6.510  -4.517  1.00  0.00     0.000 C 
BRANCH   5   6
ATOM      6  C   UNL     1       2.654   6.601  -4.847  1.00  0.00     0.000 C 
BRANCH   6   7
ATOM      7  C   UNL     1       3.056   6.059  -6.233  1.00  0.00     0.000 C 
BRANCH   7   8
ATOM      8  C   UNL     1       1.991   5.183  -6.923  1.00  0.00     0.000 C 
BRANCH   8   9
ATOM      9  C   UNL     1       2.222   3.666  -6.803  1.00  0.00     0.000 C 
BRANCH   9  10
ATOM     10  C   UNL     1       3.653   3.250  -7.175  1.00  0.00     0.000 C 
BRANCH  10  11
ATOM     11  C   UNL     1       4.098   2.025  -6.368  1.00  0.00     0.000 C 
BRANCH  11  12
ATOM     12  C   UNL     1       3.789   2.208  -4.875  1.00  0.00     0.006 C 
BRANCH  12  13
ATOM     13  C   UNL     1       4.745   3.201  -4.202  1.00  0.00     0.053 C 
BRANCH  13  14
ATOM     14  C   UNL     1       4.929   2.899  -2.747  1.00  0.00     0.041 C 
ATOM     15  O   UNL     1       5.438   1.805  -2.386  1.00  0.00    -0.550 OA
ATOM     16  O   UNL     1       4.568   3.840  -1.790  1.00  0.00    -0.550 OA
ENDBRANCH  13  14
ENDBRANCH  12  13
ENDBRANCH  11  12
ENDBRANCH  10  11
ENDBRANCH   9  10
ENDBRANCH   8   9
ENDBRANCH   7   8
ENDBRANCH   6   7
ENDBRANCH   5   6
ENDBRANCH   4   5
ENDBRANCH   3   4
ENDBRANCH   2   3
ENDBRANCH   1   2
BRANCH   1  17
ATOM     17  C   UNL     1      -1.920   2.359  -4.135  1.00  0.00     0.000 C 
BRANCH  17  18
ATOM     18  C   UNL     1      -2.133   2.025  -2.650  1.00  0.00     0.000 C 
BRANCH  18  19
ATOM     19  C   UNL     1      -3.496   2.539  -2.165  1.00  0.00     0.000 C 
BRANCH  19  20
ATOM     20  C   UNL     1      -4.238   3.362  -3.235  1.00  0.00     0.000 C 
BRANCH  20  21
ATOM     21  C   UNL     1      -5.754   3.094  -3.321  1.00  0.00     0.000 C 
BRANCH  21  22
ATOM     22  C   UNL     1      -6.155   1.838  -4.123  1.00  0.00    -0.000 C 
BRANCH  22  23
ATOM     23  C   UNL     1      -5.313   1.579  -5.385  1.00  0.00    -0.000 C 
BRANCH  23  24
ATOM     24  C   UNL     1      -4.726   0.158  -5.425  1.00  0.00    -0.000 C 
BRANCH  24  25
ATOM     25  C   UNL     1      -5.022  -0.637  -4.143  1.00  0.00    -0.000 C 
BRANCH  25  26
ATOM     26  C   UNL     1      -3.740  -1.096  -3.427  1.00  0.00    -0.000 C 
BRANCH  26  27
ATOM     27  C   UNL     1      -3.663  -2.625  -3.267  1.00  0.00    -0.000 C 
BRANCH  27  28
ATOM     28  C   UNL     1      -2.724  -3.337  -4.261  1.00  0.00    -0.000 C 
BRANCH  28  29
ATOM     29  C   UNL     1      -3.352  -3.666  -5.626  1.00  0.00    -0.003 C 
ATOM     30  C   UNL     1      -2.456  -4.548  -6.497  1.00  0.00     0.004 C 
ENDBRANCH  28  29
ENDBRANCH  27  28
ENDBRANCH  26  27
ENDBRANCH  25  26
ENDBRANCH  24  25
ENDBRANCH  23  24
ENDBRANCH  22  23
ENDBRANCH  21  22
ENDBRANCH  20  21
ENDBRANCH  19  20
ENDBRANCH  18  19
ENDBRANCH  17  18
ENDBRANCH   1  17
TORSDOF 26
ENDMDL
MODEL 8
REMARK VINA RESULT:    -4.430      4.138      5.961
REMARK INTER + INTRA:         -14.380
REMARK INTER:                 -10.678
REMARK INTRA:                  -3.702
REMARK UNBOUND:                -3.216
REMARK SMILES CCCCCCCCCCCCCCCCCCCCCCCCCCCC(=O)[O-]
REMARK SMILES IDX 15 1 16 2 17 3 18 4 19 5 20 6 21 7 22 8 23 9 24 10 25 11
REMARK SMILES IDX 26 12 27 13 28 14 29 15 30 16 14 17 13 18 12 19 11 20 10 21
REMARK SMILES IDX 9 22 8 23 7 24 6 25 5 26 4 27 3 28 2 29 1 30
REMARK H PARENT
REMARK Flexibility Score: inf
ROOT
ATOM      1  C   UNL     1      -2.567   2.575  -6.660  1.00  0.00     0.000 C 
ENDROOT
BRANCH   1   2
ATOM      2  C   UNL     1      -3.850   2.318  -7.471  1.00  0.00     0.000 C 
BRANCH   2   3
ATOM      3  C   UNL     1      -4.469   0.940  -7.187  1.00  0.00     0.000 C 
BRANCH   3   4
ATOM      4  C   UNL     1      -5.041   0.829  -5.763  1.00  0.00     0.000 C 
BRANCH   4   5
ATOM      5  C   UNL     1      -4.378  -0.288  -4.936  1.00  0.00     0.000 C 
BRANCH   5   6
ATOM      6  C   UNL     1      -4.074   0.073  -3.468  1.00  0.00     0.000 C 
BRANCH   6   7
ATOM      7  C   UNL     1      -3.081   1.235  -3.270  1.00  0.00     0.000 C 
BRANCH   7   8
ATOM      8  C   UNL     1      -3.693   2.520  -2.677  1.00  0.00     0.000 C 
BRANCH   8   9
ATOM      9  C   UNL     1      -4.029   3.613  -3.708  1.00  0.00     0.000 C 
BRANCH   9  10
ATOM     10  C   UNL     1      -5.519   3.985  -3.719  1.00  0.00     0.000 C 
BRANCH  10  11
ATOM     11  C   UNL     1      -6.354   2.939  -2.971  1.00  0.00     0.000 C 
BRANCH  11  12
ATOM     12  C   UNL     1      -7.706   3.522  -2.538  1.00  0.00     0.006 C 
BRANCH  12  13
ATOM     13  C   UNL     1      -7.679   5.054  -2.455  1.00  0.00     0.053 C 
BRANCH  13  14
ATOM     14  C   UNL     1      -7.853   5.540  -1.049  1.00  0.00     0.041 C 
ATOM     15  O   UNL     1      -8.124   6.749  -0.825  1.00  0.00    -0.550 OA
ATOM     16  O   UNL     1      -7.746   4.649   0.012  1.00  0.00    -0.550 OA
ENDBRANCH  13  14
ENDBRANCH  12  13
ENDBRANCH  11  12
ENDBRANCH  10  11
ENDBRANCH   9  10
ENDBRANCH   8   9
ENDBRANCH   7   8
ENDBRANCH   6   7
ENDBRANCH   5   6
ENDBRANCH   4   5
ENDBRANCH   3   4
ENDBRANCH   2   3
ENDBRANCH   1   2
BRANCH   1  17
ATOM     17  C   UNL     1      -1.852   3.867  -7.090  1.00  0.00     0.000 C 
BRANCH  17  18
ATOM     18  C   UNL     1      -0.562   4.123  -6.295  1.00  0.00     0.000 C 
BRANCH  18  19
ATOM     19  C   UNL     1      -0.444   3.145  -5.118  1.00  0.00     0.000 C 
BRANCH  19  20
ATOM     20  C   UNL     1      -0.386   3.857  -3.754  1.00  0.00     0.000 C 
BRANCH  20  21
ATOM     21  C   UNL     1       0.712   3.342  -2.802  1.00  0.00     0.000 C 
BRANCH  21  22
ATOM     22  C   UNL     1       2.146   3.377  -3.371  1.00  0.00    -0.000 C 
BRANCH  22  23
ATOM     23  C   UNL     1       2.857   2.013  -3.420  1.00  0.00    -0.000 C 
BRANCH  23  24
ATOM     24  C   UNL     1       3.647   1.801  -4.722  1.00  0.00    -0.000 C 
BRANCH  24  25
ATOM     25  C   UNL     1       3.940   3.121  -5.453  1.00  0.00    -0.000 C 
BRANCH  25  26
ATOM     26  C   UNL     1       2.986   3.363  -6.636  1.00  0.00    -0.000 C 
BRANCH  26  27
ATOM     27  C   UNL     1       3.623   3.017  -7.994  1.00  0.00    -0.000 C 
BRANCH  27  28
ATOM     28  C   UNL     1       5.131   2.698  -7.943  1.00  0.00    -0.000 C 
BRANCH  28  29
ATOM     29  C   UNL     1       5.541   1.387  -8.636  1.00  0.00    -0.003 C 
ATOM     30  C   UNL     1       4.417   0.351  -8.662  1.00  0.00     0.004 C 
ENDBRANCH  28  29
ENDBRANCH  27  28
ENDBRANCH  26  27
ENDBRANCH  25  26
ENDBRANCH  24  25
ENDBRANCH  23  24
ENDBRANCH  22  23
ENDBRANCH  21  22
ENDBRANCH  20  21
ENDBRANCH  19  20
ENDBRANCH  18  19
ENDBRANCH  17  18
ENDBRANCH   1  17
TORSDOF 26
ENDMDL
MODEL 9
REMARK VINA RESULT:    -4.428      4.086      9.257
REMARK INTER + INTRA:         -14.375
REMARK INTER:                  -9.649
REMARK INTRA:                  -4.726
REMARK UNBOUND:                -3.216
REMARK SMILES CCCCCCCCCCCCCCCCCCCCCCCCCCCC(=O)[O-]
REMARK SMILES IDX 15 1 16 2 17 3 18 4 19 5 20 6 21 7 22 8 23 9 24 10 25 11
REMARK SMILES IDX 26 12 27 13 28 14 29 15 30 16 14 17 13 18 12 19 11 20 10 21
REMARK SMILES IDX 9 22 8 23 7 24 6 25 5 26 4 27 3 28 2 29 1 30
REMARK H PARENT
REMARK Flexibility Score: inf
ROOT
ATOM      1  C   UNL     1       1.244   5.175  -3.952  1.00  0.00     0.000 C 
ENDROOT
BRANCH   1   2
ATOM      2  C   UNL     1       1.248   3.973  -2.990  1.00  0.00     0.000 C 
BRANCH   2   3
ATOM      3  C   UNL     1       1.553   2.643  -3.698  1.00  0.00     0.000 C 
BRANCH   3   4
ATOM      4  C   UNL     1       2.724   1.882  -3.053  1.00  0.00     0.000 C 
BRANCH   4   5
ATOM      5  C   UNL     1       3.974   1.833  -3.951  1.00  0.00     0.000 C 
BRANCH   5   6
ATOM      6  C   UNL     1       3.730   2.179  -5.434  1.00  0.00     0.000 C 
BRANCH   6   7
ATOM      7  C   UNL     1       4.523   3.389  -5.965  1.00  0.00     0.000 C 
BRANCH   7   8
ATOM      8  C   UNL     1       4.813   4.486  -4.921  1.00  0.00     0.000 C 
BRANCH   8   9
ATOM      9  C   UNL     1       6.299   4.661  -4.560  1.00  0.00     0.000 C 
BRANCH   9  10
ATOM     10  C   UNL     1       6.526   4.877  -3.056  1.00  0.00     0.000 C 
BRANCH  10  11
ATOM     11  C   UNL     1       5.194   5.035  -2.315  1.00  0.00     0.000 C 
BRANCH  11  12
ATOM     12  C   UNL     1       5.081   4.022  -1.166  1.00  0.00     0.006 C 
BRANCH  12  13
ATOM     13  C   UNL     1       6.249   3.027  -1.152  1.00  0.00     0.053 C 
BRANCH  13  14
ATOM     14  C   UNL     1       6.835   2.876   0.218  1.00  0.00     0.041 C 
ATOM     15  O   UNL     1       6.997   3.885   0.954  1.00  0.00    -0.550 OA
ATOM     16  O   UNL     1       7.174   1.615   0.694  1.00  0.00    -0.550 OA
ENDBRANCH  13  14
ENDBRANCH  12  13
ENDBRANCH  11  12
ENDBRANCH  10  11
ENDBRANCH   9  10
ENDBRANCH   8   9
ENDBRANCH   7   8
ENDBRANCH   6   7
ENDBRANCH   5   6
ENDBRANCH   4   5
ENDBRANCH   3   4
ENDBRANCH   2   3
ENDBRANCH   1   2
BRANCH   1  17
ATOM     17  C   UNL     1       1.060   4.749  -5.418  1.00  0.00     0.000 C 
BRANCH  17  18
ATOM     18  C   UNL     1      -0.410   4.791  -5.867  1.00  0.00     0.000 C 
BRANCH  18  19
ATOM     19  C   UNL     1      -0.862   3.417  -6.382  1.00  0.00     0.000 C 
BRANCH  19  20
ATOM     20  C   UNL     1      -1.845   2.715  -5.427  1.00  0.00     0.000 C 
BRANCH  20  21
ATOM     21  C   UNL     1      -2.196   3.516  -4.157  1.00  0.00     0.000 C 
BRANCH  21  22
ATOM     22  C   UNL     1      -2.831   2.694  -3.016  1.00  0.00    -0.000 C 
BRANCH  22  23
ATOM     23  C   UNL     1      -4.369   2.636  -3.039  1.00  0.00    -0.000 C 
BRANCH  23  24
ATOM     24  C   UNL     1      -4.907   1.196  -3.114  1.00  0.00    -0.000 C 
BRANCH  24  25
ATOM     25  C   UNL     1      -3.804   0.172  -3.425  1.00  0.00    -0.000 C 
BRANCH  25  26
ATOM     26  C   UNL     1      -4.303  -0.978  -4.317  1.00  0.00    -0.000 C 
BRANCH  26  27
ATOM     27  C   UNL     1      -5.385  -0.529  -5.315  1.00  0.00    -0.000 C 
BRANCH  27  28
ATOM     28  C   UNL     1      -4.873  -0.223  -6.737  1.00  0.00    -0.000 C 
BRANCH  28  29
ATOM     29  C   UNL     1      -4.504   1.249  -6.991  1.00  0.00    -0.003 C 
ATOM     30  C   UNL     1      -5.629   2.217  -6.623  1.00  0.00     0.004 C 
ENDBRANCH  28  29
ENDBRANCH  27  28
ENDBRANCH  26  27
ENDBRANCH  25  26
ENDBRANCH  24  25
ENDBRANCH  23  24
ENDBRANCH  22  23
ENDBRANCH  21  22
ENDBRANCH  20  21
ENDBRANCH  19  20
ENDBRANCH  18  19
ENDBRANCH  17  18
ENDBRANCH   1  17
TORSDOF 26
ENDMDL
