MODEL 1
REMARK VINA RESULT:    -5.934      0.000      0.000
REMARK INTER + INTRA:         -11.044
REMARK INTER:                 -10.271
REMARK INTRA:                  -0.773
REMARK UNBOUND:                -0.773
REMARK SMILES COc1cc(-c2[o+]c3cc(O)cc(O[C@H]4O[C@@H](CO)[C@@H](O)[C@H](O)[C@H]4O)c3cc2O[C@H]2O[C@@H](CO)[C@H](O)[C@H](O)[C@H]2O)ccc1O
REMARK SMILES IDX 6 1 28 2 27 3 26 4 13 5 12 6 10 7 9 8 8 9 7 10 5 11 3 12
REMARK SMILES IDX 43 13 4 14 42 15 41 16 2 17 1 18 44 19 29 21 30 22 39 23
REMARK SMILES IDX 31 24 37 25 32 26 35 27 40 28 38 30 33 32 34 33 36 35 14 37
REMARK SMILES IDX 15 38 24 39 16 40 22 41 17 42 20 43 25 44 23 46 18 48 19 49
REMARK SMILES IDX 21 51 11 53
REMARK H PARENT 44 20 40 29 38 31 34 34 36 36 25 45 23 47 19 50 21 52 11 54
REMARK Flexibility Score: inf
ROOT
ATOM      1  C   UNL     1      -4.254  -5.535  22.313  1.00  0.00     0.402 A 
ATOM      2  C   UNL     1      -4.478  -5.904  23.838  1.00  0.00     0.229 A 
ATOM      3  C   UNL     1      -5.401  -6.934  23.826  1.00  0.00     0.079 A 
ATOM      4  C   UNL     1      -5.193  -7.907  22.768  1.00  0.00     0.126 A 
ATOM      5  C   UNL     1      -6.096  -8.949  22.492  1.00  0.00     0.143 A 
ATOM      6  C   UNL     1      -6.019  -9.584  21.240  1.00  0.00     0.094 A 
ATOM      7  C   UNL     1      -4.991  -9.389  20.334  1.00  0.00     0.128 A 
ATOM      8  C   UNL     1      -3.933  -8.580  20.727  1.00  0.00     0.162 A 
ATOM      9  C   UNL     1      -4.140  -7.701  21.818  1.00  0.00     0.368 A 
ATOM     10  O   UNL     1      -3.534  -6.489  21.719  1.00  0.00    -0.202 OA
ENDROOT
BRANCH   1  11
ATOM     11  C   UNL     1      -5.407  -5.182  21.230  1.00  0.00     0.087 A 
ATOM     12  C   UNL     1      -7.468  -3.747  20.406  1.00  0.00     0.161 A 
ATOM     13  C   UNL     1      -7.385  -4.392  19.156  1.00  0.00     0.157 A 
ATOM     14  C   UNL     1      -6.144  -3.811  21.130  1.00  0.00     0.068 A 
ATOM     15  C   UNL     1      -6.314  -5.408  19.038  1.00  0.00     0.051 A 
ATOM     16  C   UNL     1      -5.948  -6.043  20.270  1.00  0.00     0.022 A 
BRANCH  12  17
ATOM     17  O   UNL     1      -8.681  -3.588  21.158  1.00  0.00    -0.493 OA
ATOM     18  C   UNL     1      -9.103  -2.289  21.623  1.00  0.00     0.278 C 
ENDBRANCH  12  17
BRANCH  13  19
ATOM     19  O   UNL     1      -8.409  -4.374  18.181  1.00  0.00    -0.504 OA
ATOM     20  H   UNL     1      -9.397  -4.364  18.387  1.00  0.00     0.293 HD
ENDBRANCH  13  19
ENDBRANCH   1  11
BRANCH   2  21
ATOM     21  O   UNL     1      -3.303  -5.959  24.782  1.00  0.00    -0.452 OA
BRANCH  21  22
ATOM     22  C   UNL     1      -2.882  -7.006  25.755  1.00  0.00     0.339 C 
ATOM     23  C   UNL     1      -2.280  -8.489  25.249  1.00  0.00     0.214 C 
ATOM     24  O   UNL     1      -3.615  -7.153  26.965  1.00  0.00    -0.332 OA
ATOM     25  C   UNL     1      -1.328  -9.216  26.442  1.00  0.00     0.180 C 
ATOM     26  C   UNL     1      -2.785  -7.706  28.055  1.00  0.00     0.179 C 
ATOM     27  C   UNL     1      -1.175  -8.161  27.792  1.00  0.00     0.177 C 
BRANCH  23  28
ATOM     28  O   UNL     1      -3.362  -9.372  25.087  1.00  0.00    -0.384 OA
ATOM     29  H   UNL     1      -3.873  -9.231  24.215  1.00  0.00     0.211 HD
ENDBRANCH  23  28
BRANCH  25  30
ATOM     30  O   UNL     1       0.011  -9.695  25.954  1.00  0.00    -0.387 OA
ATOM     31  H   UNL     1       0.030 -10.266  25.042  1.00  0.00     0.211 HD
ENDBRANCH  25  30
BRANCH  26  32
ATOM     32  C   UNL     1      -3.508  -8.795  28.814  1.00  0.00     0.191 C 
BRANCH  32  33
ATOM     33  O   UNL     1      -4.911  -8.741  28.559  1.00  0.00    -0.394 OA
ATOM     34  H   UNL     1      -5.001  -8.822  27.587  1.00  0.00     0.210 HD
ENDBRANCH  32  33
ENDBRANCH  26  32
BRANCH  27  35
ATOM     35  O   UNL     1      -0.197  -7.134  27.295  1.00  0.00    -0.387 OA
ATOM     36  H   UNL     1       0.769  -7.534  27.144  1.00  0.00     0.211 HD
ENDBRANCH  27  35
ENDBRANCH  21  22
ENDBRANCH   2  21
BRANCH   5  37
ATOM     37  O   UNL     1      -7.107  -9.293  23.382  1.00  0.00    -0.461 OA
BRANCH  37  38
ATOM     38  C   UNL     1      -8.491  -8.942  23.345  1.00  0.00     0.339 C 
ATOM     39  C   UNL     1      -8.797  -7.528  22.792  1.00  0.00     0.214 C 
ATOM     40  O   UNL     1      -9.122  -9.181  24.619  1.00  0.00    -0.332 OA
ATOM     41  C   UNL     1      -8.365  -6.457  23.800  1.00  0.00     0.180 C 
ATOM     42  C   UNL     1      -8.897  -8.183  25.595  1.00  0.00     0.179 C 
ATOM     43  C   UNL     1      -9.103  -6.721  25.119  1.00  0.00     0.177 C 
BRANCH  39  44
ATOM     44  O   UNL     1      -8.095  -7.333  21.556  1.00  0.00    -0.384 OA
ATOM     45  H   UNL     1      -7.901  -6.353  21.519  1.00  0.00     0.211 HD
ENDBRANCH  39  44
BRANCH  41  46
ATOM     46  O   UNL     1      -8.662  -5.161  23.354  1.00  0.00    -0.387 OA
ATOM     47  H   UNL     1      -8.308  -5.101  22.429  1.00  0.00     0.211 HD
ENDBRANCH  41  46
BRANCH  42  48
ATOM     48  C   UNL     1      -7.616  -8.426  26.389  1.00  0.00     0.191 C 
BRANCH  48  49
ATOM     49  O   UNL     1      -7.855  -8.289  27.763  1.00  0.00    -0.394 OA
ATOM     50  H   UNL     1      -8.026  -7.327  27.953  1.00  0.00     0.210 HD
ENDBRANCH  48  49
ENDBRANCH  42  48
BRANCH  43  51
ATOM     51  O   UNL     1      -8.702  -5.800  26.110  1.00  0.00    -0.387 OA
ATOM     52  H   UNL     1      -9.211  -6.005  26.931  1.00  0.00     0.211 HD
ENDBRANCH  43  51
ENDBRANCH  37  38
ENDBRANCH   5  37
BRANCH   7  53
ATOM     53  O   UNL     1      -4.974  -9.864  19.023  1.00  0.00    -0.507 OA
ATOM     54  H   UNL     1      -5.501 -10.704  18.865  1.00  0.00     0.293 HD
ENDBRANCH   7  53
TORSDOF 18
ENDMDL
MODEL 2
REMARK VINA RESULT:    -5.813      1.027      2.222
REMARK INTER + INTRA:         -10.834
REMARK INTER:                  -9.528
REMARK INTRA:                  -1.306
REMARK UNBOUND:                -0.773
REMARK SMILES COc1cc(-c2[o+]c3cc(O)cc(O[C@H]4O[C@@H](CO)[C@@H](O)[C@H](O)[C@H]4O)c3cc2O[C@H]2O[C@@H](CO)[C@H](O)[C@H](O)[C@H]2O)ccc1O
REMARK SMILES IDX 6 1 28 2 27 3 26 4 13 5 12 6 10 7 9 8 8 9 7 10 5 11 3 12
REMARK SMILES IDX 43 13 4 14 42 15 41 16 2 17 1 18 44 19 29 21 30 22 39 23
REMARK SMILES IDX 31 24 37 25 32 26 35 27 40 28 38 30 33 32 34 33 36 35 14 37
REMARK SMILES IDX 15 38 24 39 16 40 22 41 17 42 20 43 25 44 23 46 18 48 19 49
REMARK SMILES IDX 21 51 11 53
REMARK H PARENT 44 20 40 29 38 31 34 34 36 36 25 45 23 47 19 50 21 52 11 54
REMARK Flexibility Score: inf
ROOT
ATOM      1  C   UNL     1      -4.328  -5.696  22.520  1.00  0.00     0.402 A 
ATOM      2  C   UNL     1      -4.365  -6.147  24.039  1.00  0.00     0.229 A 
ATOM      3  C   UNL     1      -5.333  -7.133  24.098  1.00  0.00     0.079 A 
ATOM      4  C   UNL     1      -5.321  -8.047  22.970  1.00  0.00     0.126 A 
ATOM      5  C   UNL     1      -6.306  -9.029  22.764  1.00  0.00     0.143 A 
ATOM      6  C   UNL     1      -6.432  -9.589  21.481  1.00  0.00     0.094 A 
ATOM      7  C   UNL     1      -5.525  -9.386  20.454  1.00  0.00     0.128 A 
ATOM      8  C   UNL     1      -4.384  -8.650  20.742  1.00  0.00     0.162 A 
ATOM      9  C   UNL     1      -4.395  -7.831  21.898  1.00  0.00     0.368 A 
ATOM     10  O   UNL     1      -3.745  -6.643  21.782  1.00  0.00    -0.202 OA
ENDROOT
BRANCH   1  11
ATOM     11  C   UNL     1      -5.597  -5.227  21.626  1.00  0.00     0.087 A 
ATOM     12  C   UNL     1      -6.773  -4.793  19.299  1.00  0.00     0.161 A 
ATOM     13  C   UNL     1      -7.986  -4.576  19.982  1.00  0.00     0.157 A 
ATOM     14  C   UNL     1      -5.830  -5.625  20.136  1.00  0.00     0.068 A 
ATOM     15  C   UNL     1      -7.912  -4.689  21.457  1.00  0.00     0.051 A 
ATOM     16  C   UNL     1      -6.631  -4.375  22.021  1.00  0.00     0.022 A 
BRANCH  12  17
ATOM     17  O   UNL     1      -6.243  -3.921  18.289  1.00  0.00    -0.493 OA
ATOM     18  C   UNL     1      -6.788  -2.600  18.087  1.00  0.00     0.278 C 
ENDBRANCH  12  17
BRANCH  13  19
ATOM     19  O   UNL     1      -9.124  -3.964  19.408  1.00  0.00    -0.504 OA
ATOM     20  H   UNL     1      -9.201  -2.980  19.198  1.00  0.00     0.293 HD
ENDBRANCH  13  19
ENDBRANCH   1  11
BRANCH   2  21
ATOM     21  O   UNL     1      -3.078  -6.312  24.809  1.00  0.00    -0.452 OA
BRANCH  21  22
ATOM     22  C   UNL     1      -2.724  -7.224  25.933  1.00  0.00     0.339 C 
ATOM     23  C   UNL     1      -3.271  -6.952  27.496  1.00  0.00     0.214 C 
ATOM     24  O   UNL     1      -1.430  -7.817  25.954  1.00  0.00    -0.332 OA
ATOM     25  C   UNL     1      -3.278  -8.373  28.411  1.00  0.00     0.180 C 
ATOM     26  C   UNL     1      -1.421  -9.107  26.674  1.00  0.00     0.179 C 
ATOM     27  C   UNL     1      -2.816  -9.705  27.427  1.00  0.00     0.177 C 
BRANCH  23  28
ATOM     28  O   UNL     1      -2.342  -6.125  28.151  1.00  0.00    -0.384 OA
ATOM     29  H   UNL     1      -2.776  -5.421  28.748  1.00  0.00     0.211 HD
ENDBRANCH  23  28
BRANCH  25  30
ATOM     30  O   UNL     1      -4.572  -8.635  29.133  1.00  0.00    -0.387 OA
ATOM     31  H   UNL     1      -5.426  -8.903  28.535  1.00  0.00     0.211 HD
ENDBRANCH  25  30
BRANCH  26  32
ATOM     32  C   UNL     1      -0.243  -9.217  27.615  1.00  0.00     0.191 C 
BRANCH  32  33
ATOM     33  O   UNL     1       0.173  -7.924  28.053  1.00  0.00    -0.394 OA
ATOM     34  H   UNL     1       1.117  -8.025  28.298  1.00  0.00     0.210 HD
ENDBRANCH  32  33
ENDBRANCH  26  32
BRANCH  27  35
ATOM     35  O   UNL     1      -4.048  -9.945  26.600  1.00  0.00    -0.387 OA
ATOM     36  H   UNL     1      -3.848  -9.930  25.563  1.00  0.00     0.211 HD
ENDBRANCH  27  35
ENDBRANCH  21  22
ENDBRANCH   2  21
BRANCH   5  37
ATOM     37  O   UNL     1      -7.204  -9.382  23.764  1.00  0.00    -0.461 OA
BRANCH  37  38
ATOM     38  C   UNL     1      -8.595  -9.070  23.871  1.00  0.00     0.339 C 
ATOM     39  C   UNL     1      -8.968  -7.606  23.527  1.00  0.00     0.214 C 
ATOM     40  O   UNL     1      -9.124  -9.486  25.146  1.00  0.00    -0.332 OA
ATOM     41  C   UNL     1      -8.484  -6.660  24.632  1.00  0.00     0.180 C 
ATOM     42  C   UNL     1      -8.848  -8.613  26.223  1.00  0.00     0.179 C 
ATOM     43  C   UNL     1      -9.118  -7.110  25.955  1.00  0.00     0.177 C 
BRANCH  39  44
ATOM     44  O   UNL     1      -8.364  -7.236  22.280  1.00  0.00    -0.384 OA
ATOM     45  H   UNL     1      -8.354  -6.237  22.282  1.00  0.00     0.211 HD
ENDBRANCH  39  44
BRANCH  41  46
ATOM     46  O   UNL     1      -8.840  -5.327  24.378  1.00  0.00    -0.387 OA
ATOM     47  H   UNL     1      -8.382  -5.077  23.533  1.00  0.00     0.211 HD
ENDBRANCH  41  46
BRANCH  42  48
ATOM     48  C   UNL     1      -7.506  -8.918  26.887  1.00  0.00     0.191 C 
BRANCH  48  49
ATOM     49  O   UNL     1      -7.564  -8.648  28.260  1.00  0.00    -0.394 OA
ATOM     50  H   UNL     1      -8.046  -9.399  28.703  1.00  0.00     0.210 HD
ENDBRANCH  48  49
ENDBRANCH  42  48
BRANCH  43  51
ATOM     51  O   UNL     1      -8.662  -6.310  27.024  1.00  0.00    -0.387 OA
ATOM     52  H   UNL     1      -8.974  -6.729  27.863  1.00  0.00     0.211 HD
ENDBRANCH  43  51
ENDBRANCH  37  38
ENDBRANCH   5  37
BRANCH   7  53
ATOM     53  O   UNL     1      -5.710  -9.780  19.129  1.00  0.00    -0.507 OA
ATOM     54  H   UNL     1      -5.575 -10.758  18.951  1.00  0.00     0.293 HD
ENDBRANCH   7  53
TORSDOF 18
ENDMDL
MODEL 3
REMARK VINA RESULT:    -3.611      1.818      7.465
REMARK INTER + INTRA:          -7.023
REMARK INTER:                  -7.461
REMARK INTRA:                   0.438
REMARK UNBOUND:                -0.773
REMARK SMILES COc1cc(-c2[o+]c3cc(O)cc(O[C@H]4O[C@@H](CO)[C@@H](O)[C@H](O)[C@H]4O)c3cc2O[C@H]2O[C@@H](CO)[C@H](O)[C@H](O)[C@H]2O)ccc1O
REMARK SMILES IDX 6 1 28 2 27 3 26 4 13 5 12 6 10 7 9 8 8 9 7 10 5 11 3 12
REMARK SMILES IDX 43 13 4 14 42 15 41 16 2 17 1 18 44 19 29 21 30 22 39 23
REMARK SMILES IDX 31 24 37 25 32 26 35 27 40 28 38 30 33 32 34 33 36 35 14 37
REMARK SMILES IDX 15 38 24 39 16 40 22 41 17 42 20 43 25 44 23 46 18 48 19 49
REMARK SMILES IDX 21 51 11 53
REMARK H PARENT 44 20 40 29 38 31 34 34 36 36 25 45 23 47 19 50 21 52 11 54
REMARK Flexibility Score: inf
ROOT
ATOM      1  C   UNL     1      -4.711  -5.429  24.952  1.00  0.00     0.402 A 
ATOM      2  C   UNL     1      -5.030  -5.311  23.404  1.00  0.00     0.229 A 
ATOM      3  C   UNL     1      -5.201  -6.613  22.971  1.00  0.00     0.079 A 
ATOM      4  C   UNL     1      -5.936  -7.456  23.899  1.00  0.00     0.126 A 
ATOM      5  C   UNL     1      -6.097  -8.841  23.718  1.00  0.00     0.143 A 
ATOM      6  C   UNL     1      -6.469  -9.619  24.828  1.00  0.00     0.094 A 
ATOM      7  C   UNL     1      -6.879  -9.093  26.042  1.00  0.00     0.128 A 
ATOM      8  C   UNL     1      -7.008  -7.714  26.133  1.00  0.00     0.162 A 
ATOM      9  C   UNL     1      -6.349  -6.920  25.162  1.00  0.00     0.368 A 
ATOM     10  O   UNL     1      -5.822  -5.754  25.617  1.00  0.00    -0.202 OA
ENDROOT
BRANCH   1  11
ATOM     11  C   UNL     1      -3.563  -6.353  25.629  1.00  0.00     0.087 A 
ATOM     12  C   UNL     1      -1.835  -6.880  27.558  1.00  0.00     0.161 A 
ATOM     13  C   UNL     1      -1.618  -8.148  26.982  1.00  0.00     0.157 A 
ATOM     14  C   UNL     1      -3.176  -6.326  27.140  1.00  0.00     0.068 A 
ATOM     15  C   UNL     1      -2.390  -8.424  25.748  1.00  0.00     0.051 A 
ATOM     16  C   UNL     1      -2.726  -7.262  24.977  1.00  0.00     0.022 A 
BRANCH  12  17
ATOM     17  O   UNL     1      -0.789  -5.981  27.958  1.00  0.00    -0.493 OA
ATOM     18  C   UNL     1       0.118  -6.326  29.027  1.00  0.00     0.278 C 
ENDBRANCH  12  17
BRANCH  13  19
ATOM     19  O   UNL     1      -0.526  -8.990  27.298  1.00  0.00    -0.504 OA
ATOM     20  H   UNL     1       0.086  -9.413  26.617  1.00  0.00     0.293 HD
ENDBRANCH  13  19
ENDBRANCH   1  11
BRANCH   2  21
ATOM     21  O   UNL     1      -5.951  -4.226  22.904  1.00  0.00    -0.452 OA
BRANCH  21  22
ATOM     22  C   UNL     1      -6.443  -3.921  21.531  1.00  0.00     0.339 C 
ATOM     23  C   UNL     1      -7.876  -3.085  21.272  1.00  0.00     0.214 C 
ATOM     24  O   UNL     1      -6.231  -4.877  20.498  1.00  0.00    -0.332 OA
ATOM     25  C   UNL     1      -7.899  -2.342  19.754  1.00  0.00     0.180 C 
ATOM     26  C   UNL     1      -6.159  -4.247  19.163  1.00  0.00     0.179 C 
ATOM     27  C   UNL     1      -6.392  -2.581  18.962  1.00  0.00     0.177 C 
BRANCH  23  28
ATOM     28  O   UNL     1      -8.926  -4.018  21.216  1.00  0.00    -0.384 OA
ATOM     29  H   UNL     1      -8.624  -4.980  21.376  1.00  0.00     0.211 HD
ENDBRANCH  23  28
BRANCH  25  30
ATOM     30  O   UNL     1      -8.289  -0.890  19.785  1.00  0.00    -0.387 OA
ATOM     31  H   UNL     1      -9.274  -0.650  20.147  1.00  0.00     0.211 HD
ENDBRANCH  25  30
BRANCH  26  32
ATOM     32  C   UNL     1      -6.973  -5.006  18.140  1.00  0.00     0.191 C 
BRANCH  32  33
ATOM     33  O   UNL     1      -8.304  -5.214  18.609  1.00  0.00    -0.394 OA
ATOM     34  H   UNL     1      -8.613  -4.334  18.912  1.00  0.00     0.210 HD
ENDBRANCH  32  33
ENDBRANCH  26  32
BRANCH  27  35
ATOM     35  O   UNL     1      -5.487  -1.624  19.684  1.00  0.00    -0.387 OA
ATOM     36  H   UNL     1      -6.021  -0.901  20.239  1.00  0.00     0.211 HD
ENDBRANCH  27  35
ENDBRANCH  21  22
ENDBRANCH   2  21
BRANCH   5  37
ATOM     37  O   UNL     1      -5.808  -9.457  22.507  1.00  0.00    -0.461 OA
BRANCH  37  38
ATOM     38  C   UNL     1      -6.693 -10.125  21.606  1.00  0.00     0.339 C 
ATOM     39  C   UNL     1      -6.553  -9.711  20.119  1.00  0.00     0.214 C 
ATOM     40  O   UNL     1      -8.056 -10.054  22.069  1.00  0.00    -0.332 OA
ATOM     41  C   UNL     1      -7.108  -8.298  19.905  1.00  0.00     0.180 C 
ATOM     42  C   UNL     1      -8.715  -8.831  21.807  1.00  0.00     0.179 C 
ATOM     43  C   UNL     1      -8.574  -8.289  20.361  1.00  0.00     0.177 C 
BRANCH  39  44
ATOM     44  O   UNL     1      -5.170  -9.746  19.738  1.00  0.00    -0.384 OA
ATOM     45  H   UNL     1      -5.176  -9.942  18.759  1.00  0.00     0.211 HD
ENDBRANCH  39  44
BRANCH  41  46
ATOM     46  O   UNL     1      -7.038  -7.902  18.562  1.00  0.00    -0.387 OA
ATOM     47  H   UNL     1      -7.300  -8.696  18.027  1.00  0.00     0.211 HD
ENDBRANCH  41  46
BRANCH  42  48
ATOM     48  C   UNL     1      -8.480  -7.798  22.907  1.00  0.00     0.191 C 
BRANCH  48  49
ATOM     49  O   UNL     1      -8.703  -6.503  22.421  1.00  0.00    -0.394 OA
ATOM     50  H   UNL     1      -7.820  -6.096  22.207  1.00  0.00     0.210 HD
ENDBRANCH  48  49
ENDBRANCH  42  48
BRANCH  43  51
ATOM     51  O   UNL     1      -9.125  -6.996  20.243  1.00  0.00    -0.387 OA
ATOM     52  H   UNL     1      -9.724  -6.999  19.457  1.00  0.00     0.211 HD
ENDBRANCH  43  51
ENDBRANCH  37  38
ENDBRANCH   5  37
BRANCH   7  53
ATOM     53  O   UNL     1      -7.085  -9.829  27.208  1.00  0.00    -0.507 OA
ATOM     54  H   UNL     1      -6.573  -9.512  28.010  1.00  0.00     0.293 HD
ENDBRANCH   7  53
TORSDOF 18
ENDMDL
MODEL 4
REMARK VINA RESULT:    -3.234     12.123     16.452
REMARK INTER + INTRA:          -6.371
REMARK INTER:                  -4.998
REMARK INTRA:                  -1.372
REMARK UNBOUND:                -0.773
REMARK SMILES COc1cc(-c2[o+]c3cc(O)cc(O[C@H]4O[C@@H](CO)[C@@H](O)[C@H](O)[C@H]4O)c3cc2O[C@H]2O[C@@H](CO)[C@H](O)[C@H](O)[C@H]2O)ccc1O
REMARK SMILES IDX 6 1 28 2 27 3 26 4 13 5 12 6 10 7 9 8 8 9 7 10 5 11 3 12
REMARK SMILES IDX 43 13 4 14 42 15 41 16 2 17 1 18 44 19 29 21 30 22 39 23
REMARK SMILES IDX 31 24 37 25 32 26 35 27 40 28 38 30 33 32 34 33 36 35 14 37
REMARK SMILES IDX 15 38 24 39 16 40 22 41 17 42 20 43 25 44 23 46 18 48 19 49
REMARK SMILES IDX 21 51 11 53
REMARK H PARENT 44 20 40 29 38 31 34 34 36 36 25 45 23 47 19 50 21 52 11 54
REMARK Flexibility Score: inf
ROOT
ATOM      1  C   UNL     1      -3.017   4.904  16.775  1.00  0.00     0.402 A 
ATOM      2  C   UNL     1      -2.345   5.389  15.424  1.00  0.00     0.229 A 
ATOM      3  C   UNL     1      -3.373   5.407  14.498  1.00  0.00     0.079 A 
ATOM      4  C   UNL     1      -4.632   5.913  15.017  1.00  0.00     0.126 A 
ATOM      5  C   UNL     1      -5.833   5.884  14.287  1.00  0.00     0.143 A 
ATOM      6  C   UNL     1      -7.043   6.024  14.988  1.00  0.00     0.094 A 
ATOM      7  C   UNL     1      -7.129   6.386  16.322  1.00  0.00     0.128 A 
ATOM      8  C   UNL     1      -5.948   6.709  16.976  1.00  0.00     0.162 A 
ATOM      9  C   UNL     1      -4.729   6.274  16.400  1.00  0.00     0.368 A 
ATOM     10  O   UNL     1      -3.771   5.884  17.280  1.00  0.00    -0.202 OA
ENDROOT
BRANCH   1  11
ATOM     11  C   UNL     1      -3.917   3.571  16.977  1.00  0.00     0.087 A 
ATOM     12  C   UNL     1      -4.826   1.577  18.455  1.00  0.00     0.161 A 
ATOM     13  C   UNL     1      -5.728   1.256  17.420  1.00  0.00     0.157 A 
ATOM     14  C   UNL     1      -4.393   3.021  18.357  1.00  0.00     0.068 A 
ATOM     15  C   UNL     1      -5.647   2.119  16.219  1.00  0.00     0.051 A 
ATOM     16  C   UNL     1      -4.357   2.698  15.979  1.00  0.00     0.022 A 
BRANCH  12  17
ATOM     17  O   UNL     1      -3.980   0.625  19.117  1.00  0.00    -0.493 OA
ATOM     18  C   UNL     1      -2.555   0.834  19.207  1.00  0.00     0.278 C 
ENDBRANCH  12  17
BRANCH  13  19
ATOM     19  O   UNL     1      -6.427   0.031  17.325  1.00  0.00    -0.504 OA
ATOM     20  H   UNL     1      -7.423  -0.052  17.185  1.00  0.00     0.293 HD
ENDBRANCH  13  19
ENDBRANCH   1  11
BRANCH   2  21
ATOM     21  O   UNL     1      -1.331   6.506  15.442  1.00  0.00    -0.452 OA
BRANCH  21  22
ATOM     22  C   UNL     1      -0.326   6.893  16.471  1.00  0.00     0.339 C 
ATOM     23  C   UNL     1       1.300   7.068  16.094  1.00  0.00     0.214 C 
ATOM     24  O   UNL     1      -0.480   6.404  17.798  1.00  0.00    -0.332 OA
ATOM     25  C   UNL     1       2.092   8.074  17.198  1.00  0.00     0.180 C 
ATOM     26  C   UNL     1       0.128   7.307  18.798  1.00  0.00     0.179 C 
ATOM     27  C   UNL     1       0.962   8.706  18.330  1.00  0.00     0.177 C 
BRANCH  23  28
ATOM     28  O   UNL     1       1.927   5.820  16.254  1.00  0.00    -0.384 OA
ATOM     29  H   UNL     1       2.802   5.870  16.777  1.00  0.00     0.211 HD
ENDBRANCH  23  28
BRANCH  25  30
ATOM     30  O   UNL     1       2.912   9.162  16.562  1.00  0.00    -0.387 OA
ATOM     31  H   UNL     1       2.785   9.324  15.506  1.00  0.00     0.211 HD
ENDBRANCH  25  30
BRANCH  26  32
ATOM     32  C   UNL     1       0.937   6.547  19.823  1.00  0.00     0.191 C 
BRANCH  32  33
ATOM     33  O   UNL     1       0.165   6.312  21.000  1.00  0.00    -0.394 OA
ATOM     34  H   UNL     1       0.350   5.383  21.250  1.00  0.00     0.210 HD
ENDBRANCH  32  33
ENDBRANCH  26  32
BRANCH  27  35
ATOM     35  O   UNL     1       0.242   9.751  17.525  1.00  0.00    -0.387 OA
ATOM     36  H   UNL     1       0.767  10.019  16.648  1.00  0.00     0.211 HD
ENDBRANCH  27  35
ENDBRANCH  21  22
ENDBRANCH   2  21
BRANCH   5  37
ATOM     37  O   UNL     1      -5.850   5.627  12.921  1.00  0.00    -0.461 OA
BRANCH  37  38
ATOM     38  C   UNL     1      -5.362   6.438  11.850  1.00  0.00     0.339 C 
ATOM     39  C   UNL     1      -5.770   7.931  11.919  1.00  0.00     0.214 C 
ATOM     40  O   UNL     1      -5.663   5.846  10.571  1.00  0.00    -0.332 OA
ATOM     41  C   UNL     1      -7.262   8.091  11.603  1.00  0.00     0.180 C 
ATOM     42  C   UNL     1      -6.986   6.044  10.115  1.00  0.00     0.179 C 
ATOM     43  C   UNL     1      -7.519   7.496  10.212  1.00  0.00     0.177 C 
BRANCH  39  44
ATOM     44  O   UNL     1      -5.501   8.444  13.231  1.00  0.00    -0.384 OA
ATOM     45  H   UNL     1      -5.485   7.642  13.826  1.00  0.00     0.211 HD
ENDBRANCH  39  44
BRANCH  41  46
ATOM     46  O   UNL     1      -7.663   9.435  11.614  1.00  0.00    -0.387 OA
ATOM     47  H   UNL     1      -7.952   9.628  12.544  1.00  0.00     0.211 HD
ENDBRANCH  41  46
BRANCH  42  48
ATOM     48  C   UNL     1      -7.944   4.971  10.631  1.00  0.00     0.191 C 
BRANCH  48  49
ATOM     49  O   UNL     1      -7.244   3.801  10.953  1.00  0.00    -0.394 OA
ATOM     50  H   UNL     1      -6.959   3.863  11.905  1.00  0.00     0.210 HD
ENDBRANCH  48  49
ENDBRANCH  42  48
BRANCH  43  51
ATOM     51  O   UNL     1      -8.891   7.561   9.888  1.00  0.00    -0.387 OA
ATOM     52  H   UNL     1      -9.204   6.636   9.735  1.00  0.00     0.211 HD
ENDBRANCH  43  51
ENDBRANCH  37  38
ENDBRANCH   5  37
BRANCH   7  53
ATOM     53  O   UNL     1      -8.295   6.364  17.087  1.00  0.00    -0.507 OA
ATOM     54  H   UNL     1      -8.266   5.769  17.894  1.00  0.00     0.293 HD
ENDBRANCH   7  53
TORSDOF 18
ENDMDL
