MODEL 1
REMARK VINA RESULT:    -7.068      0.000      0.000
REMARK INTER + INTRA:         -10.842
REMARK INTER:                  -9.340
REMARK INTRA:                  -1.501
REMARK UNBOUND:                -1.501
REMARK SMILES CC[C@H](C=C[C@@H](C)[C@H]1CC[C@H]2[C@@H]3CC=C4C[C@H](O)CC[C@@]4(C)[C@@H]3CC[C@]12C)C(C)C
REMARK SMILES IDX 6 1 7 2 5 3 4 4 3 5 2 6 1 7 28 8 29 9 30 10 8 11 9 12 26 13
REMARK SMILES IDX 10 14 11 15 25 16 27 17 12 18 24 19 23 20 13 21 21 22 14 23
REMARK SMILES IDX 15 24 20 25 22 26 16 27 19 28 17 29 18 30
REMARK H PARENT 18 31
REMARK Flexibility Score: inf
ROOT
ATOM      1  C   UNL     1      17.454  25.760  43.407  1.00  0.00     0.012 C 
ATOM      2  C   UNL     1      17.940  26.466  44.680  1.00  0.00     0.012 C 
ENDROOT
BRANCH   1   3
ATOM      3  C   UNL     1      17.034  26.811  42.397  1.00  0.00    -0.028 C 
ATOM      4  C   UNL     1      17.749  27.161  41.309  1.00  0.00    -0.027 C 
BRANCH   4   5
ATOM      5  C   UNL     1      19.088  26.555  40.912  1.00  0.00     0.014 C 
BRANCH   5   6
ATOM      6  C   UNL     1      18.873  25.626  39.680  1.00  0.00     0.004 C 
ATOM      7  C   UNL     1      19.792  24.401  39.690  1.00  0.00     0.004 C 
ENDBRANCH   5   6
BRANCH   5   8
ATOM      8  C   UNL     1      20.121  27.699  40.628  1.00  0.00    -0.011 C 
ATOM      9  C   UNL     1      20.276  28.003  39.129  1.00  0.00     0.008 C 
ATOM     10  C   UNL     1      21.512  27.360  41.202  1.00  0.00     0.008 C 
ENDBRANCH   5   8
ENDBRANCH   4   5
ENDBRANCH   1   3
BRANCH   1  11
ATOM     11  C   UNL     1      16.265  24.783  43.683  1.00  0.00     0.002 C 
ATOM     12  C   UNL     1      14.934  25.316  43.078  1.00  0.00     0.005 C 
ATOM     13  C   UNL     1      16.354  23.323  43.139  1.00  0.00    -0.026 C 
ATOM     14  C   UNL     1      14.103  24.095  42.657  1.00  0.00     0.005 C 
ATOM     15  C   UNL     1      14.868  22.918  43.241  1.00  0.00    -0.001 C 
ATOM     16  C   UNL     1      17.172  22.328  44.003  1.00  0.00     0.007 C 
ATOM     17  C   UNL     1      16.907  23.321  41.675  1.00  0.00     0.012 C 
ATOM     18  C   UNL     1      14.593  21.505  42.690  1.00  0.00     0.000 C 
ATOM     19  C   UNL     1      16.896  20.843  43.617  1.00  0.00     0.005 C 
ATOM     20  C   UNL     1      15.385  20.445  43.514  1.00  0.00     0.003 C 
ATOM     21  C   UNL     1      13.110  21.139  42.604  1.00  0.00     0.031 C 
ATOM     22  C   UNL     1      14.701  19.968  44.885  1.00  0.00    -0.008 C 
ATOM     23  C   UNL     1      12.503  20.810  43.925  1.00  0.00    -0.027 C 
ATOM     24  C   UNL     1      13.177  20.183  44.908  1.00  0.00    -0.065 C 
ATOM     25  C   UNL     1      14.943  18.432  45.047  1.00  0.00     0.014 C 
ATOM     26  C   UNL     1      15.295  20.694  46.129  1.00  0.00     0.016 C 
ATOM     27  C   UNL     1      12.387  19.579  46.052  1.00  0.00     0.063 C 
ATOM     28  C   UNL     1      14.168  17.783  46.214  1.00  0.00     0.033 C 
ATOM     29  C   UNL     1      12.658  18.072  46.128  1.00  0.00     0.118 C 
BRANCH  29  30
ATOM     30  O   UNL     1      12.005  17.545  47.253  1.00  0.00    -0.393 OA
ATOM     31  H   UNL     1      12.096  16.557  47.200  1.00  0.00     0.210 HD
ENDBRANCH  29  30
ENDBRANCH   1  11
TORSDOF 6
ENDMDL
MODEL 2
REMARK VINA RESULT:    -6.766      3.053      7.903
REMARK INTER + INTRA:         -10.442
REMARK INTER:                  -9.501
REMARK INTRA:                  -0.941
REMARK UNBOUND:                -1.501
REMARK SMILES CC[C@H](C=C[C@@H](C)[C@H]1CC[C@H]2[C@@H]3CC=C4C[C@H](O)CC[C@@]4(C)[C@@H]3CC[C@]12C)C(C)C
REMARK SMILES IDX 6 1 7 2 5 3 4 4 3 5 2 6 1 7 28 8 29 9 30 10 8 11 9 12 26 13
REMARK SMILES IDX 10 14 11 15 25 16 27 17 12 18 24 19 23 20 13 21 21 22 14 23
REMARK SMILES IDX 15 24 20 25 22 26 16 27 19 28 17 29 18 30
REMARK H PARENT 18 31
REMARK Flexibility Score: inf
ROOT
ATOM      1  C   UNL     1      13.119  21.734  45.455  1.00  0.00     0.012 C 
ATOM      2  C   UNL     1      14.151  21.942  46.571  1.00  0.00     0.012 C 
ENDROOT
BRANCH   1   3
ATOM      3  C   UNL     1      12.777  20.257  45.377  1.00  0.00    -0.028 C 
ATOM      4  C   UNL     1      13.676  19.255  45.448  1.00  0.00    -0.027 C 
BRANCH   4   5
ATOM      5  C   UNL     1      15.177  19.439  45.623  1.00  0.00     0.014 C 
BRANCH   5   6
ATOM      6  C   UNL     1      15.659  18.533  46.796  1.00  0.00     0.004 C 
ATOM      7  C   UNL     1      16.394  19.315  47.889  1.00  0.00     0.004 C 
ENDBRANCH   5   6
BRANCH   5   8
ATOM      8  C   UNL     1      15.909  19.116  44.277  1.00  0.00    -0.011 C 
ATOM      9  C   UNL     1      16.798  17.865  44.366  1.00  0.00     0.008 C 
ATOM     10  C   UNL     1      16.781  20.300  43.810  1.00  0.00     0.008 C 
ENDBRANCH   5   8
ENDBRANCH   4   5
ENDBRANCH   1   3
BRANCH   1  11
ATOM     11  C   UNL     1      13.632  22.233  44.065  1.00  0.00     0.002 C 
ATOM     12  C   UNL     1      12.522  22.147  42.979  1.00  0.00     0.005 C 
ATOM     13  C   UNL     1      14.150  23.700  43.942  1.00  0.00    -0.026 C 
ATOM     14  C   UNL     1      12.755  23.303  41.995  1.00  0.00     0.005 C 
ATOM     15  C   UNL     1      14.107  23.861  42.407  1.00  0.00    -0.001 C 
ATOM     16  C   UNL     1      15.613  23.943  44.399  1.00  0.00     0.007 C 
ATOM     17  C   UNL     1      13.196  24.680  44.703  1.00  0.00     0.012 C 
ATOM     18  C   UNL     1      14.501  25.277  41.942  1.00  0.00     0.000 C 
ATOM     19  C   UNL     1      16.173  25.307  43.892  1.00  0.00     0.005 C 
ATOM     20  C   UNL     1      15.966  25.594  42.367  1.00  0.00     0.003 C 
ATOM     21  C   UNL     1      14.294  25.531  40.447  1.00  0.00     0.031 C 
ATOM     22  C   UNL     1      17.114  25.032  41.396  1.00  0.00    -0.008 C 
ATOM     23  C   UNL     1      15.332  24.892  39.589  1.00  0.00    -0.027 C 
ATOM     24  C   UNL     1      16.620  24.770  39.963  1.00  0.00    -0.065 C 
ATOM     25  C   UNL     1      18.244  26.108  41.296  1.00  0.00     0.014 C 
ATOM     26  C   UNL     1      17.741  23.707  41.924  1.00  0.00     0.016 C 
ATOM     27  C   UNL     1      17.652  24.446  38.899  1.00  0.00     0.063 C 
ATOM     28  C   UNL     1      19.323  25.804  40.235  1.00  0.00     0.033 C 
ATOM     29  C   UNL     1      18.706  25.557  38.846  1.00  0.00     0.118 C 
BRANCH  29  30
ATOM     30  O   UNL     1      19.709  25.195  37.934  1.00  0.00    -0.393 OA
ATOM     31  H   UNL     1      20.562  25.168  38.442  1.00  0.00     0.210 HD
ENDBRANCH  29  30
ENDBRANCH   1  11
TORSDOF 6
ENDMDL
MODEL 3
REMARK VINA RESULT:    -6.623      3.931      9.493
REMARK INTER + INTRA:         -10.253
REMARK INTER:                  -8.839
REMARK INTRA:                  -1.414
REMARK UNBOUND:                -1.501
REMARK SMILES CC[C@H](C=C[C@@H](C)[C@H]1CC[C@H]2[C@@H]3CC=C4C[C@H](O)CC[C@@]4(C)[C@@H]3CC[C@]12C)C(C)C
REMARK SMILES IDX 6 1 7 2 5 3 4 4 3 5 2 6 1 7 28 8 29 9 30 10 8 11 9 12 26 13
REMARK SMILES IDX 10 14 11 15 25 16 27 17 12 18 24 19 23 20 13 21 21 22 14 23
REMARK SMILES IDX 15 24 20 25 22 26 16 27 19 28 17 29 18 30
REMARK H PARENT 18 31
REMARK Flexibility Score: inf
ROOT
ATOM      1  C   UNL     1      15.358  23.982  42.374  1.00  0.00     0.012 C 
ATOM      2  C   UNL     1      13.899  24.457  42.360  1.00  0.00     0.012 C 
ENDROOT
BRANCH   1   3
ATOM      3  C   UNL     1      15.777  23.739  43.813  1.00  0.00    -0.028 C 
ATOM      4  C   UNL     1      15.819  22.529  44.407  1.00  0.00    -0.027 C 
BRANCH   4   5
ATOM      5  C   UNL     1      15.462  21.212  43.733  1.00  0.00     0.014 C 
BRANCH   5   6
ATOM      6  C   UNL     1      16.677  20.243  43.851  1.00  0.00     0.004 C 
ATOM      7  C   UNL     1      16.341  18.955  44.608  1.00  0.00     0.004 C 
ENDBRANCH   5   6
BRANCH   5   8
ATOM      8  C   UNL     1      14.162  20.625  44.379  1.00  0.00    -0.011 C 
ATOM      9  C   UNL     1      13.027  20.428  43.361  1.00  0.00     0.008 C 
ATOM     10  C   UNL     1      13.641  21.524  45.519  1.00  0.00     0.008 C 
ENDBRANCH   5   8
ENDBRANCH   4   5
ENDBRANCH   1   3
BRANCH   1  11
ATOM     11  C   UNL     1      16.328  25.010  41.706  1.00  0.00     0.002 C 
ATOM     12  C   UNL     1      17.023  25.914  42.764  1.00  0.00     0.005 C 
ATOM     13  C   UNL     1      17.515  24.470  40.849  1.00  0.00    -0.026 C 
ATOM     14  C   UNL     1      18.421  26.253  42.226  1.00  0.00     0.005 C 
ATOM     15  C   UNL     1      18.393  25.739  40.796  1.00  0.00    -0.001 C 
ATOM     16  C   UNL     1      17.172  24.074  39.389  1.00  0.00     0.007 C 
ATOM     17  C   UNL     1      18.201  23.262  41.570  1.00  0.00     0.012 C 
ATOM     18  C   UNL     1      19.728  25.513  40.059  1.00  0.00     0.000 C 
ATOM     19  C   UNL     1      18.445  23.923  38.502  1.00  0.00     0.005 C 
ATOM     20  C   UNL     1      19.463  25.111  38.577  1.00  0.00     0.003 C 
ATOM     21  C   UNL     1      20.702  26.690  40.144  1.00  0.00     0.031 C 
ATOM     22  C   UNL     1      19.188  26.322  37.561  1.00  0.00    -0.008 C 
ATOM     23  C   UNL     1      20.334  27.830  39.256  1.00  0.00    -0.027 C 
ATOM     24  C   UNL     1      19.760  27.664  38.049  1.00  0.00    -0.065 C 
ATOM     25  C   UNL     1      19.893  25.995  36.205  1.00  0.00     0.014 C 
ATOM     26  C   UNL     1      17.668  26.533  37.287  1.00  0.00     0.016 C 
ATOM     27  C   UNL     1      19.757  28.836  37.086  1.00  0.00     0.063 C 
ATOM     28  C   UNL     1      19.896  27.159  35.190  1.00  0.00     0.033 C 
ATOM     29  C   UNL     1      20.488  28.445  35.796  1.00  0.00     0.118 C 
BRANCH  29  30
ATOM     30  O   UNL     1      20.387  29.500  34.875  1.00  0.00    -0.393 OA
ATOM     31  H   UNL     1      19.638  30.076  35.181  1.00  0.00     0.210 HD
ENDBRANCH  29  30
ENDBRANCH   1  11
TORSDOF 6
ENDMDL
MODEL 4
REMARK VINA RESULT:    -6.524      3.597      8.666
REMARK INTER + INTRA:         -10.123
REMARK INTER:                  -8.421
REMARK INTRA:                  -1.702
REMARK UNBOUND:                -1.501
REMARK SMILES CC[C@H](C=C[C@@H](C)[C@H]1CC[C@H]2[C@@H]3CC=C4C[C@H](O)CC[C@@]4(C)[C@@H]3CC[C@]12C)C(C)C
REMARK SMILES IDX 6 1 7 2 5 3 4 4 3 5 2 6 1 7 28 8 29 9 30 10 8 11 9 12 26 13
REMARK SMILES IDX 10 14 11 15 25 16 27 17 12 18 24 19 23 20 13 21 21 22 14 23
REMARK SMILES IDX 15 24 20 25 22 26 16 27 19 28 17 29 18 30
REMARK H PARENT 18 31
REMARK Flexibility Score: inf
ROOT
ATOM      1  C   UNL     1      15.914  20.949  43.982  1.00  0.00     0.012 C 
ATOM      2  C   UNL     1      17.136  20.047  43.765  1.00  0.00     0.012 C 
ENDROOT
BRANCH   1   3
ATOM      3  C   UNL     1      14.721  20.078  44.331  1.00  0.00    -0.028 C 
ATOM      4  C   UNL     1      14.218  19.924  45.572  1.00  0.00    -0.027 C 
BRANCH   4   5
ATOM      5  C   UNL     1      14.759  20.602  46.824  1.00  0.00     0.014 C 
BRANCH   5   6
ATOM      6  C   UNL     1      13.692  21.609  47.349  1.00  0.00     0.004 C 
ATOM      7  C   UNL     1      13.609  22.884  46.504  1.00  0.00     0.004 C 
ENDBRANCH   5   6
BRANCH   5   8
ATOM      8  C   UNL     1      15.137  19.518  47.889  1.00  0.00    -0.011 C 
ATOM      9  C   UNL     1      16.450  18.790  47.559  1.00  0.00     0.008 C 
ATOM     10  C   UNL     1      14.022  18.463  48.042  1.00  0.00     0.008 C 
ENDBRANCH   5   8
ENDBRANCH   4   5
ENDBRANCH   1   3
BRANCH   1  11
ATOM     11  C   UNL     1      15.585  21.821  42.727  1.00  0.00     0.002 C 
ATOM     12  C   UNL     1      14.054  22.049  42.572  1.00  0.00     0.005 C 
ATOM     13  C   UNL     1      16.178  23.262  42.640  1.00  0.00    -0.026 C 
ATOM     14  C   UNL     1      13.860  23.436  41.942  1.00  0.00     0.005 C 
ATOM     15  C   UNL     1      15.266  23.852  41.544  1.00  0.00    -0.001 C 
ATOM     16  C   UNL     1      17.643  23.362  42.137  1.00  0.00     0.007 C 
ATOM     17  C   UNL     1      16.050  23.987  44.021  1.00  0.00     0.012 C 
ATOM     18  C   UNL     1      15.551  25.341  41.265  1.00  0.00     0.000 C 
ATOM     19  C   UNL     1      18.025  24.813  41.713  1.00  0.00     0.005 C 
ATOM     20  C   UNL     1      17.012  25.521  40.752  1.00  0.00     0.003 C 
ATOM     21  C   UNL     1      14.550  26.009  40.320  1.00  0.00     0.031 C 
ATOM     22  C   UNL     1      17.243  25.256  39.186  1.00  0.00    -0.008 C 
ATOM     23  C   UNL     1      14.748  25.638  38.889  1.00  0.00    -0.027 C 
ATOM     24  C   UNL     1      15.961  25.413  38.350  1.00  0.00    -0.065 C 
ATOM     25  C   UNL     1      18.263  26.314  38.654  1.00  0.00     0.014 C 
ATOM     26  C   UNL     1      17.815  23.835  38.904  1.00  0.00     0.016 C 
ATOM     27  C   UNL     1      16.087  25.402  36.838  1.00  0.00     0.063 C 
ATOM     28  C   UNL     1      18.432  26.322  37.119  1.00  0.00     0.033 C 
ATOM     29  C   UNL     1      17.082  26.480  36.396  1.00  0.00     0.118 C 
BRANCH  29  30
ATOM     30  O   UNL     1      17.269  26.390  35.007  1.00  0.00    -0.393 OA
ATOM     31  H   UNL     1      17.637  25.485  34.827  1.00  0.00     0.210 HD
ENDBRANCH  29  30
ENDBRANCH   1  11
TORSDOF 6
ENDMDL
MODEL 5
REMARK VINA RESULT:    -6.384      3.188      8.088
REMARK INTER + INTRA:          -9.938
REMARK INTER:                  -9.191
REMARK INTRA:                  -0.747
REMARK UNBOUND:                -1.501
REMARK SMILES CC[C@H](C=C[C@@H](C)[C@H]1CC[C@H]2[C@@H]3CC=C4C[C@H](O)CC[C@@]4(C)[C@@H]3CC[C@]12C)C(C)C
REMARK SMILES IDX 6 1 7 2 5 3 4 4 3 5 2 6 1 7 28 8 29 9 30 10 8 11 9 12 26 13
REMARK SMILES IDX 10 14 11 15 25 16 27 17 12 18 24 19 23 20 13 21 21 22 14 23
REMARK SMILES IDX 15 24 20 25 22 26 16 27 19 28 17 29 18 30
REMARK H PARENT 18 31
REMARK Flexibility Score: inf
ROOT
ATOM      1  C   UNL     1      13.372  21.845  44.813  1.00  0.00     0.012 C 
ATOM      2  C   UNL     1      12.257  22.665  45.476  1.00  0.00     0.012 C 
ENDROOT
BRANCH   1   3
ATOM      3  C   UNL     1      14.568  21.804  45.747  1.00  0.00    -0.028 C 
ATOM      4  C   UNL     1      15.471  20.805  45.795  1.00  0.00    -0.027 C 
BRANCH   4   5
ATOM      5  C   UNL     1      15.445  19.560  44.920  1.00  0.00     0.014 C 
BRANCH   5   6
ATOM      6  C   UNL     1      16.799  19.455  44.157  1.00  0.00     0.004 C 
ATOM      7  C   UNL     1      17.181  20.754  43.439  1.00  0.00     0.004 C 
ENDBRANCH   5   6
BRANCH   5   8
ATOM      8  C   UNL     1      15.156  18.300  45.804  1.00  0.00    -0.011 C 
ATOM      9  C   UNL     1      13.657  17.969  45.898  1.00  0.00     0.008 C 
ATOM     10  C   UNL     1      15.706  18.474  47.234  1.00  0.00     0.008 C 
ENDBRANCH   5   8
ENDBRANCH   4   5
ENDBRANCH   1   3
BRANCH   1  11
ATOM     11  C   UNL     1      13.800  22.429  43.428  1.00  0.00     0.002 C 
ATOM     12  C   UNL     1      12.608  22.465  42.428  1.00  0.00     0.005 C 
ATOM     13  C   UNL     1      14.368  23.881  43.371  1.00  0.00    -0.026 C 
ATOM     14  C   UNL     1      12.815  23.682  41.515  1.00  0.00     0.005 C 
ATOM     15  C   UNL     1      14.217  24.159  41.860  1.00  0.00    -0.001 C 
ATOM     16  C   UNL     1      15.870  24.034  43.728  1.00  0.00     0.007 C 
ATOM     17  C   UNL     1      13.516  24.834  44.273  1.00  0.00     0.012 C 
ATOM     18  C   UNL     1      14.634  25.591  41.470  1.00  0.00     0.000 C 
ATOM     19  C   UNL     1      16.447  25.411  43.280  1.00  0.00     0.005 C 
ATOM     20  C   UNL     1      16.139  25.821  41.800  1.00  0.00     0.003 C 
ATOM     21  C   UNL     1      14.326  25.963  40.018  1.00  0.00     0.031 C 
ATOM     22  C   UNL     1      17.186  25.292  40.705  1.00  0.00    -0.008 C 
ATOM     23  C   UNL     1      15.269  25.354  39.037  1.00  0.00    -0.027 C 
ATOM     24  C   UNL     1      16.575  25.157  39.299  1.00  0.00    -0.065 C 
ATOM     25  C   UNL     1      18.349  26.331  40.596  1.00  0.00     0.014 C 
ATOM     26  C   UNL     1      17.795  23.909  41.085  1.00  0.00     0.016 C 
ATOM     27  C   UNL     1      17.509  24.877  38.137  1.00  0.00     0.063 C 
ATOM     28  C   UNL     1      19.332  26.069  39.434  1.00  0.00     0.033 C 
ATOM     29  C   UNL     1      18.602  25.950  38.083  1.00  0.00     0.118 C 
BRANCH  29  30
ATOM     30  O   UNL     1      19.518  25.621  37.071  1.00  0.00    -0.393 OA
ATOM     31  H   UNL     1      20.396  25.996  37.347  1.00  0.00     0.210 HD
ENDBRANCH  29  30
ENDBRANCH   1  11
TORSDOF 6
ENDMDL
MODEL 6
REMARK VINA RESULT:    -6.156      1.615      2.337
REMARK INTER + INTRA:          -9.637
REMARK INTER:                  -9.398
REMARK INTRA:                  -0.239
REMARK UNBOUND:                -1.501
REMARK SMILES CC[C@H](C=C[C@@H](C)[C@H]1CC[C@H]2[C@@H]3CC=C4C[C@H](O)CC[C@@]4(C)[C@@H]3CC[C@]12C)C(C)C
REMARK SMILES IDX 6 1 7 2 5 3 4 4 3 5 2 6 1 7 28 8 29 9 30 10 8 11 9 12 26 13
REMARK SMILES IDX 10 14 11 15 25 16 27 17 12 18 24 19 23 20 13 21 21 22 14 23
REMARK SMILES IDX 15 24 20 25 22 26 16 27 19 28 17 29 18 30
REMARK H PARENT 18 31
REMARK Flexibility Score: inf
ROOT
ATOM      1  C   UNL     1      17.263  25.594  42.346  1.00  0.00     0.012 C 
ATOM      2  C   UNL     1      16.855  27.071  42.266  1.00  0.00     0.012 C 
ENDROOT
BRANCH   1   3
ATOM      3  C   UNL     1      16.825  24.897  41.071  1.00  0.00    -0.028 C 
ATOM      4  C   UNL     1      17.654  24.518  40.078  1.00  0.00    -0.027 C 
BRANCH   4   5
ATOM      5  C   UNL     1      19.163  24.718  40.076  1.00  0.00     0.014 C 
BRANCH   5   6
ATOM      6  C   UNL     1      19.799  23.723  39.060  1.00  0.00     0.004 C 
ATOM      7  C   UNL     1      20.587  22.599  39.739  1.00  0.00     0.004 C 
ENDBRANCH   5   6
BRANCH   5   8
ATOM      8  C   UNL     1      19.497  26.211  39.743  1.00  0.00    -0.011 C 
ATOM      9  C   UNL     1      19.425  26.517  38.238  1.00  0.00     0.008 C 
ATOM     10  C   UNL     1      20.899  26.605  40.252  1.00  0.00     0.008 C 
ENDBRANCH   5   8
ENDBRANCH   4   5
ENDBRANCH   1   3
BRANCH   1  11
ATOM     11  C   UNL     1      16.645  24.869  43.586  1.00  0.00     0.002 C 
ATOM     12  C   UNL     1      16.223  25.881  44.690  1.00  0.00     0.005 C 
ATOM     13  C   UNL     1      15.366  23.998  43.382  1.00  0.00    -0.026 C 
ATOM     14  C   UNL     1      14.993  25.296  45.399  1.00  0.00     0.005 C 
ATOM     15  C   UNL     1      14.895  23.883  44.848  1.00  0.00    -0.001 C 
ATOM     16  C   UNL     1      15.605  22.559  42.852  1.00  0.00     0.007 C 
ATOM     17  C   UNL     1      14.347  24.735  42.451  1.00  0.00     0.012 C 
ATOM     18  C   UNL     1      13.565  23.118  44.992  1.00  0.00     0.000 C 
ATOM     19  C   UNL     1      14.358  21.643  43.044  1.00  0.00     0.005 C 
ATOM     20  C   UNL     1      13.727  21.656  44.477  1.00  0.00     0.003 C 
ATOM     21  C   UNL     1      12.972  23.142  46.402  1.00  0.00     0.031 C 
ATOM     22  C   UNL     1      14.359  20.613  45.519  1.00  0.00    -0.008 C 
ATOM     23  C   UNL     1      13.671  22.232  47.354  1.00  0.00    -0.027 C 
ATOM     24  C   UNL     1      14.193  21.046  46.986  1.00  0.00    -0.065 C 
ATOM     25  C   UNL     1      13.612  19.248  45.362  1.00  0.00     0.014 C 
ATOM     26  C   UNL     1      15.879  20.373  45.272  1.00  0.00     0.016 C 
ATOM     27  C   UNL     1      14.551  20.049  48.072  1.00  0.00     0.063 C 
ATOM     28  C   UNL     1      13.964  18.200  46.440  1.00  0.00     0.033 C 
ATOM     29  C   UNL     1      13.761  18.752  47.863  1.00  0.00     0.118 C 
BRANCH  29  30
ATOM     30  O   UNL     1      14.179  17.803  48.810  1.00  0.00    -0.393 OA
ATOM     31  H   UNL     1      13.584  17.906  49.599  1.00  0.00     0.210 HD
ENDBRANCH  29  30
ENDBRANCH   1  11
TORSDOF 6
ENDMDL
MODEL 7
REMARK VINA RESULT:    -5.930      3.243      8.804
REMARK INTER + INTRA:          -9.338
REMARK INTER:                  -7.720
REMARK INTRA:                  -1.618
REMARK UNBOUND:                -1.501
REMARK SMILES CC[C@H](C=C[C@@H](C)[C@H]1CC[C@H]2[C@@H]3CC=C4C[C@H](O)CC[C@@]4(C)[C@@H]3CC[C@]12C)C(C)C
REMARK SMILES IDX 6 1 7 2 5 3 4 4 3 5 2 6 1 7 28 8 29 9 30 10 8 11 9 12 26 13
REMARK SMILES IDX 10 14 11 15 25 16 27 17 12 18 24 19 23 20 13 21 21 22 14 23
REMARK SMILES IDX 15 24 20 25 22 26 16 27 19 28 17 29 18 30
REMARK H PARENT 18 31
REMARK Flexibility Score: inf
ROOT
ATOM      1  C   UNL     1      14.488  20.495  44.487  1.00  0.00     0.012 C 
ATOM      2  C   UNL     1      15.344  19.221  44.490  1.00  0.00     0.012 C 
ENDROOT
BRANCH   1   3
ATOM      3  C   UNL     1      13.026  20.099  44.579  1.00  0.00    -0.028 C 
ATOM      4  C   UNL     1      12.323  20.014  45.727  1.00  0.00    -0.027 C 
BRANCH   4   5
ATOM      5  C   UNL     1      12.877  20.307  47.114  1.00  0.00     0.014 C 
BRANCH   5   6
ATOM      6  C   UNL     1      11.876  21.233  47.868  1.00  0.00     0.004 C 
ATOM      7  C   UNL     1      12.034  22.710  47.494  1.00  0.00     0.004 C 
ENDBRANCH   5   6
BRANCH   5   8
ATOM      8  C   UNL     1      13.138  18.962  47.873  1.00  0.00    -0.011 C 
ATOM      9  C   UNL     1      14.635  18.671  48.073  1.00  0.00     0.008 C 
ATOM     10  C   UNL     1      12.505  17.765  47.135  1.00  0.00     0.008 C 
ENDBRANCH   5   8
ENDBRANCH   4   5
ENDBRANCH   1   3
BRANCH   1  11
ATOM     11  C   UNL     1      14.722  21.369  43.213  1.00  0.00     0.002 C 
ATOM     12  C   UNL     1      13.465  21.395  42.297  1.00  0.00     0.005 C 
ATOM     13  C   UNL     1      15.072  22.879  43.395  1.00  0.00    -0.026 C 
ATOM     14  C   UNL     1      13.426  22.770  41.614  1.00  0.00     0.005 C 
ATOM     15  C   UNL     1      14.768  23.389  41.970  1.00  0.00    -0.001 C 
ATOM     16  C   UNL     1      16.559  23.197  43.701  1.00  0.00     0.007 C 
ATOM     17  C   UNL     1      14.164  23.518  44.498  1.00  0.00     0.012 C 
ATOM     18  C   UNL     1      14.946  24.914  41.829  1.00  0.00     0.000 C 
ATOM     19  C   UNL     1      16.899  24.703  43.484  1.00  0.00     0.005 C 
ATOM     20  C   UNL     1      16.424  25.311  42.122  1.00  0.00     0.003 C 
ATOM     21  C   UNL     1      14.479  25.482  40.487  1.00  0.00     0.031 C 
ATOM     22  C   UNL     1      17.449  25.149  40.898  1.00  0.00    -0.008 C 
ATOM     23  C   UNL     1      15.421  25.205  39.366  1.00  0.00    -0.027 C 
ATOM     24  C   UNL     1      16.759  25.168  39.523  1.00  0.00    -0.065 C 
ATOM     25  C   UNL     1      18.441  26.357  40.924  1.00  0.00     0.014 C 
ATOM     26  C   UNL     1      18.276  23.831  40.987  1.00  0.00     0.016 C 
ATOM     27  C   UNL     1      17.632  25.241  38.285  1.00  0.00     0.063 C 
ATOM     28  C   UNL     1      19.359  26.455  39.687  1.00  0.00     0.033 C 
ATOM     29  C   UNL     1      18.553  26.463  38.375  1.00  0.00     0.118 C 
BRANCH  29  30
ATOM     30  O   UNL     1      19.427  26.460  37.276  1.00  0.00    -0.393 OA
ATOM     31  H   UNL     1      19.318  27.336  36.822  1.00  0.00     0.210 HD
ENDBRANCH  29  30
ENDBRANCH   1  11
TORSDOF 6
ENDMDL
MODEL 8
REMARK VINA RESULT:    -5.790      1.724      3.458
REMARK INTER + INTRA:          -9.153
REMARK INTER:                  -8.791
REMARK INTRA:                  -0.362
REMARK UNBOUND:                -1.501
REMARK SMILES CC[C@H](C=C[C@@H](C)[C@H]1CC[C@H]2[C@@H]3CC=C4C[C@H](O)CC[C@@]4(C)[C@@H]3CC[C@]12C)C(C)C
REMARK SMILES IDX 6 1 7 2 5 3 4 4 3 5 2 6 1 7 28 8 29 9 30 10 8 11 9 12 26 13
REMARK SMILES IDX 10 14 11 15 25 16 27 17 12 18 24 19 23 20 13 21 21 22 14 23
REMARK SMILES IDX 15 24 20 25 22 26 16 27 19 28 17 29 18 30
REMARK H PARENT 18 31
REMARK Flexibility Score: inf
ROOT
ATOM      1  C   UNL     1      18.954  26.073  40.921  1.00  0.00     0.012 C 
ATOM      2  C   UNL     1      19.451  27.498  41.198  1.00  0.00     0.012 C 
ENDROOT
BRANCH   1   3
ATOM      3  C   UNL     1      18.055  26.099  39.699  1.00  0.00    -0.028 C 
ATOM      4  C   UNL     1      18.320  25.472  38.536  1.00  0.00    -0.027 C 
BRANCH   4   5
ATOM      5  C   UNL     1      19.559  24.630  38.260  1.00  0.00     0.014 C 
BRANCH   5   6
ATOM      6  C   UNL     1      19.356  23.219  38.889  1.00  0.00     0.004 C 
ATOM      7  C   UNL     1      20.506  22.808  39.813  1.00  0.00     0.004 C 
ENDBRANCH   5   6
BRANCH   5   8
ATOM      8  C   UNL     1      19.821  24.567  36.716  1.00  0.00    -0.011 C 
ATOM      9  C   UNL     1      19.188  25.744  35.956  1.00  0.00     0.008 C 
ATOM     10  C   UNL     1      19.291  23.254  36.106  1.00  0.00     0.008 C 
ENDBRANCH   5   8
ENDBRANCH   4   5
ENDBRANCH   1   3
BRANCH   1  11
ATOM     11  C   UNL     1      18.181  25.463  42.135  1.00  0.00     0.002 C 
ATOM     12  C   UNL     1      18.267  26.380  43.389  1.00  0.00     0.005 C 
ATOM     13  C   UNL     1      16.652  25.189  41.988  1.00  0.00    -0.026 C 
ATOM     14  C   UNL     1      16.955  26.211  44.169  1.00  0.00     0.005 C 
ATOM     15  C   UNL     1      16.270  25.044  43.476  1.00  0.00    -0.001 C 
ATOM     16  C   UNL     1      16.267  23.867  41.273  1.00  0.00     0.007 C 
ATOM     17  C   UNL     1      15.950  26.392  41.274  1.00  0.00     0.012 C 
ATOM     18  C   UNL     1      14.758  24.835  43.690  1.00  0.00     0.000 C 
ATOM     19  C   UNL     1      14.774  23.481  41.507  1.00  0.00     0.005 C 
ATOM     20  C   UNL     1      14.295  23.518  42.997  1.00  0.00     0.003 C 
ATOM     21  C   UNL     1      14.316  24.871  45.154  1.00  0.00     0.031 C 
ATOM     22  C   UNL     1      14.528  22.168  43.832  1.00  0.00    -0.008 C 
ATOM     23  C   UNL     1      14.657  23.630  45.907  1.00  0.00    -0.027 C 
ATOM     24  C   UNL     1      14.642  22.405  45.348  1.00  0.00    -0.065 C 
ATOM     25  C   UNL     1      13.293  21.234  43.611  1.00  0.00     0.014 C 
ATOM     26  C   UNL     1      15.809  21.405  43.380  1.00  0.00     0.016 C 
ATOM     27  C   UNL     1      14.646  21.196  46.263  1.00  0.00     0.063 C 
ATOM     28  C   UNL     1      13.271  19.982  44.514  1.00  0.00     0.033 C 
ATOM     29  C   UNL     1      13.395  20.348  46.004  1.00  0.00     0.118 C 
BRANCH  29  30
ATOM     30  O   UNL     1      13.464  19.181  46.780  1.00  0.00    -0.393 OA
ATOM     31  H   UNL     1      14.425  18.943  46.854  1.00  0.00     0.210 HD
ENDBRANCH  29  30
ENDBRANCH   1  11
TORSDOF 6
ENDMDL
MODEL 9
REMARK VINA RESULT:    -5.779      3.683      9.970
REMARK INTER + INTRA:          -9.138
REMARK INTER:                  -7.816
REMARK INTRA:                  -1.322
REMARK UNBOUND:                -1.501
REMARK SMILES CC[C@H](C=C[C@@H](C)[C@H]1CC[C@H]2[C@@H]3CC=C4C[C@H](O)CC[C@@]4(C)[C@@H]3CC[C@]12C)C(C)C
REMARK SMILES IDX 6 1 7 2 5 3 4 4 3 5 2 6 1 7 28 8 29 9 30 10 8 11 9 12 26 13
REMARK SMILES IDX 10 14 11 15 25 16 27 17 12 18 24 19 23 20 13 21 21 22 14 23
REMARK SMILES IDX 15 24 20 25 22 26 16 27 19 28 17 29 18 30
REMARK H PARENT 18 31
REMARK Flexibility Score: inf
ROOT
ATOM      1  C   UNL     1      13.356  18.615  49.001  1.00  0.00     0.012 C 
ATOM      2  C   UNL     1      11.946  19.218  49.032  1.00  0.00     0.012 C 
ENDROOT
BRANCH   1   3
ATOM      3  C   UNL     1      13.962  18.723  50.389  1.00  0.00    -0.028 C 
ATOM      4  C   UNL     1      14.377  17.677  51.130  1.00  0.00    -0.027 C 
BRANCH   4   5
ATOM      5  C   UNL     1      14.311  16.219  50.698  1.00  0.00     0.014 C 
BRANCH   5   6
ATOM      6  C   UNL     1      15.632  15.510  51.124  1.00  0.00     0.004 C 
ATOM      7  C   UNL     1      15.453  14.007  51.359  1.00  0.00     0.004 C 
ENDBRANCH   5   6
BRANCH   5   8
ATOM      8  C   UNL     1      13.041  15.542  51.315  1.00  0.00    -0.011 C 
ATOM      9  C   UNL     1      11.890  15.402  50.305  1.00  0.00     0.008 C 
ATOM     10  C   UNL     1      12.521  16.324  52.538  1.00  0.00     0.008 C 
ENDBRANCH   5   8
ENDBRANCH   4   5
ENDBRANCH   1   3
BRANCH   1  11
ATOM     11  C   UNL     1      14.285  19.319  47.960  1.00  0.00     0.002 C 
ATOM     12  C   UNL     1      15.757  18.831  48.082  1.00  0.00     0.005 C 
ATOM     13  C   UNL     1      13.969  19.151  46.441  1.00  0.00    -0.026 C 
ATOM     14  C   UNL     1      16.370  18.872  46.674  1.00  0.00     0.005 C 
ATOM     15  C   UNL     1      15.322  19.596  45.845  1.00  0.00    -0.001 C 
ATOM     16  C   UNL     1      12.873  20.087  45.869  1.00  0.00     0.007 C 
ATOM     17  C   UNL     1      13.602  17.663  46.123  1.00  0.00     0.012 C 
ATOM     18  C   UNL     1      15.370  19.469  44.309  1.00  0.00     0.000 C 
ATOM     19  C   UNL     1      12.889  20.136  44.311  1.00  0.00     0.005 C 
ATOM     20  C   UNL     1      14.291  20.388  43.660  1.00  0.00     0.003 C 
ATOM     21  C   UNL     1      16.749  19.725  43.698  1.00  0.00     0.031 C 
ATOM     22  C   UNL     1      14.701  21.929  43.477  1.00  0.00    -0.008 C 
ATOM     23  C   UNL     1      17.120  21.168  43.654  1.00  0.00    -0.027 C 
ATOM     24  C   UNL     1      16.223  22.150  43.440  1.00  0.00    -0.065 C 
ATOM     25  C   UNL     1      14.138  22.427  42.106  1.00  0.00     0.014 C 
ATOM     26  C   UNL     1      14.123  22.835  44.605  1.00  0.00     0.016 C 
ATOM     27  C   UNL     1      16.737  23.525  43.056  1.00  0.00     0.063 C 
ATOM     28  C   UNL     1      14.625  23.831  41.688  1.00  0.00     0.033 C 
ATOM     29  C   UNL     1      16.162  23.928  41.694  1.00  0.00     0.118 C 
BRANCH  29  30
ATOM     30  O   UNL     1      16.560  25.241  41.399  1.00  0.00    -0.393 OA
ATOM     31  H   UNL     1      15.856  25.842  41.762  1.00  0.00     0.210 HD
ENDBRANCH  29  30
ENDBRANCH   1  11
TORSDOF 6
ENDMDL
