MODEL 1
REMARK VINA RESULT:    -4.400      0.000      0.000
REMARK INTER + INTRA:         -15.790
REMARK INTER:                 -11.087
REMARK INTRA:                  -4.703
REMARK UNBOUND:                -4.703
REMARK SMILES CCCCCCCCCCCCCCCCCCCCCCCCCCCC(=O)[O-]
REMARK SMILES IDX 15 1 16 2 17 3 18 4 19 5 20 6 21 7 22 8 23 9 24 10 25 11
REMARK SMILES IDX 26 12 27 13 28 14 29 15 30 16 14 17 13 18 12 19 11 20 10 21
REMARK SMILES IDX 9 22 8 23 7 24 6 25 5 26 4 27 3 28 2 29 1 30
REMARK H PARENT
REMARK Flexibility Score: inf
ROOT
ATOM      1  C   UNL     1      24.213   4.287  13.813  1.00  0.00     0.000 C 
ENDROOT
BRANCH   1   2
ATOM      2  C   UNL     1      25.200   3.113  13.921  1.00  0.00     0.000 C 
BRANCH   2   3
ATOM      3  C   UNL     1      25.720   2.644  12.551  1.00  0.00     0.000 C 
BRANCH   3   4
ATOM      4  C   UNL     1      26.955   3.433  12.082  1.00  0.00     0.000 C 
BRANCH   4   5
ATOM      5  C   UNL     1      27.744   4.050  13.250  1.00  0.00     0.000 C 
BRANCH   5   6
ATOM      6  C   UNL     1      27.731   5.594  13.222  1.00  0.00     0.000 C 
BRANCH   6   7
ATOM      7  C   UNL     1      28.552   6.237  14.356  1.00  0.00     0.000 C 
BRANCH   7   8
ATOM      8  C   UNL     1      29.046   7.666  14.065  1.00  0.00     0.000 C 
BRANCH   8   9
ATOM      9  C   UNL     1      28.761   8.181  12.638  1.00  0.00     0.000 C 
BRANCH   9  10
ATOM     10  C   UNL     1      28.434   9.681  12.539  1.00  0.00     0.000 C 
BRANCH  10  11
ATOM     11  C   UNL     1      27.042   9.948  11.940  1.00  0.00     0.000 C 
BRANCH  11  12
ATOM     12  C   UNL     1      26.498  11.339  12.307  1.00  0.00     0.006 C 
BRANCH  12  13
ATOM     13  C   UNL     1      27.521  12.186  13.079  1.00  0.00     0.053 C 
BRANCH  13  14
ATOM     14  C   UNL     1      28.160  13.198  12.178  1.00  0.00     0.041 C 
ATOM     15  O   UNL     1      29.412  13.224  12.041  1.00  0.00    -0.550 OA
ATOM     16  O   UNL     1      27.374  14.130  11.511  1.00  0.00    -0.550 OA
ENDBRANCH  13  14
ENDBRANCH  12  13
ENDBRANCH  11  12
ENDBRANCH  10  11
ENDBRANCH   9  10
ENDBRANCH   8   9
ENDBRANCH   7   8
ENDBRANCH   6   7
ENDBRANCH   5   6
ENDBRANCH   4   5
ENDBRANCH   3   4
ENDBRANCH   2   3
ENDBRANCH   1   2
BRANCH   1  17
ATOM     17  C   UNL     1      23.606   4.681  15.171  1.00  0.00     0.000 C 
BRANCH  17  18
ATOM     18  C   UNL     1      23.568   6.205  15.376  1.00  0.00     0.000 C 
BRANCH  18  19
ATOM     19  C   UNL     1      23.570   6.982  14.048  1.00  0.00     0.000 C 
BRANCH  19  20
ATOM     20  C   UNL     1      24.580   8.144  14.035  1.00  0.00     0.000 C 
BRANCH  20  21
ATOM     21  C   UNL     1      25.532   8.191  15.244  1.00  0.00     0.000 C 
BRANCH  21  22
ATOM     22  C   UNL     1      26.021   9.598  15.642  1.00  0.00    -0.000 C 
BRANCH  22  23
ATOM     23  C   UNL     1      25.714   9.977  17.107  1.00  0.00    -0.000 C 
BRANCH  23  24
ATOM     24  C   UNL     1      25.190   8.787  17.930  1.00  0.00    -0.000 C 
BRANCH  24  25
ATOM     25  C   UNL     1      23.830   9.070  18.594  1.00  0.00    -0.000 C 
BRANCH  25  26
ATOM     26  C   UNL     1      22.600   8.596  17.797  1.00  0.00    -0.000 C 
BRANCH  26  27
ATOM     27  C   UNL     1      21.367   9.490  18.010  1.00  0.00    -0.000 C 
BRANCH  27  28
ATOM     28  C   UNL     1      21.164  10.514  16.877  1.00  0.00    -0.000 C 
BRANCH  28  29
ATOM     29  C   UNL     1      22.045  10.288  15.634  1.00  0.00    -0.003 C 
ATOM     30  C   UNL     1      22.841  11.529  15.228  1.00  0.00     0.004 C 
ENDBRANCH  28  29
ENDBRANCH  27  28
ENDBRANCH  26  27
ENDBRANCH  25  26
ENDBRANCH  24  25
ENDBRANCH  23  24
ENDBRANCH  22  23
ENDBRANCH  21  22
ENDBRANCH  20  21
ENDBRANCH  19  20
ENDBRANCH  18  19
ENDBRANCH  17  18
ENDBRANCH   1  17
TORSDOF 26
ENDMDL
MODEL 2
REMARK VINA RESULT:    -4.310      4.763      9.502
REMARK INTER + INTRA:         -15.563
REMARK INTER:                 -12.118
REMARK INTRA:                  -3.446
REMARK UNBOUND:                -4.703
REMARK SMILES CCCCCCCCCCCCCCCCCCCCCCCCCCCC(=O)[O-]
REMARK SMILES IDX 15 1 16 2 17 3 18 4 19 5 20 6 21 7 22 8 23 9 24 10 25 11
REMARK SMILES IDX 26 12 27 13 28 14 29 15 30 16 14 17 13 18 12 19 11 20 10 21
REMARK SMILES IDX 9 22 8 23 7 24 6 25 5 26 4 27 3 28 2 29 1 30
REMARK H PARENT
REMARK Flexibility Score: inf
ROOT
ATOM      1  C   UNL     1      16.710  13.387  17.415  1.00  0.00     0.000 C 
ENDROOT
BRANCH   1   2
ATOM      2  C   UNL     1      16.957  14.751  16.750  1.00  0.00     0.000 C 
BRANCH   2   3
ATOM      3  C   UNL     1      17.455  14.625  15.300  1.00  0.00     0.000 C 
BRANCH   3   4
ATOM      4  C   UNL     1      18.984  14.488  15.206  1.00  0.00     0.000 C 
BRANCH   4   5
ATOM      5  C   UNL     1      19.563  15.150  13.943  1.00  0.00     0.000 C 
BRANCH   5   6
ATOM      6  C   UNL     1      21.104  15.063  13.884  1.00  0.00     0.000 C 
BRANCH   6   7
ATOM      7  C   UNL     1      21.621  13.913  12.998  1.00  0.00     0.000 C 
BRANCH   7   8
ATOM      8  C   UNL     1      21.967  12.619  13.758  1.00  0.00     0.000 C 
BRANCH   8   9
ATOM      9  C   UNL     1      21.132  11.383  13.365  1.00  0.00     0.000 C 
BRANCH   9  10
ATOM     10  C   UNL     1      19.697  11.686  12.899  1.00  0.00     0.000 C 
BRANCH  10  11
ATOM     11  C   UNL     1      19.271  10.833  11.692  1.00  0.00     0.000 C 
BRANCH  11  12
ATOM     12  C   UNL     1      18.709  11.681  10.539  1.00  0.00     0.006 C 
BRANCH  12  13
ATOM     13  C   UNL     1      18.561  13.163  10.916  1.00  0.00     0.053 C 
BRANCH  13  14
ATOM     14  C   UNL     1      17.120  13.572  10.905  1.00  0.00     0.041 C 
ATOM     15  O   UNL     1      16.741  14.576  11.564  1.00  0.00    -0.550 OA
ATOM     16  O   UNL     1      16.191  12.827  10.188  1.00  0.00    -0.550 OA
ENDBRANCH  13  14
ENDBRANCH  12  13
ENDBRANCH  11  12
ENDBRANCH  10  11
ENDBRANCH   9  10
ENDBRANCH   8   9
ENDBRANCH   7   8
ENDBRANCH   6   7
ENDBRANCH   5   6
ENDBRANCH   4   5
ENDBRANCH   3   4
ENDBRANCH   2   3
ENDBRANCH   1   2
BRANCH   1  17
ATOM     17  C   UNL     1      17.179  13.345  18.880  1.00  0.00     0.000 C 
BRANCH  17  18
ATOM     18  C   UNL     1      18.585  13.941  19.063  1.00  0.00     0.000 C 
BRANCH  18  19
ATOM     19  C   UNL     1      19.661  12.863  19.286  1.00  0.00     0.000 C 
BRANCH  19  20
ATOM     20  C   UNL     1      20.547  12.635  18.048  1.00  0.00     0.000 C 
BRANCH  20  21
ATOM     21  C   UNL     1      20.037  11.557  17.074  1.00  0.00     0.000 C 
BRANCH  21  22
ATOM     22  C   UNL     1      20.979  10.353  16.873  1.00  0.00    -0.000 C 
BRANCH  22  23
ATOM     23  C   UNL     1      21.745   9.938  18.149  1.00  0.00    -0.000 C 
BRANCH  23  24
ATOM     24  C   UNL     1      22.736   8.788  17.897  1.00  0.00    -0.000 C 
BRANCH  24  25
ATOM     25  C   UNL     1      22.747   8.317  16.431  1.00  0.00    -0.000 C 
BRANCH  25  26
ATOM     26  C   UNL     1      23.412   6.948  16.188  1.00  0.00    -0.000 C 
BRANCH  26  27
ATOM     27  C   UNL     1      23.730   6.693  14.704  1.00  0.00    -0.000 C 
BRANCH  27  28
ATOM     28  C   UNL     1      23.416   5.251  14.263  1.00  0.00    -0.000 C 
BRANCH  28  29
ATOM     29  C   UNL     1      24.562   4.243  14.474  1.00  0.00    -0.003 C 
ATOM     30  C   UNL     1      24.983   3.534  13.188  1.00  0.00     0.004 C 
ENDBRANCH  28  29
ENDBRANCH  27  28
ENDBRANCH  26  27
ENDBRANCH  25  26
ENDBRANCH  24  25
ENDBRANCH  23  24
ENDBRANCH  22  23
ENDBRANCH  21  22
ENDBRANCH  20  21
ENDBRANCH  19  20
ENDBRANCH  18  19
ENDBRANCH  17  18
ENDBRANCH   1  17
TORSDOF 26
ENDMDL
MODEL 3
REMARK VINA RESULT:    -4.276      5.479      9.416
REMARK INTER + INTRA:         -15.479
REMARK INTER:                 -13.051
REMARK INTRA:                  -2.428
REMARK UNBOUND:                -4.703
REMARK SMILES CCCCCCCCCCCCCCCCCCCCCCCCCCCC(=O)[O-]
REMARK SMILES IDX 15 1 16 2 17 3 18 4 19 5 20 6 21 7 22 8 23 9 24 10 25 11
REMARK SMILES IDX 26 12 27 13 28 14 29 15 30 16 14 17 13 18 12 19 11 20 10 21
REMARK SMILES IDX 9 22 8 23 7 24 6 25 5 26 4 27 3 28 2 29 1 30
REMARK H PARENT
REMARK Flexibility Score: inf
ROOT
ATOM      1  C   UNL     1      20.169  11.621  17.078  1.00  0.00     0.000 C 
ENDROOT
BRANCH   1   2
ATOM      2  C   UNL     1      21.171  11.546  15.914  1.00  0.00     0.000 C 
BRANCH   2   3
ATOM      3  C   UNL     1      20.984  12.683  14.895  1.00  0.00     0.000 C 
BRANCH   3   4
ATOM      4  C   UNL     1      21.383  12.272  13.467  1.00  0.00     0.000 C 
BRANCH   4   5
ATOM      5  C   UNL     1      20.235  11.590  12.702  1.00  0.00     0.000 C 
BRANCH   5   6
ATOM      6  C   UNL     1      19.236  12.606  12.108  1.00  0.00     0.000 C 
BRANCH   6   7
ATOM      7  C   UNL     1      18.991  12.414  10.598  1.00  0.00     0.000 C 
BRANCH   7   8
ATOM      8  C   UNL     1      18.688  10.966  10.173  1.00  0.00     0.000 C 
BRANCH   8   9
ATOM      9  C   UNL     1      17.294  10.441  10.576  1.00  0.00     0.000 C 
BRANCH   9  10
ATOM     10  C   UNL     1      16.110  11.116   9.863  1.00  0.00     0.000 C 
BRANCH  10  11
ATOM     11  C   UNL     1      15.471  10.218   8.790  1.00  0.00     0.000 C 
BRANCH  11  12
ATOM     12  C   UNL     1      16.107   8.819   8.736  1.00  0.00     0.006 C 
BRANCH  12  13
ATOM     13  C   UNL     1      16.411   8.366   7.300  1.00  0.00     0.053 C 
BRANCH  13  14
ATOM     14  C   UNL     1      17.861   8.023   7.147  1.00  0.00     0.041 C 
ATOM     15  O   UNL     1      18.700   8.430   7.994  1.00  0.00    -0.550 OA
ATOM     16  O   UNL     1      18.289   7.278   6.055  1.00  0.00    -0.550 OA
ENDBRANCH  13  14
ENDBRANCH  12  13
ENDBRANCH  11  12
ENDBRANCH  10  11
ENDBRANCH   9  10
ENDBRANCH   8   9
ENDBRANCH   7   8
ENDBRANCH   6   7
ENDBRANCH   5   6
ENDBRANCH   4   5
ENDBRANCH   3   4
ENDBRANCH   2   3
ENDBRANCH   1   2
BRANCH   1  17
ATOM     17  C   UNL     1      20.817  11.320  18.441  1.00  0.00     0.000 C 
BRANCH  17  18
ATOM     18  C   UNL     1      22.010  10.357  18.323  1.00  0.00     0.000 C 
BRANCH  18  19
ATOM     19  C   UNL     1      21.574   8.894  18.126  1.00  0.00     0.000 C 
BRANCH  19  20
ATOM     20  C   UNL     1      22.577   8.076  17.292  1.00  0.00     0.000 C 
BRANCH  20  21
ATOM     21  C   UNL     1      23.931   8.766  17.046  1.00  0.00     0.000 C 
BRANCH  21  22
ATOM     22  C   UNL     1      24.155   9.283  15.611  1.00  0.00    -0.000 C 
BRANCH  22  23
ATOM     23  C   UNL     1      23.187   8.678  14.570  1.00  0.00    -0.000 C 
BRANCH  23  24
ATOM     24  C   UNL     1      23.781   7.454  13.849  1.00  0.00    -0.000 C 
BRANCH  24  25
ATOM     25  C   UNL     1      22.855   6.225  13.896  1.00  0.00    -0.000 C 
BRANCH  25  26
ATOM     26  C   UNL     1      23.339   5.074  14.798  1.00  0.00    -0.000 C 
BRANCH  26  27
ATOM     27  C   UNL     1      24.797   4.667  14.518  1.00  0.00    -0.000 C 
BRANCH  27  28
ATOM     28  C   UNL     1      24.913   3.480  13.543  1.00  0.00    -0.000 C 
BRANCH  28  29
ATOM     29  C   UNL     1      26.304   2.821  13.486  1.00  0.00    -0.003 C 
ATOM     30  C   UNL     1      27.253   3.507  12.503  1.00  0.00     0.004 C 
ENDBRANCH  28  29
ENDBRANCH  27  28
ENDBRANCH  26  27
ENDBRANCH  25  26
ENDBRANCH  24  25
ENDBRANCH  23  24
ENDBRANCH  22  23
ENDBRANCH  21  22
ENDBRANCH  20  21
ENDBRANCH  19  20
ENDBRANCH  18  19
ENDBRANCH  17  18
ENDBRANCH   1  17
TORSDOF 26
ENDMDL
MODEL 4
REMARK VINA RESULT:    -4.252      2.067      5.640
REMARK INTER + INTRA:         -15.418
REMARK INTER:                 -11.789
REMARK INTRA:                  -3.629
REMARK UNBOUND:                -4.703
REMARK SMILES CCCCCCCCCCCCCCCCCCCCCCCCCCCC(=O)[O-]
REMARK SMILES IDX 15 1 16 2 17 3 18 4 19 5 20 6 21 7 22 8 23 9 24 10 25 11
REMARK SMILES IDX 26 12 27 13 28 14 29 15 30 16 14 17 13 18 12 19 11 20 10 21
REMARK SMILES IDX 9 22 8 23 7 24 6 25 5 26 4 27 3 28 2 29 1 30
REMARK H PARENT
REMARK Flexibility Score: inf
ROOT
ATOM      1  C   UNL     1      28.212   7.693  12.110  1.00  0.00     0.000 C 
ENDROOT
BRANCH   1   2
ATOM      2  C   UNL     1      28.140   9.107  11.510  1.00  0.00     0.000 C 
BRANCH   2   3
ATOM      3  C   UNL     1      27.939  10.197  12.576  1.00  0.00     0.000 C 
BRANCH   3   4
ATOM      4  C   UNL     1      26.484  10.693  12.652  1.00  0.00     0.000 C 
BRANCH   4   5
ATOM      5  C   UNL     1      26.064  11.087  14.079  1.00  0.00     0.000 C 
BRANCH   5   6
ATOM      6  C   UNL     1      25.689  12.580  14.193  1.00  0.00     0.000 C 
BRANCH   6   7
ATOM      7  C   UNL     1      26.768  13.434  14.885  1.00  0.00     0.000 C 
BRANCH   7   8
ATOM      8  C   UNL     1      27.447  14.476  13.975  1.00  0.00     0.000 C 
BRANCH   8   9
ATOM      9  C   UNL     1      28.343  13.891  12.863  1.00  0.00     0.000 C 
BRANCH   9  10
ATOM     10  C   UNL     1      27.746  13.951  11.446  1.00  0.00     0.000 C 
BRANCH  10  11
ATOM     11  C   UNL     1      27.755  15.371  10.856  1.00  0.00     0.000 C 
BRANCH  11  12
ATOM     12  C   UNL     1      26.344  15.880  10.518  1.00  0.00     0.006 C 
BRANCH  12  13
ATOM     13  C   UNL     1      25.243  14.917  10.990  1.00  0.00     0.053 C 
BRANCH  13  14
ATOM     14  C   UNL     1      24.245  15.632  11.847  1.00  0.00     0.041 C 
ATOM     15  O   UNL     1      24.567  16.027  12.999  1.00  0.00    -0.550 OA
ATOM     16  O   UNL     1      22.950  15.838  11.385  1.00  0.00    -0.550 OA
ENDBRANCH  13  14
ENDBRANCH  12  13
ENDBRANCH  11  12
ENDBRANCH  10  11
ENDBRANCH   9  10
ENDBRANCH   8   9
ENDBRANCH   7   8
ENDBRANCH   6   7
ENDBRANCH   5   6
ENDBRANCH   4   5
ENDBRANCH   3   4
ENDBRANCH   2   3
ENDBRANCH   1   2
BRANCH   1  17
ATOM     17  C   UNL     1      28.676   7.693  13.577  1.00  0.00     0.000 C 
BRANCH  17  18
ATOM     18  C   UNL     1      28.261   6.413  14.322  1.00  0.00     0.000 C 
BRANCH  18  19
ATOM     19  C   UNL     1      27.129   5.651  13.609  1.00  0.00     0.000 C 
BRANCH  19  20
ATOM     20  C   UNL     1      27.507   4.199  13.267  1.00  0.00     0.000 C 
BRANCH  20  21
ATOM     21  C   UNL     1      26.327   3.210  13.237  1.00  0.00     0.000 C 
BRANCH  21  22
ATOM     22  C   UNL     1      24.929   3.853  13.318  1.00  0.00    -0.000 C 
BRANCH  22  23
ATOM     23  C   UNL     1      24.257   3.720  14.702  1.00  0.00    -0.000 C 
BRANCH  23  24
ATOM     24  C   UNL     1      23.564   5.019  15.152  1.00  0.00    -0.000 C 
BRANCH  24  25
ATOM     25  C   UNL     1      22.887   5.770  13.990  1.00  0.00    -0.000 C 
BRANCH  25  26
ATOM     26  C   UNL     1      23.322   7.238  13.818  1.00  0.00    -0.000 C 
BRANCH  26  27
ATOM     27  C   UNL     1      24.292   7.708  14.916  1.00  0.00    -0.000 C 
BRANCH  27  28
ATOM     28  C   UNL     1      23.644   8.694  15.907  1.00  0.00    -0.000 C 
BRANCH  28  29
ATOM     29  C   UNL     1      23.029   8.044  17.160  1.00  0.00    -0.003 C 
ATOM     30  C   UNL     1      21.837   8.822  17.717  1.00  0.00     0.004 C 
ENDBRANCH  28  29
ENDBRANCH  27  28
ENDBRANCH  26  27
ENDBRANCH  25  26
ENDBRANCH  24  25
ENDBRANCH  23  24
ENDBRANCH  22  23
ENDBRANCH  21  22
ENDBRANCH  20  21
ENDBRANCH  19  20
ENDBRANCH  18  19
ENDBRANCH  17  18
ENDBRANCH   1  17
TORSDOF 26
ENDMDL
MODEL 5
REMARK VINA RESULT:    -4.227      3.035      6.410
REMARK INTER + INTRA:         -15.356
REMARK INTER:                 -11.122
REMARK INTRA:                  -4.234
REMARK UNBOUND:                -4.703
REMARK SMILES CCCCCCCCCCCCCCCCCCCCCCCCCCCC(=O)[O-]
REMARK SMILES IDX 15 1 16 2 17 3 18 4 19 5 20 6 21 7 22 8 23 9 24 10 25 11
REMARK SMILES IDX 26 12 27 13 28 14 29 15 30 16 14 17 13 18 12 19 11 20 10 21
REMARK SMILES IDX 9 22 8 23 7 24 6 25 5 26 4 27 3 28 2 29 1 30
REMARK H PARENT
REMARK Flexibility Score: inf
ROOT
ATOM      1  C   UNL     1      30.167   9.344  14.324  1.00  0.00     0.000 C 
ENDROOT
BRANCH   1   2
ATOM      2  C   UNL     1      29.233   8.536  15.240  1.00  0.00     0.000 C 
BRANCH   2   3
ATOM      3  C   UNL     1      29.064   7.078  14.780  1.00  0.00     0.000 C 
BRANCH   3   4
ATOM      4  C   UNL     1      27.589   6.681  14.591  1.00  0.00     0.000 C 
BRANCH   4   5
ATOM      5  C   UNL     1      26.616   7.789  15.032  1.00  0.00     0.000 C 
BRANCH   5   6
ATOM      6  C   UNL     1      25.447   7.976  14.040  1.00  0.00     0.000 C 
BRANCH   6   7
ATOM      7  C   UNL     1      24.059   7.867  14.699  1.00  0.00     0.000 C 
BRANCH   7   8
ATOM      8  C   UNL     1      22.959   7.283  13.793  1.00  0.00     0.000 C 
BRANCH   8   9
ATOM      9  C   UNL     1      22.872   5.743  13.773  1.00  0.00     0.000 C 
BRANCH   9  10
ATOM     10  C   UNL     1      23.295   5.049  15.079  1.00  0.00     0.000 C 
BRANCH  10  11
ATOM     11  C   UNL     1      24.137   3.785  14.836  1.00  0.00     0.000 C 
BRANCH  11  12
ATOM     12  C   UNL     1      25.302   4.030  13.863  1.00  0.00     0.006 C 
BRANCH  12  13
ATOM     13  C   UNL     1      25.810   2.733  13.213  1.00  0.00     0.053 C 
BRANCH  13  14
ATOM     14  C   UNL     1      27.178   2.930  12.636  1.00  0.00     0.041 C 
ATOM     15  O   UNL     1      27.314   3.401  11.476  1.00  0.00    -0.550 OA
ATOM     16  O   UNL     1      28.302   2.567  13.369  1.00  0.00    -0.550 OA
ENDBRANCH  13  14
ENDBRANCH  12  13
ENDBRANCH  11  12
ENDBRANCH  10  11
ENDBRANCH   9  10
ENDBRANCH   8   9
ENDBRANCH   7   8
ENDBRANCH   6   7
ENDBRANCH   5   6
ENDBRANCH   4   5
ENDBRANCH   3   4
ENDBRANCH   2   3
ENDBRANCH   1   2
BRANCH   1  17
ATOM     17  C   UNL     1      30.353   8.694  12.942  1.00  0.00     0.000 C 
BRANCH  17  18
ATOM     18  C   UNL     1      29.590   9.441  11.835  1.00  0.00     0.000 C 
BRANCH  18  19
ATOM     19  C   UNL     1      28.178   8.874  11.601  1.00  0.00     0.000 C 
BRANCH  19  20
ATOM     20  C   UNL     1      27.072   9.931  11.770  1.00  0.00     0.000 C 
BRANCH  20  21
ATOM     21  C   UNL     1      27.472  11.164  12.600  1.00  0.00     0.000 C 
BRANCH  21  22
ATOM     22  C   UNL     1      26.628  11.406  13.867  1.00  0.00    -0.000 C 
BRANCH  22  23
ATOM     23  C   UNL     1      26.162  12.868  14.040  1.00  0.00    -0.000 C 
BRANCH  23  24
ATOM     24  C   UNL     1      24.686  13.069  13.655  1.00  0.00    -0.000 C 
BRANCH  24  25
ATOM     25  C   UNL     1      23.711  12.481  14.692  1.00  0.00    -0.000 C 
BRANCH  25  26
ATOM     26  C   UNL     1      22.858  11.300  14.192  1.00  0.00    -0.000 C 
BRANCH  26  27
ATOM     27  C   UNL     1      21.762  10.888  15.191  1.00  0.00    -0.000 C 
BRANCH  27  28
ATOM     28  C   UNL     1      22.323  10.519  16.578  1.00  0.00    -0.000 C 
BRANCH  28  29
ATOM     29  C   UNL     1      21.272  10.034  17.595  1.00  0.00    -0.003 C 
ATOM     30  C   UNL     1      21.609   8.673  18.203  1.00  0.00     0.004 C 
ENDBRANCH  28  29
ENDBRANCH  27  28
ENDBRANCH  26  27
ENDBRANCH  25  26
ENDBRANCH  24  25
ENDBRANCH  23  24
ENDBRANCH  22  23
ENDBRANCH  21  22
ENDBRANCH  20  21
ENDBRANCH  19  20
ENDBRANCH  18  19
ENDBRANCH  17  18
ENDBRANCH   1  17
TORSDOF 26
ENDMDL
MODEL 6
REMARK VINA RESULT:    -4.165      3.006      7.245
REMARK INTER + INTRA:         -15.198
REMARK INTER:                 -10.303
REMARK INTRA:                  -4.895
REMARK UNBOUND:                -4.703
REMARK SMILES CCCCCCCCCCCCCCCCCCCCCCCCCCCC(=O)[O-]
REMARK SMILES IDX 15 1 16 2 17 3 18 4 19 5 20 6 21 7 22 8 23 9 24 10 25 11
REMARK SMILES IDX 26 12 27 13 28 14 29 15 30 16 14 17 13 18 12 19 11 20 10 21
REMARK SMILES IDX 9 22 8 23 7 24 6 25 5 26 4 27 3 28 2 29 1 30
REMARK H PARENT
REMARK Flexibility Score: inf
ROOT
ATOM      1  C   UNL     1      24.401   9.875  17.717  1.00  0.00     0.000 C 
ENDROOT
BRANCH   1   2
ATOM      2  C   UNL     1      23.410   8.747  18.046  1.00  0.00     0.000 C 
BRANCH   2   3
ATOM      3  C   UNL     1      21.942   9.191  17.931  1.00  0.00     0.000 C 
BRANCH   3   4
ATOM      4  C   UNL     1      21.796  10.627  17.398  1.00  0.00     0.000 C 
BRANCH   4   5
ATOM      5  C   UNL     1      21.209  10.676  15.976  1.00  0.00     0.000 C 
BRANCH   5   6
ATOM      6  C   UNL     1      22.302  10.739  14.888  1.00  0.00     0.000 C 
BRANCH   6   7
ATOM      7  C   UNL     1      22.400   9.456  14.041  1.00  0.00     0.000 C 
BRANCH   7   8
ATOM      8  C   UNL     1      23.608   8.558  14.368  1.00  0.00     0.000 C 
BRANCH   8   9
ATOM      9  C   UNL     1      23.385   7.048  14.140  1.00  0.00     0.000 C 
BRANCH   9  10
ATOM     10  C   UNL     1      23.272   6.205  15.422  1.00  0.00     0.000 C 
BRANCH  10  11
ATOM     11  C   UNL     1      23.622   4.725  15.193  1.00  0.00     0.000 C 
BRANCH  11  12
ATOM     12  C   UNL     1      24.513   4.513  13.958  1.00  0.00     0.006 C 
BRANCH  12  13
ATOM     13  C   UNL     1      25.122   3.103  13.905  1.00  0.00     0.053 C 
BRANCH  13  14
ATOM     14  C   UNL     1      26.008   2.953  12.707  1.00  0.00     0.041 C 
ATOM     15  O   UNL     1      25.802   2.026  11.879  1.00  0.00    -0.550 OA
ATOM     16  O   UNL     1      27.078   3.820  12.519  1.00  0.00    -0.550 OA
ENDBRANCH  13  14
ENDBRANCH  12  13
ENDBRANCH  11  12
ENDBRANCH  10  11
ENDBRANCH   9  10
ENDBRANCH   8   9
ENDBRANCH   7   8
ENDBRANCH   6   7
ENDBRANCH   5   6
ENDBRANCH   4   5
ENDBRANCH   3   4
ENDBRANCH   2   3
ENDBRANCH   1   2
BRANCH   1  17
ATOM     17  C   UNL     1      25.833   9.360  17.486  1.00  0.00     0.000 C 
BRANCH  17  18
ATOM     18  C   UNL     1      26.041   7.940  18.038  1.00  0.00     0.000 C 
BRANCH  18  19
ATOM     19  C   UNL     1      26.623   6.975  16.990  1.00  0.00     0.000 C 
BRANCH  19  20
ATOM     20  C   UNL     1      26.813   7.633  15.611  1.00  0.00     0.000 C 
BRANCH  20  21
ATOM     21  C   UNL     1      27.369   6.701  14.518  1.00  0.00     0.000 C 
BRANCH  21  22
ATOM     22  C   UNL     1      28.527   7.284  13.684  1.00  0.00    -0.000 C 
BRANCH  22  23
ATOM     23  C   UNL     1      28.143   7.620  12.226  1.00  0.00    -0.000 C 
BRANCH  23  24
ATOM     24  C   UNL     1      28.704   8.977  11.763  1.00  0.00    -0.000 C 
BRANCH  24  25
ATOM     25  C   UNL     1      28.170  10.160  12.591  1.00  0.00    -0.000 C 
BRANCH  25  26
ATOM     26  C   UNL     1      26.640  10.194  12.775  1.00  0.00    -0.000 C 
BRANCH  26  27
ATOM     27  C   UNL     1      26.180  11.272  13.771  1.00  0.00    -0.000 C 
BRANCH  27  28
ATOM     28  C   UNL     1      25.201  12.285  13.149  1.00  0.00    -0.000 C 
BRANCH  28  29
ATOM     29  C   UNL     1      25.799  13.675  12.863  1.00  0.00    -0.003 C 
ATOM     30  C   UNL     1      26.802  13.672  11.709  1.00  0.00     0.004 C 
ENDBRANCH  28  29
ENDBRANCH  27  28
ENDBRANCH  26  27
ENDBRANCH  25  26
ENDBRANCH  24  25
ENDBRANCH  23  24
ENDBRANCH  22  23
ENDBRANCH  21  22
ENDBRANCH  20  21
ENDBRANCH  19  20
ENDBRANCH  18  19
ENDBRANCH  17  18
ENDBRANCH   1  17
TORSDOF 26
ENDMDL
MODEL 7
REMARK VINA RESULT:    -4.125      3.747      7.759
REMARK INTER + INTRA:         -15.097
REMARK INTER:                 -11.520
REMARK INTRA:                  -3.577
REMARK UNBOUND:                -4.703
REMARK SMILES CCCCCCCCCCCCCCCCCCCCCCCCCCCC(=O)[O-]
REMARK SMILES IDX 15 1 16 2 17 3 18 4 19 5 20 6 21 7 22 8 23 9 24 10 25 11
REMARK SMILES IDX 26 12 27 13 28 14 29 15 30 16 14 17 13 18 12 19 11 20 10 21
REMARK SMILES IDX 9 22 8 23 7 24 6 25 5 26 4 27 3 28 2 29 1 30
REMARK H PARENT
REMARK Flexibility Score: inf
ROOT
ATOM      1  C   UNL     1      29.845   9.748  11.763  1.00  0.00     0.000 C 
ENDROOT
BRANCH   1   2
ATOM      2  C   UNL     1      28.633   8.801  11.733  1.00  0.00     0.000 C 
BRANCH   2   3
ATOM      3  C   UNL     1      27.291   9.550  11.790  1.00  0.00     0.000 C 
BRANCH   3   4
ATOM      4  C   UNL     1      26.621   9.464  13.173  1.00  0.00     0.000 C 
BRANCH   4   5
ATOM      5  C   UNL     1      27.046   8.213  13.962  1.00  0.00     0.000 C 
BRANCH   5   6
ATOM      6  C   UNL     1      25.858   7.534  14.676  1.00  0.00     0.000 C 
BRANCH   6   7
ATOM      7  C   UNL     1      24.592   8.410  14.731  1.00  0.00     0.000 C 
BRANCH   7   8
ATOM      8  C   UNL     1      23.277   7.631  14.926  1.00  0.00     0.000 C 
BRANCH   8   9
ATOM      9  C   UNL     1      23.419   6.272  15.643  1.00  0.00     0.000 C 
BRANCH   9  10
ATOM     10  C   UNL     1      23.140   5.039  14.766  1.00  0.00     0.000 C 
BRANCH  10  11
ATOM     11  C   UNL     1      24.294   4.023  14.784  1.00  0.00     0.000 C 
BRANCH  11  12
ATOM     12  C   UNL     1      24.853   3.740  13.379  1.00  0.00     0.006 C 
BRANCH  12  13
ATOM     13  C   UNL     1      26.389   3.691  13.356  1.00  0.00     0.053 C 
BRANCH  13  14
ATOM     14  C   UNL     1      26.870   2.326  12.971  1.00  0.00     0.041 C 
ATOM     15  O   UNL     1      26.192   1.615  12.182  1.00  0.00    -0.550 OA
ATOM     16  O   UNL     1      28.053   1.828  13.504  1.00  0.00    -0.550 OA
ENDBRANCH  13  14
ENDBRANCH  12  13
ENDBRANCH  11  12
ENDBRANCH  10  11
ENDBRANCH   9  10
ENDBRANCH   8   9
ENDBRANCH   7   8
ENDBRANCH   6   7
ENDBRANCH   5   6
ENDBRANCH   4   5
ENDBRANCH   3   4
ENDBRANCH   2   3
ENDBRANCH   1   2
BRANCH   1  17
ATOM     17  C   UNL     1      30.334  10.042  13.192  1.00  0.00     0.000 C 
BRANCH  17  18
ATOM     18  C   UNL     1      30.267  11.539  13.539  1.00  0.00     0.000 C 
BRANCH  18  19
ATOM     19  C   UNL     1      29.580  12.371  12.441  1.00  0.00     0.000 C 
BRANCH  19  20
ATOM     20  C   UNL     1      28.220  12.941  12.884  1.00  0.00     0.000 C 
BRANCH  20  21
ATOM     21  C   UNL     1      27.370  13.549  11.753  1.00  0.00     0.000 C 
BRANCH  21  22
ATOM     22  C   UNL     1      27.943  14.831  11.117  1.00  0.00    -0.000 C 
BRANCH  22  23
ATOM     23  C   UNL     1      26.866  15.802  10.586  1.00  0.00    -0.000 C 
BRANCH  23  24
ATOM     24  C   UNL     1      25.448  15.206  10.646  1.00  0.00    -0.000 C 
BRANCH  24  25
ATOM     25  C   UNL     1      24.415  16.176  11.249  1.00  0.00    -0.000 C 
BRANCH  25  26
ATOM     26  C   UNL     1      24.260  16.100  12.780  1.00  0.00    -0.000 C 
BRANCH  26  27
ATOM     27  C   UNL     1      23.581  14.801  13.249  1.00  0.00    -0.000 C 
BRANCH  27  28
ATOM     28  C   UNL     1      24.523  13.891  14.060  1.00  0.00    -0.000 C 
BRANCH  28  29
ATOM     29  C   UNL     1      24.376  12.385  13.771  1.00  0.00    -0.003 C 
ATOM     30  C   UNL     1      23.093  11.785  14.345  1.00  0.00     0.004 C 
ENDBRANCH  28  29
ENDBRANCH  27  28
ENDBRANCH  26  27
ENDBRANCH  25  26
ENDBRANCH  24  25
ENDBRANCH  23  24
ENDBRANCH  22  23
ENDBRANCH  21  22
ENDBRANCH  20  21
ENDBRANCH  19  20
ENDBRANCH  18  19
ENDBRANCH  17  18
ENDBRANCH   1  17
TORSDOF 26
ENDMDL
MODEL 8
REMARK VINA RESULT:    -4.110      2.783      5.747
REMARK INTER + INTRA:         -15.060
REMARK INTER:                 -10.214
REMARK INTRA:                  -4.846
REMARK UNBOUND:                -4.703
REMARK SMILES CCCCCCCCCCCCCCCCCCCCCCCCCCCC(=O)[O-]
REMARK SMILES IDX 15 1 16 2 17 3 18 4 19 5 20 6 21 7 22 8 23 9 24 10 25 11
REMARK SMILES IDX 26 12 27 13 28 14 29 15 30 16 14 17 13 18 12 19 11 20 10 21
REMARK SMILES IDX 9 22 8 23 7 24 6 25 5 26 4 27 3 28 2 29 1 30
REMARK H PARENT
REMARK Flexibility Score: inf
ROOT
ATOM      1  C   UNL     1      28.397   7.512  12.546  1.00  0.00     0.000 C 
ENDROOT
BRANCH   1   2
ATOM      2  C   UNL     1      29.524   8.202  13.332  1.00  0.00     0.000 C 
BRANCH   2   3
ATOM      3  C   UNL     1      30.406   9.098  12.446  1.00  0.00     0.000 C 
BRANCH   3   4
ATOM      4  C   UNL     1      29.623  10.260  11.810  1.00  0.00     0.000 C 
BRANCH   4   5
ATOM      5  C   UNL     1      29.514  11.482  12.739  1.00  0.00     0.000 C 
BRANCH   5   6
ATOM      6  C   UNL     1      28.056  11.949  12.933  1.00  0.00     0.000 C 
BRANCH   6   7
ATOM      7  C   UNL     1      27.014  10.952  12.389  1.00  0.00     0.000 C 
BRANCH   7   8
ATOM      8  C   UNL     1      25.954  10.505  13.412  1.00  0.00     0.000 C 
BRANCH   8   9
ATOM      9  C   UNL     1      25.838  11.393  14.669  1.00  0.00     0.000 C 
BRANCH   9  10
ATOM     10  C   UNL     1      26.196  10.698  15.994  1.00  0.00     0.000 C 
BRANCH  10  11
ATOM     11  C   UNL     1      27.710  10.680  16.267  1.00  0.00     0.000 C 
BRANCH  11  12
ATOM     12  C   UNL     1      28.240   9.265  16.554  1.00  0.00     0.006 C 
BRANCH  12  13
ATOM     13  C   UNL     1      27.752   8.715  17.903  1.00  0.00     0.053 C 
BRANCH  13  14
ATOM     14  C   UNL     1      27.953   7.233  17.975  1.00  0.00     0.041 C 
ATOM     15  O   UNL     1      28.850   6.681  17.286  1.00  0.00    -0.550 OA
ATOM     16  O   UNL     1      27.130   6.458  18.784  1.00  0.00    -0.550 OA
ENDBRANCH  13  14
ENDBRANCH  12  13
ENDBRANCH  11  12
ENDBRANCH  10  11
ENDBRANCH   9  10
ENDBRANCH   8   9
ENDBRANCH   7   8
ENDBRANCH   6   7
ENDBRANCH   5   6
ENDBRANCH   4   5
ENDBRANCH   3   4
ENDBRANCH   2   3
ENDBRANCH   1   2
BRANCH   1  17
ATOM     17  C   UNL     1      27.173   7.190  13.421  1.00  0.00     0.000 C 
BRANCH  17  18
ATOM     18  C   UNL     1      27.276   5.807  14.087  1.00  0.00     0.000 C 
BRANCH  18  19
ATOM     19  C   UNL     1      27.518   4.676  13.071  1.00  0.00     0.000 C 
BRANCH  19  20
ATOM     20  C   UNL     1      26.588   3.468  13.287  1.00  0.00     0.000 C 
BRANCH  20  21
ATOM     21  C   UNL     1      25.085   3.800  13.302  1.00  0.00     0.000 C 
BRANCH  21  22
ATOM     22  C   UNL     1      24.367   3.539  14.641  1.00  0.00    -0.000 C 
BRANCH  22  23
ATOM     23  C   UNL     1      23.563   4.749  15.166  1.00  0.00    -0.000 C 
BRANCH  23  24
ATOM     24  C   UNL     1      23.197   5.746  14.053  1.00  0.00    -0.000 C 
BRANCH  24  25
ATOM     25  C   UNL     1      23.611   7.192  14.384  1.00  0.00    -0.000 C 
BRANCH  25  26
ATOM     26  C   UNL     1      24.385   7.366  15.705  1.00  0.00    -0.000 C 
BRANCH  26  27
ATOM     27  C   UNL     1      23.520   7.954  16.832  1.00  0.00    -0.000 C 
BRANCH  27  28
ATOM     28  C   UNL     1      22.858   9.290  16.446  1.00  0.00    -0.000 C 
BRANCH  28  29
ATOM     29  C   UNL     1      21.552   9.609  17.198  1.00  0.00    -0.003 C 
ATOM     30  C   UNL     1      21.373   8.779  18.469  1.00  0.00     0.004 C 
ENDBRANCH  28  29
ENDBRANCH  27  28
ENDBRANCH  26  27
ENDBRANCH  25  26
ENDBRANCH  24  25
ENDBRANCH  23  24
ENDBRANCH  22  23
ENDBRANCH  21  22
ENDBRANCH  20  21
ENDBRANCH  19  20
ENDBRANCH  18  19
ENDBRANCH  17  18
ENDBRANCH   1  17
TORSDOF 26
ENDMDL
MODEL 9
REMARK VINA RESULT:    -4.067      2.041      4.579
REMARK INTER + INTRA:         -14.952
REMARK INTER:                  -9.396
REMARK INTRA:                  -5.555
REMARK UNBOUND:                -4.703
REMARK SMILES CCCCCCCCCCCCCCCCCCCCCCCCCCCC(=O)[O-]
REMARK SMILES IDX 15 1 16 2 17 3 18 4 19 5 20 6 21 7 22 8 23 9 24 10 25 11
REMARK SMILES IDX 26 12 27 13 28 14 29 15 30 16 14 17 13 18 12 19 11 20 10 21
REMARK SMILES IDX 9 22 8 23 7 24 6 25 5 26 4 27 3 28 2 29 1 30
REMARK H PARENT
REMARK Flexibility Score: inf
ROOT
ATOM      1  C   UNL     1      27.459   8.349  12.864  1.00  0.00     0.000 C 
ENDROOT
BRANCH   1   2
ATOM      2  C   UNL     1      28.122   8.938  11.607  1.00  0.00     0.000 C 
BRANCH   2   3
ATOM      3  C   UNL     1      29.275   9.901  11.938  1.00  0.00     0.000 C 
BRANCH   3   4
ATOM      4  C   UNL     1      30.518   9.175  12.481  1.00  0.00     0.000 C 
BRANCH   4   5
ATOM      5  C   UNL     1      31.025   9.775  13.805  1.00  0.00     0.000 C 
BRANCH   5   6
ATOM      6  C   UNL     1      30.348   9.140  15.038  1.00  0.00     0.000 C 
BRANCH   6   7
ATOM      7  C   UNL     1      29.766  10.175  16.020  1.00  0.00     0.000 C 
BRANCH   7   8
ATOM      8  C   UNL     1      28.785  11.181  15.390  1.00  0.00     0.000 C 
BRANCH   8   9
ATOM      9  C   UNL     1      27.292  10.901  15.662  1.00  0.00     0.000 C 
BRANCH   9  10
ATOM     10  C   UNL     1      26.331  11.338  14.542  1.00  0.00     0.000 C 
BRANCH  10  11
ATOM     11  C   UNL     1      27.019  12.201  13.471  1.00  0.00     0.000 C 
BRANCH  11  12
ATOM     12  C   UNL     1      26.154  12.381  12.213  1.00  0.00     0.006 C 
BRANCH  12  13
ATOM     13  C   UNL     1      26.523  13.645  11.421  1.00  0.00     0.053 C 
BRANCH  13  14
ATOM     14  C   UNL     1      25.503  14.721  11.633  1.00  0.00     0.041 C 
ATOM     15  O   UNL     1      25.087  15.401  10.658  1.00  0.00    -0.550 OA
ATOM     16  O   UNL     1      25.032  14.991  12.913  1.00  0.00    -0.550 OA
ENDBRANCH  13  14
ENDBRANCH  12  13
ENDBRANCH  11  12
ENDBRANCH  10  11
ENDBRANCH   9  10
ENDBRANCH   8   9
ENDBRANCH   7   8
ENDBRANCH   6   7
ENDBRANCH   5   6
ENDBRANCH   4   5
ENDBRANCH   3   4
ENDBRANCH   2   3
ENDBRANCH   1   2
BRANCH   1  17
ATOM     17  C   UNL     1      27.753   6.849  13.044  1.00  0.00     0.000 C 
BRANCH  17  18
ATOM     18  C   UNL     1      27.713   6.418  14.520  1.00  0.00     0.000 C 
BRANCH  18  19
ATOM     19  C   UNL     1      27.161   7.518  15.445  1.00  0.00     0.000 C 
BRANCH  19  20
ATOM     20  C   UNL     1      26.408   6.954  16.664  1.00  0.00     0.000 C 
BRANCH  20  21
ATOM     21  C   UNL     1      26.774   7.604  18.011  1.00  0.00     0.000 C 
BRANCH  21  22
ATOM     22  C   UNL     1      25.634   8.386  18.694  1.00  0.00    -0.000 C 
BRANCH  22  23
ATOM     23  C   UNL     1      24.720   9.148  17.710  1.00  0.00    -0.000 C 
BRANCH  23  24
ATOM     24  C   UNL     1      23.288   8.585  17.673  1.00  0.00    -0.000 C 
BRANCH  24  25
ATOM     25  C   UNL     1      22.902   8.017  16.295  1.00  0.00    -0.000 C 
BRANCH  25  26
ATOM     26  C   UNL     1      23.492   8.771  15.088  1.00  0.00    -0.000 C 
BRANCH  26  27
ATOM     27  C   UNL     1      23.890   7.835  13.934  1.00  0.00    -0.000 C 
BRANCH  27  28
ATOM     28  C   UNL     1      23.240   6.442  14.039  1.00  0.00    -0.000 C 
BRANCH  28  29
ATOM     29  C   UNL     1      24.232   5.272  14.180  1.00  0.00    -0.003 C 
ATOM     30  C   UNL     1      23.786   4.225  15.200  1.00  0.00     0.004 C 
ENDBRANCH  28  29
ENDBRANCH  27  28
ENDBRANCH  26  27
ENDBRANCH  25  26
ENDBRANCH  24  25
ENDBRANCH  23  24
ENDBRANCH  22  23
ENDBRANCH  21  22
ENDBRANCH  20  21
ENDBRANCH  19  20
ENDBRANCH  18  19
ENDBRANCH  17  18
ENDBRANCH   1  17
TORSDOF 26
ENDMDL
