MODEL 1
REMARK VINA RESULT:    -4.698      0.000      0.000
REMARK INTER + INTRA:          -4.922
REMARK INTER:                  -5.110
REMARK INTRA:                   0.188
REMARK UNBOUND:                 0.188
REMARK SMILES CC1(C)CC[C@@]2(C(=O)[O-])CC[C@@]3(C)C(=CC[C@H]4[C@@]5(C)CC[C@H](O)C(C)(C)[C@@H]5CC[C@@]43C)[C@@H]2C1
REMARK SMILES IDX 6 1 5 2 10 3 32 4 4 5 11 6 14 7 33 8 2 9 12 10 15 11 1 12
REMARK SMILES IDX 3 13 13 14 30 15 16 16 17 17 29 18 31 19 18 20 28 21 27 22
REMARK SMILES IDX 20 23 19 24 24 25 21 26 22 27 25 28 26 29 7 30 8 31 9 32
REMARK SMILES IDX 23 33
REMARK H PARENT 23 34
REMARK Flexibility Score: inf
ROOT
ATOM      1  C   UNL     1      15.788  20.490   3.374  1.00  0.00     0.017 C 
ATOM      2  C   UNL     1      16.089  21.996   3.155  1.00  0.00     0.014 C 
ATOM      3  C   UNL     1      15.647  19.825   1.987  1.00  0.00     0.014 C 
ATOM      4  C   UNL     1      16.992  19.818   4.109  1.00  0.00     0.028 C 
ATOM      5  C   UNL     1      16.388  22.726   4.470  1.00  0.00     0.007 C 
ATOM      6  C   UNL     1      15.380  18.316   2.087  1.00  0.00     0.013 C 
ATOM      7  C   UNL     1      16.771  18.295   4.242  1.00  0.00    -0.064 C 
ATOM      8  C   UNL     1      17.357  20.570   5.425  1.00  0.00     0.015 C 
ATOM      9  C   UNL     1      17.572  22.100   5.246  1.00  0.00    -0.035 C 
ATOM     10  C   UNL     1      16.409  17.508   2.960  1.00  0.00    -0.006 C 
ATOM     11  C   UNL     1      17.176  17.630   5.358  1.00  0.00    -0.027 C 
ATOM     12  C   UNL     1      18.913  22.385   4.525  1.00  0.00     0.011 C 
ATOM     13  C   UNL     1      17.643  22.753   6.643  1.00  0.00     0.011 C 
ATOM     14  C   UNL     1      17.752  17.397   2.155  1.00  0.00     0.017 C 
ATOM     15  C   UNL     1      15.796  16.059   3.329  1.00  0.00    -0.020 C 
ATOM     16  C   UNL     1      17.038  16.146   5.580  1.00  0.00     0.032 C 
ATOM     17  C   UNL     1      16.816  15.329   4.284  1.00  0.00     0.006 C 
ATOM     18  C   UNL     1      15.518  15.216   2.014  1.00  0.00     0.008 C 
ATOM     19  C   UNL     1      14.438  16.220   4.097  1.00  0.00     0.012 C 
ATOM     20  C   UNL     1      16.646  13.745   4.516  1.00  0.00    -0.025 C 
ATOM     21  C   UNL     1      16.093  13.791   2.020  1.00  0.00     0.005 C 
ATOM     22  C   UNL     1      15.776  13.123   3.369  1.00  0.00     0.003 C 
ATOM     23  C   UNL     1      15.966  13.358   5.879  1.00  0.00     0.010 C 
ATOM     24  C   UNL     1      18.100  13.171   4.533  1.00  0.00     0.012 C 
ATOM     25  C   UNL     1      15.646  11.545   3.364  1.00  0.00    -0.006 C 
ATOM     26  C   UNL     1      15.125  12.054   5.865  1.00  0.00     0.033 C 
ATOM     27  C   UNL     1      15.567  10.984   4.841  1.00  0.00     0.120 C 
ATOM     28  C   UNL     1      16.779  10.857   2.557  1.00  0.00     0.014 C 
ATOM     29  C   UNL     1      14.314  11.163   2.653  1.00  0.00     0.014 C 
ENDROOT
BRANCH   1  30
ATOM     30  C   UNL     1      14.465  20.358   4.126  1.00  0.00     0.048 C 
ATOM     31  O   UNL     1      14.375  19.695   5.194  1.00  0.00    -0.550 OA
ATOM     32  O   UNL     1      13.319  20.957   3.616  1.00  0.00    -0.550 OA
ENDBRANCH   1  30
BRANCH  27  33
ATOM     33  O   UNL     1      16.769  10.381   5.250  1.00  0.00    -0.393 OA
ATOM     34  H   UNL     1      17.480  10.677   4.622  1.00  0.00     0.210 HD
ENDBRANCH  27  33
TORSDOF 2
ENDMDL
MODEL 2
REMARK VINA RESULT:    -4.412      3.524      8.624
REMARK INTER + INTRA:          -4.611
REMARK INTER:                  -4.911
REMARK INTRA:                   0.300
REMARK UNBOUND:                 0.188
REMARK SMILES CC1(C)CC[C@@]2(C(=O)[O-])CC[C@@]3(C)C(=CC[C@H]4[C@@]5(C)CC[C@H](O)C(C)(C)[C@@H]5CC[C@@]43C)[C@@H]2C1
REMARK SMILES IDX 6 1 5 2 10 3 32 4 4 5 11 6 14 7 33 8 2 9 12 10 15 11 1 12
REMARK SMILES IDX 3 13 13 14 30 15 16 16 17 17 29 18 31 19 18 20 28 21 27 22
REMARK SMILES IDX 20 23 19 24 24 25 21 26 22 27 25 28 26 29 7 30 8 31 9 32
REMARK SMILES IDX 23 33
REMARK H PARENT 23 34
REMARK Flexibility Score: inf
ROOT
ATOM      1  C   UNL     1      17.286  12.327   3.838  1.00  0.00     0.017 C 
ATOM      2  C   UNL     1      16.932  10.949   3.221  1.00  0.00     0.014 C 
ATOM      3  C   UNL     1      15.978  13.138   3.978  1.00  0.00     0.014 C 
ATOM      4  C   UNL     1      17.880  12.122   5.269  1.00  0.00     0.028 C 
ATOM      5  C   UNL     1      18.141  10.007   3.168  1.00  0.00     0.007 C 
ATOM      6  C   UNL     1      16.211  14.515   4.616  1.00  0.00     0.013 C 
ATOM      7  C   UNL     1      18.139  13.481   5.955  1.00  0.00    -0.064 C 
ATOM      8  C   UNL     1      19.079  11.125   5.258  1.00  0.00     0.015 C 
ATOM      9  C   UNL     1      18.775   9.770   4.560  1.00  0.00    -0.035 C 
ATOM     10  C   UNL     1      16.975  14.500   5.991  1.00  0.00    -0.006 C 
ATOM     11  C   UNL     1      19.224  13.659   6.756  1.00  0.00    -0.027 C 
ATOM     12  C   UNL     1      17.850   8.893   5.441  1.00  0.00     0.011 C 
ATOM     13  C   UNL     1      20.103   9.006   4.369  1.00  0.00     0.011 C 
ATOM     14  C   UNL     1      15.993  13.961   7.089  1.00  0.00     0.017 C 
ATOM     15  C   UNL     1      17.519  15.983   6.332  1.00  0.00    -0.020 C 
ATOM     16  C   UNL     1      19.557  14.928   7.496  1.00  0.00     0.032 C 
ATOM     17  C   UNL     1      18.361  15.897   7.663  1.00  0.00     0.006 C 
ATOM     18  C   UNL     1      16.314  17.006   6.466  1.00  0.00     0.008 C 
ATOM     19  C   UNL     1      18.464  16.495   5.190  1.00  0.00     0.012 C 
ATOM     20  C   UNL     1      18.714  17.266   8.432  1.00  0.00    -0.025 C 
ATOM     21  C   UNL     1      16.327  17.864   7.740  1.00  0.00     0.005 C 
ATOM     22  C   UNL     1      17.747  18.410   7.969  1.00  0.00     0.003 C 
ATOM     23  C   UNL     1      20.183  17.777   8.207  1.00  0.00     0.010 C 
ATOM     24  C   UNL     1      18.557  16.937   9.953  1.00  0.00     0.012 C 
ATOM     25  C   UNL     1      17.860  19.783   8.749  1.00  0.00    -0.006 C 
ATOM     26  C   UNL     1      20.373  19.316   8.246  1.00  0.00     0.033 C 
ATOM     27  C   UNL     1      19.366  20.092   9.125  1.00  0.00     0.120 C 
ATOM     28  C   UNL     1      16.943  19.835   9.999  1.00  0.00     0.014 C 
ATOM     29  C   UNL     1      17.375  20.925   7.808  1.00  0.00     0.014 C 
ENDROOT
BRANCH   1  30
ATOM     30  C   UNL     1      18.228  13.064   2.888  1.00  0.00     0.048 C 
ATOM     31  O   UNL     1      17.798  13.678   1.875  1.00  0.00    -0.550 OA
ATOM     32  O   UNL     1      19.598  13.042   3.121  1.00  0.00    -0.550 OA
ENDBRANCH   1  30
BRANCH  27  33
ATOM     33  O   UNL     1      19.633  19.874  10.488  1.00  0.00    -0.393 OA
ATOM     34  H   UNL     1      20.425  20.425  10.728  1.00  0.00     0.210 HD
ENDBRANCH  27  33
TORSDOF 2
ENDMDL
MODEL 3
REMARK VINA RESULT:    -4.297      2.233      8.464
REMARK INTER + INTRA:          -4.486
REMARK INTER:                  -4.659
REMARK INTRA:                   0.174
REMARK UNBOUND:                 0.188
REMARK SMILES CC1(C)CC[C@@]2(C(=O)[O-])CC[C@@]3(C)C(=CC[C@H]4[C@@]5(C)CC[C@H](O)C(C)(C)[C@@H]5CC[C@@]43C)[C@@H]2C1
REMARK SMILES IDX 6 1 5 2 10 3 32 4 4 5 11 6 14 7 33 8 2 9 12 10 15 11 1 12
REMARK SMILES IDX 3 13 13 14 30 15 16 16 17 17 29 18 31 19 18 20 28 21 27 22
REMARK SMILES IDX 20 23 19 24 24 25 21 26 22 27 25 28 26 29 7 30 8 31 9 32
REMARK SMILES IDX 23 33
REMARK H PARENT 23 34
REMARK Flexibility Score: inf
ROOT
ATOM      1  C   UNL     1      18.054  13.438   4.585  1.00  0.00     0.017 C 
ATOM      2  C   UNL     1      17.770  12.018   4.028  1.00  0.00     0.014 C 
ATOM      3  C   UNL     1      19.048  14.135   3.629  1.00  0.00     0.014 C 
ATOM      4  C   UNL     1      16.732  14.270   4.594  1.00  0.00     0.028 C 
ATOM      5  C   UNL     1      16.684  11.287   4.827  1.00  0.00     0.007 C 
ATOM      6  C   UNL     1      19.374  15.569   4.070  1.00  0.00     0.013 C 
ATOM      7  C   UNL     1      17.003  15.725   5.037  1.00  0.00    -0.064 C 
ATOM      8  C   UNL     1      15.589  13.529   5.352  1.00  0.00     0.015 C 
ATOM      9  C   UNL     1      15.349  12.069   4.874  1.00  0.00    -0.035 C 
ATOM     10  C   UNL     1      18.127  16.499   4.309  1.00  0.00    -0.006 C 
ATOM     11  C   UNL     1      16.103  16.395   5.807  1.00  0.00    -0.027 C 
ATOM     12  C   UNL     1      14.655  12.052   3.489  1.00  0.00     0.011 C 
ATOM     13  C   UNL     1      14.407  11.371   5.879  1.00  0.00     0.011 C 
ATOM     14  C   UNL     1      17.525  16.877   2.911  1.00  0.00     0.017 C 
ATOM     15  C   UNL     1      18.569  17.802   5.156  1.00  0.00    -0.020 C 
ATOM     16  C   UNL     1      16.251  17.820   6.271  1.00  0.00     0.032 C 
ATOM     17  C   UNL     1      17.274  18.649   5.456  1.00  0.00     0.006 C 
ATOM     18  C   UNL     1      19.651  18.647   4.362  1.00  0.00     0.008 C 
ATOM     19  C   UNL     1      19.201  17.375   6.527  1.00  0.00     0.012 C 
ATOM     20  C   UNL     1      17.454  20.167   5.960  1.00  0.00    -0.025 C 
ATOM     21  C   UNL     1      19.344  20.147   4.238  1.00  0.00     0.005 C 
ATOM     22  C   UNL     1      18.891  20.686   5.607  1.00  0.00     0.003 C 
ATOM     23  C   UNL     1      17.253  20.367   7.506  1.00  0.00     0.010 C 
ATOM     24  C   UNL     1      16.335  20.980   5.230  1.00  0.00     0.012 C 
ATOM     25  C   UNL     1      19.175  22.217   5.894  1.00  0.00    -0.006 C 
ATOM     26  C   UNL     1      18.086  21.506   8.151  1.00  0.00     0.033 C 
ATOM     27  C   UNL     1      18.444  22.684   7.217  1.00  0.00     0.120 C 
ATOM     28  C   UNL     1      18.807  23.127   4.693  1.00  0.00     0.014 C 
ATOM     29  C   UNL     1      20.705  22.399   6.123  1.00  0.00     0.014 C 
ENDROOT
BRANCH   1  30
ATOM     30  C   UNL     1      18.700  13.305   5.963  1.00  0.00     0.048 C 
ATOM     31  O   UNL     1      18.163  13.793   6.994  1.00  0.00    -0.550 OA
ATOM     32  O   UNL     1      19.921  12.655   6.093  1.00  0.00    -0.550 OA
ENDBRANCH   1  30
BRANCH  27  33
ATOM     33  O   UNL     1      17.304  23.464   6.952  1.00  0.00    -0.393 OA
ATOM     34  H   UNL     1      17.162  23.461   5.969  1.00  0.00     0.210 HD
ENDBRANCH  27  33
TORSDOF 2
ENDMDL
MODEL 4
REMARK VINA RESULT:    -4.286      2.326      3.773
REMARK INTER + INTRA:          -4.474
REMARK INTER:                  -4.643
REMARK INTRA:                   0.170
REMARK UNBOUND:                 0.188
REMARK SMILES CC1(C)CC[C@@]2(C(=O)[O-])CC[C@@]3(C)C(=CC[C@H]4[C@@]5(C)CC[C@H](O)C(C)(C)[C@@H]5CC[C@@]43C)[C@@H]2C1
REMARK SMILES IDX 6 1 5 2 10 3 32 4 4 5 11 6 14 7 33 8 2 9 12 10 15 11 1 12
REMARK SMILES IDX 3 13 13 14 30 15 16 16 17 17 29 18 31 19 18 20 28 21 27 22
REMARK SMILES IDX 20 23 19 24 24 25 21 26 22 27 25 28 26 29 7 30 8 31 9 32
REMARK SMILES IDX 23 33
REMARK H PARENT 23 34
REMARK Flexibility Score: inf
ROOT
ATOM      1  C   UNL     1      16.646  18.289   6.697  1.00  0.00     0.017 C 
ATOM      2  C   UNL     1      16.287  19.768   6.992  1.00  0.00     0.014 C 
ATOM      3  C   UNL     1      15.453  17.411   7.135  1.00  0.00     0.014 C 
ATOM      4  C   UNL     1      16.845  18.097   5.159  1.00  0.00     0.028 C 
ATOM      5  C   UNL     1      17.349  20.741   6.465  1.00  0.00     0.007 C 
ATOM      6  C   UNL     1      15.690  15.920   6.854  1.00  0.00     0.013 C 
ATOM      7  C   UNL     1      17.094  16.610   4.821  1.00  0.00    -0.064 C 
ATOM      8  C   UNL     1      17.880  19.109   4.580  1.00  0.00     0.015 C 
ATOM      9  C   UNL     1      17.592  20.593   4.943  1.00  0.00    -0.035 C 
ATOM     10  C   UNL     1      16.089  15.571   5.373  1.00  0.00    -0.006 C 
ATOM     11  C   UNL     1      17.965  16.259   3.836  1.00  0.00    -0.027 C 
ATOM     12  C   UNL     1      16.381  21.129   4.140  1.00  0.00     0.011 C 
ATOM     13  C   UNL     1      18.823  21.441   4.558  1.00  0.00     0.011 C 
ATOM     14  C   UNL     1      14.811  15.719   4.474  1.00  0.00     0.017 C 
ATOM     15  C   UNL     1      16.711  14.081   5.310  1.00  0.00    -0.020 C 
ATOM     16  C   UNL     1      18.261  14.846   3.404  1.00  0.00     0.032 C 
ATOM     17  C   UNL     1      17.187  13.815   3.830  1.00  0.00     0.006 C 
ATOM     18  C   UNL     1      15.644  13.007   5.784  1.00  0.00     0.008 C 
ATOM     19  C   UNL     1      17.960  13.969   6.251  1.00  0.00     0.012 C 
ATOM     20  C   UNL     1      17.507  12.300   3.392  1.00  0.00    -0.025 C 
ATOM     21  C   UNL     1      15.450  11.816   4.832  1.00  0.00     0.005 C 
ATOM     22  C   UNL     1      16.828  11.295   4.387  1.00  0.00     0.003 C 
ATOM     23  C   UNL     1      19.038  11.947   3.344  1.00  0.00     0.010 C 
ATOM     24  C   UNL     1      16.946  12.163   1.939  1.00  0.00     0.012 C 
ATOM     25  C   UNL     1      16.915   9.762   4.004  1.00  0.00    -0.006 C 
ATOM     26  C   UNL     1      19.399  10.474   3.671  1.00  0.00     0.033 C 
ATOM     27  C   UNL     1      18.310   9.428   3.337  1.00  0.00     0.120 C 
ATOM     28  C   UNL     1      15.735   9.304   3.107  1.00  0.00     0.014 C 
ATOM     29  C   UNL     1      16.817   8.922   5.312  1.00  0.00     0.014 C 
ENDROOT
BRANCH   1  30
ATOM     30  C   UNL     1      17.874  17.907   7.522  1.00  0.00     0.048 C 
ATOM     31  O   UNL     1      18.959  17.571   6.976  1.00  0.00    -0.550 OA
ATOM     32  O   UNL     1      17.798  17.903   8.910  1.00  0.00    -0.550 OA
ENDBRANCH   1  30
BRANCH  27  33
ATOM     33  O   UNL     1      18.210   9.252   1.945  1.00  0.00    -0.393 OA
ATOM     34  H   UNL     1      17.267   9.013   1.742  1.00  0.00     0.210 HD
ENDBRANCH  27  33
TORSDOF 2
ENDMDL
MODEL 5
REMARK VINA RESULT:    -4.225      1.681      2.552
REMARK INTER + INTRA:          -4.408
REMARK INTER:                  -4.626
REMARK INTRA:                   0.218
REMARK UNBOUND:                 0.188
REMARK SMILES CC1(C)CC[C@@]2(C(=O)[O-])CC[C@@]3(C)C(=CC[C@H]4[C@@]5(C)CC[C@H](O)C(C)(C)[C@@H]5CC[C@@]43C)[C@@H]2C1
REMARK SMILES IDX 6 1 5 2 10 3 32 4 4 5 11 6 14 7 33 8 2 9 12 10 15 11 1 12
REMARK SMILES IDX 3 13 13 14 30 15 16 16 17 17 29 18 31 19 18 20 28 21 27 22
REMARK SMILES IDX 20 23 19 24 24 25 21 26 22 27 25 28 26 29 7 30 8 31 9 32
REMARK SMILES IDX 23 33
REMARK H PARENT 23 34
REMARK Flexibility Score: inf
ROOT
ATOM      1  C   UNL     1      16.736  20.708   5.283  1.00  0.00     0.017 C 
ATOM      2  C   UNL     1      16.804  22.256   5.210  1.00  0.00     0.014 C 
ATOM      3  C   UNL     1      15.253  20.290   5.166  1.00  0.00     0.014 C 
ATOM      4  C   UNL     1      17.507  20.094   4.071  1.00  0.00     0.028 C 
ATOM      5  C   UNL     1      18.248  22.774   5.176  1.00  0.00     0.007 C 
ATOM      6  C   UNL     1      15.073  18.765   5.193  1.00  0.00     0.013 C 
ATOM      7  C   UNL     1      17.362  18.555   4.054  1.00  0.00    -0.064 C 
ATOM      8  C   UNL     1      18.963  20.641   3.975  1.00  0.00     0.015 C 
ATOM      9  C   UNL     1      19.063  22.193   3.995  1.00  0.00    -0.035 C 
ATOM     10  C   UNL     1      15.934  17.968   4.145  1.00  0.00    -0.006 C 
ATOM     11  C   UNL     1      18.400  17.765   3.667  1.00  0.00    -0.027 C 
ATOM     12  C   UNL     1      18.581  22.791   2.650  1.00  0.00     0.011 C 
ATOM     13  C   UNL     1      20.543  22.588   4.180  1.00  0.00     0.011 C 
ATOM     14  C   UNL     1      15.307  18.195   2.724  1.00  0.00     0.017 C 
ATOM     15  C   UNL     1      15.980  16.404   4.549  1.00  0.00    -0.020 C 
ATOM     16  C   UNL     1      18.361  16.262   3.584  1.00  0.00     0.032 C 
ATOM     17  C   UNL     1      16.932  15.667   3.531  1.00  0.00     0.006 C 
ATOM     18  C   UNL     1      14.522  15.780   4.545  1.00  0.00     0.008 C 
ATOM     19  C   UNL     1      16.577  16.229   5.989  1.00  0.00     0.012 C 
ATOM     20  C   UNL     1      16.881  14.059   3.465  1.00  0.00    -0.025 C 
ATOM     21  C   UNL     1      14.374  14.474   3.750  1.00  0.00     0.005 C 
ATOM     22  C   UNL     1      15.544  13.536   4.095  1.00  0.00     0.003 C 
ATOM     23  C   UNL     1      18.062  13.341   4.213  1.00  0.00     0.010 C 
ATOM     24  C   UNL     1      16.999  13.705   1.947  1.00  0.00     0.012 C 
ATOM     25  C   UNL     1      15.268  11.982   3.965  1.00  0.00    -0.006 C 
ATOM     26  C   UNL     1      17.727  11.955   4.824  1.00  0.00     0.033 C 
ATOM     27  C   UNL     1      16.612  11.160   4.108  1.00  0.00     0.120 C 
ATOM     28  C   UNL     1      14.519  11.618   2.656  1.00  0.00     0.014 C 
ATOM     29  C   UNL     1      14.335  11.548   5.134  1.00  0.00     0.014 C 
ENDROOT
BRANCH   1  30
ATOM     30  C   UNL     1      17.274  20.256   6.640  1.00  0.00     0.048 C 
ATOM     31  O   UNL     1      16.669  20.522   7.713  1.00  0.00    -0.550 OA
ATOM     32  O   UNL     1      18.473  19.556   6.708  1.00  0.00    -0.550 OA
ENDBRANCH   1  30
BRANCH  27  33
ATOM     33  O   UNL     1      17.075  10.670   2.874  1.00  0.00    -0.393 OA
ATOM     34  H   UNL     1      18.041  10.462   2.978  1.00  0.00     0.210 HD
ENDBRANCH  27  33
TORSDOF 2
ENDMDL
MODEL 6
REMARK VINA RESULT:    -4.133      2.283      3.130
REMARK INTER + INTRA:          -4.308
REMARK INTER:                  -4.512
REMARK INTRA:                   0.204
REMARK UNBOUND:                 0.188
REMARK SMILES CC1(C)CC[C@@]2(C(=O)[O-])CC[C@@]3(C)C(=CC[C@H]4[C@@]5(C)CC[C@H](O)C(C)(C)[C@@H]5CC[C@@]43C)[C@@H]2C1
REMARK SMILES IDX 6 1 5 2 10 3 32 4 4 5 11 6 14 7 33 8 2 9 12 10 15 11 1 12
REMARK SMILES IDX 3 13 13 14 30 15 16 16 17 17 29 18 31 19 18 20 28 21 27 22
REMARK SMILES IDX 20 23 19 24 24 25 21 26 22 27 25 28 26 29 7 30 8 31 9 32
REMARK SMILES IDX 23 33
REMARK H PARENT 23 34
REMARK Flexibility Score: inf
ROOT
ATOM      1  C   UNL     1      18.087  19.440   6.597  1.00  0.00     0.017 C 
ATOM      2  C   UNL     1      18.834  20.709   7.084  1.00  0.00     0.014 C 
ATOM      3  C   UNL     1      18.347  19.285   5.082  1.00  0.00     0.014 C 
ATOM      4  C   UNL     1      18.670  18.182   7.316  1.00  0.00     0.028 C 
ATOM      5  C   UNL     1      18.758  20.880   8.606  1.00  0.00     0.007 C 
ATOM      6  C   UNL     1      17.677  18.032   4.500  1.00  0.00     0.013 C 
ATOM      7  C   UNL     1      18.023  16.890   6.770  1.00  0.00    -0.064 C 
ATOM      8  C   UNL     1      18.657  18.346   8.866  1.00  0.00     0.015 C 
ATOM      9  C   UNL     1      19.319  19.659   9.373  1.00  0.00    -0.035 C 
ATOM     10  C   UNL     1      18.015  16.684   5.236  1.00  0.00    -0.006 C 
ATOM     11  C   UNL     1      17.753  15.844   7.598  1.00  0.00    -0.027 C 
ATOM     12  C   UNL     1      20.860  19.585   9.235  1.00  0.00     0.011 C 
ATOM     13  C   UNL     1      18.990  19.828  10.872  1.00  0.00     0.011 C 
ATOM     14  C   UNL     1      19.487  16.283   4.870  1.00  0.00     0.017 C 
ATOM     15  C   UNL     1      16.949  15.545   4.814  1.00  0.00    -0.020 C 
ATOM     16  C   UNL     1      17.153  14.531   7.170  1.00  0.00     0.032 C 
ATOM     17  C   UNL     1      17.266  14.248   5.652  1.00  0.00     0.006 C 
ATOM     18  C   UNL     1      17.013  15.267   3.254  1.00  0.00     0.008 C 
ATOM     19  C   UNL     1      15.490  16.006   5.164  1.00  0.00     0.012 C 
ATOM     20  C   UNL     1      16.608  12.856   5.182  1.00  0.00    -0.025 C 
ATOM     21  C   UNL     1      17.141  13.787   2.861  1.00  0.00     0.005 C 
ATOM     22  C   UNL     1      16.144  12.956   3.688  1.00  0.00     0.003 C 
ATOM     23  C   UNL     1      15.361  12.409   6.029  1.00  0.00     0.010 C 
ATOM     24  C   UNL     1      17.725  11.782   5.384  1.00  0.00     0.012 C 
ATOM     25  C   UNL     1      15.617  11.618   3.025  1.00  0.00    -0.006 C 
ATOM     26  C   UNL     1      14.287  11.592   5.265  1.00  0.00     0.033 C 
ATOM     27  C   UNL     1      14.806  10.754   4.073  1.00  0.00     0.120 C 
ATOM     28  C   UNL     1      16.755  10.791   2.370  1.00  0.00     0.014 C 
ATOM     29  C   UNL     1      14.636  11.991   1.875  1.00  0.00     0.014 C 
ENDROOT
BRANCH   1  30
ATOM     30  C   UNL     1      16.589  19.634   6.826  1.00  0.00     0.048 C 
ATOM     31  O   UNL     1      15.973  19.009   7.731  1.00  0.00    -0.550 OA
ATOM     32  O   UNL     1      15.872  20.498   6.008  1.00  0.00    -0.550 OA
ENDBRANCH   1  30
BRANCH  27  33
ATOM     33  O   UNL     1      15.537   9.646   4.534  1.00  0.00    -0.393 OA
ATOM     34  H   UNL     1      14.905   8.883   4.613  1.00  0.00     0.210 HD
ENDBRANCH  27  33
TORSDOF 2
ENDMDL
MODEL 7
REMARK VINA RESULT:    -4.094      1.837      3.525
REMARK INTER + INTRA:          -4.266
REMARK INTER:                  -4.438
REMARK INTRA:                   0.172
REMARK UNBOUND:                 0.188
REMARK SMILES CC1(C)CC[C@@]2(C(=O)[O-])CC[C@@]3(C)C(=CC[C@H]4[C@@]5(C)CC[C@H](O)C(C)(C)[C@@H]5CC[C@@]43C)[C@@H]2C1
REMARK SMILES IDX 6 1 5 2 10 3 32 4 4 5 11 6 14 7 33 8 2 9 12 10 15 11 1 12
REMARK SMILES IDX 3 13 13 14 30 15 16 16 17 17 29 18 31 19 18 20 28 21 27 22
REMARK SMILES IDX 20 23 19 24 24 25 21 26 22 27 25 28 26 29 7 30 8 31 9 32
REMARK SMILES IDX 23 33
REMARK H PARENT 23 34
REMARK Flexibility Score: inf
ROOT
ATOM      1  C   UNL     1      16.976  19.962   5.334  1.00  0.00     0.017 C 
ATOM      2  C   UNL     1      16.623  21.435   5.664  1.00  0.00     0.014 C 
ATOM      3  C   UNL     1      16.715  19.113   6.598  1.00  0.00     0.014 C 
ATOM      4  C   UNL     1      16.035  19.440   4.202  1.00  0.00     0.028 C 
ATOM      5  C   UNL     1      16.712  22.345   4.433  1.00  0.00     0.007 C 
ATOM      6  C   UNL     1      17.001  17.622   6.370  1.00  0.00     0.013 C 
ATOM      7  C   UNL     1      16.287  17.941   3.927  1.00  0.00    -0.064 C 
ATOM      8  C   UNL     1      16.061  20.374   2.953  1.00  0.00     0.015 C 
ATOM      9  C   UNL     1      15.802  21.873   3.274  1.00  0.00    -0.035 C 
ATOM     10  C   UNL     1      16.268  16.977   5.137  1.00  0.00    -0.006 C 
ATOM     11  C   UNL     1      16.220  17.446   2.662  1.00  0.00    -0.027 C 
ATOM     12  C   UNL     1      14.310  22.111   3.617  1.00  0.00     0.011 C 
ATOM     13  C   UNL     1      16.133  22.709   2.019  1.00  0.00     0.011 C 
ATOM     14  C   UNL     1      14.751  16.811   5.504  1.00  0.00     0.017 C 
ATOM     15  C   UNL     1      16.962  15.568   4.761  1.00  0.00    -0.020 C 
ATOM     16  C   UNL     1      16.418  16.001   2.284  1.00  0.00     0.032 C 
ATOM     17  C   UNL     1      16.260  15.010   3.464  1.00  0.00     0.006 C 
ATOM     18  C   UNL     1      16.853  14.547   5.971  1.00  0.00     0.008 C 
ATOM     19  C   UNL     1      18.484  15.777   4.440  1.00  0.00     0.012 C 
ATOM     20  C   UNL     1      16.493  13.466   3.073  1.00  0.00    -0.025 C 
ATOM     21  C   UNL     1      16.307  13.159   5.605  1.00  0.00     0.005 C 
ATOM     22  C   UNL     1      16.998  12.664   4.322  1.00  0.00     0.003 C 
ATOM     23  C   UNL     1      17.535  13.238   1.919  1.00  0.00     0.010 C 
ATOM     24  C   UNL     1      15.106  12.956   2.564  1.00  0.00     0.012 C 
ATOM     25  C   UNL     1      17.124  11.096   4.145  1.00  0.00    -0.006 C 
ATOM     26  C   UNL     1      18.339  11.914   1.991  1.00  0.00     0.033 C 
ATOM     27  C   UNL     1      17.624  10.734   2.689  1.00  0.00     0.120 C 
ATOM     28  C   UNL     1      15.808  10.351   4.493  1.00  0.00     0.014 C 
ATOM     29  C   UNL     1      18.196  10.572   5.146  1.00  0.00     0.014 C 
ENDROOT
BRANCH   1  30
ATOM     30  C   UNL     1      18.460  19.880   4.979  1.00  0.00     0.048 C 
ATOM     31  O   UNL     1      18.846  19.533   3.830  1.00  0.00    -0.550 OA
ATOM     32  O   UNL     1      19.417  20.170   5.944  1.00  0.00    -0.550 OA
ENDBRANCH   1  30
BRANCH  27  33
ATOM     33  O   UNL     1      16.590  10.237   1.876  1.00  0.00    -0.393 OA
ATOM     34  H   UNL     1      16.635  10.719   1.008  1.00  0.00     0.210 HD
ENDBRANCH  27  33
TORSDOF 2
ENDMDL
MODEL 8
REMARK VINA RESULT:    -4.068      2.737      8.394
REMARK INTER + INTRA:          -4.236
REMARK INTER:                  -4.411
REMARK INTRA:                   0.174
REMARK UNBOUND:                 0.188
REMARK SMILES CC1(C)CC[C@@]2(C(=O)[O-])CC[C@@]3(C)C(=CC[C@H]4[C@@]5(C)CC[C@H](O)C(C)(C)[C@@H]5CC[C@@]43C)[C@@H]2C1
REMARK SMILES IDX 6 1 5 2 10 3 32 4 4 5 11 6 14 7 33 8 2 9 12 10 15 11 1 12
REMARK SMILES IDX 3 13 13 14 30 15 16 16 17 17 29 18 31 19 18 20 28 21 27 22
REMARK SMILES IDX 20 23 19 24 24 25 21 26 22 27 25 28 26 29 7 30 8 31 9 32
REMARK SMILES IDX 23 33
REMARK H PARENT 23 34
REMARK Flexibility Score: inf
ROOT
ATOM      1  C   UNL     1      18.169  12.530   3.030  1.00  0.00     0.017 C 
ATOM      2  C   UNL     1      17.906  11.394   2.008  1.00  0.00     0.014 C 
ATOM      3  C   UNL     1      18.461  13.825   2.240  1.00  0.00     0.014 C 
ATOM      4  C   UNL     1      16.886  12.768   3.889  1.00  0.00     0.028 C 
ATOM      5  C   UNL     1      17.466  10.091   2.686  1.00  0.00     0.007 C 
ATOM      6  C   UNL     1      18.703  15.029   3.162  1.00  0.00     0.013 C 
ATOM      7  C   UNL     1      17.079  13.969   4.841  1.00  0.00    -0.064 C 
ATOM      8  C   UNL     1      16.381  11.450   4.550  1.00  0.00     0.015 C 
ATOM      9  C   UNL     1      16.199  10.268   3.556  1.00  0.00    -0.035 C 
ATOM     10  C   UNL     1      17.577  15.299   4.227  1.00  0.00    -0.006 C 
ATOM     11  C   UNL     1      16.547  13.955   6.093  1.00  0.00    -0.027 C 
ATOM     12  C   UNL     1      14.949  10.486   2.666  1.00  0.00     0.011 C 
ATOM     13  C   UNL     1      15.976   8.974   4.367  1.00  0.00     0.011 C 
ATOM     14  C   UNL     1      16.333  15.897   3.480  1.00  0.00     0.017 C 
ATOM     15  C   UNL     1      18.134  16.290   5.375  1.00  0.00    -0.020 C 
ATOM     16  C   UNL     1      16.648  15.079   7.091  1.00  0.00     0.032 C 
ATOM     17  C   UNL     1      17.008  16.450   6.468  1.00  0.00     0.006 C 
ATOM     18  C   UNL     1      18.552  17.689   4.755  1.00  0.00     0.008 C 
ATOM     19  C   UNL     1      19.399  15.670   6.066  1.00  0.00     0.012 C 
ATOM     20  C   UNL     1      17.140  17.652   7.530  1.00  0.00    -0.025 C 
ATOM     21  C   UNL     1      17.970  18.918   5.470  1.00  0.00     0.005 C 
ATOM     22  C   UNL     1      18.128  18.742   6.991  1.00  0.00     0.003 C 
ATOM     23  C   UNL     1      17.659  17.212   8.947  1.00  0.00     0.010 C 
ATOM     24  C   UNL     1      15.689  18.205   7.710  1.00  0.00     0.012 C 
ATOM     25  C   UNL     1      18.247  20.068   7.848  1.00  0.00    -0.006 C 
ATOM     26  C   UNL     1      18.487  18.272   9.719  1.00  0.00     0.033 C 
ATOM     27  C   UNL     1      18.155  19.746   9.394  1.00  0.00     0.120 C 
ATOM     28  C   UNL     1      17.207  21.141   7.431  1.00  0.00     0.014 C 
ATOM     29  C   UNL     1      19.647  20.699   7.589  1.00  0.00     0.014 C 
ENDROOT
BRANCH   1  30
ATOM     30  C   UNL     1      19.399  12.168   3.861  1.00  0.00     0.048 C 
ATOM     31  O   UNL     1      19.313  11.916   5.093  1.00  0.00    -0.550 OA
ATOM     32  O   UNL     1      20.652  12.135   3.261  1.00  0.00    -0.550 OA
ENDBRANCH   1  30
BRANCH  27  33
ATOM     33  O   UNL     1      16.910  20.101   9.943  1.00  0.00    -0.393 OA
ATOM     34  H   UNL     1      16.282  20.247   9.187  1.00  0.00     0.210 HD
ENDBRANCH  27  33
TORSDOF 2
ENDMDL
MODEL 9
REMARK VINA RESULT:    -3.926      2.010      8.439
REMARK INTER + INTRA:          -4.083
REMARK INTER:                  -4.248
REMARK INTRA:                   0.166
REMARK UNBOUND:                 0.188
REMARK SMILES CC1(C)CC[C@@]2(C(=O)[O-])CC[C@@]3(C)C(=CC[C@H]4[C@@]5(C)CC[C@H](O)C(C)(C)[C@@H]5CC[C@@]43C)[C@@H]2C1
REMARK SMILES IDX 6 1 5 2 10 3 32 4 4 5 11 6 14 7 33 8 2 9 12 10 15 11 1 12
REMARK SMILES IDX 3 13 13 14 30 15 16 16 17 17 29 18 31 19 18 20 28 21 27 22
REMARK SMILES IDX 20 23 19 24 24 25 21 26 22 27 25 28 26 29 7 30 8 31 9 32
REMARK SMILES IDX 23 33
REMARK H PARENT 23 34
REMARK Flexibility Score: inf
ROOT
ATOM      1  C   UNL     1      16.287  11.093   4.441  1.00  0.00     0.017 C 
ATOM      2  C   UNL     1      16.334   9.581   4.780  1.00  0.00     0.014 C 
ATOM      3  C   UNL     1      15.142  11.730   5.259  1.00  0.00     0.014 C 
ATOM      4  C   UNL     1      17.626  11.769   4.881  1.00  0.00     0.028 C 
ATOM      5  C   UNL     1      17.529   8.875   4.127  1.00  0.00     0.007 C 
ATOM      6  C   UNL     1      15.028  13.244   5.024  1.00  0.00     0.013 C 
ATOM      7  C   UNL     1      17.567  13.297   4.660  1.00  0.00    -0.064 C 
ATOM      8  C   UNL     1      18.865  11.041   4.277  1.00  0.00     0.015 C 
ATOM      9  C   UNL     1      18.886   9.506   4.524  1.00  0.00    -0.035 C 
ATOM     10  C   UNL     1      16.354  14.060   5.244  1.00  0.00    -0.006 C 
ATOM     11  C   UNL     1      18.667  13.981   4.247  1.00  0.00    -0.027 C 
ATOM     12  C   UNL     1      19.224   9.193   6.003  1.00  0.00     0.011 C 
ATOM     13  C   UNL     1      19.992   8.882   3.647  1.00  0.00     0.011 C 
ATOM     14  C   UNL     1      16.628  14.141   6.788  1.00  0.00     0.017 C 
ATOM     15  C   UNL     1      16.216  15.522   4.571  1.00  0.00    -0.020 C 
ATOM     16  C   UNL     1      18.731  15.471   4.028  1.00  0.00     0.032 C 
ATOM     17  C   UNL     1      17.600  16.263   4.729  1.00  0.00     0.006 C 
ATOM     18  C   UNL     1      15.034  16.340   5.242  1.00  0.00     0.008 C 
ATOM     19  C   UNL     1      15.906  15.391   3.039  1.00  0.00     0.012 C 
ATOM     20  C   UNL     1      17.647  17.853   4.482  1.00  0.00    -0.025 C 
ATOM     21  C   UNL     1      15.402  17.759   5.702  1.00  0.00     0.005 C 
ATOM     22  C   UNL     1      16.205  18.459   4.591  1.00  0.00     0.003 C 
ATOM     23  C   UNL     1      18.226  18.275   3.083  1.00  0.00     0.010 C 
ATOM     24  C   UNL     1      18.609  18.412   5.579  1.00  0.00     0.012 C 
ATOM     25  C   UNL     1      16.101  20.037   4.530  1.00  0.00    -0.006 C 
ATOM     26  C   UNL     1      17.651  19.586   2.485  1.00  0.00     0.033 C 
ATOM     27  C   UNL     1      17.158  20.630   3.513  1.00  0.00     0.120 C 
ATOM     28  C   UNL     1      16.230  20.697   5.928  1.00  0.00     0.014 C 
ATOM     29  C   UNL     1      14.687  20.417   4.000  1.00  0.00     0.014 C 
ENDROOT
BRANCH   1  30
ATOM     30  C   UNL     1      15.984  11.254   2.953  1.00  0.00     0.048 C 
ATOM     31  O   UNL     1      16.808  11.791   2.165  1.00  0.00    -0.550 OA
ATOM     32  O   UNL     1      14.763  10.825   2.447  1.00  0.00    -0.550 OA
ENDBRANCH   1  30
BRANCH  27  33
ATOM     33  O   UNL     1      18.250  21.230   4.164  1.00  0.00    -0.393 OA
ATOM     34  H   UNL     1      18.371  20.766   5.034  1.00  0.00     0.210 HD
ENDBRANCH  27  33
TORSDOF 2
ENDMDL
