MODEL 1
REMARK VINA RESULT:    -3.421      0.000      0.000
REMARK INTER + INTRA:         -12.881
REMARK INTER:                  -8.621
REMARK INTRA:                  -4.259
REMARK UNBOUND:                -4.259
REMARK SMILES CCCCCCCCCCCCCCCCCCCCCCCCCCCC(=O)[O-]
REMARK SMILES IDX 15 1 16 2 17 3 18 4 19 5 20 6 21 7 22 8 23 9 24 10 25 11
REMARK SMILES IDX 26 12 27 13 28 14 29 15 30 16 14 17 13 18 12 19 11 20 10 21
REMARK SMILES IDX 9 22 8 23 7 24 6 25 5 26 4 27 3 28 2 29 1 30
REMARK H PARENT
REMARK Flexibility Score: inf
ROOT
ATOM      1  C   UNL     1      24.853  23.404  14.094  1.00  0.00     0.000 C 
ENDROOT
BRANCH   1   2
ATOM      2  C   UNL     1      23.658  22.557  13.604  1.00  0.00     0.000 C 
BRANCH   2   3
ATOM      3  C   UNL     1      22.271  23.067  14.030  1.00  0.00     0.000 C 
BRANCH   3   4
ATOM      4  C   UNL     1      22.107  23.148  15.555  1.00  0.00     0.000 C 
BRANCH   4   5
ATOM      5  C   UNL     1      21.995  21.747  16.168  1.00  0.00     0.000 C 
BRANCH   5   6
ATOM      6  C   UNL     1      22.503  21.735  17.617  1.00  0.00     0.000 C 
BRANCH   6   7
ATOM      7  C   UNL     1      23.910  21.124  17.750  1.00  0.00     0.000 C 
BRANCH   7   8
ATOM      8  C   UNL     1      24.631  21.440  19.076  1.00  0.00     0.000 C 
BRANCH   8   9
ATOM      9  C   UNL     1      26.166  21.547  18.977  1.00  0.00     0.000 C 
BRANCH   9  10
ATOM     10  C   UNL     1      26.811  20.687  17.874  1.00  0.00     0.000 C 
BRANCH  10  11
ATOM     11  C   UNL     1      27.878  19.722  18.418  1.00  0.00     0.000 C 
BRANCH  11  12
ATOM     12  C   UNL     1      28.573  18.912  17.307  1.00  0.00     0.006 C 
BRANCH  12  13
ATOM     13  C   UNL     1      29.629  19.698  16.513  1.00  0.00     0.053 C 
BRANCH  13  14
ATOM     14  C   UNL     1      29.867  19.108  15.157  1.00  0.00     0.041 C 
ATOM     15  O   UNL     1      30.652  19.671  14.349  1.00  0.00    -0.550 OA
ATOM     16  O   UNL     1      29.247  17.919  14.798  1.00  0.00    -0.550 OA
ENDBRANCH  13  14
ENDBRANCH  12  13
ENDBRANCH  11  12
ENDBRANCH  10  11
ENDBRANCH   9  10
ENDBRANCH   8   9
ENDBRANCH   7   8
ENDBRANCH   6   7
ENDBRANCH   5   6
ENDBRANCH   4   5
ENDBRANCH   3   4
ENDBRANCH   2   3
ENDBRANCH   1   2
BRANCH   1  17
ATOM     17  C   UNL     1      25.752  22.743  15.157  1.00  0.00     0.000 C 
BRANCH  17  18
ATOM     18  C   UNL     1      26.318  23.708  16.222  1.00  0.00     0.000 C 
BRANCH  18  19
ATOM     19  C   UNL     1      25.353  24.844  16.612  1.00  0.00     0.000 C 
BRANCH  19  20
ATOM     20  C   UNL     1      24.912  24.845  18.087  1.00  0.00     0.000 C 
BRANCH  20  21
ATOM     21  C   UNL     1      23.465  25.315  18.342  1.00  0.00     0.000 C 
BRANCH  21  22
ATOM     22  C   UNL     1      22.837  24.815  19.656  1.00  0.00    -0.000 C 
BRANCH  22  23
ATOM     23  C   UNL     1      21.370  25.238  19.816  1.00  0.00    -0.000 C 
BRANCH  23  24
ATOM     24  C   UNL     1      21.146  26.649  19.256  1.00  0.00    -0.000 C 
BRANCH  24  25
ATOM     25  C   UNL     1      21.084  27.689  20.385  1.00  0.00    -0.000 C 
BRANCH  25  26
ATOM     26  C   UNL     1      22.474  28.184  20.825  1.00  0.00    -0.000 C 
BRANCH  26  27
ATOM     27  C   UNL     1      23.106  29.256  19.919  1.00  0.00    -0.000 C 
BRANCH  27  28
ATOM     28  C   UNL     1      24.315  28.735  19.126  1.00  0.00    -0.000 C 
BRANCH  28  29
ATOM     29  C   UNL     1      25.455  28.256  20.038  1.00  0.00    -0.003 C 
ATOM     30  C   UNL     1      26.244  29.409  20.658  1.00  0.00     0.004 C 
ENDBRANCH  28  29
ENDBRANCH  27  28
ENDBRANCH  26  27
ENDBRANCH  25  26
ENDBRANCH  24  25
ENDBRANCH  23  24
ENDBRANCH  22  23
ENDBRANCH  21  22
ENDBRANCH  20  21
ENDBRANCH  19  20
ENDBRANCH  18  19
ENDBRANCH  17  18
ENDBRANCH   1  17
TORSDOF 26
ENDMDL
MODEL 2
REMARK VINA RESULT:    -3.355      2.940      8.152
REMARK INTER + INTRA:         -12.713
REMARK INTER:                  -8.751
REMARK INTRA:                  -3.962
REMARK UNBOUND:                -4.259
REMARK SMILES CCCCCCCCCCCCCCCCCCCCCCCCCCCC(=O)[O-]
REMARK SMILES IDX 15 1 16 2 17 3 18 4 19 5 20 6 21 7 22 8 23 9 24 10 25 11
REMARK SMILES IDX 26 12 27 13 28 14 29 15 30 16 14 17 13 18 12 19 11 20 10 21
REMARK SMILES IDX 9 22 8 23 7 24 6 25 5 26 4 27 3 28 2 29 1 30
REMARK H PARENT
REMARK Flexibility Score: inf
ROOT
ATOM      1  C   UNL     1      24.668  22.602  14.724  1.00  0.00     0.000 C 
ENDROOT
BRANCH   1   2
ATOM      2  C   UNL     1      25.678  23.769  14.787  1.00  0.00     0.000 C 
BRANCH   2   3
ATOM      3  C   UNL     1      26.009  24.277  16.200  1.00  0.00     0.000 C 
BRANCH   3   4
ATOM      4  C   UNL     1      24.761  24.680  16.998  1.00  0.00     0.000 C 
BRANCH   4   5
ATOM      5  C   UNL     1      25.049  24.670  18.504  1.00  0.00     0.000 C 
BRANCH   5   6
ATOM      6  C   UNL     1      23.746  24.623  19.316  1.00  0.00     0.000 C 
BRANCH   6   7
ATOM      7  C   UNL     1      22.536  25.166  18.534  1.00  0.00     0.000 C 
BRANCH   7   8
ATOM      8  C   UNL     1      21.321  25.549  19.402  1.00  0.00     0.000 C 
BRANCH   8   9
ATOM      9  C   UNL     1      21.417  26.925  20.092  1.00  0.00     0.000 C 
BRANCH   9  10
ATOM     10  C   UNL     1      21.543  28.127  19.138  1.00  0.00     0.000 C 
BRANCH  10  11
ATOM     11  C   UNL     1      21.893  29.434  19.869  1.00  0.00     0.000 C 
BRANCH  11  12
ATOM     12  C   UNL     1      23.398  29.570  20.162  1.00  0.00     0.006 C 
BRANCH  12  13
ATOM     13  C   UNL     1      24.314  29.040  19.045  1.00  0.00     0.053 C 
BRANCH  13  14
ATOM     14  C   UNL     1      25.361  28.107  19.572  1.00  0.00     0.041 C 
ATOM     15  O   UNL     1      26.424  27.917  18.926  1.00  0.00    -0.550 OA
ATOM     16  O   UNL     1      25.175  27.472  20.793  1.00  0.00    -0.550 OA
ENDBRANCH  13  14
ENDBRANCH  12  13
ENDBRANCH  11  12
ENDBRANCH  10  11
ENDBRANCH   9  10
ENDBRANCH   8   9
ENDBRANCH   7   8
ENDBRANCH   6   7
ENDBRANCH   5   6
ENDBRANCH   4   5
ENDBRANCH   3   4
ENDBRANCH   2   3
ENDBRANCH   1   2
BRANCH   1  17
ATOM     17  C   UNL     1      23.310  22.924  14.066  1.00  0.00     0.000 C 
BRANCH  17  18
ATOM     18  C   UNL     1      22.117  23.008  15.044  1.00  0.00     0.000 C 
BRANCH  18  19
ATOM     19  C   UNL     1      21.258  21.730  15.092  1.00  0.00     0.000 C 
BRANCH  19  20
ATOM     20  C   UNL     1      21.358  20.930  16.404  1.00  0.00     0.000 C 
BRANCH  20  21
ATOM     21  C   UNL     1      21.975  21.693  17.595  1.00  0.00     0.000 C 
BRANCH  21  22
ATOM     22  C   UNL     1      23.097  20.946  18.339  1.00  0.00    -0.000 C 
BRANCH  22  23
ATOM     23  C   UNL     1      24.471  21.114  17.675  1.00  0.00    -0.000 C 
BRANCH  23  24
ATOM     24  C   UNL     1      25.587  21.120  18.728  1.00  0.00    -0.000 C 
BRANCH  24  25
ATOM     25  C   UNL     1      26.973  21.136  18.065  1.00  0.00    -0.000 C 
BRANCH  25  26
ATOM     26  C   UNL     1      27.685  19.772  18.127  1.00  0.00    -0.000 C 
BRANCH  26  27
ATOM     27  C   UNL     1      28.888  19.617  17.179  1.00  0.00    -0.000 C 
BRANCH  27  28
ATOM     28  C   UNL     1      29.149  18.158  16.773  1.00  0.00    -0.000 C 
BRANCH  28  29
ATOM     29  C   UNL     1      29.505  18.015  15.286  1.00  0.00    -0.003 C 
ATOM     30  C   UNL     1      30.018  19.316  14.670  1.00  0.00     0.004 C 
ENDBRANCH  28  29
ENDBRANCH  27  28
ENDBRANCH  26  27
ENDBRANCH  25  26
ENDBRANCH  24  25
ENDBRANCH  23  24
ENDBRANCH  22  23
ENDBRANCH  21  22
ENDBRANCH  20  21
ENDBRANCH  19  20
ENDBRANCH  18  19
ENDBRANCH  17  18
ENDBRANCH   1  17
TORSDOF 26
ENDMDL
MODEL 3
REMARK VINA RESULT:    -3.121      3.110      8.325
REMARK INTER + INTRA:         -12.125
REMARK INTER:                  -8.588
REMARK INTRA:                  -3.536
REMARK UNBOUND:                -4.259
REMARK SMILES CCCCCCCCCCCCCCCCCCCCCCCCCCCC(=O)[O-]
REMARK SMILES IDX 15 1 16 2 17 3 18 4 19 5 20 6 21 7 22 8 23 9 24 10 25 11
REMARK SMILES IDX 26 12 27 13 28 14 29 15 30 16 14 17 13 18 12 19 11 20 10 21
REMARK SMILES IDX 9 22 8 23 7 24 6 25 5 26 4 27 3 28 2 29 1 30
REMARK H PARENT
REMARK Flexibility Score: inf
ROOT
ATOM      1  C   UNL     1      22.062  23.007  14.988  1.00  0.00     0.000 C 
ENDROOT
BRANCH   1   2
ATOM      2  C   UNL     1      22.709  22.649  13.632  1.00  0.00     0.000 C 
BRANCH   2   3
ATOM      3  C   UNL     1      24.246  22.663  13.612  1.00  0.00     0.000 C 
BRANCH   3   4
ATOM      4  C   UNL     1      24.861  22.771  15.016  1.00  0.00     0.000 C 
BRANCH   4   5
ATOM      5  C   UNL     1      25.729  24.029  15.136  1.00  0.00     0.000 C 
BRANCH   5   6
ATOM      6  C   UNL     1      25.726  24.568  16.575  1.00  0.00     0.000 C 
BRANCH   6   7
ATOM      7  C   UNL     1      24.324  24.567  17.209  1.00  0.00     0.000 C 
BRANCH   7   8
ATOM      8  C   UNL     1      24.290  24.914  18.710  1.00  0.00     0.000 C 
BRANCH   8   9
ATOM      9  C   UNL     1      22.948  24.636  19.418  1.00  0.00     0.000 C 
BRANCH   9  10
ATOM     10  C   UNL     1      22.285  25.866  20.065  1.00  0.00     0.000 C 
BRANCH  10  11
ATOM     11  C   UNL     1      23.232  26.628  21.007  1.00  0.00     0.000 C 
BRANCH  11  12
ATOM     12  C   UNL     1      23.373  28.116  20.636  1.00  0.00     0.006 C 
BRANCH  12  13
ATOM     13  C   UNL     1      24.148  28.376  19.333  1.00  0.00     0.053 C 
BRANCH  13  14
ATOM     14  C   UNL     1      25.630  28.378  19.551  1.00  0.00     0.041 C 
ATOM     15  O   UNL     1      26.395  27.829  18.716  1.00  0.00    -0.550 OA
ATOM     16  O   UNL     1      26.168  29.016  20.661  1.00  0.00    -0.550 OA
ENDBRANCH  13  14
ENDBRANCH  12  13
ENDBRANCH  11  12
ENDBRANCH  10  11
ENDBRANCH   9  10
ENDBRANCH   8   9
ENDBRANCH   7   8
ENDBRANCH   6   7
ENDBRANCH   5   6
ENDBRANCH   4   5
ENDBRANCH   3   4
ENDBRANCH   2   3
ENDBRANCH   1   2
BRANCH   1  17
ATOM     17  C   UNL     1      20.940  22.063  15.467  1.00  0.00     0.000 C 
BRANCH  17  18
ATOM     18  C   UNL     1      21.401  20.932  16.413  1.00  0.00     0.000 C 
BRANCH  18  19
ATOM     19  C   UNL     1      22.113  21.434  17.684  1.00  0.00     0.000 C 
BRANCH  19  20
ATOM     20  C   UNL     1      23.577  20.978  17.831  1.00  0.00     0.000 C 
BRANCH  20  21
ATOM     21  C   UNL     1      24.175  21.130  19.244  1.00  0.00     0.000 C 
BRANCH  21  22
ATOM     22  C   UNL     1      25.559  21.802  19.300  1.00  0.00    -0.000 C 
BRANCH  22  23
ATOM     23  C   UNL     1      26.359  21.632  18.001  1.00  0.00    -0.000 C 
BRANCH  23  24
ATOM     24  C   UNL     1      27.266  20.397  18.077  1.00  0.00    -0.000 C 
BRANCH  24  25
ATOM     25  C   UNL     1      28.236  20.348  16.887  1.00  0.00    -0.000 C 
BRANCH  25  26
ATOM     26  C   UNL     1      29.317  19.262  17.037  1.00  0.00    -0.000 C 
BRANCH  26  27
ATOM     27  C   UNL     1      30.245  19.089  15.821  1.00  0.00    -0.000 C 
BRANCH  27  28
ATOM     28  C   UNL     1      29.630  18.217  14.714  1.00  0.00    -0.000 C 
BRANCH  28  29
ATOM     29  C   UNL     1      28.815  17.042  15.276  1.00  0.00    -0.003 C 
ATOM     30  C   UNL     1      28.030  16.294  14.198  1.00  0.00     0.004 C 
ENDBRANCH  28  29
ENDBRANCH  27  28
ENDBRANCH  26  27
ENDBRANCH  25  26
ENDBRANCH  24  25
ENDBRANCH  23  24
ENDBRANCH  22  23
ENDBRANCH  21  22
ENDBRANCH  20  21
ENDBRANCH  19  20
ENDBRANCH  18  19
ENDBRANCH  17  18
ENDBRANCH   1  17
TORSDOF 26
ENDMDL
MODEL 4
REMARK VINA RESULT:    -2.965      2.020      7.593
REMARK INTER + INTRA:         -11.730
REMARK INTER:                  -8.263
REMARK INTRA:                  -3.467
REMARK UNBOUND:                -4.259
REMARK SMILES CCCCCCCCCCCCCCCCCCCCCCCCCCCC(=O)[O-]
REMARK SMILES IDX 15 1 16 2 17 3 18 4 19 5 20 6 21 7 22 8 23 9 24 10 25 11
REMARK SMILES IDX 26 12 27 13 28 14 29 15 30 16 14 17 13 18 12 19 11 20 10 21
REMARK SMILES IDX 9 22 8 23 7 24 6 25 5 26 4 27 3 28 2 29 1 30
REMARK H PARENT
REMARK Flexibility Score: inf
ROOT
ATOM      1  C   UNL     1      21.645  25.238  17.374  1.00  0.00     0.000 C 
ENDROOT
BRANCH   1   2
ATOM      2  C   UNL     1      21.025  26.475  18.061  1.00  0.00     0.000 C 
BRANCH   2   3
ATOM      3  C   UNL     1      21.328  27.823  17.388  1.00  0.00     0.000 C 
BRANCH   3   4
ATOM      4  C   UNL     1      21.991  28.830  18.339  1.00  0.00     0.000 C 
BRANCH   4   5
ATOM      5  C   UNL     1      21.502  28.627  19.778  1.00  0.00     0.000 C 
BRANCH   5   6
ATOM      6  C   UNL     1      22.644  28.833  20.784  1.00  0.00     0.000 C 
BRANCH   6   7
ATOM      7  C   UNL     1      23.921  29.393  20.132  1.00  0.00     0.000 C 
BRANCH   7   8
ATOM      8  C   UNL     1      25.172  28.506  20.289  1.00  0.00     0.000 C 
BRANCH   8   9
ATOM      9  C   UNL     1      24.935  26.996  20.084  1.00  0.00     0.000 C 
BRANCH   9  10
ATOM     10  C   UNL     1      25.773  26.349  18.966  1.00  0.00     0.000 C 
BRANCH  10  11
ATOM     11  C   UNL     1      25.318  24.919  18.632  1.00  0.00     0.000 C 
BRANCH  11  12
ATOM     12  C   UNL     1      24.953  24.739  17.146  1.00  0.00     0.006 C 
BRANCH  12  13
ATOM     13  C   UNL     1      26.102  24.217  16.268  1.00  0.00     0.053 C 
BRANCH  13  14
ATOM     14  C   UNL     1      25.600  23.466  15.073  1.00  0.00     0.041 C 
ATOM     15  O   UNL     1      25.364  22.232  15.152  1.00  0.00    -0.550 OA
ATOM     16  O   UNL     1      25.360  24.136  13.881  1.00  0.00    -0.550 OA
ENDBRANCH  13  14
ENDBRANCH  12  13
ENDBRANCH  11  12
ENDBRANCH  10  11
ENDBRANCH   9  10
ENDBRANCH   8   9
ENDBRANCH   7   8
ENDBRANCH   6   7
ENDBRANCH   5   6
ENDBRANCH   4   5
ENDBRANCH   3   4
ENDBRANCH   2   3
ENDBRANCH   1   2
BRANCH   1  17
ATOM     17  C   UNL     1      20.889  24.708  16.138  1.00  0.00     0.000 C 
BRANCH  17  18
ATOM     18  C   UNL     1      21.433  23.382  15.562  1.00  0.00     0.000 C 
BRANCH  18  19
ATOM     19  C   UNL     1      21.340  22.193  16.538  1.00  0.00     0.000 C 
BRANCH  19  20
ATOM     20  C   UNL     1      22.681  21.751  17.152  1.00  0.00     0.000 C 
BRANCH  20  21
ATOM     21  C   UNL     1      22.832  22.015  18.664  1.00  0.00     0.000 C 
BRANCH  21  22
ATOM     22  C   UNL     1      24.242  21.773  19.233  1.00  0.00    -0.000 C 
BRANCH  22  23
ATOM     23  C   UNL     1      25.155  21.011  18.263  1.00  0.00    -0.000 C 
BRANCH  23  24
ATOM     24  C   UNL     1      26.632  21.280  18.581  1.00  0.00    -0.000 C 
BRANCH  24  25
ATOM     25  C   UNL     1      27.549  20.666  17.512  1.00  0.00    -0.000 C 
BRANCH  25  26
ATOM     26  C   UNL     1      27.953  19.214  17.827  1.00  0.00    -0.000 C 
BRANCH  26  27
ATOM     27  C   UNL     1      29.294  18.761  17.220  1.00  0.00    -0.000 C 
BRANCH  27  28
ATOM     28  C   UNL     1      29.135  17.625  16.196  1.00  0.00    -0.000 C 
BRANCH  28  29
ATOM     29  C   UNL     1      29.455  18.077  14.763  1.00  0.00    -0.003 C 
ATOM     30  C   UNL     1      30.061  19.480  14.703  1.00  0.00     0.004 C 
ENDBRANCH  28  29
ENDBRANCH  27  28
ENDBRANCH  26  27
ENDBRANCH  25  26
ENDBRANCH  24  25
ENDBRANCH  23  24
ENDBRANCH  22  23
ENDBRANCH  21  22
ENDBRANCH  20  21
ENDBRANCH  19  20
ENDBRANCH  18  19
ENDBRANCH  17  18
ENDBRANCH   1  17
TORSDOF 26
ENDMDL
MODEL 5
REMARK VINA RESULT:    -2.879      1.127      2.561
REMARK INTER + INTRA:         -11.515
REMARK INTER:                  -7.763
REMARK INTRA:                  -3.753
REMARK UNBOUND:                -4.259
REMARK SMILES CCCCCCCCCCCCCCCCCCCCCCCCCCCC(=O)[O-]
REMARK SMILES IDX 15 1 16 2 17 3 18 4 19 5 20 6 21 7 22 8 23 9 24 10 25 11
REMARK SMILES IDX 26 12 27 13 28 14 29 15 30 16 14 17 13 18 12 19 11 20 10 21
REMARK SMILES IDX 9 22 8 23 7 24 6 25 5 26 4 27 3 28 2 29 1 30
REMARK H PARENT
REMARK Flexibility Score: inf
ROOT
ATOM      1  C   UNL     1      23.237  23.059  13.487  1.00  0.00     0.000 C 
ENDROOT
BRANCH   1   2
ATOM      2  C   UNL     1      24.154  22.466  14.580  1.00  0.00     0.000 C 
BRANCH   2   3
ATOM      3  C   UNL     1      25.633  22.878  14.492  1.00  0.00     0.000 C 
BRANCH   3   4
ATOM      4  C   UNL     1      26.033  23.905  15.561  1.00  0.00     0.000 C 
BRANCH   4   5
ATOM      5  C   UNL     1      24.852  24.216  16.488  1.00  0.00     0.000 C 
BRANCH   5   6
ATOM      6  C   UNL     1      25.306  25.030  17.709  1.00  0.00     0.000 C 
BRANCH   6   7
ATOM      7  C   UNL     1      25.442  24.173  18.980  1.00  0.00     0.000 C 
BRANCH   7   8
ATOM      8  C   UNL     1      25.072  22.687  18.803  1.00  0.00     0.000 C 
BRANCH   8   9
ATOM      9  C   UNL     1      26.210  21.689  19.100  1.00  0.00     0.000 C 
BRANCH   9  10
ATOM     10  C   UNL     1      26.492  20.669  17.982  1.00  0.00     0.000 C 
BRANCH  10  11
ATOM     11  C   UNL     1      27.862  19.985  18.131  1.00  0.00     0.000 C 
BRANCH  11  12
ATOM     12  C   UNL     1      28.692  20.023  16.835  1.00  0.00     0.006 C 
BRANCH  12  13
ATOM     13  C   UNL     1      29.630  18.819  16.645  1.00  0.00     0.053 C 
BRANCH  13  14
ATOM     14  C   UNL     1      29.615  18.311  15.236  1.00  0.00     0.041 C 
ATOM     15  O   UNL     1      30.325  18.862  14.355  1.00  0.00    -0.550 OA
ATOM     16  O   UNL     1      28.841  17.207  14.904  1.00  0.00    -0.550 OA
ENDBRANCH  13  14
ENDBRANCH  12  13
ENDBRANCH  11  12
ENDBRANCH  10  11
ENDBRANCH   9  10
ENDBRANCH   8   9
ENDBRANCH   7   8
ENDBRANCH   6   7
ENDBRANCH   5   6
ENDBRANCH   4   5
ENDBRANCH   3   4
ENDBRANCH   2   3
ENDBRANCH   1   2
BRANCH   1  17
ATOM     17  C   UNL     1      21.744  22.689  13.591  1.00  0.00     0.000 C 
BRANCH  17  18
ATOM     18  C   UNL     1      21.294  22.185  14.981  1.00  0.00     0.000 C 
BRANCH  18  19
ATOM     19  C   UNL     1      20.877  23.310  15.948  1.00  0.00     0.000 C 
BRANCH  19  20
ATOM     20  C   UNL     1      21.444  23.182  17.374  1.00  0.00     0.000 C 
BRANCH  20  21
ATOM     21  C   UNL     1      21.019  24.296  18.353  1.00  0.00     0.000 C 
BRANCH  21  22
ATOM     22  C   UNL     1      21.804  24.338  19.677  1.00  0.00    -0.000 C 
BRANCH  22  23
ATOM     23  C   UNL     1      22.232  25.757  20.074  1.00  0.00    -0.000 C 
BRANCH  23  24
ATOM     24  C   UNL     1      22.247  26.684  18.851  1.00  0.00    -0.000 C 
BRANCH  24  25
ATOM     25  C   UNL     1      21.290  27.870  19.044  1.00  0.00    -0.000 C 
BRANCH  25  26
ATOM     26  C   UNL     1      22.021  29.185  19.374  1.00  0.00    -0.000 C 
BRANCH  26  27
ATOM     27  C   UNL     1      22.552  29.296  20.814  1.00  0.00    -0.000 C 
BRANCH  27  28
ATOM     28  C   UNL     1      23.982  29.857  20.886  1.00  0.00    -0.000 C 
BRANCH  28  29
ATOM     29  C   UNL     1      24.823  29.482  19.656  1.00  0.00    -0.003 C 
ATOM     30  C   UNL     1      25.550  28.147  19.818  1.00  0.00     0.004 C 
ENDBRANCH  28  29
ENDBRANCH  27  28
ENDBRANCH  26  27
ENDBRANCH  25  26
ENDBRANCH  24  25
ENDBRANCH  23  24
ENDBRANCH  22  23
ENDBRANCH  21  22
ENDBRANCH  20  21
ENDBRANCH  19  20
ENDBRANCH  18  19
ENDBRANCH  17  18
ENDBRANCH   1  17
TORSDOF 26
ENDMDL
MODEL 6
REMARK VINA RESULT:    -2.862      2.649      7.952
REMARK INTER + INTRA:         -11.472
REMARK INTER:                  -8.103
REMARK INTRA:                  -3.369
REMARK UNBOUND:                -4.259
REMARK SMILES CCCCCCCCCCCCCCCCCCCCCCCCCCCC(=O)[O-]
REMARK SMILES IDX 15 1 16 2 17 3 18 4 19 5 20 6 21 7 22 8 23 9 24 10 25 11
REMARK SMILES IDX 26 12 27 13 28 14 29 15 30 16 14 17 13 18 12 19 11 20 10 21
REMARK SMILES IDX 9 22 8 23 7 24 6 25 5 26 4 27 3 28 2 29 1 30
REMARK H PARENT
REMARK Flexibility Score: inf
ROOT
ATOM      1  C   UNL     1      20.876  23.829  16.426  1.00  0.00     0.000 C 
ENDROOT
BRANCH   1   2
ATOM      2  C   UNL     1      21.046  22.706  17.472  1.00  0.00     0.000 C 
BRANCH   2   3
ATOM      3  C   UNL     1      22.296  22.818  18.361  1.00  0.00     0.000 C 
BRANCH   3   4
ATOM      4  C   UNL     1      22.157  23.887  19.455  1.00  0.00     0.000 C 
BRANCH   4   5
ATOM      5  C   UNL     1      23.179  25.012  19.253  1.00  0.00     0.000 C 
BRANCH   5   6
ATOM      6  C   UNL     1      22.522  26.252  18.629  1.00  0.00     0.000 C 
BRANCH   6   7
ATOM      7  C   UNL     1      21.474  26.899  19.552  1.00  0.00     0.000 C 
BRANCH   7   8
ATOM      8  C   UNL     1      21.509  28.440  19.593  1.00  0.00     0.000 C 
BRANCH   8   9
ATOM      9  C   UNL     1      22.369  29.105  18.500  1.00  0.00     0.000 C 
BRANCH   9  10
ATOM     10  C   UNL     1      23.432  30.092  19.016  1.00  0.00     0.000 C 
BRANCH  10  11
ATOM     11  C   UNL     1      24.176  29.571  20.257  1.00  0.00     0.000 C 
BRANCH  11  12
ATOM     12  C   UNL     1      25.620  29.132  19.946  1.00  0.00     0.006 C 
BRANCH  12  13
ATOM     13  C   UNL     1      25.728  27.850  19.104  1.00  0.00     0.053 C 
BRANCH  13  14
ATOM     14  C   UNL     1      27.108  27.652  18.556  1.00  0.00     0.041 C 
ATOM     15  O   UNL     1      28.079  28.295  19.033  1.00  0.00    -0.550 OA
ATOM     16  O   UNL     1      27.325  26.732  17.539  1.00  0.00    -0.550 OA
ENDBRANCH  13  14
ENDBRANCH  12  13
ENDBRANCH  11  12
ENDBRANCH  10  11
ENDBRANCH   9  10
ENDBRANCH   8   9
ENDBRANCH   7   8
ENDBRANCH   6   7
ENDBRANCH   5   6
ENDBRANCH   4   5
ENDBRANCH   3   4
ENDBRANCH   2   3
ENDBRANCH   1   2
BRANCH   1  17
ATOM     17  C   UNL     1      21.922  23.856  15.293  1.00  0.00     0.000 C 
BRANCH  17  18
ATOM     18  C   UNL     1      22.343  22.467  14.764  1.00  0.00     0.000 C 
BRANCH  18  19
ATOM     19  C   UNL     1      23.436  22.517  13.679  1.00  0.00     0.000 C 
BRANCH  19  20
ATOM     20  C   UNL     1      24.701  23.304  14.069  1.00  0.00     0.000 C 
BRANCH  20  21
ATOM     21  C   UNL     1      25.469  22.755  15.289  1.00  0.00     0.000 C 
BRANCH  21  22
ATOM     22  C   UNL     1      25.821  23.799  16.364  1.00  0.00    -0.000 C 
BRANCH  22  23
ATOM     23  C   UNL     1      25.851  23.211  17.782  1.00  0.00    -0.000 C 
BRANCH  23  24
ATOM     24  C   UNL     1      25.474  21.723  17.762  1.00  0.00    -0.000 C 
BRANCH  24  25
ATOM     25  C   UNL     1      26.539  20.873  18.472  1.00  0.00    -0.000 C 
BRANCH  25  26
ATOM     26  C   UNL     1      27.668  20.413  17.531  1.00  0.00    -0.000 C 
BRANCH  26  27
ATOM     27  C   UNL     1      28.400  19.130  17.964  1.00  0.00    -0.000 C 
BRANCH  27  28
ATOM     28  C   UNL     1      29.003  18.354  16.782  1.00  0.00    -0.000 C 
BRANCH  28  29
ATOM     29  C   UNL     1      30.105  19.145  16.060  1.00  0.00    -0.003 C 
ATOM     30  C   UNL     1      29.645  19.712  14.717  1.00  0.00     0.004 C 
ENDBRANCH  28  29
ENDBRANCH  27  28
ENDBRANCH  26  27
ENDBRANCH  25  26
ENDBRANCH  24  25
ENDBRANCH  23  24
ENDBRANCH  22  23
ENDBRANCH  21  22
ENDBRANCH  20  21
ENDBRANCH  19  20
ENDBRANCH  18  19
ENDBRANCH  17  18
ENDBRANCH   1  17
TORSDOF 26
ENDMDL
MODEL 7
REMARK VINA RESULT:    -2.744      1.398      3.019
REMARK INTER + INTRA:         -11.173
REMARK INTER:                  -7.385
REMARK INTRA:                  -3.789
REMARK UNBOUND:                -4.259
REMARK SMILES CCCCCCCCCCCCCCCCCCCCCCCCCCCC(=O)[O-]
REMARK SMILES IDX 15 1 16 2 17 3 18 4 19 5 20 6 21 7 22 8 23 9 24 10 25 11
REMARK SMILES IDX 26 12 27 13 28 14 29 15 30 16 14 17 13 18 12 19 11 20 10 21
REMARK SMILES IDX 9 22 8 23 7 24 6 25 5 26 4 27 3 28 2 29 1 30
REMARK H PARENT
REMARK Flexibility Score: inf
ROOT
ATOM      1  C   UNL     1      21.946  23.003  14.919  1.00  0.00     0.000 C 
ENDROOT
BRANCH   1   2
ATOM      2  C   UNL     1      21.206  21.832  15.602  1.00  0.00     0.000 C 
BRANCH   2   3
ATOM      3  C   UNL     1      20.935  22.012  17.105  1.00  0.00     0.000 C 
BRANCH   3   4
ATOM      4  C   UNL     1      21.409  23.372  17.639  1.00  0.00     0.000 C 
BRANCH   4   5
ATOM      5  C   UNL     1      22.445  23.191  18.754  1.00  0.00     0.000 C 
BRANCH   5   6
ATOM      6  C   UNL     1      23.512  22.160  18.356  1.00  0.00     0.000 C 
BRANCH   6   7
ATOM      7  C   UNL     1      24.552  21.919  19.465  1.00  0.00     0.000 C 
BRANCH   7   8
ATOM      8  C   UNL     1      26.015  21.865  18.981  1.00  0.00     0.000 C 
BRANCH   8   9
ATOM      9  C   UNL     1      26.344  20.708  18.016  1.00  0.00     0.000 C 
BRANCH   9  10
ATOM     10  C   UNL     1      27.736  20.778  17.363  1.00  0.00     0.000 C 
BRANCH  10  11
ATOM     11  C   UNL     1      28.584  19.523  17.630  1.00  0.00     0.000 C 
BRANCH  11  12
ATOM     12  C   UNL     1      29.783  19.397  16.672  1.00  0.00     0.006 C 
BRANCH  12  13
ATOM     13  C   UNL     1      29.439  18.798  15.298  1.00  0.00     0.053 C 
BRANCH  13  14
ATOM     14  C   UNL     1      29.021  17.363  15.400  1.00  0.00     0.041 C 
ATOM     15  O   UNL     1      29.289  16.695  16.433  1.00  0.00    -0.550 OA
ATOM     16  O   UNL     1      28.305  16.773  14.367  1.00  0.00    -0.550 OA
ENDBRANCH  13  14
ENDBRANCH  12  13
ENDBRANCH  11  12
ENDBRANCH  10  11
ENDBRANCH   9  10
ENDBRANCH   8   9
ENDBRANCH   7   8
ENDBRANCH   6   7
ENDBRANCH   5   6
ENDBRANCH   4   5
ENDBRANCH   3   4
ENDBRANCH   2   3
ENDBRANCH   1   2
BRANCH   1  17
ATOM     17  C   UNL     1      22.913  22.614  13.782  1.00  0.00     0.000 C 
BRANCH  17  18
ATOM     18  C   UNL     1      24.295  23.300  13.840  1.00  0.00     0.000 C 
BRANCH  18  19
ATOM     19  C   UNL     1      25.297  22.609  14.785  1.00  0.00     0.000 C 
BRANCH  19  20
ATOM     20  C   UNL     1      26.076  23.560  15.712  1.00  0.00     0.000 C 
BRANCH  20  21
ATOM     21  C   UNL     1      25.208  24.523  16.547  1.00  0.00     0.000 C 
BRANCH  21  22
ATOM     22  C   UNL     1      25.976  25.362  17.585  1.00  0.00    -0.000 C 
BRANCH  22  23
ATOM     23  C   UNL     1      25.181  25.585  18.880  1.00  0.00    -0.000 C 
BRANCH  23  24
ATOM     24  C   UNL     1      25.222  27.060  19.297  1.00  0.00    -0.000 C 
BRANCH  24  25
ATOM     25  C   UNL     1      24.669  27.250  20.718  1.00  0.00    -0.000 C 
BRANCH  25  26
ATOM     26  C   UNL     1      23.392  26.430  20.981  1.00  0.00    -0.000 C 
BRANCH  26  27
ATOM     27  C   UNL     1      22.072  27.155  20.666  1.00  0.00    -0.000 C 
BRANCH  27  28
ATOM     28  C   UNL     1      21.472  26.749  19.310  1.00  0.00    -0.000 C 
BRANCH  28  29
ATOM     29  C   UNL     1      21.053  27.961  18.465  1.00  0.00    -0.003 C 
ATOM     30  C   UNL     1      21.179  27.710  16.962  1.00  0.00     0.004 C 
ENDBRANCH  28  29
ENDBRANCH  27  28
ENDBRANCH  26  27
ENDBRANCH  25  26
ENDBRANCH  24  25
ENDBRANCH  23  24
ENDBRANCH  22  23
ENDBRANCH  21  22
ENDBRANCH  20  21
ENDBRANCH  19  20
ENDBRANCH  18  19
ENDBRANCH  17  18
ENDBRANCH   1  17
TORSDOF 26
ENDMDL
MODEL 8
REMARK VINA RESULT:    -2.716      2.872      7.621
REMARK INTER + INTRA:         -11.104
REMARK INTER:                  -7.680
REMARK INTRA:                  -3.423
REMARK UNBOUND:                -4.259
REMARK SMILES CCCCCCCCCCCCCCCCCCCCCCCCCCCC(=O)[O-]
REMARK SMILES IDX 15 1 16 2 17 3 18 4 19 5 20 6 21 7 22 8 23 9 24 10 25 11
REMARK SMILES IDX 26 12 27 13 28 14 29 15 30 16 14 17 13 18 12 19 11 20 10 21
REMARK SMILES IDX 9 22 8 23 7 24 6 25 5 26 4 27 3 28 2 29 1 30
REMARK H PARENT
REMARK Flexibility Score: inf
ROOT
ATOM      1  C   UNL     1      21.401  24.237  16.754  1.00  0.00     0.000 C 
ENDROOT
BRANCH   1   2
ATOM      2  C   UNL     1      21.182  23.914  18.248  1.00  0.00     0.000 C 
BRANCH   2   3
ATOM      3  C   UNL     1      21.858  24.879  19.236  1.00  0.00     0.000 C 
BRANCH   3   4
ATOM      4  C   UNL     1      20.877  25.885  19.856  1.00  0.00     0.000 C 
BRANCH   4   5
ATOM      5  C   UNL     1      21.355  27.324  19.632  1.00  0.00     0.000 C 
BRANCH   5   6
ATOM      6  C   UNL     1      21.958  27.495  18.230  1.00  0.00     0.000 C 
BRANCH   6   7
ATOM      7  C   UNL     1      21.533  28.811  17.555  1.00  0.00     0.000 C 
BRANCH   7   8
ATOM      8  C   UNL     1      22.376  30.042  17.944  1.00  0.00     0.000 C 
BRANCH   8   9
ATOM      9  C   UNL     1      23.773  29.726  18.516  1.00  0.00     0.000 C 
BRANCH   9  10
ATOM     10  C   UNL     1      23.980  30.122  19.989  1.00  0.00     0.000 C 
BRANCH  10  11
ATOM     11  C   UNL     1      24.168  28.906  20.912  1.00  0.00     0.000 C 
BRANCH  11  12
ATOM     12  C   UNL     1      25.501  28.173  20.672  1.00  0.00     0.006 C 
BRANCH  12  13
ATOM     13  C   UNL     1      25.360  26.811  19.973  1.00  0.00     0.053 C 
BRANCH  13  14
ATOM     14  C   UNL     1      26.143  26.749  18.698  1.00  0.00     0.041 C 
ATOM     15  O   UNL     1      27.064  27.578  18.478  1.00  0.00    -0.550 OA
ATOM     16  O   UNL     1      25.876  25.754  17.767  1.00  0.00    -0.550 OA
ENDBRANCH  13  14
ENDBRANCH  12  13
ENDBRANCH  11  12
ENDBRANCH  10  11
ENDBRANCH   9  10
ENDBRANCH   8   9
ENDBRANCH   7   8
ENDBRANCH   6   7
ENDBRANCH   5   6
ENDBRANCH   4   5
ENDBRANCH   3   4
ENDBRANCH   2   3
ENDBRANCH   1   2
BRANCH   1  17
ATOM     17  C   UNL     1      22.484  23.405  16.038  1.00  0.00     0.000 C 
BRANCH  17  18
ATOM     18  C   UNL     1      21.946  22.375  15.020  1.00  0.00     0.000 C 
BRANCH  18  19
ATOM     19  C   UNL     1      22.173  22.774  13.549  1.00  0.00     0.000 C 
BRANCH  19  20
ATOM     20  C   UNL     1      23.551  23.391  13.249  1.00  0.00     0.000 C 
BRANCH  20  21
ATOM     21  C   UNL     1      24.760  22.478  13.545  1.00  0.00     0.000 C 
BRANCH  21  22
ATOM     22  C   UNL     1      25.790  23.057  14.531  1.00  0.00    -0.000 C 
BRANCH  22  23
ATOM     23  C   UNL     1      25.440  22.771  15.998  1.00  0.00    -0.000 C 
BRANCH  23  24
ATOM     24  C   UNL     1      26.482  21.843  16.636  1.00  0.00    -0.000 C 
BRANCH  24  25
ATOM     25  C   UNL     1      26.354  21.836  18.167  1.00  0.00    -0.000 C 
BRANCH  25  26
ATOM     26  C   UNL     1      25.168  22.677  18.676  1.00  0.00    -0.000 C 
BRANCH  26  27
ATOM     27  C   UNL     1      23.978  21.868  19.224  1.00  0.00    -0.000 C 
BRANCH  27  28
ATOM     28  C   UNL     1      23.625  20.653  18.350  1.00  0.00    -0.000 C 
BRANCH  28  29
ATOM     29  C   UNL     1      22.115  20.369  18.321  1.00  0.00    -0.003 C 
ATOM     30  C   UNL     1      21.659  19.717  17.016  1.00  0.00     0.004 C 
ENDBRANCH  28  29
ENDBRANCH  27  28
ENDBRANCH  26  27
ENDBRANCH  25  26
ENDBRANCH  24  25
ENDBRANCH  23  24
ENDBRANCH  22  23
ENDBRANCH  21  22
ENDBRANCH  20  21
ENDBRANCH  19  20
ENDBRANCH  18  19
ENDBRANCH  17  18
ENDBRANCH   1  17
TORSDOF 26
ENDMDL
MODEL 9
REMARK VINA RESULT:    -2.624      1.277      2.608
REMARK INTER + INTRA:         -10.871
REMARK INTER:                  -7.443
REMARK INTRA:                  -3.428
REMARK UNBOUND:                -4.259
REMARK SMILES CCCCCCCCCCCCCCCCCCCCCCCCCCCC(=O)[O-]
REMARK SMILES IDX 15 1 16 2 17 3 18 4 19 5 20 6 21 7 22 8 23 9 24 10 25 11
REMARK SMILES IDX 26 12 27 13 28 14 29 15 30 16 14 17 13 18 12 19 11 20 10 21
REMARK SMILES IDX 9 22 8 23 7 24 6 25 5 26 4 27 3 28 2 29 1 30
REMARK H PARENT
REMARK Flexibility Score: inf
ROOT
ATOM      1  C   UNL     1      24.661  22.825  13.981  1.00  0.00     0.000 C 
ENDROOT
BRANCH   1   2
ATOM      2  C   UNL     1      25.415  24.011  14.622  1.00  0.00     0.000 C 
BRANCH   2   3
ATOM      3  C   UNL     1      25.750  23.848  16.114  1.00  0.00     0.000 C 
BRANCH   3   4
ATOM      4  C   UNL     1      24.671  24.434  17.036  1.00  0.00     0.000 C 
BRANCH   4   5
ATOM      5  C   UNL     1      24.852  23.934  18.474  1.00  0.00     0.000 C 
BRANCH   5   6
ATOM      6  C   UNL     1      24.068  22.634  18.710  1.00  0.00     0.000 C 
BRANCH   6   7
ATOM      7  C   UNL     1      24.771  21.399  18.120  1.00  0.00     0.000 C 
BRANCH   7   8
ATOM      8  C   UNL     1      26.181  21.124  18.681  1.00  0.00     0.000 C 
BRANCH   8   9
ATOM      9  C   UNL     1      27.229  20.691  17.637  1.00  0.00     0.000 C 
BRANCH   9  10
ATOM     10  C   UNL     1      28.253  19.652  18.130  1.00  0.00     0.000 C 
BRANCH  10  11
ATOM     11  C   UNL     1      28.098  18.288  17.437  1.00  0.00     0.000 C 
BRANCH  11  12
ATOM     12  C   UNL     1      29.354  17.874  16.648  1.00  0.00     0.006 C 
BRANCH  12  13
ATOM     13  C   UNL     1      30.315  19.032  16.328  1.00  0.00     0.053 C 
BRANCH  13  14
ATOM     14  C   UNL     1      30.067  19.608  14.967  1.00  0.00     0.041 C 
ATOM     15  O   UNL     1      28.905  19.950  14.624  1.00  0.00    -0.550 OA
ATOM     16  O   UNL     1      31.127  19.798  14.090  1.00  0.00    -0.550 OA
ENDBRANCH  13  14
ENDBRANCH  12  13
ENDBRANCH  11  12
ENDBRANCH  10  11
ENDBRANCH   9  10
ENDBRANCH   8   9
ENDBRANCH   7   8
ENDBRANCH   6   7
ENDBRANCH   5   6
ENDBRANCH   4   5
ENDBRANCH   3   4
ENDBRANCH   2   3
ENDBRANCH   1   2
BRANCH   1  17
ATOM     17  C   UNL     1      23.494  22.247  14.807  1.00  0.00     0.000 C 
BRANCH  17  18
ATOM     18  C   UNL     1      22.111  22.864  14.501  1.00  0.00     0.000 C 
BRANCH  18  19
ATOM     19  C   UNL     1      21.173  22.931  15.721  1.00  0.00     0.000 C 
BRANCH  19  20
ATOM     20  C   UNL     1      21.047  24.323  16.367  1.00  0.00     0.000 C 
BRANCH  20  21
ATOM     21  C   UNL     1      20.963  24.329  17.908  1.00  0.00     0.000 C 
BRANCH  21  22
ATOM     22  C   UNL     1      21.185  25.701  18.570  1.00  0.00    -0.000 C 
BRANCH  22  23
ATOM     23  C   UNL     1      21.694  25.593  20.014  1.00  0.00    -0.000 C 
BRANCH  23  24
ATOM     24  C   UNL     1      22.404  26.885  20.438  1.00  0.00    -0.000 C 
BRANCH  24  25
ATOM     25  C   UNL     1      23.863  26.610  20.837  1.00  0.00    -0.000 C 
BRANCH  25  26
ATOM     26  C   UNL     1      24.733  27.881  20.847  1.00  0.00    -0.000 C 
BRANCH  26  27
ATOM     27  C   UNL     1      25.271  28.318  19.472  1.00  0.00    -0.000 C 
BRANCH  27  28
ATOM     28  C   UNL     1      26.259  27.307  18.866  1.00  0.00    -0.000 C 
BRANCH  28  29
ATOM     29  C   UNL     1      27.644  27.920  18.608  1.00  0.00    -0.003 C 
ATOM     30  C   UNL     1      27.998  29.027  19.602  1.00  0.00     0.004 C 
ENDBRANCH  28  29
ENDBRANCH  27  28
ENDBRANCH  26  27
ENDBRANCH  25  26
ENDBRANCH  24  25
ENDBRANCH  23  24
ENDBRANCH  22  23
ENDBRANCH  21  22
ENDBRANCH  20  21
ENDBRANCH  19  20
ENDBRANCH  18  19
ENDBRANCH  17  18
ENDBRANCH   1  17
TORSDOF 26
ENDMDL
