MODEL 1
REMARK VINA RESULT:    -4.163      0.000      0.000
REMARK INTER + INTRA:          -5.385
REMARK INTER:                  -5.623
REMARK INTRA:                   0.238
REMARK UNBOUND:                 0.238
REMARK SMILES C=C1C(=O)O[C@@H]2[C@H]1CCC(C)=CCC[C@@]1(C)O[C@@H]21
REMARK SMILES IDX 6 1 7 2 2 3 1 4 3 5 4 6 5 7 8 8 9 9 10 10 11 11 12 12 18 14
REMARK SMILES IDX 15 15 17 16 16 17 14 18 13 19
REMARK H PARENT
REMARK Flexibility Score: 70.00
ROOT
ATOM      1  C   UNL     1      26.037  -1.637  34.620  1.00  0.00     0.216 C 
ATOM      2  C   UNL     1      27.129  -1.434  35.743  1.00  0.00     0.070 C 
ATOM      3  C   UNL     1      27.929  -2.706  35.677  1.00  0.00     0.037 C 
ATOM      4  C   UNL     1      29.040  -2.974  36.366  1.00  0.00     0.021 C 
ATOM      5  C   UNL     1      27.416  -3.501  34.593  1.00  0.00     0.334 C 
ATOM      6  O   UNL     1      27.869  -4.617  34.224  1.00  0.00    -0.247 OA
ATOM      7  O   UNL     1      26.366  -2.865  33.975  1.00  0.00    -0.455 OA
ENDROOT
BRANCH   2   8
ATOM      8  C   UNL     1      26.624  -1.126  37.192  1.00  0.00     0.017 C 
BRANCH   8   9
ATOM      9  C   UNL     1      25.954   0.262  37.338  1.00  0.00     0.031 C 
BRANCH   9  10
ATOM     10  C   UNL     1      26.533   1.301  36.394  1.00  0.00    -0.077 C 
ATOM     11  C   UNL     1      28.005   1.617  36.481  1.00  0.00     0.039 C 
ATOM     12  C   UNL     1      25.802   1.943  35.455  1.00  0.00    -0.028 CG0
ATOM     13  G   UNL     1      24.307   1.825  35.282  1.00  0.00     0.000 G0
ENDBRANCH   9  10
ENDBRANCH   8   9
ENDBRANCH   2   8
BRANCH   1  14
ATOM     14  C   UNL     1      24.590  -1.758  35.123  1.00  0.00     0.192 C 
ATOM     15  C   UNL     1      23.600  -0.654  34.945  1.00  0.00     0.096 C 
ATOM     16  O   UNL     1      23.688  -1.727  34.034  1.00  0.00    -0.362 OA
ATOM     17  C   UNL     1      22.310  -0.738  35.766  1.00  0.00     0.045 C 
BRANCH  15  18
ATOM     18  C   UNL     1      23.953   0.691  34.269  1.00  0.00     0.042 C 
BRANCH  18  19
ATOM     19  C   UNL     1      24.300   1.808  35.265  1.00  0.00     0.030 CG0
ATOM     20  G   UNL     1      25.790   1.944  35.456  1.00  0.00     0.000 G0
ENDBRANCH  18  19
ENDBRANCH  15  18
ENDBRANCH   1  14
TORSDOF 0
ENDMDL
MODEL 2
REMARK VINA RESULT:    -4.135      2.716      5.238
REMARK INTER + INTRA:          -5.347
REMARK INTER:                  -5.312
REMARK INTRA:                  -0.035
REMARK UNBOUND:                 0.238
REMARK SMILES C=C1C(=O)O[C@@H]2[C@H]1CCC(C)=CCC[C@@]1(C)O[C@@H]21
REMARK SMILES IDX 6 1 7 2 2 3 1 4 3 5 4 6 5 7 8 8 9 9 10 10 11 11 12 12 18 14
REMARK SMILES IDX 15 15 17 16 16 17 14 18 13 19
REMARK H PARENT
REMARK Flexibility Score: 70.00
ROOT
ATOM      1  C   UNL     1      23.796   0.419  36.245  1.00  0.00     0.216 C 
ATOM      2  C   UNL     1      22.934   1.520  35.512  1.00  0.00     0.070 C 
ATOM      3  C   UNL     1      21.961   1.957  36.573  1.00  0.00     0.037 C 
ATOM      4  C   UNL     1      21.081   2.954  36.473  1.00  0.00     0.021 C 
ATOM      5  C   UNL     1      22.283   1.258  37.789  1.00  0.00     0.334 C 
ATOM      6  O   UNL     1      21.698   1.401  38.895  1.00  0.00    -0.247 OA
ATOM      7  O   UNL     1      23.352   0.415  37.600  1.00  0.00    -0.455 OA
ENDROOT
BRANCH   2   8
ATOM      8  C   UNL     1      22.215   1.107  34.185  1.00  0.00     0.017 C 
BRANCH   8   9
ATOM      9  C   UNL     1      22.856   1.713  32.913  1.00  0.00     0.031 C 
BRANCH   9  10
ATOM     10  C   UNL     1      24.248   2.268  33.158  1.00  0.00    -0.077 C 
ATOM     11  C   UNL     1      24.402   3.745  33.419  1.00  0.00     0.039 C 
ATOM     12  C   UNL     1      25.362   1.501  33.184  1.00  0.00    -0.028 CG0
ATOM     13  G   UNL     1      25.415   0.030  32.856  1.00  0.00     0.000 G0
ENDBRANCH   9  10
ENDBRANCH   8   9
ENDBRANCH   2   8
BRANCH   1  14
ATOM     14  C   UNL     1      23.633  -1.012  35.707  1.00  0.00     0.192 C 
ATOM     15  C   UNL     1      24.580  -1.588  34.706  1.00  0.00     0.096 C 
ATOM     16  O   UNL     1      24.736  -1.808  36.090  1.00  0.00    -0.362 OA
ATOM     17  C   UNL     1      24.141  -2.872  33.995  1.00  0.00     0.045 C 
BRANCH  15  18
ATOM     18  C   UNL     1      25.772  -0.796  34.122  1.00  0.00     0.042 C 
BRANCH  18  19
ATOM     19  C   UNL     1      25.411   0.028  32.876  1.00  0.00     0.030 CG0
ATOM     20  G   UNL     1      25.356   1.505  33.180  1.00  0.00     0.000 G0
ENDBRANCH  18  19
ENDBRANCH  15  18
ENDBRANCH   1  14
TORSDOF 0
ENDMDL
MODEL 3
REMARK VINA RESULT:    -3.909      2.013      3.777
REMARK INTER + INTRA:          -5.042
REMARK INTER:                  -5.033
REMARK INTRA:                  -0.009
REMARK UNBOUND:                 0.238
REMARK SMILES C=C1C(=O)O[C@@H]2[C@H]1CCC(C)=CCC[C@@]1(C)O[C@@H]21
REMARK SMILES IDX 6 1 7 2 2 3 1 4 3 5 4 6 5 7 8 8 9 9 10 10 11 11 12 12 18 14
REMARK SMILES IDX 15 15 17 16 16 17 14 18 13 19
REMARK H PARENT
REMARK Flexibility Score: 70.00
ROOT
ATOM      1  C   UNL     1      25.822  -0.152  34.844  1.00  0.00     0.216 C 
ATOM      2  C   UNL     1      24.328  -0.656  34.765  1.00  0.00     0.070 C 
ATOM      3  C   UNL     1      24.468  -2.074  34.282  1.00  0.00     0.037 C 
ATOM      4  C   UNL     1      23.483  -2.964  34.154  1.00  0.00     0.021 C 
ATOM      5  C   UNL     1      25.872  -2.374  34.182  1.00  0.00     0.334 C 
ATOM      6  O   UNL     1      26.362  -3.483  33.842  1.00  0.00    -0.247 OA
ATOM      7  O   UNL     1      26.631  -1.287  34.542  1.00  0.00    -0.455 OA
ENDROOT
BRANCH   2   8
ATOM      8  C   UNL     1      23.334   0.173  33.885  1.00  0.00     0.017 C 
BRANCH   8   9
ATOM      9  C   UNL     1      22.487   1.189  34.689  1.00  0.00     0.031 C 
BRANCH   9  10
ATOM     10  C   UNL     1      22.855   1.234  36.161  1.00  0.00    -0.077 C 
ATOM     11  C   UNL     1      22.202   0.251  37.100  1.00  0.00     0.039 C 
ATOM     12  C   UNL     1      23.763   2.093  36.677  1.00  0.00    -0.028 CG0
ATOM     13  G   UNL     1      24.445   3.202  35.913  1.00  0.00     0.000 G0
ENDBRANCH   9  10
ENDBRANCH   8   9
ENDBRANCH   2   8
BRANCH   1  14
ATOM     14  C   UNL     1      26.198   0.956  33.848  1.00  0.00     0.192 C 
ATOM     15  C   UNL     1      26.268   2.390  34.257  1.00  0.00     0.096 C 
ATOM     16  O   UNL     1      27.413   1.568  34.231  1.00  0.00    -0.362 OA
ATOM     17  C   UNL     1      26.316   3.431  33.134  1.00  0.00     0.045 C 
BRANCH  15  18
ATOM     18  C   UNL     1      25.950   2.873  35.691  1.00  0.00     0.042 C 
BRANCH  18  19
ATOM     19  C   UNL     1      24.467   3.204  35.915  1.00  0.00     0.030 CG0
ATOM     20  G   UNL     1      23.755   2.101  36.659  1.00  0.00     0.000 G0
ENDBRANCH  18  19
ENDBRANCH  15  18
ENDBRANCH   1  14
TORSDOF 0
ENDMDL
MODEL 4
REMARK VINA RESULT:    -3.902      6.505      9.333
REMARK INTER + INTRA:          -5.032
REMARK INTER:                  -5.389
REMARK INTRA:                   0.357
REMARK UNBOUND:                 0.238
REMARK SMILES C=C1C(=O)O[C@@H]2[C@H]1CCC(C)=CCC[C@@]1(C)O[C@@H]21
REMARK SMILES IDX 6 1 7 2 2 3 1 4 3 5 4 6 5 7 8 8 9 9 10 10 11 11 12 12 18 14
REMARK SMILES IDX 15 15 17 16 16 17 14 18 13 19
REMARK H PARENT
REMARK Flexibility Score: 70.00
ROOT
ATOM      1  C   UNL     1      32.858  -4.672  33.632  1.00  0.00     0.216 C 
ATOM      2  C   UNL     1      32.301  -3.661  34.711  1.00  0.00     0.070 C 
ATOM      3  C   UNL     1      30.859  -4.066  34.849  1.00  0.00     0.037 C 
ATOM      4  C   UNL     1      29.983  -3.574  35.726  1.00  0.00     0.021 C 
ATOM      5  C   UNL     1      30.638  -5.221  34.020  1.00  0.00     0.334 C 
ATOM      6  O   UNL     1      29.553  -5.852  33.915  1.00  0.00    -0.247 OA
ATOM      7  O   UNL     1      31.791  -5.579  33.363  1.00  0.00    -0.455 OA
ENDROOT
BRANCH   2   8
ATOM      8  C   UNL     1      32.461  -2.133  34.416  1.00  0.00     0.017 C 
BRANCH   8   9
ATOM      9  C   UNL     1      33.933  -1.670  34.297  1.00  0.00     0.031 C 
BRANCH   9  10
ATOM     10  C   UNL     1      34.844  -2.328  35.318  1.00  0.00    -0.077 C 
ATOM     11  C   UNL     1      34.488  -2.223  36.780  1.00  0.00     0.039 C 
ATOM     12  C   UNL     1      35.951  -3.031  34.986  1.00  0.00    -0.028 CG0
ATOM     13  G   UNL     1      36.513  -3.164  33.591  1.00  0.00     0.000 G0
ENDBRANCH   9  10
ENDBRANCH   8   9
ENDBRANCH   2   8
BRANCH   1  14
ATOM     14  C   UNL     1      33.272  -4.043  32.292  1.00  0.00     0.192 C 
ATOM     15  C   UNL     1      34.706  -3.892  31.904  1.00  0.00     0.096 C 
ATOM     16  O   UNL     1      33.935  -4.997  31.488  1.00  0.00    -0.362 OA
ATOM     17  C   UNL     1      35.013  -2.964  30.726  1.00  0.00     0.045 C 
BRANCH  15  18
ATOM     18  C   UNL     1      35.875  -4.331  32.817  1.00  0.00     0.042 C 
BRANCH  18  19
ATOM     19  C   UNL     1      36.517  -3.172  33.593  1.00  0.00     0.030 CG0
ATOM     20  G   UNL     1      35.943  -3.044  34.983  1.00  0.00     0.000 G0
ENDBRANCH  18  19
ENDBRANCH  15  18
ENDBRANCH   1  14
TORSDOF 0
ENDMDL
MODEL 5
REMARK VINA RESULT:    -3.830      2.067      3.724
REMARK INTER + INTRA:          -4.935
REMARK INTER:                  -4.995
REMARK INTRA:                   0.060
REMARK UNBOUND:                 0.238
REMARK SMILES C=C1C(=O)O[C@@H]2[C@H]1CCC(C)=CCC[C@@]1(C)O[C@@H]21
REMARK SMILES IDX 6 1 7 2 2 3 1 4 3 5 4 6 5 7 8 8 9 9 10 10 11 11 12 12 18 14
REMARK SMILES IDX 15 15 17 16 16 17 14 18 13 19
REMARK H PARENT
REMARK Flexibility Score: 70.00
ROOT
ATOM      1  C   UNL     1      26.517  -0.324  36.493  1.00  0.00     0.216 C 
ATOM      2  C   UNL     1      25.704  -0.916  35.275  1.00  0.00     0.070 C 
ATOM      3  C   UNL     1      26.557  -2.069  34.821  1.00  0.00     0.037 C 
ATOM      4  C   UNL     1      26.244  -2.957  33.876  1.00  0.00     0.021 C 
ATOM      5  C   UNL     1      27.674  -2.180  35.722  1.00  0.00     0.334 C 
ATOM      6  O   UNL     1      28.576  -3.057  35.667  1.00  0.00    -0.247 OA
ATOM      7  O   UNL     1      27.619  -1.207  36.690  1.00  0.00    -0.455 OA
ENDROOT
BRANCH   2   8
ATOM      8  C   UNL     1      25.354   0.058  34.102  1.00  0.00     0.017 C 
BRANCH   8   9
ATOM      9  C   UNL     1      24.033   0.839  34.312  1.00  0.00     0.031 C 
BRANCH   9  10
ATOM     10  C   UNL     1      23.251   0.364  35.524  1.00  0.00    -0.077 C 
ATOM     11  C   UNL     1      22.460  -0.915  35.418  1.00  0.00     0.039 C 
ATOM     12  C   UNL     1      23.247   1.015  36.710  1.00  0.00    -0.028 CG0
ATOM     13  G   UNL     1      23.900   2.349  36.974  1.00  0.00     0.000 G0
ENDBRANCH   9  10
ENDBRANCH   8   9
ENDBRANCH   2   8
BRANCH   1  14
ATOM     14  C   UNL     1      27.092   1.085  36.279  1.00  0.00     0.192 C 
ATOM     15  C   UNL     1      26.468   2.291  36.900  1.00  0.00     0.096 C 
ATOM     16  O   UNL     1      27.549   1.619  37.506  1.00  0.00    -0.362 OA
ATOM     17  C   UNL     1      26.906   3.656  36.359  1.00  0.00     0.045 C 
BRANCH  15  18
ATOM     18  C   UNL     1      25.197   2.224  37.778  1.00  0.00     0.042 C 
BRANCH  18  19
ATOM     19  C   UNL     1      23.891   2.362  36.981  1.00  0.00     0.030 CG0
ATOM     20  G   UNL     1      23.257   1.020  36.711  1.00  0.00     0.000 G0
ENDBRANCH  18  19
ENDBRANCH  15  18
ENDBRANCH   1  14
TORSDOF 0
ENDMDL
MODEL 6
REMARK VINA RESULT:    -3.688      2.662      4.074
REMARK INTER + INTRA:          -4.743
REMARK INTER:                  -4.715
REMARK INTRA:                  -0.028
REMARK UNBOUND:                 0.238
REMARK SMILES C=C1C(=O)O[C@@H]2[C@H]1CCC(C)=CCC[C@@]1(C)O[C@@H]21
REMARK SMILES IDX 6 1 7 2 2 3 1 4 3 5 4 6 5 7 8 8 9 9 10 10 11 11 12 12 18 14
REMARK SMILES IDX 15 15 17 16 16 17 14 18 13 19
REMARK H PARENT
REMARK Flexibility Score: 70.00
ROOT
ATOM      1  C   UNL     1      26.031   0.305  36.764  1.00  0.00     0.216 C 
ATOM      2  C   UNL     1      26.097   1.879  36.649  1.00  0.00     0.070 C 
ATOM      3  C   UNL     1      26.433   2.311  38.050  1.00  0.00     0.037 C 
ATOM      4  C   UNL     1      26.701   3.556  38.448  1.00  0.00     0.021 C 
ATOM      5  C   UNL     1      26.624   1.130  38.849  1.00  0.00     0.334 C 
ATOM      6  O   UNL     1      26.950   1.111  40.065  1.00  0.00    -0.247 OA
ATOM      7  O   UNL     1      26.430  -0.004  38.097  1.00  0.00    -0.455 OA
ENDROOT
BRANCH   2   8
ATOM      8  C   UNL     1      24.834   2.614  36.090  1.00  0.00     0.017 C 
BRANCH   8   9
ATOM      9  C   UNL     1      24.970   3.054  34.612  1.00  0.00     0.031 C 
BRANCH   9  10
ATOM     10  C   UNL     1      26.210   2.492  33.939  1.00  0.00    -0.077 C 
ATOM     11  C   UNL     1      27.481   3.303  33.971  1.00  0.00     0.039 C 
ATOM     12  C   UNL     1      26.246   1.283  33.333  1.00  0.00    -0.028 CG0
ATOM     13  G   UNL     1      25.057   0.378  33.124  1.00  0.00     0.000 G0
ENDBRANCH   9  10
ENDBRANCH   8   9
ENDBRANCH   2   8
BRANCH   1  14
ATOM     14  C   UNL     1      24.640  -0.314  36.548  1.00  0.00     0.192 C 
ATOM     15  C   UNL     1      24.235  -0.898  35.235  1.00  0.00     0.096 C 
ATOM     16  O   UNL     1      24.756  -1.695  36.275  1.00  0.00    -0.362 OA
ATOM     17  C   UNL     1      22.743  -1.174  35.029  1.00  0.00     0.045 C 
BRANCH  15  18
ATOM     18  C   UNL     1      25.161  -0.908  33.997  1.00  0.00     0.042 C 
BRANCH  18  19
ATOM     19  C   UNL     1      25.055   0.361  33.138  1.00  0.00     0.030 CG0
ATOM     20  G   UNL     1      26.236   1.276  33.345  1.00  0.00     0.000 G0
ENDBRANCH  18  19
ENDBRANCH  15  18
ENDBRANCH   1  14
TORSDOF 0
ENDMDL
MODEL 7
REMARK VINA RESULT:    -3.631      2.631      5.036
REMARK INTER + INTRA:          -4.666
REMARK INTER:                  -4.616
REMARK INTRA:                  -0.050
REMARK UNBOUND:                 0.238
REMARK SMILES C=C1C(=O)O[C@@H]2[C@H]1CCC(C)=CCC[C@@]1(C)O[C@@H]21
REMARK SMILES IDX 6 1 7 2 2 3 1 4 3 5 4 6 5 7 8 8 9 9 10 10 11 11 12 12 18 14
REMARK SMILES IDX 15 15 17 16 16 17 14 18 13 19
REMARK H PARENT
REMARK Flexibility Score: 70.00
ROOT
ATOM      1  C   UNL     1      25.713   0.882  33.860  1.00  0.00     0.216 C 
ATOM      2  C   UNL     1      24.643   2.031  34.027  1.00  0.00     0.070 C 
ATOM      3  C   UNL     1      25.223   3.160  33.219  1.00  0.00     0.037 C 
ATOM      4  C   UNL     1      24.634   4.328  32.961  1.00  0.00     0.021 C 
ATOM      5  C   UNL     1      26.430   2.687  32.594  1.00  0.00     0.334 C 
ATOM      6  O   UNL     1      27.162   3.353  31.814  1.00  0.00    -0.247 OA
ATOM      7  O   UNL     1      26.677   1.379  32.935  1.00  0.00    -0.455 OA
ENDROOT
BRANCH   2   8
ATOM      8  C   UNL     1      24.281   2.472  35.484  1.00  0.00     0.017 C 
BRANCH   8   9
ATOM      9  C   UNL     1      22.858   2.055  35.927  1.00  0.00     0.031 C 
BRANCH   9  10
ATOM     10  C   UNL     1      22.266   0.957  35.061  1.00  0.00    -0.077 C 
ATOM     11  C   UNL     1      21.287   1.337  33.979  1.00  0.00     0.039 C 
ATOM     12  C   UNL     1      22.592  -0.350  35.189  1.00  0.00    -0.028 CG0
ATOM     13  G   UNL     1      23.476  -0.926  36.267  1.00  0.00     0.000 G0
ENDBRANCH   9  10
ENDBRANCH   8   9
ENDBRANCH   2   8
BRANCH   1  14
ATOM     14  C   UNL     1      26.468   0.493  35.142  1.00  0.00     0.192 C 
ATOM     15  C   UNL     1      26.025  -0.647  35.999  1.00  0.00     0.096 C 
ATOM     16  O   UNL     1      27.020  -0.802  35.012  1.00  0.00    -0.362 OA
ATOM     17  C   UNL     1      26.631  -0.735  37.403  1.00  0.00     0.045 C 
BRANCH  15  18
ATOM     18  C   UNL     1      24.777  -1.503  35.684  1.00  0.00     0.042 C 
BRANCH  18  19
ATOM     19  C   UNL     1      23.477  -0.934  36.271  1.00  0.00     0.030 CG0
ATOM     20  G   UNL     1      22.589  -0.349  35.201  1.00  0.00     0.000 G0
ENDBRANCH  18  19
ENDBRANCH  15  18
ENDBRANCH   1  14
TORSDOF 0
ENDMDL
MODEL 8
REMARK VINA RESULT:    -3.594      2.785      4.683
REMARK INTER + INTRA:          -4.617
REMARK INTER:                  -4.670
REMARK INTRA:                   0.054
REMARK UNBOUND:                 0.238
REMARK SMILES C=C1C(=O)O[C@@H]2[C@H]1CCC(C)=CCC[C@@]1(C)O[C@@H]21
REMARK SMILES IDX 6 1 7 2 2 3 1 4 3 5 4 6 5 7 8 8 9 9 10 10 11 11 12 12 18 14
REMARK SMILES IDX 15 15 17 16 16 17 14 18 13 19
REMARK H PARENT
REMARK Flexibility Score: 70.00
ROOT
ATOM      1  C   UNL     1      26.046   1.136  35.188  1.00  0.00     0.216 C 
ATOM      2  C   UNL     1      25.094   0.317  34.231  1.00  0.00     0.070 C 
ATOM      3  C   UNL     1      25.022  -1.032  34.892  1.00  0.00     0.037 C 
ATOM      4  C   UNL     1      24.249  -2.053  34.517  1.00  0.00     0.021 C 
ATOM      5  C   UNL     1      25.768  -0.969  36.120  1.00  0.00     0.334 C 
ATOM      6  O   UNL     1      25.895  -1.907  36.951  1.00  0.00    -0.247 OA
ATOM      7  O   UNL     1      26.313   0.280  36.297  1.00  0.00    -0.455 OA
ENDROOT
BRANCH   2   8
ATOM      8  C   UNL     1      25.500   0.217  32.723  1.00  0.00     0.017 C 
BRANCH   8   9
ATOM      9  C   UNL     1      24.965   1.381  31.854  1.00  0.00     0.031 C 
BRANCH   9  10
ATOM     10  C   UNL     1      24.021   2.299  32.609  1.00  0.00    -0.077 C 
ATOM     11  C   UNL     1      22.601   1.847  32.839  1.00  0.00     0.039 C 
ATOM     12  C   UNL     1      24.394   3.497  33.116  1.00  0.00    -0.028 CG0
ATOM     13  G   UNL     1      25.737   4.152  32.907  1.00  0.00     0.000 G0
ENDBRANCH   9  10
ENDBRANCH   8   9
ENDBRANCH   2   8
BRANCH   1  14
ATOM     14  C   UNL     1      27.402   1.536  34.583  1.00  0.00     0.192 C 
ATOM     15  C   UNL     1      27.672   2.927  34.112  1.00  0.00     0.096 C 
ATOM     16  O   UNL     1      28.040   2.495  35.403  1.00  0.00    -0.362 OA
ATOM     17  C   UNL     1      28.909   3.134  33.232  1.00  0.00     0.045 C 
BRANCH  15  18
ATOM     18  C   UNL     1      26.618   4.057  34.173  1.00  0.00     0.042 C 
BRANCH  18  19
ATOM     19  C   UNL     1      25.745   4.152  32.913  1.00  0.00     0.030 CG0
ATOM     20  G   UNL     1      24.403   3.492  33.112  1.00  0.00     0.000 G0
ENDBRANCH  18  19
ENDBRANCH  15  18
ENDBRANCH   1  14
TORSDOF 0
ENDMDL
MODEL 9
REMARK VINA RESULT:    -3.577      2.044      4.959
REMARK INTER + INTRA:          -4.593
REMARK INTER:                  -4.798
REMARK INTRA:                   0.205
REMARK UNBOUND:                 0.238
REMARK SMILES C=C1C(=O)O[C@@H]2[C@H]1CCC(C)=CCC[C@@]1(C)O[C@@H]21
REMARK SMILES IDX 6 1 7 2 2 3 1 4 3 5 4 6 5 7 8 8 9 9 10 10 11 11 12 12 18 14
REMARK SMILES IDX 15 15 17 16 16 17 14 18 13 19
REMARK H PARENT
REMARK Flexibility Score: 70.00
ROOT
ATOM      1  C   UNL     1      23.428   0.359  34.525  1.00  0.00     0.216 C 
ATOM      2  C   UNL     1      23.906   1.683  33.809  1.00  0.00     0.070 C 
ATOM      3  C   UNL     1      22.653   2.185  33.146  1.00  0.00     0.037 C 
ATOM      4  C   UNL     1      22.515   3.342  32.496  1.00  0.00     0.021 C 
ATOM      5  C   UNL     1      21.572   1.308  33.510  1.00  0.00     0.334 C 
ATOM      6  O   UNL     1      20.369   1.444  33.164  1.00  0.00    -0.247 OA
ATOM      7  O   UNL     1      22.017   0.296  34.326  1.00  0.00    -0.455 OA
ENDROOT
BRANCH   2   8
ATOM      8  C   UNL     1      25.101   1.567  32.805  1.00  0.00     0.017 C 
BRANCH   8   9
ATOM      9  C   UNL     1      26.464   1.296  33.487  1.00  0.00     0.031 C 
BRANCH   9  10
ATOM     10  C   UNL     1      26.535   1.834  34.905  1.00  0.00    -0.077 C 
ATOM     11  C   UNL     1      26.387   3.319  35.123  1.00  0.00     0.039 C 
ATOM     12  C   UNL     1      26.697   1.048  35.993  1.00  0.00    -0.028 CG0
ATOM     13  G   UNL     1      26.954  -0.439  35.964  1.00  0.00     0.000 G0
ENDBRANCH   9  10
ENDBRANCH   8   9
ENDBRANCH   2   8
BRANCH   1  14
ATOM     14  C   UNL     1      24.026  -0.944  33.971  1.00  0.00     0.192 C 
ATOM     15  C   UNL     1      25.070  -1.709  34.716  1.00  0.00     0.096 C 
ATOM     16  O   UNL     1      23.701  -2.031  34.814  1.00  0.00    -0.362 OA
ATOM     17  C   UNL     1      25.830  -2.786  33.936  1.00  0.00     0.045 C 
BRANCH  15  18
ATOM     18  C   UNL     1      25.642  -1.247  36.076  1.00  0.00     0.042 C 
BRANCH  18  19
ATOM     19  C   UNL     1      26.946  -0.445  35.955  1.00  0.00     0.030 CG0
ATOM     20  G   UNL     1      26.693   1.042  35.987  1.00  0.00     0.000 G0
ENDBRANCH  18  19
ENDBRANCH  15  18
ENDBRANCH   1  14
TORSDOF 0
ENDMDL
