MODEL 1
REMARK VINA RESULT:    -7.652      0.000      0.000
REMARK INTER + INTRA:         -11.033
REMARK INTER:                 -10.337
REMARK INTRA:                  -0.696
REMARK UNBOUND:                -0.696
REMARK SMILES O=c1c(-c2ccc(O)cc2)coc2c([C@@H]3O[C@@H](CO)[C@@H](O)[C@@H](O)[C@H]3O)c(O)ccc12
REMARK SMILES IDX 3 1 11 2 12 3 13 4 30 5 2 6 1 7 29 8 28 9 26 10 14 11 4 12
REMARK SMILES IDX 5 13 6 14 7 15 10 16 9 17 8 18 15 20 24 21 16 22 22 23 17 24
REMARK SMILES IDX 20 25 25 26 23 28 18 30 19 31 21 33 27 35
REMARK H PARENT 8 19 25 27 23 29 19 32 21 34 27 36
REMARK Flexibility Score: inf
ROOT
ATOM      1  C   UNL     1      49.593  31.474  61.094  1.00  0.00     0.065 A 
ATOM      2  C   UNL     1      49.369  32.215  62.263  1.00  0.00     0.208 A 
ATOM      3  O   UNL     1      49.075  31.610  63.407  1.00  0.00    -0.463 OA
ATOM      4  C   UNL     1      48.971  30.288  63.527  1.00  0.00     0.147 A 
ATOM      5  C   UNL     1      49.171  29.465  62.394  1.00  0.00     0.066 A 
ATOM      6  C   UNL     1      49.482  30.074  61.165  1.00  0.00     0.200 A 
ATOM      7  O   UNL     1      49.640  29.370  60.128  1.00  0.00    -0.288 OA
ATOM      8  C   UNL     1      49.048  28.073  62.518  1.00  0.00     0.020 A 
ATOM      9  C   UNL     1      48.721  27.504  63.747  1.00  0.00     0.047 A 
ATOM     10  C   UNL     1      48.518  28.308  64.874  1.00  0.00     0.125 A 
ATOM     11  C   UNL     1      48.655  29.713  64.781  1.00  0.00     0.069 A 
ENDROOT
BRANCH   1  12
ATOM     12  C   UNL     1      49.930  32.173  59.828  1.00  0.00    -0.011 A 
ATOM     13  C   UNL     1      51.247  32.156  59.336  1.00  0.00     0.013 A 
ATOM     14  C   UNL     1      51.566  32.806  58.140  1.00  0.00     0.047 A 
ATOM     15  C   UNL     1      50.571  33.475  57.417  1.00  0.00     0.115 A 
ATOM     16  C   UNL     1      48.935  32.841  59.091  1.00  0.00     0.013 A 
ATOM     17  C   UNL     1      49.257  33.489  57.894  1.00  0.00     0.047 A 
BRANCH  15  18
ATOM     18  O   UNL     1      50.876  34.125  56.223  1.00  0.00    -0.508 OA
ATOM     19  H   UNL     1      50.158  34.581  55.671  1.00  0.00     0.293 HD
ENDBRANCH  15  18
ENDBRANCH   1  12
BRANCH  11  20
ATOM     20  C   UNL     1      48.412  30.596  65.998  1.00  0.00     0.188 C 
ATOM     21  C   UNL     1      49.697  31.391  66.341  1.00  0.00     0.179 C 
ATOM     22  O   UNL     1      47.323  31.465  65.724  1.00  0.00    -0.362 OA
ATOM     23  C   UNL     1      49.467  32.276  67.578  1.00  0.00     0.177 C 
ATOM     24  C   UNL     1      46.983  32.308  66.817  1.00  0.00     0.176 C 
ATOM     25  C   UNL     1      48.194  33.121  67.367  1.00  0.00     0.177 C 
BRANCH  21  26
ATOM     26  O   UNL     1      50.806  30.545  66.529  1.00  0.00    -0.387 OA
ATOM     27  H   UNL     1      50.633  29.984  67.329  1.00  0.00     0.211 HD
ENDBRANCH  21  26
BRANCH  23  28
ATOM     28  O   UNL     1      49.362  31.492  68.740  1.00  0.00    -0.387 OA
ATOM     29  H   UNL     1      48.526  30.962  68.663  1.00  0.00     0.211 HD
ENDBRANCH  23  28
BRANCH  24  30
ATOM     30  C   UNL     1      46.084  31.595  67.853  1.00  0.00     0.191 C 
BRANCH  30  31
ATOM     31  O   UNL     1      46.695  31.493  69.108  1.00  0.00    -0.394 OA
ATOM     32  H   UNL     1      46.201  30.787  69.600  1.00  0.00     0.210 HD
ENDBRANCH  30  31
ENDBRANCH  24  30
BRANCH  25  33
ATOM     33  O   UNL     1      47.859  33.870  68.510  1.00  0.00    -0.388 OA
ATOM     34  H   UNL     1      46.888  34.065  68.480  1.00  0.00     0.211 HD
ENDBRANCH  25  33
ENDBRANCH  11  20
BRANCH  10  35
ATOM     35  O   UNL     1      48.177  27.710  66.088  1.00  0.00    -0.507 OA
ATOM     36  H   UNL     1      48.881  27.389  66.741  1.00  0.00     0.293 HD
ENDBRANCH  10  35
TORSDOF 9
ENDMDL
MODEL 2
REMARK VINA RESULT:    -7.545      2.636      4.373
REMARK INTER + INTRA:         -10.888
REMARK INTER:                 -10.328
REMARK INTRA:                  -0.561
REMARK UNBOUND:                -0.696
REMARK SMILES O=c1c(-c2ccc(O)cc2)coc2c([C@@H]3O[C@@H](CO)[C@@H](O)[C@@H](O)[C@H]3O)c(O)ccc12
REMARK SMILES IDX 3 1 11 2 12 3 13 4 30 5 2 6 1 7 29 8 28 9 26 10 14 11 4 12
REMARK SMILES IDX 5 13 6 14 7 15 10 16 9 17 8 18 15 20 24 21 16 22 22 23 17 24
REMARK SMILES IDX 20 25 25 26 23 28 18 30 19 31 21 33 27 35
REMARK H PARENT 8 19 25 27 23 29 19 32 21 34 27 36
REMARK Flexibility Score: inf
ROOT
ATOM      1  C   UNL     1      48.424  29.176  61.582  1.00  0.00     0.065 A 
ATOM      2  C   UNL     1      47.892  29.430  62.854  1.00  0.00     0.208 A 
ATOM      3  O   UNL     1      48.581  30.118  63.756  1.00  0.00    -0.463 OA
ATOM      4  C   UNL     1      49.798  30.604  63.528  1.00  0.00     0.147 A 
ATOM      5  C   UNL     1      50.415  30.386  62.273  1.00  0.00     0.066 A 
ATOM      6  C   UNL     1      49.714  29.657  61.295  1.00  0.00     0.200 A 
ATOM      7  O   UNL     1      50.247  29.420  60.175  1.00  0.00    -0.288 OA
ATOM      8  C   UNL     1      51.704  30.887  62.038  1.00  0.00     0.020 A 
ATOM      9  C   UNL     1      52.378  31.589  63.036  1.00  0.00     0.047 A 
ATOM     10  C   UNL     1      51.779  31.810  64.281  1.00  0.00     0.125 A 
ATOM     11  C   UNL     1      50.473  31.331  64.538  1.00  0.00     0.069 A 
ENDROOT
BRANCH   1  12
ATOM     12  C   UNL     1      47.631  28.411  60.587  1.00  0.00    -0.011 A 
ATOM     13  C   UNL     1      47.085  29.059  59.465  1.00  0.00     0.013 A 
ATOM     14  C   UNL     1      46.344  28.340  58.522  1.00  0.00     0.047 A 
ATOM     15  C   UNL     1      46.147  26.963  58.684  1.00  0.00     0.115 A 
ATOM     16  C   UNL     1      47.434  27.026  60.738  1.00  0.00     0.013 A 
ATOM     17  C   UNL     1      46.695  26.310  59.792  1.00  0.00     0.047 A 
BRANCH  15  18
ATOM     18  O   UNL     1      45.413  26.236  57.750  1.00  0.00    -0.508 OA
ATOM     19  H   UNL     1      44.400  26.207  57.781  1.00  0.00     0.293 HD
ENDBRANCH  15  18
ENDBRANCH   1  12
BRANCH  11  20
ATOM     20  C   UNL     1      49.823  31.547  65.899  1.00  0.00     0.188 C 
ATOM     21  C   UNL     1      48.642  32.542  65.772  1.00  0.00     0.179 C 
ATOM     22  O   UNL     1      49.391  30.293  66.405  1.00  0.00    -0.362 OA
ATOM     23  C   UNL     1      47.989  32.779  67.144  1.00  0.00     0.177 C 
ATOM     24  C   UNL     1      48.807  30.375  67.699  1.00  0.00     0.176 C 
ATOM     25  C   UNL     1      47.651  31.417  67.785  1.00  0.00     0.177 C 
BRANCH  21  26
ATOM     26  O   UNL     1      49.040  33.760  65.189  1.00  0.00    -0.387 OA
ATOM     27  H   UNL     1      48.310  34.419  65.324  1.00  0.00     0.211 HD
ENDBRANCH  21  26
BRANCH  23  28
ATOM     28  O   UNL     1      48.836  33.529  67.978  1.00  0.00    -0.387 OA
ATOM     29  H   UNL     1      48.718  34.485  67.733  1.00  0.00     0.211 HD
ENDBRANCH  23  28
BRANCH  24  30
ATOM     30  C   UNL     1      49.868  30.405  68.823  1.00  0.00     0.191 C 
BRANCH  30  31
ATOM     31  O   UNL     1      49.434  29.751  69.982  1.00  0.00    -0.394 OA
ATOM     32  H   UNL     1      49.178  28.834  69.702  1.00  0.00     0.210 HD
ENDBRANCH  30  31
ENDBRANCH  24  30
BRANCH  25  33
ATOM     33  O   UNL     1      47.154  31.556  69.095  1.00  0.00    -0.388 OA
ATOM     34  H   UNL     1      46.198  31.297  69.094  1.00  0.00     0.211 HD
ENDBRANCH  25  33
ENDBRANCH  11  20
BRANCH  10  35
ATOM     35  O   UNL     1      52.484  32.503  65.265  1.00  0.00    -0.507 OA
ATOM     36  H   UNL     1      53.205  33.174  65.033  1.00  0.00     0.293 HD
ENDBRANCH  10  35
TORSDOF 9
ENDMDL
MODEL 3
REMARK VINA RESULT:    -7.368      4.437      9.188
REMARK INTER + INTRA:         -10.649
REMARK INTER:                  -9.671
REMARK INTRA:                  -0.977
REMARK UNBOUND:                -0.696
REMARK SMILES O=c1c(-c2ccc(O)cc2)coc2c([C@@H]3O[C@@H](CO)[C@@H](O)[C@@H](O)[C@H]3O)c(O)ccc12
REMARK SMILES IDX 3 1 11 2 12 3 13 4 30 5 2 6 1 7 29 8 28 9 26 10 14 11 4 12
REMARK SMILES IDX 5 13 6 14 7 15 10 16 9 17 8 18 15 20 24 21 16 22 22 23 17 24
REMARK SMILES IDX 20 25 25 26 23 28 18 30 19 31 21 33 27 35
REMARK H PARENT 8 19 25 27 23 29 19 32 21 34 27 36
REMARK Flexibility Score: inf
ROOT
ATOM      1  C   UNL     1      51.924  30.045  70.372  1.00  0.00     0.065 A 
ATOM      2  C   UNL     1      50.556  29.876  70.115  1.00  0.00     0.208 A 
ATOM      3  O   UNL     1      50.004  30.365  69.011  1.00  0.00    -0.463 OA
ATOM      4  C   UNL     1      50.690  31.038  68.090  1.00  0.00     0.147 A 
ATOM      5  C   UNL     1      52.075  31.263  68.274  1.00  0.00     0.066 A 
ATOM      6  C   UNL     1      52.690  30.760  69.435  1.00  0.00     0.200 A 
ATOM      7  O   UNL     1      53.919  30.967  69.644  1.00  0.00    -0.288 OA
ATOM      8  C   UNL     1      52.794  31.984  67.310  1.00  0.00     0.020 A 
ATOM      9  C   UNL     1      52.148  32.484  66.180  1.00  0.00     0.047 A 
ATOM     10  C   UNL     1      50.779  32.269  65.988  1.00  0.00     0.125 A 
ATOM     11  C   UNL     1      50.034  31.529  66.936  1.00  0.00     0.069 A 
ENDROOT
BRANCH   1  12
ATOM     12  C   UNL     1      52.520  29.480  71.609  1.00  0.00    -0.011 A 
ATOM     13  C   UNL     1      52.654  30.277  72.759  1.00  0.00     0.013 A 
ATOM     14  C   UNL     1      53.207  29.747  73.928  1.00  0.00     0.047 A 
ATOM     15  C   UNL     1      53.627  28.411  73.964  1.00  0.00     0.115 A 
ATOM     16  C   UNL     1      52.938  28.138  71.656  1.00  0.00     0.013 A 
ATOM     17  C   UNL     1      53.489  27.610  72.827  1.00  0.00     0.047 A 
BRANCH  15  18
ATOM     18  O   UNL     1      54.179  27.871  75.124  1.00  0.00    -0.508 OA
ATOM     19  H   UNL     1      54.349  28.441  75.944  1.00  0.00     0.293 HD
ENDBRANCH  15  18
ENDBRANCH   1  12
BRANCH  11  20
ATOM     20  C   UNL     1      48.538  31.312  66.746  1.00  0.00     0.188 C 
ATOM     21  C   UNL     1      47.745  32.453  67.430  1.00  0.00     0.179 C 
ATOM     22  O   UNL     1      48.258  31.249  65.355  1.00  0.00    -0.362 OA
ATOM     23  C   UNL     1      46.232  32.235  67.256  1.00  0.00     0.177 C 
ATOM     24  C   UNL     1      46.888  31.003  65.064  1.00  0.00     0.176 C 
ATOM     25  C   UNL     1      45.922  32.008  65.762  1.00  0.00     0.177 C 
BRANCH  21  26
ATOM     26  O   UNL     1      48.079  32.584  68.792  1.00  0.00    -0.387 OA
ATOM     27  H   UNL     1      47.826  31.742  69.253  1.00  0.00     0.211 HD
ENDBRANCH  21  26
BRANCH  23  28
ATOM     28  O   UNL     1      45.791  31.149  68.031  1.00  0.00    -0.387 OA
ATOM     29  H   UNL     1      44.798  31.158  68.014  1.00  0.00     0.211 HD
ENDBRANCH  23  28
BRANCH  24  30
ATOM     30  C   UNL     1      46.527  29.502  65.152  1.00  0.00     0.191 C 
BRANCH  30  31
ATOM     31  O   UNL     1      45.635  29.110  64.148  1.00  0.00    -0.394 OA
ATOM     32  H   UNL     1      46.084  29.308  63.286  1.00  0.00     0.210 HD
ENDBRANCH  30  31
ENDBRANCH  24  30
BRANCH  25  33
ATOM     33  O   UNL     1      44.569  31.687  65.544  1.00  0.00    -0.388 OA
ATOM     34  H   UNL     1      44.513  30.730  65.296  1.00  0.00     0.211 HD
ENDBRANCH  25  33
ENDBRANCH  11  20
BRANCH  10  35
ATOM     35  O   UNL     1      50.157  32.795  64.855  1.00  0.00    -0.507 OA
ATOM     36  H   UNL     1      49.641  32.210  64.210  1.00  0.00     0.293 HD
ENDBRANCH  10  35
TORSDOF 9
ENDMDL
MODEL 4
REMARK VINA RESULT:    -7.364      4.369      8.949
REMARK INTER + INTRA:         -10.643
REMARK INTER:                  -9.991
REMARK INTRA:                  -0.652
REMARK UNBOUND:                -0.696
REMARK SMILES O=c1c(-c2ccc(O)cc2)coc2c([C@@H]3O[C@@H](CO)[C@@H](O)[C@@H](O)[C@H]3O)c(O)ccc12
REMARK SMILES IDX 3 1 11 2 12 3 13 4 30 5 2 6 1 7 29 8 28 9 26 10 14 11 4 12
REMARK SMILES IDX 5 13 6 14 7 15 10 16 9 17 8 18 15 20 24 21 16 22 22 23 17 24
REMARK SMILES IDX 20 25 25 26 23 28 18 30 19 31 21 33 27 35
REMARK H PARENT 8 19 25 27 23 29 19 32 21 34 27 36
REMARK Flexibility Score: inf
ROOT
ATOM      1  C   UNL     1      51.849  30.152  70.022  1.00  0.00     0.065 A 
ATOM      2  C   UNL     1      50.472  30.133  69.762  1.00  0.00     0.208 A 
ATOM      3  O   UNL     1      49.980  30.675  68.655  1.00  0.00    -0.463 OA
ATOM      4  C   UNL     1      50.737  31.265  67.733  1.00  0.00     0.147 A 
ATOM      5  C   UNL     1      52.138  31.337  67.920  1.00  0.00     0.066 A 
ATOM      6  C   UNL     1      52.692  30.775  69.084  1.00  0.00     0.200 A 
ATOM      7  O   UNL     1      53.936  30.846  69.296  1.00  0.00    -0.288 OA
ATOM      8  C   UNL     1      52.934  31.971  66.954  1.00  0.00     0.020 A 
ATOM      9  C   UNL     1      52.350  32.533  65.821  1.00  0.00     0.047 A 
ATOM     10  C   UNL     1      50.966  32.469  65.626  1.00  0.00     0.125 A 
ATOM     11  C   UNL     1      50.142  31.820  66.576  1.00  0.00     0.069 A 
ENDROOT
BRANCH   1  12
ATOM     12  C   UNL     1      52.377  29.531  71.263  1.00  0.00    -0.011 A 
ATOM     13  C   UNL     1      52.335  30.232  72.481  1.00  0.00     0.013 A 
ATOM     14  C   UNL     1      52.824  29.648  73.653  1.00  0.00     0.047 A 
ATOM     15  C   UNL     1      53.354  28.352  73.624  1.00  0.00     0.115 A 
ATOM     16  C   UNL     1      52.905  28.227  71.244  1.00  0.00     0.013 A 
ATOM     17  C   UNL     1      53.392  27.645  72.419  1.00  0.00     0.047 A 
BRANCH  15  18
ATOM     18  O   UNL     1      53.843  27.758  74.785  1.00  0.00    -0.508 OA
ATOM     19  H   UNL     1      53.555  26.827  75.065  1.00  0.00     0.293 HD
ENDBRANCH  15  18
ENDBRANCH   1  12
BRANCH  11  20
ATOM     20  C   UNL     1      48.631  31.768  66.382  1.00  0.00     0.188 C 
ATOM     21  C   UNL     1      48.164  30.297  66.248  1.00  0.00     0.179 C 
ATOM     22  O   UNL     1      48.006  32.412  67.482  1.00  0.00    -0.362 OA
ATOM     23  C   UNL     1      46.642  30.233  66.037  1.00  0.00     0.177 C 
ATOM     24  C   UNL     1      46.588  32.458  67.379  1.00  0.00     0.176 C 
ATOM     25  C   UNL     1      45.944  31.060  67.137  1.00  0.00     0.177 C 
BRANCH  21  26
ATOM     26  O   UNL     1      48.843  29.620  65.216  1.00  0.00    -0.387 OA
ATOM     27  H   UNL     1      48.770  28.645  65.388  1.00  0.00     0.211 HD
ENDBRANCH  21  26
BRANCH  23  28
ATOM     28  O   UNL     1      46.295  30.704  64.759  1.00  0.00    -0.387 OA
ATOM     29  H   UNL     1      47.101  30.621  64.186  1.00  0.00     0.211 HD
ENDBRANCH  23  28
BRANCH  24  30
ATOM     30  C   UNL     1      46.100  33.623  66.487  1.00  0.00     0.191 C 
BRANCH  30  31
ATOM     31  O   UNL     1      44.797  34.024  66.800  1.00  0.00    -0.394 OA
ATOM     32  H   UNL     1      44.788  35.014  66.734  1.00  0.00     0.210 HD
ENDBRANCH  30  31
ENDBRANCH  24  30
BRANCH  25  33
ATOM     33  O   UNL     1      44.553  31.140  66.938  1.00  0.00    -0.388 OA
ATOM     34  H   UNL     1      44.203  31.884  67.490  1.00  0.00     0.211 HD
ENDBRANCH  25  33
ENDBRANCH  11  20
BRANCH  10  35
ATOM     35  O   UNL     1      50.408  33.055  64.490  1.00  0.00    -0.507 OA
ATOM     36  H   UNL     1      50.290  34.057  64.409  1.00  0.00     0.293 HD
ENDBRANCH  10  35
TORSDOF 9
ENDMDL
MODEL 5
REMARK VINA RESULT:    -7.319      2.760      5.275
REMARK INTER + INTRA:         -10.583
REMARK INTER:                  -9.316
REMARK INTRA:                  -1.267
REMARK UNBOUND:                -0.696
REMARK SMILES O=c1c(-c2ccc(O)cc2)coc2c([C@@H]3O[C@@H](CO)[C@@H](O)[C@@H](O)[C@H]3O)c(O)ccc12
REMARK SMILES IDX 3 1 11 2 12 3 13 4 30 5 2 6 1 7 29 8 28 9 26 10 14 11 4 12
REMARK SMILES IDX 5 13 6 14 7 15 10 16 9 17 8 18 15 20 24 21 16 22 22 23 17 24
REMARK SMILES IDX 20 25 25 26 23 28 18 30 19 31 21 33 27 35
REMARK H PARENT 8 19 25 27 23 29 19 32 21 34 27 36
REMARK Flexibility Score: inf
ROOT
ATOM      1  C   UNL     1      48.064  27.294  62.321  1.00  0.00     0.065 A 
ATOM      2  C   UNL     1      47.430  27.746  63.487  1.00  0.00     0.208 A 
ATOM      3  O   UNL     1      47.772  28.901  64.044  1.00  0.00    -0.463 OA
ATOM      4  C   UNL     1      48.721  29.695  63.553  1.00  0.00     0.147 A 
ATOM      5  C   UNL     1      49.419  29.310  62.383  1.00  0.00     0.066 A 
ATOM      6  C   UNL     1      49.083  28.091  61.769  1.00  0.00     0.200 A 
ATOM      7  O   UNL     1      49.705  27.704  60.740  1.00  0.00    -0.288 OA
ATOM      8  C   UNL     1      50.428  30.141  61.873  1.00  0.00     0.020 A 
ATOM      9  C   UNL     1      50.747  31.335  62.518  1.00  0.00     0.047 A 
ATOM     10  C   UNL     1      50.065  31.725  63.676  1.00  0.00     0.125 A 
ATOM     11  C   UNL     1      49.031  30.915  64.200  1.00  0.00     0.069 A 
ENDROOT
BRANCH   1  12
ATOM     12  C   UNL     1      47.658  26.002  61.711  1.00  0.00    -0.011 A 
ATOM     13  C   UNL     1      48.219  24.796  62.164  1.00  0.00     0.013 A 
ATOM     14  C   UNL     1      47.833  23.578  61.597  1.00  0.00     0.047 A 
ATOM     15  C   UNL     1      46.875  23.549  60.576  1.00  0.00     0.115 A 
ATOM     16  C   UNL     1      46.691  25.965  60.690  1.00  0.00     0.013 A 
ATOM     17  C   UNL     1      46.306  24.744  60.126  1.00  0.00     0.047 A 
BRANCH  15  18
ATOM     18  O   UNL     1      46.481  22.342  60.004  1.00  0.00    -0.508 OA
ATOM     19  H   UNL     1      46.699  21.453  60.442  1.00  0.00     0.293 HD
ENDBRANCH  15  18
ENDBRANCH   1  12
BRANCH  11  20
ATOM     20  C   UNL     1      48.300  31.321  65.474  1.00  0.00     0.188 C 
ATOM     21  C   UNL     1      49.212  31.092  66.705  1.00  0.00     0.179 C 
ATOM     22  O   UNL     1      47.911  32.683  65.364  1.00  0.00    -0.362 OA
ATOM     23  C   UNL     1      48.478  31.486  67.998  1.00  0.00     0.177 C 
ATOM     24  C   UNL     1      47.178  33.154  66.488  1.00  0.00     0.176 C 
ATOM     25  C   UNL     1      47.909  32.911  67.843  1.00  0.00     0.177 C 
BRANCH  21  26
ATOM     26  O   UNL     1      49.677  29.765  66.776  1.00  0.00    -0.387 OA
ATOM     27  H   UNL     1      49.624  29.372  65.866  1.00  0.00     0.211 HD
ENDBRANCH  21  26
BRANCH  23  28
ATOM     28  O   UNL     1      47.456  30.567  68.292  1.00  0.00    -0.387 OA
ATOM     29  H   UNL     1      47.855  29.659  68.248  1.00  0.00     0.211 HD
ENDBRANCH  23  28
BRANCH  24  30
ATOM     30  C   UNL     1      45.681  32.775  66.416  1.00  0.00     0.191 C 
BRANCH  30  31
ATOM     31  O   UNL     1      45.288  31.955  67.479  1.00  0.00    -0.394 OA
ATOM     32  H   UNL     1      44.297  31.994  67.507  1.00  0.00     0.210 HD
ENDBRANCH  30  31
ENDBRANCH  24  30
BRANCH  25  33
ATOM     33  O   UNL     1      47.125  33.293  68.947  1.00  0.00    -0.388 OA
ATOM     34  H   UNL     1      46.257  32.819  68.891  1.00  0.00     0.211 HD
ENDBRANCH  25  33
ENDBRANCH  11  20
BRANCH  10  35
ATOM     35  O   UNL     1      50.417  32.918  64.307  1.00  0.00    -0.507 OA
ATOM     36  H   UNL     1      49.928  33.251  65.129  1.00  0.00     0.293 HD
ENDBRANCH  10  35
TORSDOF 9
ENDMDL
MODEL 6
REMARK VINA RESULT:    -7.311      1.664      2.615
REMARK INTER + INTRA:         -10.572
REMARK INTER:                  -9.291
REMARK INTRA:                  -1.281
REMARK UNBOUND:                -0.696
REMARK SMILES O=c1c(-c2ccc(O)cc2)coc2c([C@@H]3O[C@@H](CO)[C@@H](O)[C@@H](O)[C@H]3O)c(O)ccc12
REMARK SMILES IDX 3 1 11 2 12 3 13 4 30 5 2 6 1 7 29 8 28 9 26 10 14 11 4 12
REMARK SMILES IDX 5 13 6 14 7 15 10 16 9 17 8 18 15 20 24 21 16 22 22 23 17 24
REMARK SMILES IDX 20 25 25 26 23 28 18 30 19 31 21 33 27 35
REMARK H PARENT 8 19 25 27 23 29 19 32 21 34 27 36
REMARK Flexibility Score: inf
ROOT
ATOM      1  C   UNL     1      49.909  30.966  61.691  1.00  0.00     0.065 A 
ATOM      2  C   UNL     1      50.209  31.514  62.946  1.00  0.00     0.208 A 
ATOM      3  O   UNL     1      50.100  30.787  64.051  1.00  0.00    -0.463 OA
ATOM      4  C   UNL     1      49.705  29.516  64.051  1.00  0.00     0.147 A 
ATOM      5  C   UNL     1      49.373  28.886  62.828  1.00  0.00     0.066 A 
ATOM      6  C   UNL     1      49.475  29.629  61.638  1.00  0.00     0.200 A 
ATOM      7  O   UNL     1      49.160  29.107  60.532  1.00  0.00    -0.288 OA
ATOM      8  C   UNL     1      48.944  27.550  62.830  1.00  0.00     0.020 A 
ATOM      9  C   UNL     1      48.838  26.849  64.030  1.00  0.00     0.047 A 
ATOM     10  C   UNL     1      49.161  27.461  65.245  1.00  0.00     0.125 A 
ATOM     11  C   UNL     1      49.614  28.801  65.269  1.00  0.00     0.069 A 
ENDROOT
BRANCH   1  12
ATOM     12  C   UNL     1      50.048  31.797  60.468  1.00  0.00    -0.011 A 
ATOM     13  C   UNL     1      51.271  31.843  59.776  1.00  0.00     0.013 A 
ATOM     14  C   UNL     1      51.402  32.618  58.620  1.00  0.00     0.047 A 
ATOM     15  C   UNL     1      50.310  33.350  58.137  1.00  0.00     0.115 A 
ATOM     16  C   UNL     1      48.954  32.530  59.972  1.00  0.00     0.013 A 
ATOM     17  C   UNL     1      49.089  33.302  58.814  1.00  0.00     0.047 A 
BRANCH  15  18
ATOM     18  O   UNL     1      50.428  34.124  56.985  1.00  0.00    -0.508 OA
ATOM     19  H   UNL     1      50.499  35.134  57.031  1.00  0.00     0.293 HD
ENDBRANCH  15  18
ENDBRANCH   1  12
BRANCH  11  20
ATOM     20  C   UNL     1      49.946  29.482  66.592  1.00  0.00     0.188 C 
ATOM     21  C   UNL     1      48.644  29.959  67.284  1.00  0.00     0.179 C 
ATOM     22  O   UNL     1      50.664  28.570  67.410  1.00  0.00    -0.362 OA
ATOM     23  C   UNL     1      48.969  30.661  68.614  1.00  0.00     0.177 C 
ATOM     24  C   UNL     1      51.063  29.122  68.657  1.00  0.00     0.176 C 
ATOM     25  C   UNL     1      49.881  29.748  69.458  1.00  0.00     0.177 C 
BRANCH  21  26
ATOM     26  O   UNL     1      47.879  30.794  66.449  1.00  0.00    -0.387 OA
ATOM     27  H   UNL     1      48.504  31.356  65.920  1.00  0.00     0.211 HD
ENDBRANCH  21  26
BRANCH  23  28
ATOM     28  O   UNL     1      49.579  31.906  68.385  1.00  0.00    -0.387 OA
ATOM     29  H   UNL     1      48.916  32.606  68.619  1.00  0.00     0.211 HD
ENDBRANCH  23  28
BRANCH  24  30
ATOM     30  C   UNL     1      52.359  29.958  68.544  1.00  0.00     0.191 C 
BRANCH  30  31
ATOM     31  O   UNL     1      52.173  31.285  68.946  1.00  0.00    -0.394 OA
ATOM     32  H   UNL     1      51.821  31.768  68.154  1.00  0.00     0.210 HD
ENDBRANCH  30  31
ENDBRANCH  24  30
BRANCH  25  33
ATOM     33  O   UNL     1      50.313  30.377  70.641  1.00  0.00    -0.388 OA
ATOM     34  H   UNL     1      51.302  30.432  70.621  1.00  0.00     0.211 HD
ENDBRANCH  25  33
ENDBRANCH  11  20
BRANCH  10  35
ATOM     35  O   UNL     1      49.030  26.739  66.431  1.00  0.00    -0.507 OA
ATOM     36  H   UNL     1      49.809  26.240  66.842  1.00  0.00     0.293 HD
ENDBRANCH  10  35
TORSDOF 9
ENDMDL
MODEL 7
REMARK VINA RESULT:    -7.145      2.890      5.023
REMARK INTER + INTRA:         -10.347
REMARK INTER:                  -9.215
REMARK INTRA:                  -1.132
REMARK UNBOUND:                -0.696
REMARK SMILES O=c1c(-c2ccc(O)cc2)coc2c([C@@H]3O[C@@H](CO)[C@@H](O)[C@@H](O)[C@H]3O)c(O)ccc12
REMARK SMILES IDX 3 1 11 2 12 3 13 4 30 5 2 6 1 7 29 8 28 9 26 10 14 11 4 12
REMARK SMILES IDX 5 13 6 14 7 15 10 16 9 17 8 18 15 20 24 21 16 22 22 23 17 24
REMARK SMILES IDX 20 25 25 26 23 28 18 30 19 31 21 33 27 35
REMARK H PARENT 8 19 25 27 23 29 19 32 21 34 27 36
REMARK Flexibility Score: inf
ROOT
ATOM      1  C   UNL     1      47.144  28.056  61.459  1.00  0.00     0.065 A 
ATOM      2  C   UNL     1      46.639  28.334  62.737  1.00  0.00     0.208 A 
ATOM      3  O   UNL     1      47.126  29.335  63.459  1.00  0.00    -0.463 OA
ATOM      4  C   UNL     1      48.108  30.128  63.038  1.00  0.00     0.147 A 
ATOM      5  C   UNL     1      48.684  29.912  61.763  1.00  0.00     0.066 A 
ATOM      6  C   UNL     1      48.192  28.858  60.972  1.00  0.00     0.200 A 
ATOM      7  O   UNL     1      48.701  28.620  59.841  1.00  0.00    -0.288 OA
ATOM      8  C   UNL     1      49.728  30.739  61.324  1.00  0.00     0.020 A 
ATOM      9  C   UNL     1      50.203  31.763  62.142  1.00  0.00     0.047 A 
ATOM     10  C   UNL     1      49.644  31.985  63.405  1.00  0.00     0.125 A 
ATOM     11  C   UNL     1      48.577  31.177  63.863  1.00  0.00     0.069 A 
ENDROOT
BRANCH   1  12
ATOM     12  C   UNL     1      46.576  26.937  60.665  1.00  0.00    -0.011 A 
ATOM     13  C   UNL     1      45.754  27.200  59.556  1.00  0.00     0.013 A 
ATOM     14  C   UNL     1      45.224  26.148  58.802  1.00  0.00     0.047 A 
ATOM     15  C   UNL     1      45.515  24.822  59.143  1.00  0.00     0.115 A 
ATOM     16  C   UNL     1      46.869  25.602  60.997  1.00  0.00     0.013 A 
ATOM     17  C   UNL     1      46.339  24.553  60.239  1.00  0.00     0.047 A 
BRANCH  15  18
ATOM     18  O   UNL     1      44.995  23.766  58.398  1.00  0.00    -0.508 OA
ATOM     19  H   UNL     1      44.759  22.880  58.830  1.00  0.00     0.293 HD
ENDBRANCH  15  18
ENDBRANCH   1  12
BRANCH  11  20
ATOM     20  C   UNL     1      47.979  31.398  65.247  1.00  0.00     0.188 C 
ATOM     21  C   UNL     1      48.918  30.812  66.331  1.00  0.00     0.179 C 
ATOM     22  O   UNL     1      47.770  32.790  65.439  1.00  0.00    -0.362 OA
ATOM     23  C   UNL     1      48.316  31.017  67.731  1.00  0.00     0.177 C 
ATOM     24  C   UNL     1      47.171  33.105  66.690  1.00  0.00     0.176 C 
ATOM     25  C   UNL     1      47.936  32.502  67.907  1.00  0.00     0.177 C 
BRANCH  21  26
ATOM     26  O   UNL     1      49.204  29.453  66.101  1.00  0.00    -0.387 OA
ATOM     27  H   UNL     1      50.039  29.400  65.567  1.00  0.00     0.211 HD
ENDBRANCH  21  26
BRANCH  23  28
ATOM     28  O   UNL     1      47.198  30.187  67.921  1.00  0.00    -0.387 OA
ATOM     29  H   UNL     1      46.459  30.760  68.256  1.00  0.00     0.211 HD
ENDBRANCH  23  28
BRANCH  24  30
ATOM     30  C   UNL     1      45.635  32.931  66.667  1.00  0.00     0.191 C 
BRANCH  30  31
ATOM     31  O   UNL     1      45.211  31.839  67.431  1.00  0.00    -0.394 OA
ATOM     32  H   UNL     1      45.390  32.077  68.378  1.00  0.00     0.210 HD
ENDBRANCH  30  31
ENDBRANCH  24  30
BRANCH  25  33
ATOM     33  O   UNL     1      47.273  32.739  69.125  1.00  0.00    -0.388 OA
ATOM     34  H   UNL     1      47.372  31.936  69.695  1.00  0.00     0.211 HD
ENDBRANCH  25  33
ENDBRANCH  11  20
BRANCH  10  35
ATOM     35  O   UNL     1      50.150  33.008  64.206  1.00  0.00    -0.507 OA
ATOM     36  H   UNL     1      51.016  32.904  64.721  1.00  0.00     0.293 HD
ENDBRANCH  10  35
TORSDOF 9
ENDMDL
MODEL 8
REMARK VINA RESULT:    -7.101      4.908      9.222
REMARK INTER + INTRA:         -10.288
REMARK INTER:                  -9.309
REMARK INTRA:                  -0.978
REMARK UNBOUND:                -0.696
REMARK SMILES O=c1c(-c2ccc(O)cc2)coc2c([C@@H]3O[C@@H](CO)[C@@H](O)[C@@H](O)[C@H]3O)c(O)ccc12
REMARK SMILES IDX 3 1 11 2 12 3 13 4 30 5 2 6 1 7 29 8 28 9 26 10 14 11 4 12
REMARK SMILES IDX 5 13 6 14 7 15 10 16 9 17 8 18 15 20 24 21 16 22 22 23 17 24
REMARK SMILES IDX 20 25 25 26 23 28 18 30 19 31 21 33 27 35
REMARK H PARENT 8 19 25 27 23 29 19 32 21 34 27 36
REMARK Flexibility Score: inf
ROOT
ATOM      1  C   UNL     1      52.479  28.566  70.389  1.00  0.00     0.065 A 
ATOM      2  C   UNL     1      52.462  29.792  69.709  1.00  0.00     0.208 A 
ATOM      3  O   UNL     1      51.725  29.956  68.618  1.00  0.00    -0.463 OA
ATOM      4  C   UNL     1      50.968  28.993  68.098  1.00  0.00     0.147 A 
ATOM      5  C   UNL     1      50.933  27.720  68.715  1.00  0.00     0.066 A 
ATOM      6  C   UNL     1      51.705  27.511  69.872  1.00  0.00     0.200 A 
ATOM      7  O   UNL     1      51.719  26.379  70.432  1.00  0.00    -0.288 OA
ATOM      8  C   UNL     1      50.145  26.701  68.159  1.00  0.00     0.020 A 
ATOM      9  C   UNL     1      49.407  26.937  67.001  1.00  0.00     0.047 A 
ATOM     10  C   UNL     1      49.434  28.191  66.380  1.00  0.00     0.125 A 
ATOM     11  C   UNL     1      50.206  29.241  66.931  1.00  0.00     0.069 A 
ENDROOT
BRANCH   1  12
ATOM     12  C   UNL     1      53.304  28.409  71.613  1.00  0.00    -0.011 A 
ATOM     13  C   UNL     1      52.741  28.634  72.882  1.00  0.00     0.013 A 
ATOM     14  C   UNL     1      53.514  28.479  74.037  1.00  0.00     0.047 A 
ATOM     15  C   UNL     1      54.856  28.091  73.939  1.00  0.00     0.115 A 
ATOM     16  C   UNL     1      54.650  28.012  71.524  1.00  0.00     0.013 A 
ATOM     17  C   UNL     1      55.420  27.857  72.681  1.00  0.00     0.047 A 
BRANCH  15  18
ATOM     18  O   UNL     1      55.635  27.932  75.083  1.00  0.00    -0.508 OA
ATOM     19  H   UNL     1      55.594  27.084  75.637  1.00  0.00     0.293 HD
ENDBRANCH  15  18
ENDBRANCH   1  12
BRANCH  11  20
ATOM     20  C   UNL     1      50.259  30.602  66.248  1.00  0.00     0.188 C 
ATOM     21  C   UNL     1      51.201  30.543  65.019  1.00  0.00     0.179 C 
ATOM     22  O   UNL     1      48.942  30.979  65.873  1.00  0.00    -0.362 OA
ATOM     23  C   UNL     1      51.274  31.916  64.331  1.00  0.00     0.177 C 
ATOM     24  C   UNL     1      48.873  32.262  65.263  1.00  0.00     0.176 C 
ATOM     25  C   UNL     1      49.842  32.419  64.053  1.00  0.00     0.177 C 
BRANCH  21  26
ATOM     26  O   UNL     1      52.487  30.085  65.364  1.00  0.00    -0.387 OA
ATOM     27  H   UNL     1      53.128  30.430  64.688  1.00  0.00     0.211 HD
ENDBRANCH  21  26
BRANCH  23  28
ATOM     28  O   UNL     1      51.983  32.835  65.123  1.00  0.00    -0.387 OA
ATOM     29  H   UNL     1      52.831  33.041  64.647  1.00  0.00     0.211 HD
ENDBRANCH  23  28
BRANCH  24  30
ATOM     30  C   UNL     1      48.848  33.407  66.301  1.00  0.00     0.191 C 
BRANCH  30  31
ATOM     31  O   UNL     1      47.646  34.121  66.279  1.00  0.00    -0.394 OA
ATOM     32  H   UNL     1      47.285  34.027  65.359  1.00  0.00     0.210 HD
ENDBRANCH  30  31
ENDBRANCH  24  30
BRANCH  25  33
ATOM     33  O   UNL     1      49.831  33.725  63.528  1.00  0.00    -0.388 OA
ATOM     34  H   UNL     1      50.698  34.154  63.742  1.00  0.00     0.211 HD
ENDBRANCH  25  33
ENDBRANCH  11  20
BRANCH  10  35
ATOM     35  O   UNL     1      48.697  28.393  65.214  1.00  0.00    -0.507 OA
ATOM     36  H   UNL     1      48.036  27.706  64.875  1.00  0.00     0.293 HD
ENDBRANCH  10  35
TORSDOF 9
ENDMDL
MODEL 9
REMARK VINA RESULT:    -7.074      2.836      4.380
REMARK INTER + INTRA:         -10.252
REMARK INTER:                  -9.959
REMARK INTRA:                  -0.293
REMARK UNBOUND:                -0.696
REMARK SMILES O=c1c(-c2ccc(O)cc2)coc2c([C@@H]3O[C@@H](CO)[C@@H](O)[C@@H](O)[C@H]3O)c(O)ccc12
REMARK SMILES IDX 3 1 11 2 12 3 13 4 30 5 2 6 1 7 29 8 28 9 26 10 14 11 4 12
REMARK SMILES IDX 5 13 6 14 7 15 10 16 9 17 8 18 15 20 24 21 16 22 22 23 17 24
REMARK SMILES IDX 20 25 25 26 23 28 18 30 19 31 21 33 27 35
REMARK H PARENT 8 19 25 27 23 29 19 32 21 34 27 36
REMARK Flexibility Score: inf
ROOT
ATOM      1  C   UNL     1      50.406  31.719  63.456  1.00  0.00     0.065 A 
ATOM      2  C   UNL     1      51.491  31.889  64.326  1.00  0.00     0.208 A 
ATOM      3  O   UNL     1      51.390  31.574  65.611  1.00  0.00    -0.463 OA
ATOM      4  C   UNL     1      50.279  31.088  66.158  1.00  0.00     0.147 A 
ATOM      5  C   UNL     1      49.131  30.894  65.354  1.00  0.00     0.066 A 
ATOM      6  C   UNL     1      49.203  31.220  63.987  1.00  0.00     0.200 A 
ATOM      7  O   UNL     1      48.188  31.085  63.246  1.00  0.00    -0.288 OA
ATOM      8  C   UNL     1      47.955  30.394  65.933  1.00  0.00     0.020 A 
ATOM      9  C   UNL     1      47.913  30.098  67.294  1.00  0.00     0.047 A 
ATOM     10  C   UNL     1      49.041  30.288  68.100  1.00  0.00     0.125 A 
ATOM     11  C   UNL     1      50.245  30.773  67.537  1.00  0.00     0.069 A 
ENDROOT
BRANCH   1  12
ATOM     12  C   UNL     1      50.545  32.070  62.020  1.00  0.00    -0.011 A 
ATOM     13  C   UNL     1      49.724  33.058  61.448  1.00  0.00     0.013 A 
ATOM     14  C   UNL     1      49.858  33.396  60.098  1.00  0.00     0.047 A 
ATOM     15  C   UNL     1      50.820  32.757  59.305  1.00  0.00     0.115 A 
ATOM     16  C   UNL     1      51.513  31.438  61.218  1.00  0.00     0.013 A 
ATOM     17  C   UNL     1      51.646  31.781  59.869  1.00  0.00     0.047 A 
BRANCH  15  18
ATOM     18  O   UNL     1      50.964  33.087  57.960  1.00  0.00    -0.508 OA
ATOM     19  H   UNL     1      51.502  32.506  57.327  1.00  0.00     0.293 HD
ENDBRANCH  15  18
ENDBRANCH   1  12
BRANCH  11  20
ATOM     20  C   UNL     1      51.470  31.004  68.413  1.00  0.00     0.188 C 
ATOM     21  C   UNL     1      52.317  29.710  68.494  1.00  0.00     0.179 C 
ATOM     22  O   UNL     1      52.222  32.082  67.874  1.00  0.00    -0.362 OA
ATOM     23  C   UNL     1      53.549  29.928  69.388  1.00  0.00     0.177 C 
ATOM     24  C   UNL     1      53.370  32.412  68.645  1.00  0.00     0.176 C 
ATOM     25  C   UNL     1      54.299  31.190  68.916  1.00  0.00     0.177 C 
BRANCH  21  26
ATOM     26  O   UNL     1      51.559  28.611  68.943  1.00  0.00    -0.387 OA
ATOM     27  H   UNL     1      51.040  28.901  69.738  1.00  0.00     0.211 HD
ENDBRANCH  21  26
BRANCH  23  28
ATOM     28  O   UNL     1      53.173  30.044  70.737  1.00  0.00    -0.387 OA
ATOM     29  H   UNL     1      53.509  29.236  71.207  1.00  0.00     0.211 HD
ENDBRANCH  23  28
BRANCH  24  30
ATOM     30  C   UNL     1      53.030  33.320  69.849  1.00  0.00     0.191 C 
BRANCH  30  31
ATOM     31  O   UNL     1      53.345  32.721  71.074  1.00  0.00    -0.394 OA
ATOM     32  H   UNL     1      53.020  31.785  71.015  1.00  0.00     0.210 HD
ENDBRANCH  30  31
ENDBRANCH  24  30
BRANCH  25  33
ATOM     33  O   UNL     1      55.375  31.516  69.763  1.00  0.00    -0.388 OA
ATOM     34  H   UNL     1      56.216  31.426  69.247  1.00  0.00     0.211 HD
ENDBRANCH  25  33
ENDBRANCH  11  20
BRANCH  10  35
ATOM     35  O   UNL     1      48.965  29.997  69.462  1.00  0.00    -0.507 OA
ATOM     36  H   UNL     1      49.063  29.052  69.813  1.00  0.00     0.293 HD
ENDBRANCH  10  35
TORSDOF 9
ENDMDL
