MODEL 1
REMARK VINA RESULT:    -2.526      0.000      0.000
REMARK INTER + INTRA:         -12.150
REMARK INTER:                  -6.364
REMARK INTRA:                  -5.785
REMARK UNBOUND:                -5.785
REMARK SMILES CCCCCCCCCCCCCCCCCCCCCCCCCCCC(=O)[O-]
REMARK SMILES IDX 15 1 16 2 17 3 18 4 19 5 20 6 21 7 22 8 23 9 24 10 25 11
REMARK SMILES IDX 26 12 27 13 28 14 29 15 30 16 14 17 13 18 12 19 11 20 10 21
REMARK SMILES IDX 9 22 8 23 7 24 6 25 5 26 4 27 3 28 2 29 1 30
REMARK H PARENT
REMARK Flexibility Score: inf
ROOT
ATOM      1  C   UNL     1      98.974  64.355 226.119  1.00  0.00     0.000 C 
ENDROOT
BRANCH   1   2
ATOM      2  C   UNL     1      97.514  64.221 225.663  1.00  0.00     0.000 C 
BRANCH   2   3
ATOM      3  C   UNL     1      96.550  65.113 226.467  1.00  0.00     0.000 C 
BRANCH   3   4
ATOM      4  C   UNL     1      95.461  65.817 225.632  1.00  0.00     0.000 C 
BRANCH   4   5
ATOM      5  C   UNL     1      95.638  65.709 224.104  1.00  0.00     0.000 C 
BRANCH   5   6
ATOM      6  C   UNL     1      96.299  66.932 223.438  1.00  0.00     0.000 C 
BRANCH   6   7
ATOM      7  C   UNL     1      96.193  68.243 224.240  1.00  0.00     0.000 C 
BRANCH   7   8
ATOM      8  C   UNL     1      97.563  68.799 224.656  1.00  0.00     0.000 C 
BRANCH   8   9
ATOM      9  C   UNL     1      97.796  68.613 226.162  1.00  0.00     0.000 C 
BRANCH   9  10
ATOM     10  C   UNL     1      99.226  68.150 226.488  1.00  0.00     0.000 C 
BRANCH  10  11
ATOM     11  C   UNL     1      99.356  67.606 227.921  1.00  0.00     0.000 C 
BRANCH  11  12
ATOM     12  C   UNL     1      98.162  67.989 228.815  1.00  0.00     0.006 C 
BRANCH  12  13
ATOM     13  C   UNL     1      97.656  66.856 229.721  1.00  0.00     0.053 C 
BRANCH  13  14
ATOM     14  C   UNL     1      96.163  66.738 229.701  1.00  0.00     0.041 C 
ATOM     15  O   UNL     1      95.469  67.571 229.059  1.00  0.00    -0.550 OA
ATOM     16  O   UNL     1      95.535  65.727 230.417  1.00  0.00    -0.550 OA
ENDBRANCH  13  14
ENDBRANCH  12  13
ENDBRANCH  11  12
ENDBRANCH  10  11
ENDBRANCH   9  10
ENDBRANCH   8   9
ENDBRANCH   7   8
ENDBRANCH   6   7
ENDBRANCH   5   6
ENDBRANCH   4   5
ENDBRANCH   3   4
ENDBRANCH   2   3
ENDBRANCH   1   2
BRANCH   1  17
ATOM     17  C   UNL     1      99.839  64.976 225.016  1.00  0.00     0.000 C 
BRANCH  17  18
ATOM     18  C   UNL     1     101.246  64.360 225.013  1.00  0.00     0.000 C 
BRANCH  18  19
ATOM     19  C   UNL     1     101.348  63.107 225.896  1.00  0.00     0.000 C 
BRANCH  19  20
ATOM     20  C   UNL     1     102.375  63.268 227.032  1.00  0.00     0.000 C 
BRANCH  20  21
ATOM     21  C   UNL     1     102.599  64.736 227.423  1.00  0.00     0.000 C 
BRANCH  21  22
ATOM     22  C   UNL     1     102.064  65.063 228.827  1.00  0.00    -0.000 C 
BRANCH  22  23
ATOM     23  C   UNL     1     100.671  64.465 229.082  1.00  0.00    -0.000 C 
BRANCH  23  24
ATOM     24  C   UNL     1     100.547  63.826 230.474  1.00  0.00    -0.000 C 
BRANCH  24  25
ATOM     25  C   UNL     1      99.080  63.749 230.915  1.00  0.00    -0.000 C 
BRANCH  25  26
ATOM     26  C   UNL     1      98.190  63.226 229.777  1.00  0.00    -0.000 C 
BRANCH  26  27
ATOM     27  C   UNL     1      98.341  61.713 229.553  1.00  0.00    -0.000 C 
BRANCH  27  28
ATOM     28  C   UNL     1      98.315  61.327 228.066  1.00  0.00    -0.000 C 
BRANCH  28  29
ATOM     29  C   UNL     1      99.498  60.417 227.717  1.00  0.00    -0.003 C 
ATOM     30  C   UNL     1     100.601  60.520 228.765  1.00  0.00     0.004 C 
ENDBRANCH  28  29
ENDBRANCH  27  28
ENDBRANCH  26  27
ENDBRANCH  25  26
ENDBRANCH  24  25
ENDBRANCH  23  24
ENDBRANCH  22  23
ENDBRANCH  21  22
ENDBRANCH  20  21
ENDBRANCH  19  20
ENDBRANCH  18  19
ENDBRANCH  17  18
ENDBRANCH   1  17
TORSDOF 26
ENDMDL
MODEL 2
REMARK VINA RESULT:    -2.520      2.793      6.131
REMARK INTER + INTRA:         -12.136
REMARK INTER:                  -6.278
REMARK INTRA:                  -5.858
REMARK UNBOUND:                -5.785
REMARK SMILES CCCCCCCCCCCCCCCCCCCCCCCCCCCC(=O)[O-]
REMARK SMILES IDX 15 1 16 2 17 3 18 4 19 5 20 6 21 7 22 8 23 9 24 10 25 11
REMARK SMILES IDX 26 12 27 13 28 14 29 15 30 16 14 17 13 18 12 19 11 20 10 21
REMARK SMILES IDX 9 22 8 23 7 24 6 25 5 26 4 27 3 28 2 29 1 30
REMARK H PARENT
REMARK Flexibility Score: inf
ROOT
ATOM      1  C   UNL     1      98.092  65.270 225.009  1.00  0.00     0.000 C 
ENDROOT
BRANCH   1   2
ATOM      2  C   UNL     1      99.466  65.653 225.576  1.00  0.00     0.000 C 
BRANCH   2   3
ATOM      3  C   UNL     1      99.798  64.920 226.889  1.00  0.00     0.000 C 
BRANCH   3   4
ATOM      4  C   UNL     1     100.643  63.640 226.727  1.00  0.00     0.000 C 
BRANCH   4   5
ATOM      5  C   UNL     1     101.495  63.577 225.443  1.00  0.00     0.000 C 
BRANCH   5   6
ATOM      6  C   UNL     1     102.550  62.454 225.418  1.00  0.00     0.000 C 
BRANCH   6   7
ATOM      7  C   UNL     1     102.008  61.049 225.741  1.00  0.00     0.000 C 
BRANCH   7   8
ATOM      8  C   UNL     1     102.846  60.316 226.799  1.00  0.00     0.000 C 
BRANCH   8   9
ATOM      9  C   UNL     1     103.534  61.315 227.741  1.00  0.00     0.000 C 
BRANCH   9  10
ATOM     10  C   UNL     1     102.848  61.402 229.115  1.00  0.00     0.000 C 
BRANCH  10  11
ATOM     11  C   UNL     1     102.749  62.848 229.631  1.00  0.00     0.000 C 
BRANCH  11  12
ATOM     12  C   UNL     1     103.831  63.768 229.039  1.00  0.00     0.006 C 
BRANCH  12  13
ATOM     13  C   UNL     1     103.324  65.155 228.612  1.00  0.00     0.053 C 
BRANCH  13  14
ATOM     14  C   UNL     1     103.873  65.576 227.284  1.00  0.00     0.041 C 
ATOM     15  O   UNL     1     104.859  64.971 226.784  1.00  0.00    -0.550 OA
ATOM     16  O   UNL     1     103.315  66.655 226.610  1.00  0.00    -0.550 OA
ENDBRANCH  13  14
ENDBRANCH  12  13
ENDBRANCH  11  12
ENDBRANCH  10  11
ENDBRANCH   9  10
ENDBRANCH   8   9
ENDBRANCH   7   8
ENDBRANCH   6   7
ENDBRANCH   5   6
ENDBRANCH   4   5
ENDBRANCH   3   4
ENDBRANCH   2   3
ENDBRANCH   1   2
BRANCH   1  17
ATOM     17  C   UNL     1      97.309  64.404 226.003  1.00  0.00     0.000 C 
BRANCH  17  18
ATOM     18  C   UNL     1      95.948  65.038 226.328  1.00  0.00     0.000 C 
BRANCH  18  19
ATOM     19  C   UNL     1      95.879  66.525 225.947  1.00  0.00     0.000 C 
BRANCH  19  20
ATOM     20  C   UNL     1      95.792  67.446 227.176  1.00  0.00     0.000 C 
BRANCH  20  21
ATOM     21  C   UNL     1      97.168  67.950 227.637  1.00  0.00     0.000 C 
BRANCH  21  22
ATOM     22  C   UNL     1      97.682  67.209 228.883  1.00  0.00    -0.000 C 
BRANCH  22  23
ATOM     23  C   UNL     1      96.573  66.948 229.914  1.00  0.00    -0.000 C 
BRANCH  23  24
ATOM     24  C   UNL     1      96.664  65.547 230.540  1.00  0.00    -0.000 C 
BRANCH  24  25
ATOM     25  C   UNL     1      97.496  64.606 229.661  1.00  0.00    -0.000 C 
BRANCH  25  26
ATOM     26  C   UNL     1      98.677  64.016 230.448  1.00  0.00    -0.000 C 
BRANCH  26  27
ATOM     27  C   UNL     1      99.001  62.571 230.037  1.00  0.00    -0.000 C 
BRANCH  27  28
ATOM     28  C   UNL     1      97.837  61.885 229.308  1.00  0.00    -0.000 C 
BRANCH  28  29
ATOM     29  C   UNL     1      98.307  61.276 227.981  1.00  0.00    -0.003 C 
ATOM     30  C   UNL     1      99.427  60.266 228.205  1.00  0.00     0.004 C 
ENDBRANCH  28  29
ENDBRANCH  27  28
ENDBRANCH  26  27
ENDBRANCH  25  26
ENDBRANCH  24  25
ENDBRANCH  23  24
ENDBRANCH  22  23
ENDBRANCH  21  22
ENDBRANCH  20  21
ENDBRANCH  19  20
ENDBRANCH  18  19
ENDBRANCH  17  18
ENDBRANCH   1  17
TORSDOF 26
ENDMDL
MODEL 3
REMARK VINA RESULT:    -2.520      1.642      3.895
REMARK INTER + INTRA:         -12.135
REMARK INTER:                  -7.004
REMARK INTRA:                  -5.132
REMARK UNBOUND:                -5.785
REMARK SMILES CCCCCCCCCCCCCCCCCCCCCCCCCCCC(=O)[O-]
REMARK SMILES IDX 15 1 16 2 17 3 18 4 19 5 20 6 21 7 22 8 23 9 24 10 25 11
REMARK SMILES IDX 26 12 27 13 28 14 29 15 30 16 14 17 13 18 12 19 11 20 10 21
REMARK SMILES IDX 9 22 8 23 7 24 6 25 5 26 4 27 3 28 2 29 1 30
REMARK H PARENT
REMARK Flexibility Score: inf
ROOT
ATOM      1  C   UNL     1      98.251  63.242 227.030  1.00  0.00     0.000 C 
ENDROOT
BRANCH   1   2
ATOM      2  C   UNL     1      97.184  64.210 227.561  1.00  0.00     0.000 C 
BRANCH   2   3
ATOM      3  C   UNL     1      96.461  64.978 226.440  1.00  0.00     0.000 C 
BRANCH   3   4
ATOM      4  C   UNL     1      96.957  64.672 225.012  1.00  0.00     0.000 C 
BRANCH   4   5
ATOM      5  C   UNL     1      96.770  65.815 223.996  1.00  0.00     0.000 C 
BRANCH   5   6
ATOM      6  C   UNL     1      95.758  66.899 224.416  1.00  0.00     0.000 C 
BRANCH   6   7
ATOM      7  C   UNL     1      96.343  68.318 224.542  1.00  0.00     0.000 C 
BRANCH   7   8
ATOM      8  C   UNL     1      96.816  68.642 225.967  1.00  0.00     0.000 C 
BRANCH   8   9
ATOM      9  C   UNL     1      95.620  68.885 226.899  1.00  0.00     0.000 C 
BRANCH   9  10
ATOM     10  C   UNL     1      95.838  68.304 228.306  1.00  0.00     0.000 C 
BRANCH  10  11
ATOM     11  C   UNL     1      97.316  67.976 228.584  1.00  0.00     0.000 C 
BRANCH  11  12
ATOM     12  C   UNL     1      97.586  67.654 230.065  1.00  0.00     0.006 C 
BRANCH  12  13
ATOM     13  C   UNL     1      97.812  66.162 230.361  1.00  0.00     0.053 C 
BRANCH  13  14
ATOM     14  C   UNL     1      96.611  65.520 230.985  1.00  0.00     0.041 C 
ATOM     15  O   UNL     1      95.474  65.655 230.460  1.00  0.00    -0.550 OA
ATOM     16  O   UNL     1      96.743  64.796 232.163  1.00  0.00    -0.550 OA
ENDBRANCH  13  14
ENDBRANCH  12  13
ENDBRANCH  11  12
ENDBRANCH  10  11
ENDBRANCH   9  10
ENDBRANCH   8   9
ENDBRANCH   7   8
ENDBRANCH   6   7
ENDBRANCH   5   6
ENDBRANCH   4   5
ENDBRANCH   3   4
ENDBRANCH   2   3
ENDBRANCH   1   2
BRANCH   1  17
ATOM     17  C   UNL     1      98.744  62.305 228.140  1.00  0.00     0.000 C 
BRANCH  17  18
ATOM     18  C   UNL     1     100.277  62.209 228.134  1.00  0.00     0.000 C 
BRANCH  18  19
ATOM     19  C   UNL     1     100.939  63.323 227.309  1.00  0.00     0.000 C 
BRANCH  19  20
ATOM     20  C   UNL     1     101.556  62.800 225.999  1.00  0.00     0.000 C 
BRANCH  20  21
ATOM     21  C   UNL     1     101.835  63.923 224.988  1.00  0.00     0.000 C 
BRANCH  21  22
ATOM     22  C   UNL     1     100.582  64.755 224.668  1.00  0.00    -0.000 C 
BRANCH  22  23
ATOM     23  C   UNL     1     100.746  66.237 225.043  1.00  0.00    -0.000 C 
BRANCH  23  24
ATOM     24  C   UNL     1      99.884  66.641 226.249  1.00  0.00    -0.000 C 
BRANCH  24  25
ATOM     25  C   UNL     1     100.760  67.019 227.449  1.00  0.00    -0.000 C 
BRANCH  25  26
ATOM     26  C   UNL     1     102.200  67.324 227.006  1.00  0.00    -0.000 C 
BRANCH  26  27
ATOM     27  C   UNL     1     103.252  66.670 227.916  1.00  0.00    -0.000 C 
BRANCH  27  28
ATOM     28  C   UNL     1     104.690  66.928 227.442  1.00  0.00    -0.000 C 
BRANCH  28  29
ATOM     29  C   UNL     1     105.525  65.643 227.506  1.00  0.00    -0.003 C 
ATOM     30  C   UNL     1     104.670  64.415 227.215  1.00  0.00     0.004 C 
ENDBRANCH  28  29
ENDBRANCH  27  28
ENDBRANCH  26  27
ENDBRANCH  25  26
ENDBRANCH  24  25
ENDBRANCH  23  24
ENDBRANCH  22  23
ENDBRANCH  21  22
ENDBRANCH  20  21
ENDBRANCH  19  20
ENDBRANCH  18  19
ENDBRANCH  17  18
ENDBRANCH   1  17
TORSDOF 26
ENDMDL
MODEL 4
REMARK VINA RESULT:    -2.497      2.006      5.966
REMARK INTER + INTRA:         -12.078
REMARK INTER:                  -6.305
REMARK INTRA:                  -5.773
REMARK UNBOUND:                -5.785
REMARK SMILES CCCCCCCCCCCCCCCCCCCCCCCCCCCC(=O)[O-]
REMARK SMILES IDX 15 1 16 2 17 3 18 4 19 5 20 6 21 7 22 8 23 9 24 10 25 11
REMARK SMILES IDX 26 12 27 13 28 14 29 15 30 16 14 17 13 18 12 19 11 20 10 21
REMARK SMILES IDX 9 22 8 23 7 24 6 25 5 26 4 27 3 28 2 29 1 30
REMARK H PARENT
REMARK Flexibility Score: inf
ROOT
ATOM      1  C   UNL     1      97.598  64.312 225.327  1.00  0.00     0.000 C 
ENDROOT
BRANCH   1   2
ATOM      2  C   UNL     1      98.910  64.546 226.089  1.00  0.00     0.000 C 
BRANCH   2   3
ATOM      3  C   UNL     1      99.669  65.795 225.606  1.00  0.00     0.000 C 
BRANCH   3   4
ATOM      4  C   UNL     1     101.023  65.514 224.922  1.00  0.00     0.000 C 
BRANCH   4   5
ATOM      5  C   UNL     1     101.375  64.022 224.760  1.00  0.00     0.000 C 
BRANCH   5   6
ATOM      6  C   UNL     1     102.768  63.621 225.285  1.00  0.00     0.000 C 
BRANCH   6   7
ATOM      7  C   UNL     1     102.775  62.421 226.250  1.00  0.00     0.000 C 
BRANCH   7   8
ATOM      8  C   UNL     1     101.365  61.996 226.682  1.00  0.00     0.000 C 
BRANCH   8   9
ATOM      9  C   UNL     1     101.415  60.726 227.544  1.00  0.00     0.000 C 
BRANCH   9  10
ATOM     10  C   UNL     1     100.022  60.129 227.802  1.00  0.00     0.000 C 
BRANCH  10  11
ATOM     11  C   UNL     1      98.918  61.201 227.829  1.00  0.00     0.000 C 
BRANCH  11  12
ATOM     12  C   UNL     1      97.808  60.888 228.848  1.00  0.00     0.006 C 
BRANCH  12  13
ATOM     13  C   UNL     1      98.318  60.409 230.217  1.00  0.00     0.053 C 
BRANCH  13  14
ATOM     14  C   UNL     1      97.269  60.518 231.282  1.00  0.00     0.041 C 
ATOM     15  O   UNL     1      96.462  59.571 231.477  1.00  0.00    -0.550 OA
ATOM     16  O   UNL     1      97.164  61.678 232.039  1.00  0.00    -0.550 OA
ENDBRANCH  13  14
ENDBRANCH  12  13
ENDBRANCH  11  12
ENDBRANCH  10  11
ENDBRANCH   9  10
ENDBRANCH   8   9
ENDBRANCH   7   8
ENDBRANCH   6   7
ENDBRANCH   5   6
ENDBRANCH   4   5
ENDBRANCH   3   4
ENDBRANCH   2   3
ENDBRANCH   1   2
BRANCH   1  17
ATOM     17  C   UNL     1      96.951  65.643 224.925  1.00  0.00     0.000 C 
BRANCH  17  18
ATOM     18  C   UNL     1      95.625  65.854 225.672  1.00  0.00     0.000 C 
BRANCH  18  19
ATOM     19  C   UNL     1      95.444  67.298 226.165  1.00  0.00     0.000 C 
BRANCH  19  20
ATOM     20  C   UNL     1      95.915  67.488 227.618  1.00  0.00     0.000 C 
BRANCH  20  21
ATOM     21  C   UNL     1      97.411  67.825 227.716  1.00  0.00     0.000 C 
BRANCH  21  22
ATOM     22  C   UNL     1      98.127  67.030 228.820  1.00  0.00    -0.000 C 
BRANCH  22  23
ATOM     23  C   UNL     1      97.245  65.918 229.411  1.00  0.00    -0.000 C 
BRANCH  23  24
ATOM     24  C   UNL     1      97.938  64.546 229.402  1.00  0.00    -0.000 C 
BRANCH  24  25
ATOM     25  C   UNL     1      98.864  64.389 230.614  1.00  0.00    -0.000 C 
BRANCH  25  26
ATOM     26  C   UNL     1     100.191  63.727 230.212  1.00  0.00    -0.000 C 
BRANCH  26  27
ATOM     27  C   UNL     1     100.919  64.488 229.092  1.00  0.00    -0.000 C 
BRANCH  27  28
ATOM     28  C   UNL     1     101.477  65.841 229.558  1.00  0.00    -0.000 C 
BRANCH  28  29
ATOM     29  C   UNL     1     102.112  66.602 228.388  1.00  0.00    -0.003 C 
ATOM     30  C   UNL     1     103.402  65.931 227.930  1.00  0.00     0.004 C 
ENDBRANCH  28  29
ENDBRANCH  27  28
ENDBRANCH  26  27
ENDBRANCH  25  26
ENDBRANCH  24  25
ENDBRANCH  23  24
ENDBRANCH  22  23
ENDBRANCH  21  22
ENDBRANCH  20  21
ENDBRANCH  19  20
ENDBRANCH  18  19
ENDBRANCH  17  18
ENDBRANCH   1  17
TORSDOF 26
ENDMDL
MODEL 5
REMARK VINA RESULT:    -2.467      1.650      5.386
REMARK INTER + INTRA:         -12.003
REMARK INTER:                  -5.941
REMARK INTRA:                  -6.062
REMARK UNBOUND:                -5.785
REMARK SMILES CCCCCCCCCCCCCCCCCCCCCCCCCCCC(=O)[O-]
REMARK SMILES IDX 15 1 16 2 17 3 18 4 19 5 20 6 21 7 22 8 23 9 24 10 25 11
REMARK SMILES IDX 26 12 27 13 28 14 29 15 30 16 14 17 13 18 12 19 11 20 10 21
REMARK SMILES IDX 9 22 8 23 7 24 6 25 5 26 4 27 3 28 2 29 1 30
REMARK H PARENT
REMARK Flexibility Score: inf
ROOT
ATOM      1  C   UNL     1      97.407  68.737 224.815  1.00  0.00     0.000 C 
ENDROOT
BRANCH   1   2
ATOM      2  C   UNL     1      97.904  68.759 226.267  1.00  0.00     0.000 C 
BRANCH   2   3
ATOM      3  C   UNL     1      99.296  68.120 226.433  1.00  0.00     0.000 C 
BRANCH   3   4
ATOM      4  C   UNL     1      99.853  67.431 225.171  1.00  0.00     0.000 C 
BRANCH   4   5
ATOM      5  C   UNL     1     101.059  66.501 225.413  1.00  0.00     0.000 C 
BRANCH   5   6
ATOM      6  C   UNL     1     100.930  65.095 224.795  1.00  0.00     0.000 C 
BRANCH   6   7
ATOM      7  C   UNL     1     102.018  64.095 225.228  1.00  0.00     0.000 C 
BRANCH   7   8
ATOM      8  C   UNL     1     101.439  62.813 225.843  1.00  0.00     0.000 C 
BRANCH   8   9
ATOM      9  C   UNL     1     100.132  63.108 226.593  1.00  0.00     0.000 C 
BRANCH   9  10
ATOM     10  C   UNL     1      99.997  62.294 227.891  1.00  0.00     0.000 C 
BRANCH  10  11
ATOM     11  C   UNL     1      98.564  61.781 228.118  1.00  0.00     0.000 C 
BRANCH  11  12
ATOM     12  C   UNL     1      97.958  62.272 229.445  1.00  0.00     0.006 C 
BRANCH  12  13
ATOM     13  C   UNL     1      98.994  62.717 230.491  1.00  0.00     0.053 C 
BRANCH  13  14
ATOM     14  C   UNL     1      98.351  63.198 231.755  1.00  0.00     0.041 C 
ATOM     15  O   UNL     1      99.049  63.725 232.662  1.00  0.00    -0.550 OA
ATOM     16  O   UNL     1      96.984  63.037 231.946  1.00  0.00    -0.550 OA
ENDBRANCH  13  14
ENDBRANCH  12  13
ENDBRANCH  11  12
ENDBRANCH  10  11
ENDBRANCH   9  10
ENDBRANCH   8   9
ENDBRANCH   7   8
ENDBRANCH   6   7
ENDBRANCH   5   6
ENDBRANCH   4   5
ENDBRANCH   3   4
ENDBRANCH   2   3
ENDBRANCH   1   2
BRANCH   1  17
ATOM     17  C   UNL     1      96.181  67.828 224.667  1.00  0.00     0.000 C 
BRANCH  17  18
ATOM     18  C   UNL     1      96.366  66.846 223.500  1.00  0.00     0.000 C 
BRANCH  18  19
ATOM     19  C   UNL     1      96.194  65.379 223.925  1.00  0.00     0.000 C 
BRANCH  19  20
ATOM     20  C   UNL     1      97.203  64.956 225.008  1.00  0.00     0.000 C 
BRANCH  20  21
ATOM     21  C   UNL     1      96.533  64.668 226.359  1.00  0.00     0.000 C 
BRANCH  21  22
ATOM     22  C   UNL     1      97.321  65.249 227.546  1.00  0.00    -0.000 C 
BRANCH  22  23
ATOM     23  C   UNL     1      96.478  66.211 228.399  1.00  0.00    -0.000 C 
BRANCH  23  24
ATOM     24  C   UNL     1      96.359  65.755 229.862  1.00  0.00    -0.000 C 
BRANCH  24  25
ATOM     25  C   UNL     1      97.075  66.732 230.802  1.00  0.00    -0.000 C 
BRANCH  25  26
ATOM     26  C   UNL     1      97.826  67.811 230.007  1.00  0.00    -0.000 C 
BRANCH  26  27
ATOM     27  C   UNL     1      99.349  67.737 230.198  1.00  0.00    -0.000 C 
BRANCH  27  28
ATOM     28  C   UNL     1      99.866  66.295 230.300  1.00  0.00    -0.000 C 
BRANCH  28  29
ATOM     29  C   UNL     1     100.441  65.824 228.959  1.00  0.00    -0.003 C 
ATOM     30  C   UNL     1     101.927  65.505 229.078  1.00  0.00     0.004 C 
ENDBRANCH  28  29
ENDBRANCH  27  28
ENDBRANCH  26  27
ENDBRANCH  25  26
ENDBRANCH  24  25
ENDBRANCH  23  24
ENDBRANCH  22  23
ENDBRANCH  21  22
ENDBRANCH  20  21
ENDBRANCH  19  20
ENDBRANCH  18  19
ENDBRANCH  17  18
ENDBRANCH   1  17
TORSDOF 26
ENDMDL
MODEL 6
REMARK VINA RESULT:    -2.460      3.044      5.081
REMARK INTER + INTRA:         -11.985
REMARK INTER:                  -5.708
REMARK INTRA:                  -6.277
REMARK UNBOUND:                -5.785
REMARK SMILES CCCCCCCCCCCCCCCCCCCCCCCCCCCC(=O)[O-]
REMARK SMILES IDX 15 1 16 2 17 3 18 4 19 5 20 6 21 7 22 8 23 9 24 10 25 11
REMARK SMILES IDX 26 12 27 13 28 14 29 15 30 16 14 17 13 18 12 19 11 20 10 21
REMARK SMILES IDX 9 22 8 23 7 24 6 25 5 26 4 27 3 28 2 29 1 30
REMARK H PARENT
REMARK Flexibility Score: inf
ROOT
ATOM      1  C   UNL     1      97.842  67.436 225.028  1.00  0.00     0.000 C 
ENDROOT
BRANCH   1   2
ATOM      2  C   UNL     1      96.388  66.949 224.949  1.00  0.00     0.000 C 
BRANCH   2   3
ATOM      3  C   UNL     1      96.252  65.430 225.161  1.00  0.00     0.000 C 
BRANCH   3   4
ATOM      4  C   UNL     1      97.566  64.633 225.038  1.00  0.00     0.000 C 
BRANCH   4   5
ATOM      5  C   UNL     1      98.019  63.915 226.325  1.00  0.00     0.000 C 
BRANCH   5   6
ATOM      6  C   UNL     1      97.095  64.120 227.542  1.00  0.00     0.000 C 
BRANCH   6   7
ATOM      7  C   UNL     1      97.719  64.922 228.700  1.00  0.00     0.000 C 
BRANCH   7   8
ATOM      8  C   UNL     1      99.248  65.017 228.603  1.00  0.00     0.000 C 
BRANCH   8   9
ATOM      9  C   UNL     1      99.843  65.610 229.888  1.00  0.00     0.000 C 
BRANCH   9  10
ATOM     10  C   UNL     1     101.229  66.239 229.664  1.00  0.00     0.000 C 
BRANCH  10  11
ATOM     11  C   UNL     1     102.346  65.478 230.399  1.00  0.00     0.000 C 
BRANCH  11  12
ATOM     12  C   UNL     1     103.434  64.950 229.446  1.00  0.00     0.006 C 
BRANCH  12  13
ATOM     13  C   UNL     1     103.931  65.978 228.417  1.00  0.00     0.053 C 
BRANCH  13  14
ATOM     14  C   UNL     1     104.980  65.410 227.511  1.00  0.00     0.041 C 
ATOM     15  O   UNL     1     105.060  64.165 227.334  1.00  0.00    -0.550 OA
ATOM     16  O   UNL     1     105.890  66.253 226.885  1.00  0.00    -0.550 OA
ENDBRANCH  13  14
ENDBRANCH  12  13
ENDBRANCH  11  12
ENDBRANCH  10  11
ENDBRANCH   9  10
ENDBRANCH   8   9
ENDBRANCH   7   8
ENDBRANCH   6   7
ENDBRANCH   5   6
ENDBRANCH   4   5
ENDBRANCH   3   4
ENDBRANCH   2   3
ENDBRANCH   1   2
BRANCH   1  17
ATOM     17  C   UNL     1      98.172  67.959 226.431  1.00  0.00     0.000 C 
BRANCH  17  18
ATOM     18  C   UNL     1      99.688  67.940 226.679  1.00  0.00     0.000 C 
BRANCH  18  19
ATOM     19  C   UNL     1     100.481  67.405 225.477  1.00  0.00     0.000 C 
BRANCH  19  20
ATOM     20  C   UNL     1     101.212  66.088 225.792  1.00  0.00     0.000 C 
BRANCH  20  21
ATOM     21  C   UNL     1     101.220  65.117 224.601  1.00  0.00     0.000 C 
BRANCH  21  22
ATOM     22  C   UNL     1     101.797  63.738 224.966  1.00  0.00    -0.000 C 
BRANCH  22  23
ATOM     23  C   UNL     1     101.746  63.458 226.476  1.00  0.00    -0.000 C 
BRANCH  23  24
ATOM     24  C   UNL     1     101.172  62.070 226.802  1.00  0.00    -0.000 C 
BRANCH  24  25
ATOM     25  C   UNL     1     100.962  61.903 228.311  1.00  0.00    -0.000 C 
BRANCH  25  26
ATOM     26  C   UNL     1      99.585  61.289 228.611  1.00  0.00    -0.000 C 
BRANCH  26  27
ATOM     27  C   UNL     1      99.225  61.340 230.105  1.00  0.00    -0.000 C 
BRANCH  27  28
ATOM     28  C   UNL     1      97.734  61.616 230.347  1.00  0.00    -0.000 C 
BRANCH  28  29
ATOM     29  C   UNL     1      97.541  62.574 231.529  1.00  0.00    -0.003 C 
ATOM     30  C   UNL     1      98.882  63.022 232.100  1.00  0.00     0.004 C 
ENDBRANCH  28  29
ENDBRANCH  27  28
ENDBRANCH  26  27
ENDBRANCH  25  26
ENDBRANCH  24  25
ENDBRANCH  23  24
ENDBRANCH  22  23
ENDBRANCH  21  22
ENDBRANCH  20  21
ENDBRANCH  19  20
ENDBRANCH  18  19
ENDBRANCH  17  18
ENDBRANCH   1  17
TORSDOF 26
ENDMDL
MODEL 7
REMARK VINA RESULT:    -2.444      3.012      5.937
REMARK INTER + INTRA:         -11.943
REMARK INTER:                  -6.051
REMARK INTRA:                  -5.892
REMARK UNBOUND:                -5.785
REMARK SMILES CCCCCCCCCCCCCCCCCCCCCCCCCCCC(=O)[O-]
REMARK SMILES IDX 15 1 16 2 17 3 18 4 19 5 20 6 21 7 22 8 23 9 24 10 25 11
REMARK SMILES IDX 26 12 27 13 28 14 29 15 30 16 14 17 13 18 12 19 11 20 10 21
REMARK SMILES IDX 9 22 8 23 7 24 6 25 5 26 4 27 3 28 2 29 1 30
REMARK H PARENT
REMARK Flexibility Score: inf
ROOT
ATOM      1  C   UNL     1      98.949  62.857 227.484  1.00  0.00     0.000 C 
ENDROOT
BRANCH   1   2
ATOM      2  C   UNL     1     100.243  63.083 228.280  1.00  0.00     0.000 C 
BRANCH   2   3
ATOM      3  C   UNL     1     101.511  62.903 227.425  1.00  0.00     0.000 C 
BRANCH   3   4
ATOM      4  C   UNL     1     101.273  62.860 225.903  1.00  0.00     0.000 C 
BRANCH   4   5
ATOM      5  C   UNL     1     101.921  64.010 225.107  1.00  0.00     0.000 C 
BRANCH   5   6
ATOM      6  C   UNL     1     100.942  65.096 224.618  1.00  0.00     0.000 C 
BRANCH   6   7
ATOM      7  C   UNL     1     101.213  66.508 225.170  1.00  0.00     0.000 C 
BRANCH   7   8
ATOM      8  C   UNL     1     100.006  67.098 225.915  1.00  0.00     0.000 C 
BRANCH   8   9
ATOM      9  C   UNL     1      99.974  66.617 227.373  1.00  0.00     0.000 C 
BRANCH   9  10
ATOM     10  C   UNL     1     100.388  67.714 228.368  1.00  0.00     0.000 C 
BRANCH  10  11
ATOM     11  C   UNL     1     101.892  67.680 228.691  1.00  0.00     0.000 C 
BRANCH  11  12
ATOM     12  C   UNL     1     102.436  66.248 228.840  1.00  0.00     0.006 C 
BRANCH  12  13
ATOM     13  C   UNL     1     103.546  65.882 227.842  1.00  0.00     0.053 C 
BRANCH  13  14
ATOM     14  C   UNL     1     104.734  66.788 227.958  1.00  0.00     0.041 C 
ATOM     15  O   UNL     1     105.251  67.290 226.925  1.00  0.00    -0.550 OA
ATOM     16  O   UNL     1     105.288  67.053 229.203  1.00  0.00    -0.550 OA
ENDBRANCH  13  14
ENDBRANCH  12  13
ENDBRANCH  11  12
ENDBRANCH  10  11
ENDBRANCH   9  10
ENDBRANCH   8   9
ENDBRANCH   7   8
ENDBRANCH   6   7
ENDBRANCH   5   6
ENDBRANCH   4   5
ENDBRANCH   3   4
ENDBRANCH   2   3
ENDBRANCH   1   2
BRANCH   1  17
ATOM     17  C   UNL     1      97.790  63.666 228.079  1.00  0.00     0.000 C 
BRANCH  17  18
ATOM     18  C   UNL     1      96.919  64.271 226.967  1.00  0.00     0.000 C 
BRANCH  18  19
ATOM     19  C   UNL     1      97.642  64.333 225.613  1.00  0.00     0.000 C 
BRANCH  19  20
ATOM     20  C   UNL     1      96.774  64.963 224.509  1.00  0.00     0.000 C 
BRANCH  20  21
ATOM     21  C   UNL     1      96.732  66.496 224.593  1.00  0.00     0.000 C 
BRANCH  21  22
ATOM     22  C   UNL     1      95.309  67.039 224.809  1.00  0.00    -0.000 C 
BRANCH  22  23
ATOM     23  C   UNL     1      95.063  67.489 226.258  1.00  0.00    -0.000 C 
BRANCH  23  24
ATOM     24  C   UNL     1      96.366  67.813 227.006  1.00  0.00    -0.000 C 
BRANCH  24  25
ATOM     25  C   UNL     1      96.079  68.236 228.452  1.00  0.00    -0.000 C 
BRANCH  25  26
ATOM     26  C   UNL     1      96.948  67.443 229.440  1.00  0.00    -0.000 C 
BRANCH  26  27
ATOM     27  C   UNL     1      96.121  66.523 230.352  1.00  0.00    -0.000 C 
BRANCH  27  28
ATOM     28  C   UNL     1      96.982  65.487 231.090  1.00  0.00    -0.000 C 
BRANCH  28  29
ATOM     29  C   UNL     1      98.475  65.780 230.896  1.00  0.00    -0.003 C 
ATOM     30  C   UNL     1      99.108  66.291 232.185  1.00  0.00     0.004 C 
ENDBRANCH  28  29
ENDBRANCH  27  28
ENDBRANCH  26  27
ENDBRANCH  25  26
ENDBRANCH  24  25
ENDBRANCH  23  24
ENDBRANCH  22  23
ENDBRANCH  21  22
ENDBRANCH  20  21
ENDBRANCH  19  20
ENDBRANCH  18  19
ENDBRANCH  17  18
ENDBRANCH   1  17
TORSDOF 26
ENDMDL
MODEL 8
REMARK VINA RESULT:    -2.443      2.982      6.965
REMARK INTER + INTRA:         -11.941
REMARK INTER:                  -6.245
REMARK INTRA:                  -5.696
REMARK UNBOUND:                -5.785
REMARK SMILES CCCCCCCCCCCCCCCCCCCCCCCCCCCC(=O)[O-]
REMARK SMILES IDX 15 1 16 2 17 3 18 4 19 5 20 6 21 7 22 8 23 9 24 10 25 11
REMARK SMILES IDX 26 12 27 13 28 14 29 15 30 16 14 17 13 18 12 19 11 20 10 21
REMARK SMILES IDX 9 22 8 23 7 24 6 25 5 26 4 27 3 28 2 29 1 30
REMARK H PARENT
REMARK Flexibility Score: inf
ROOT
ATOM      1  C   UNL     1     101.229  64.557 224.628  1.00  0.00     0.000 C 
ENDROOT
BRANCH   1   2
ATOM      2  C   UNL     1     102.323  63.815 225.410  1.00  0.00     0.000 C 
BRANCH   2   3
ATOM      3  C   UNL     1     101.909  62.387 225.810  1.00  0.00     0.000 C 
BRANCH   3   4
ATOM      4  C   UNL     1     100.794  62.303 226.873  1.00  0.00     0.000 C 
BRANCH   4   5
ATOM      5  C   UNL     1     101.272  62.430 228.333  1.00  0.00     0.000 C 
BRANCH   5   6
ATOM      6  C   UNL     1     100.819  63.714 229.056  1.00  0.00     0.000 C 
BRANCH   6   7
ATOM      7  C   UNL     1      99.896  63.484 230.267  1.00  0.00     0.000 C 
BRANCH   7   8
ATOM      8  C   UNL     1      99.437  62.024 230.397  1.00  0.00     0.000 C 
BRANCH   8   9
ATOM      9  C   UNL     1      97.972  61.869 229.966  1.00  0.00     0.000 C 
BRANCH   9  10
ATOM     10  C   UNL     1      97.819  61.067 228.662  1.00  0.00     0.000 C 
BRANCH  10  11
ATOM     11  C   UNL     1      97.987  59.553 228.880  1.00  0.00     0.000 C 
BRANCH  11  12
ATOM     12  C   UNL     1      99.356  59.032 228.405  1.00  0.00     0.006 C 
BRANCH  12  13
ATOM     13  C   UNL     1      99.431  58.720 226.902  1.00  0.00     0.053 C 
BRANCH  13  14
ATOM     14  C   UNL     1     100.843  58.665 226.405  1.00  0.00     0.041 C 
ATOM     15  O   UNL     1     101.088  58.291 225.227  1.00  0.00    -0.550 OA
ATOM     16  O   UNL     1     101.892  58.999 227.252  1.00  0.00    -0.550 OA
ENDBRANCH  13  14
ENDBRANCH  12  13
ENDBRANCH  11  12
ENDBRANCH  10  11
ENDBRANCH   9  10
ENDBRANCH   8   9
ENDBRANCH   7   8
ENDBRANCH   6   7
ENDBRANCH   5   6
ENDBRANCH   4   5
ENDBRANCH   3   4
ENDBRANCH   2   3
ENDBRANCH   1   2
BRANCH   1  17
ATOM     17  C   UNL     1     101.159  66.031 225.045  1.00  0.00     0.000 C 
BRANCH  17  18
ATOM     18  C   UNL     1     101.195  66.168 226.575  1.00  0.00     0.000 C 
BRANCH  18  19
ATOM     19  C   UNL     1     100.270  67.280 227.093  1.00  0.00     0.000 C 
BRANCH  19  20
ATOM     20  C   UNL     1      99.742  68.183 225.964  1.00  0.00     0.000 C 
BRANCH  20  21
ATOM     21  C   UNL     1      98.211  68.303 225.970  1.00  0.00     0.000 C 
BRANCH  21  22
ATOM     22  C   UNL     1      97.550  67.505 224.833  1.00  0.00    -0.000 C 
BRANCH  22  23
ATOM     23  C   UNL     1      96.174  66.945 225.228  1.00  0.00    -0.000 C 
BRANCH  23  24
ATOM     24  C   UNL     1      96.090  65.418 225.074  1.00  0.00    -0.000 C 
BRANCH  24  25
ATOM     25  C   UNL     1      97.489  64.799 224.971  1.00  0.00    -0.000 C 
BRANCH  25  26
ATOM     26  C   UNL     1      97.943  64.233 226.326  1.00  0.00    -0.000 C 
BRANCH  26  27
ATOM     27  C   UNL     1      96.903  64.448 227.437  1.00  0.00    -0.000 C 
BRANCH  27  28
ATOM     28  C   UNL     1      97.417  65.355 228.565  1.00  0.00    -0.000 C 
BRANCH  28  29
ATOM     29  C   UNL     1      96.313  65.625 229.595  1.00  0.00    -0.003 C 
ATOM     30  C   UNL     1      96.856  65.548 231.017  1.00  0.00     0.004 C 
ENDBRANCH  28  29
ENDBRANCH  27  28
ENDBRANCH  26  27
ENDBRANCH  25  26
ENDBRANCH  24  25
ENDBRANCH  23  24
ENDBRANCH  22  23
ENDBRANCH  21  22
ENDBRANCH  20  21
ENDBRANCH  19  20
ENDBRANCH  18  19
ENDBRANCH  17  18
ENDBRANCH   1  17
TORSDOF 26
ENDMDL
MODEL 9
REMARK VINA RESULT:    -2.388      1.928      3.373
REMARK INTER + INTRA:         -11.803
REMARK INTER:                  -6.176
REMARK INTRA:                  -5.627
REMARK UNBOUND:                -5.785
REMARK SMILES CCCCCCCCCCCCCCCCCCCCCCCCCCCC(=O)[O-]
REMARK SMILES IDX 15 1 16 2 17 3 18 4 19 5 20 6 21 7 22 8 23 9 24 10 25 11
REMARK SMILES IDX 26 12 27 13 28 14 29 15 30 16 14 17 13 18 12 19 11 20 10 21
REMARK SMILES IDX 9 22 8 23 7 24 6 25 5 26 4 27 3 28 2 29 1 30
REMARK H PARENT
REMARK Flexibility Score: inf
ROOT
ATOM      1  C   UNL     1     100.032  65.333 226.704  1.00  0.00     0.000 C 
ENDROOT
BRANCH   1   2
ATOM      2  C   UNL     1      99.277  65.010 225.408  1.00  0.00     0.000 C 
BRANCH   2   3
ATOM      3  C   UNL     1      97.935  64.297 225.657  1.00  0.00     0.000 C 
BRANCH   3   4
ATOM      4  C   UNL     1      96.712  64.949 224.981  1.00  0.00     0.000 C 
BRANCH   4   5
ATOM      5  C   UNL     1      95.611  65.432 225.946  1.00  0.00     0.000 C 
BRANCH   5   6
ATOM      6  C   UNL     1      95.261  66.929 225.836  1.00  0.00     0.000 C 
BRANCH   6   7
ATOM      7  C   UNL     1      95.774  67.801 226.996  1.00  0.00     0.000 C 
BRANCH   7   8
ATOM      8  C   UNL     1      97.303  67.767 227.135  1.00  0.00     0.000 C 
BRANCH   8   9
ATOM      9  C   UNL     1      97.715  67.560 228.600  1.00  0.00     0.000 C 
BRANCH   9  10
ATOM     10  C   UNL     1      96.728  66.670 229.373  1.00  0.00     0.000 C 
BRANCH  10  11
ATOM     11  C   UNL     1      97.100  65.179 229.302  1.00  0.00     0.000 C 
BRANCH  11  12
ATOM     12  C   UNL     1      98.475  64.877 229.926  1.00  0.00     0.006 C 
BRANCH  12  13
ATOM     13  C   UNL     1      98.446  64.634 231.443  1.00  0.00     0.053 C 
BRANCH  13  14
ATOM     14  C   UNL     1      97.486  63.549 231.825  1.00  0.00     0.041 C 
ATOM     15  O   UNL     1      96.707  63.705 232.802  1.00  0.00    -0.550 OA
ATOM     16  O   UNL     1      97.473  62.352 231.119  1.00  0.00    -0.550 OA
ENDBRANCH  13  14
ENDBRANCH  12  13
ENDBRANCH  11  12
ENDBRANCH  10  11
ENDBRANCH   9  10
ENDBRANCH   8   9
ENDBRANCH   7   8
ENDBRANCH   6   7
ENDBRANCH   5   6
ENDBRANCH   4   5
ENDBRANCH   3   4
ENDBRANCH   2   3
ENDBRANCH   1   2
BRANCH   1  17
ATOM     17  C   UNL     1     101.201  66.289 226.436  1.00  0.00     0.000 C 
BRANCH  17  18
ATOM     18  C   UNL     1     102.152  66.342 227.641  1.00  0.00     0.000 C 
BRANCH  18  19
ATOM     19  C   UNL     1     102.034  65.106 228.546  1.00  0.00     0.000 C 
BRANCH  19  20
ATOM     20  C   UNL     1     103.351  64.314 228.638  1.00  0.00     0.000 C 
BRANCH  20  21
ATOM     21  C   UNL     1     104.205  64.439 227.367  1.00  0.00     0.000 C 
BRANCH  21  22
ATOM     22  C   UNL     1     104.103  63.199 226.461  1.00  0.00    -0.000 C 
BRANCH  22  23
ATOM     23  C   UNL     1     103.056  63.368 225.348  1.00  0.00    -0.000 C 
BRANCH  23  24
ATOM     24  C   UNL     1     101.909  62.350 225.455  1.00  0.00    -0.000 C 
BRANCH  24  25
ATOM     25  C   UNL     1     102.318  61.151 226.320  1.00  0.00    -0.000 C 
BRANCH  25  26
ATOM     26  C   UNL     1     101.112  60.588 227.087  1.00  0.00    -0.000 C 
BRANCH  26  27
ATOM     27  C   UNL     1     100.130  61.683 227.534  1.00  0.00    -0.000 C 
BRANCH  27  28
ATOM     28  C   UNL     1     100.312  62.079 229.007  1.00  0.00    -0.000 C 
BRANCH  28  29
ATOM     29  C   UNL     1     100.532  60.840 229.883  1.00  0.00    -0.003 C 
ATOM     30  C   UNL     1     101.735  61.022 230.802  1.00  0.00     0.004 C 
ENDBRANCH  28  29
ENDBRANCH  27  28
ENDBRANCH  26  27
ENDBRANCH  25  26
ENDBRANCH  24  25
ENDBRANCH  23  24
ENDBRANCH  22  23
ENDBRANCH  21  22
ENDBRANCH  20  21
ENDBRANCH  19  20
ENDBRANCH  18  19
ENDBRANCH  17  18
ENDBRANCH   1  17
TORSDOF 26
ENDMDL
