MODEL 1
REMARK VINA RESULT:   -10.533      0.000      0.000
REMARK INTER + INTRA:         -11.265
REMARK INTER:                 -11.456
REMARK INTRA:                   0.192
REMARK UNBOUND:                 0.192
REMARK SMILES C[C@H]1[C@H](C)CC[C@@]2(C(=O)[O-])CC[C@@]3(C)C(=CC[C@H]4[C@]5(C)CC[C@H](O)C(C)(C)[C@@H]5CC[C@]43C)[C@@H]12
REMARK SMILES IDX 7 1 6 2 11 3 33 4 5 5 12 6 15 7 2 8 3 9 13 10 16 11 1 12
REMARK SMILES IDX 4 13 14 14 31 15 17 16 18 17 30 18 32 19 19 20 29 21 28 22
REMARK SMILES IDX 21 23 20 24 25 25 22 26 23 27 26 28 27 29 8 30 9 31 10 32
REMARK SMILES IDX 24 33
REMARK H PARENT 24 34
REMARK Flexibility Score: inf
ROOT
ATOM      1  C   UNL     1      12.910  20.945  30.078  1.00  0.00     0.017 C 
ATOM      2  C   UNL     1      12.755  19.399  30.301  1.00  0.00     0.014 C 
ATOM      3  C   UNL     1      13.330  21.617  31.395  1.00  0.00     0.014 C 
ATOM      4  C   UNL     1      13.970  21.296  28.976  1.00  0.00     0.030 C 
ATOM      5  C   UNL     1      12.595  18.597  29.011  1.00  0.00     0.004 C 
ATOM      6  C   UNL     1      14.656  21.085  31.947  1.00  0.00     0.013 C 
ATOM      7  C   UNL     1      15.433  21.411  29.496  1.00  0.00    -0.063 C 
ATOM      8  C   UNL     1      13.736  20.402  27.696  1.00  0.00    -0.003 C 
ATOM      9  C   UNL     1      13.746  18.888  28.038  1.00  0.00    -0.011 C 
ATOM     10  C   UNL     1      15.883  21.098  30.944  1.00  0.00    -0.006 C 
ATOM     11  C   UNL     1      16.318  22.036  28.700  1.00  0.00    -0.027 C 
ATOM     12  C   UNL     1      14.625  20.752  26.489  1.00  0.00     0.008 C 
ATOM     13  C   UNL     1      13.591  17.981  26.803  1.00  0.00     0.008 C 
ATOM     14  C   UNL     1      16.504  19.669  30.895  1.00  0.00     0.017 C 
ATOM     15  C   UNL     1      16.995  22.160  31.459  1.00  0.00    -0.020 C 
ATOM     16  C   UNL     1      17.781  22.160  28.978  1.00  0.00     0.032 C 
ATOM     17  C   UNL     1      18.238  22.211  30.479  1.00  0.00     0.006 C 
ATOM     18  C   UNL     1      16.383  23.596  31.490  1.00  0.00     0.008 C 
ATOM     19  C   UNL     1      17.460  21.730  32.901  1.00  0.00     0.012 C 
ATOM     20  C   UNL     1      19.327  23.375  30.719  1.00  0.00    -0.025 C 
ATOM     21  C   UNL     1      17.388  24.718  31.769  1.00  0.00     0.005 C 
ATOM     22  C   UNL     1      18.607  24.780  30.795  1.00  0.00     0.003 C 
ATOM     23  C   UNL     1      20.156  23.173  32.030  1.00  0.00     0.010 C 
ATOM     24  C   UNL     1      20.354  23.279  29.529  1.00  0.00     0.012 C 
ATOM     25  C   UNL     1      19.578  26.000  31.156  1.00  0.00    -0.006 C 
ATOM     26  C   UNL     1      21.150  24.311  32.337  1.00  0.00     0.033 C 
ATOM     27  C   UNL     1      20.471  25.688  32.408  1.00  0.00     0.120 C 
ATOM     28  C   UNL     1      18.765  27.300  31.430  1.00  0.00     0.014 C 
ATOM     29  C   UNL     1      20.493  26.364  29.952  1.00  0.00     0.014 C 
ENDROOT
BRANCH   1  30
ATOM     30  C   UNL     1      11.560  21.554  29.691  1.00  0.00     0.048 C 
ATOM     31  O   UNL     1      10.733  21.931  30.564  1.00  0.00    -0.550 OA
ATOM     32  O   UNL     1      11.245  21.755  28.350  1.00  0.00    -0.550 OA
ENDBRANCH   1  30
BRANCH  27  33
ATOM     33  O   UNL     1      19.728  25.751  33.602  1.00  0.00    -0.393 OA
ATOM     34  H   UNL     1      19.218  24.904  33.685  1.00  0.00     0.210 HD
ENDBRANCH  27  33
TORSDOF 2
ENDMDL
MODEL 2
REMARK VINA RESULT:    -9.601      2.429      3.665
REMARK INTER + INTRA:         -10.251
REMARK INTER:                 -10.095
REMARK INTRA:                  -0.156
REMARK UNBOUND:                 0.192
REMARK SMILES C[C@H]1[C@H](C)CC[C@@]2(C(=O)[O-])CC[C@@]3(C)C(=CC[C@H]4[C@]5(C)CC[C@H](O)C(C)(C)[C@@H]5CC[C@]43C)[C@@H]12
REMARK SMILES IDX 7 1 6 2 11 3 33 4 5 5 12 6 15 7 2 8 3 9 13 10 16 11 1 12
REMARK SMILES IDX 4 13 14 14 31 15 17 16 18 17 30 18 32 19 19 20 29 21 28 22
REMARK SMILES IDX 21 23 20 24 25 25 22 26 23 27 26 28 27 29 8 30 9 31 10 32
REMARK SMILES IDX 24 33
REMARK H PARENT 24 34
REMARK Flexibility Score: inf
ROOT
ATOM      1  C   UNL     1      15.884  18.622  32.021  1.00  0.00     0.017 C 
ATOM      2  C   UNL     1      15.706  17.832  30.676  1.00  0.00     0.014 C 
ATOM      3  C   UNL     1      17.381  18.785  32.330  1.00  0.00     0.014 C 
ATOM      4  C   UNL     1      15.223  20.045  31.981  1.00  0.00     0.030 C 
ATOM      5  C   UNL     1      14.277  17.835  30.138  1.00  0.00     0.004 C 
ATOM      6  C   UNL     1      18.143  19.538  31.236  1.00  0.00     0.013 C 
ATOM      7  C   UNL     1      16.138  21.170  31.413  1.00  0.00    -0.063 C 
ATOM      8  C   UNL     1      13.762  19.946  31.390  1.00  0.00    -0.003 C 
ATOM      9  C   UNL     1      13.748  19.269  29.993  1.00  0.00    -0.011 C 
ATOM     10  C   UNL     1      17.546  20.943  30.811  1.00  0.00    -0.006 C 
ATOM     11  C   UNL     1      15.775  22.439  31.667  1.00  0.00    -0.027 C 
ATOM     12  C   UNL     1      12.956  21.257  31.431  1.00  0.00     0.008 C 
ATOM     13  C   UNL     1      12.348  19.218  29.353  1.00  0.00     0.008 C 
ATOM     14  C   UNL     1      17.353  20.958  29.265  1.00  0.00     0.017 C 
ATOM     15  C   UNL     1      18.570  22.123  31.246  1.00  0.00    -0.020 C 
ATOM     16  C   UNL     1      16.466  23.650  31.129  1.00  0.00     0.032 C 
ATOM     17  C   UNL     1      18.007  23.548  30.847  1.00  0.00     0.006 C 
ATOM     18  C   UNL     1      18.750  22.124  32.796  1.00  0.00     0.008 C 
ATOM     19  C   UNL     1      19.951  21.868  30.533  1.00  0.00     0.012 C 
ATOM     20  C   UNL     1      18.789  24.841  31.408  1.00  0.00    -0.025 C 
ATOM     21  C   UNL     1      19.537  23.316  33.352  1.00  0.00     0.005 C 
ATOM     22  C   UNL     1      18.976  24.723  32.972  1.00  0.00     0.003 C 
ATOM     23  C   UNL     1      20.199  25.030  30.755  1.00  0.00     0.010 C 
ATOM     24  C   UNL     1      17.938  26.097  30.987  1.00  0.00     0.012 C 
ATOM     25  C   UNL     1      19.851  25.893  33.623  1.00  0.00    -0.006 C 
ATOM     26  C   UNL     1      21.013  26.208  31.327  1.00  0.00     0.033 C 
ATOM     27  C   UNL     1      21.198  26.116  32.850  1.00  0.00     0.120 C 
ATOM     28  C   UNL     1      20.173  25.587  35.117  1.00  0.00     0.014 C 
ATOM     29  C   UNL     1      19.058  27.231  33.666  1.00  0.00     0.014 C 
ENDROOT
BRANCH   1  30
ATOM     30  C   UNL     1      15.286  17.821  33.180  1.00  0.00     0.048 C 
ATOM     31  O   UNL     1      15.216  16.563  33.144  1.00  0.00    -0.550 OA
ATOM     32  O   UNL     1      14.855  18.476  34.331  1.00  0.00    -0.550 OA
ENDBRANCH   1  30
BRANCH  27  33
ATOM     33  O   UNL     1      22.125  25.091  33.119  1.00  0.00    -0.393 OA
ATOM     34  H   UNL     1      22.699  25.393  33.871  1.00  0.00     0.210 HD
ENDBRANCH  27  33
TORSDOF 2
ENDMDL
MODEL 3
REMARK VINA RESULT:    -9.482     10.056     13.718
REMARK INTER + INTRA:         -10.121
REMARK INTER:                  -9.995
REMARK INTRA:                  -0.126
REMARK UNBOUND:                 0.192
REMARK SMILES C[C@H]1[C@H](C)CC[C@@]2(C(=O)[O-])CC[C@@]3(C)C(=CC[C@H]4[C@]5(C)CC[C@H](O)C(C)(C)[C@@H]5CC[C@]43C)[C@@H]12
REMARK SMILES IDX 7 1 6 2 11 3 33 4 5 5 12 6 15 7 2 8 3 9 13 10 16 11 1 12
REMARK SMILES IDX 4 13 14 14 31 15 17 16 18 17 30 18 32 19 19 20 29 21 28 22
REMARK SMILES IDX 21 23 20 24 25 25 22 26 23 27 26 28 27 29 8 30 9 31 10 32
REMARK SMILES IDX 24 33
REMARK H PARENT 24 34
REMARK Flexibility Score: inf
ROOT
ATOM      1  C   UNL     1       7.164  19.664  20.362  1.00  0.00     0.017 C 
ATOM      2  C   UNL     1       5.879  19.533  19.470  1.00  0.00     0.014 C 
ATOM      3  C   UNL     1       6.760  19.705  21.845  1.00  0.00     0.014 C 
ATOM      4  C   UNL     1       8.174  18.482  20.150  1.00  0.00     0.030 C 
ATOM      5  C   UNL     1       6.170  19.223  18.003  1.00  0.00     0.004 C 
ATOM      6  C   UNL     1       5.998  18.456  22.297  1.00  0.00     0.013 C 
ATOM      7  C   UNL     1       7.907  17.233  21.041  1.00  0.00    -0.063 C 
ATOM      8  C   UNL     1       8.390  18.226  18.607  1.00  0.00    -0.003 C 
ATOM      9  C   UNL     1       7.048  17.971  17.869  1.00  0.00    -0.011 C 
ATOM     10  C   UNL     1       6.693  17.066  21.987  1.00  0.00    -0.006 C 
ATOM     11  C   UNL     1       8.909  16.345  21.164  1.00  0.00    -0.027 C 
ATOM     12  C   UNL     1       9.469  17.182  18.268  1.00  0.00     0.008 C 
ATOM     13  C   UNL     1       7.224  17.646  16.375  1.00  0.00     0.008 C 
ATOM     14  C   UNL     1       5.681  16.160  21.222  1.00  0.00     0.017 C 
ATOM     15  C   UNL     1       7.124  16.351  23.377  1.00  0.00    -0.020 C 
ATOM     16  C   UNL     1       8.814  15.044  21.892  1.00  0.00     0.032 C 
ATOM     17  C   UNL     1       7.831  14.958  23.113  1.00  0.00     0.006 C 
ATOM     18  C   UNL     1       8.153  17.245  24.137  1.00  0.00     0.008 C 
ATOM     19  C   UNL     1       5.828  16.143  24.249  1.00  0.00     0.012 C 
ATOM     20  C   UNL     1       8.523  14.226  24.370  1.00  0.00    -0.025 C 
ATOM     21  C   UNL     1       8.788  16.592  25.369  1.00  0.00     0.005 C 
ATOM     22  C   UNL     1       9.499  15.226  25.109  1.00  0.00     0.003 C 
ATOM     23  C   UNL     1       7.484  13.690  25.410  1.00  0.00     0.010 C 
ATOM     24  C   UNL     1       9.265  12.960  23.798  1.00  0.00     0.012 C 
ATOM     25  C   UNL     1      10.149  14.644  26.450  1.00  0.00    -0.006 C 
ATOM     26  C   UNL     1       8.112  13.057  26.668  1.00  0.00     0.033 C 
ATOM     27  C   UNL     1       9.070  14.011  27.397  1.00  0.00     0.120 C 
ATOM     28  C   UNL     1      10.913  15.755  27.229  1.00  0.00     0.014 C 
ATOM     29  C   UNL     1      11.237  13.579  26.130  1.00  0.00     0.014 C 
ENDROOT
BRANCH   1  30
ATOM     30  C   UNL     1       7.870  20.990  20.067  1.00  0.00     0.048 C 
ATOM     31  O   UNL     1       9.125  21.093  20.123  1.00  0.00    -0.550 OA
ATOM     32  O   UNL     1       7.131  22.101  19.672  1.00  0.00    -0.550 OA
ENDBRANCH   1  30
BRANCH  27  33
ATOM     33  O   UNL     1       8.303  15.000  28.040  1.00  0.00    -0.393 OA
ATOM     34  H   UNL     1       8.891  15.462  28.692  1.00  0.00     0.210 HD
ENDBRANCH  27  33
TORSDOF 2
ENDMDL
MODEL 4
REMARK VINA RESULT:    -9.383      3.094      7.983
REMARK INTER + INTRA:         -10.014
REMARK INTER:                 -10.148
REMARK INTRA:                   0.133
REMARK UNBOUND:                 0.192
REMARK SMILES C[C@H]1[C@H](C)CC[C@@]2(C(=O)[O-])CC[C@@]3(C)C(=CC[C@H]4[C@]5(C)CC[C@H](O)C(C)(C)[C@@H]5CC[C@]43C)[C@@H]12
REMARK SMILES IDX 7 1 6 2 11 3 33 4 5 5 12 6 15 7 2 8 3 9 13 10 16 11 1 12
REMARK SMILES IDX 4 13 14 14 31 15 17 16 18 17 30 18 32 19 19 20 29 21 28 22
REMARK SMILES IDX 21 23 20 24 25 25 22 26 23 27 26 28 27 29 8 30 9 31 10 32
REMARK SMILES IDX 24 33
REMARK H PARENT 24 34
REMARK Flexibility Score: inf
ROOT
ATOM      1  C   UNL     1      19.109  23.432  32.992  1.00  0.00     0.017 C 
ATOM      2  C   UNL     1      18.377  24.811  33.150  1.00  0.00     0.014 C 
ATOM      3  C   UNL     1      18.675  22.483  34.121  1.00  0.00     0.014 C 
ATOM      4  C   UNL     1      18.811  22.740  31.615  1.00  0.00     0.030 C 
ATOM      5  C   UNL     1      18.529  25.738  31.947  1.00  0.00     0.004 C 
ATOM      6  C   UNL     1      17.167  22.217  34.138  1.00  0.00     0.013 C 
ATOM      7  C   UNL     1      17.531  21.854  31.598  1.00  0.00    -0.063 C 
ATOM      8  C   UNL     1      18.972  23.783  30.440  1.00  0.00    -0.003 C 
ATOM      9  C   UNL     1      18.085  25.039  30.655  1.00  0.00    -0.011 C 
ATOM     10  C   UNL     1      16.532  21.723  32.774  1.00  0.00    -0.006 C 
ATOM     11  C   UNL     1      17.408  20.977  30.587  1.00  0.00    -0.027 C 
ATOM     12  C   UNL     1      18.843  23.191  29.025  1.00  0.00     0.008 C 
ATOM     13  C   UNL     1      18.161  26.047  29.494  1.00  0.00     0.008 C 
ATOM     14  C   UNL     1      15.332  22.650  32.416  1.00  0.00     0.017 C 
ATOM     15  C   UNL     1      16.012  20.195  32.938  1.00  0.00    -0.020 C 
ATOM     16  C   UNL     1      16.213  20.112  30.345  1.00  0.00     0.032 C 
ATOM     17  C   UNL     1      15.375  19.657  31.592  1.00  0.00     0.006 C 
ATOM     18  C   UNL     1      17.214  19.259  33.277  1.00  0.00     0.008 C 
ATOM     19  C   UNL     1      14.944  20.157  34.095  1.00  0.00     0.012 C 
ATOM     20  C   UNL     1      15.017  18.088  31.514  1.00  0.00    -0.025 C 
ATOM     21  C   UNL     1      16.889  17.762  33.262  1.00  0.00     0.005 C 
ATOM     22  C   UNL     1      16.274  17.225  31.930  1.00  0.00     0.003 C 
ATOM     23  C   UNL     1      13.817  17.690  32.436  1.00  0.00     0.010 C 
ATOM     24  C   UNL     1      14.547  17.808  30.037  1.00  0.00     0.012 C 
ATOM     25  C   UNL     1      15.998  15.652  32.010  1.00  0.00    -0.006 C 
ATOM     26  C   UNL     1      13.499  16.181  32.452  1.00  0.00     0.033 C 
ATOM     27  C   UNL     1      14.712  15.324  32.848  1.00  0.00     0.120 C 
ATOM     28  C   UNL     1      17.211  14.901  32.637  1.00  0.00     0.014 C 
ATOM     29  C   UNL     1      15.855  15.034  30.590  1.00  0.00     0.014 C 
ENDROOT
BRANCH   1  30
ATOM     30  C   UNL     1      20.621  23.623  33.141  1.00  0.00     0.048 C 
ATOM     31  O   UNL     1      21.386  23.623  32.140  1.00  0.00    -0.550 OA
ATOM     32  O   UNL     1      21.172  23.861  34.397  1.00  0.00    -0.550 OA
ENDBRANCH   1  30
BRANCH  27  33
ATOM     33  O   UNL     1      14.938  15.490  34.227  1.00  0.00    -0.393 OA
ATOM     34  H   UNL     1      14.053  15.584  34.668  1.00  0.00     0.210 HD
ENDBRANCH  27  33
TORSDOF 2
ENDMDL
MODEL 5
REMARK VINA RESULT:    -9.333      4.729      6.623
REMARK INTER + INTRA:          -9.960
REMARK INTER:                  -9.802
REMARK INTRA:                  -0.158
REMARK UNBOUND:                 0.192
REMARK SMILES C[C@H]1[C@H](C)CC[C@@]2(C(=O)[O-])CC[C@@]3(C)C(=CC[C@H]4[C@]5(C)CC[C@H](O)C(C)(C)[C@@H]5CC[C@]43C)[C@@H]12
REMARK SMILES IDX 7 1 6 2 11 3 33 4 5 5 12 6 15 7 2 8 3 9 13 10 16 11 1 12
REMARK SMILES IDX 4 13 14 14 31 15 17 16 18 17 30 18 32 19 19 20 29 21 28 22
REMARK SMILES IDX 21 23 20 24 25 25 22 26 23 27 26 28 27 29 8 30 9 31 10 32
REMARK SMILES IDX 24 33
REMARK H PARENT 24 34
REMARK Flexibility Score: inf
ROOT
ATOM      1  C   UNL     1      16.028  14.496  31.147  1.00  0.00     0.017 C 
ATOM      2  C   UNL     1      14.621  13.811  31.023  1.00  0.00     0.014 C 
ATOM      3  C   UNL     1      16.178  15.570  30.058  1.00  0.00     0.014 C 
ATOM      4  C   UNL     1      16.256  15.167  32.548  1.00  0.00     0.030 C 
ATOM      5  C   UNL     1      14.260  12.914  32.205  1.00  0.00     0.004 C 
ATOM      6  C   UNL     1      15.112  16.666  30.142  1.00  0.00     0.013 C 
ATOM      7  C   UNL     1      15.739  16.631  32.657  1.00  0.00    -0.063 C 
ATOM      8  C   UNL     1      15.833  14.172  33.699  1.00  0.00    -0.003 C 
ATOM      9  C   UNL     1      14.370  13.681  33.530  1.00  0.00    -0.011 C 
ATOM     10  C   UNL     1      14.951  17.374  31.551  1.00  0.00    -0.006 C 
ATOM     11  C   UNL     1      16.200  17.367  33.682  1.00  0.00    -0.027 C 
ATOM     12  C   UNL     1      16.141  14.662  35.125  1.00  0.00     0.008 C 
ATOM     13  C   UNL     1      13.897  12.765  34.674  1.00  0.00     0.008 C 
ATOM     14  C   UNL     1      13.454  17.305  31.977  1.00  0.00     0.017 C 
ATOM     15  C   UNL     1      15.415  18.924  31.436  1.00  0.00    -0.020 C 
ATOM     16  C   UNL     1      15.750  18.754  34.011  1.00  0.00     0.032 C 
ATOM     17  C   UNL     1      15.277  19.670  32.826  1.00  0.00     0.006 C 
ATOM     18  C   UNL     1      16.920  18.998  31.029  1.00  0.00     0.008 C 
ATOM     19  C   UNL     1      14.518  19.631  30.352  1.00  0.00     0.012 C 
ATOM     20  C   UNL     1      15.909  21.148  32.943  1.00  0.00    -0.025 C 
ATOM     21  C   UNL     1      17.533  20.401  31.080  1.00  0.00     0.005 C 
ATOM     22  C   UNL     1      17.412  21.134  32.454  1.00  0.00     0.003 C 
ATOM     23  C   UNL     1      15.127  22.212  32.106  1.00  0.00     0.010 C 
ATOM     24  C   UNL     1      15.762  21.580  34.451  1.00  0.00     0.012 C 
ATOM     25  C   UNL     1      18.105  22.575  32.408  1.00  0.00    -0.006 C 
ATOM     26  C   UNL     1      15.751  23.622  32.125  1.00  0.00     0.033 C 
ATOM     27  C   UNL     1      17.215  23.629  31.659  1.00  0.00     0.120 C 
ATOM     28  C   UNL     1      19.496  22.505  31.710  1.00  0.00     0.014 C 
ATOM     29  C   UNL     1      18.417  23.094  33.841  1.00  0.00     0.014 C 
ENDROOT
BRANCH   1  30
ATOM     30  C   UNL     1      17.133  13.466  30.897  1.00  0.00     0.048 C 
ATOM     31  O   UNL     1      16.964  12.498  30.107  1.00  0.00    -0.550 OA
ATOM     32  O   UNL     1      18.377  13.617  31.503  1.00  0.00    -0.550 OA
ENDBRANCH   1  30
BRANCH  27  33
ATOM     33  O   UNL     1      17.235  23.427  30.267  1.00  0.00    -0.393 OA
ATOM     34  H   UNL     1      17.231  24.319  29.832  1.00  0.00     0.210 HD
ENDBRANCH  27  33
TORSDOF 2
ENDMDL
MODEL 6
REMARK VINA RESULT:    -9.282     11.205     14.427
REMARK INTER + INTRA:          -9.904
REMARK INTER:                  -9.789
REMARK INTRA:                  -0.115
REMARK UNBOUND:                 0.192
REMARK SMILES C[C@H]1[C@H](C)CC[C@@]2(C(=O)[O-])CC[C@@]3(C)C(=CC[C@H]4[C@]5(C)CC[C@H](O)C(C)(C)[C@@H]5CC[C@]43C)[C@@H]12
REMARK SMILES IDX 7 1 6 2 11 3 33 4 5 5 12 6 15 7 2 8 3 9 13 10 16 11 1 12
REMARK SMILES IDX 4 13 14 14 31 15 17 16 18 17 30 18 32 19 19 20 29 21 28 22
REMARK SMILES IDX 21 23 20 24 25 25 22 26 23 27 26 28 27 29 8 30 9 31 10 32
REMARK SMILES IDX 24 33
REMARK H PARENT 24 34
REMARK Flexibility Score: inf
ROOT
ATOM      1  C   UNL     1       8.999  12.626  24.826  1.00  0.00     0.017 C 
ATOM      2  C   UNL     1       7.945  11.786  25.632  1.00  0.00     0.014 C 
ATOM      3  C   UNL     1       8.700  12.524  23.322  1.00  0.00     0.014 C 
ATOM      4  C   UNL     1       9.008  14.141  25.234  1.00  0.00     0.030 C 
ATOM      5  C   UNL     1       7.985  12.021  27.140  1.00  0.00     0.004 C 
ATOM      6  C   UNL     1       7.305  13.035  22.949  1.00  0.00     0.013 C 
ATOM      7  C   UNL     1       7.986  15.027  24.462  1.00  0.00    -0.063 C 
ATOM      8  C   UNL     1       9.026  14.278  26.807  1.00  0.00    -0.003 C 
ATOM      9  C   UNL     1       7.846  13.515  27.467  1.00  0.00    -0.011 C 
ATOM     10  C   UNL     1       6.940  14.493  23.453  1.00  0.00    -0.006 C 
ATOM     11  C   UNL     1       8.174  16.357  24.505  1.00  0.00    -0.027 C 
ATOM     12  C   UNL     1       9.178  15.717  27.331  1.00  0.00     0.008 C 
ATOM     13  C   UNL     1       7.789  13.683  28.997  1.00  0.00     0.008 C 
ATOM     14  C   UNL     1       5.592  14.430  24.232  1.00  0.00     0.017 C 
ATOM     15  C   UNL     1       6.789  15.486  22.179  1.00  0.00    -0.020 C 
ATOM     16  C   UNL     1       7.251  17.372  23.912  1.00  0.00     0.032 C 
ATOM     17  C   UNL     1       6.431  16.959  22.639  1.00  0.00     0.006 C 
ATOM     18  C   UNL     1       8.143  15.568  21.407  1.00  0.00     0.008 C 
ATOM     19  C   UNL     1       5.656  14.921  21.243  1.00  0.00     0.012 C 
ATOM     20  C   UNL     1       6.470  18.117  21.519  1.00  0.00    -0.025 C 
ATOM     21  C   UNL     1       8.189  16.626  20.300  1.00  0.00     0.005 C 
ATOM     22  C   UNL     1       7.852  18.082  20.752  1.00  0.00     0.003 C 
ATOM     23  C   UNL     1       5.318  17.987  20.468  1.00  0.00     0.010 C 
ATOM     24  C   UNL     1       6.224  19.478  22.273  1.00  0.00     0.012 C 
ATOM     25  C   UNL     1       7.955  19.109  19.531  1.00  0.00    -0.006 C 
ATOM     26  C   UNL     1       5.372  19.027  19.331  1.00  0.00     0.033 C 
ATOM     27  C   UNL     1       6.712  19.015  18.578  1.00  0.00     0.120 C 
ATOM     28  C   UNL     1       9.247  18.860  18.697  1.00  0.00     0.014 C 
ATOM     29  C   UNL     1       8.101  20.573  20.038  1.00  0.00     0.014 C 
ENDROOT
BRANCH   1  30
ATOM     30  C   UNL     1      10.399  12.041  25.032  1.00  0.00     0.048 C 
ATOM     31  O   UNL     1      10.565  10.879  25.491  1.00  0.00    -0.550 OA
ATOM     32  O   UNL     1      11.522  12.773  24.656  1.00  0.00    -0.550 OA
ENDBRANCH   1  30
BRANCH  27  33
ATOM     33  O   UNL     1       6.758  17.855  17.781  1.00  0.00    -0.393 OA
ATOM     34  H   UNL     1       6.730  18.141  16.831  1.00  0.00     0.210 HD
ENDBRANCH  27  33
TORSDOF 2
ENDMDL
MODEL 7
REMARK VINA RESULT:    -8.949      2.671      8.136
REMARK INTER + INTRA:          -9.543
REMARK INTER:                  -9.792
REMARK INTRA:                   0.249
REMARK UNBOUND:                 0.192
REMARK SMILES C[C@H]1[C@H](C)CC[C@@]2(C(=O)[O-])CC[C@@]3(C)C(=CC[C@H]4[C@]5(C)CC[C@H](O)C(C)(C)[C@@H]5CC[C@]43C)[C@@H]12
REMARK SMILES IDX 7 1 6 2 11 3 33 4 5 5 12 6 15 7 2 8 3 9 13 10 16 11 1 12
REMARK SMILES IDX 4 13 14 14 31 15 17 16 18 17 30 18 32 19 19 20 29 21 28 22
REMARK SMILES IDX 21 23 20 24 25 25 22 26 23 27 26 28 27 29 8 30 9 31 10 32
REMARK SMILES IDX 24 33
REMARK H PARENT 24 34
REMARK Flexibility Score: inf
ROOT
ATOM      1  C   UNL     1      19.440  27.120  30.482  1.00  0.00     0.017 C 
ATOM      2  C   UNL     1      20.996  27.242  30.312  1.00  0.00     0.014 C 
ATOM      3  C   UNL     1      18.892  26.075  29.497  1.00  0.00     0.014 C 
ATOM      4  C   UNL     1      19.018  26.708  31.936  1.00  0.00     0.030 C 
ATOM      5  C   UNL     1      21.679  28.055  31.409  1.00  0.00     0.004 C 
ATOM      6  C   UNL     1      19.498  24.683  29.697  1.00  0.00     0.013 C 
ATOM      7  C   UNL     1      18.980  25.172  32.189  1.00  0.00    -0.063 C 
ATOM      8  C   UNL     1      19.793  27.586  32.994  1.00  0.00    -0.003 C 
ATOM      9  C   UNL     1      21.331  27.504  32.799  1.00  0.00    -0.011 C 
ATOM     10  C   UNL     1      19.426  24.097  31.168  1.00  0.00    -0.006 C 
ATOM     11  C   UNL     1      18.308  24.747  33.273  1.00  0.00    -0.027 C 
ATOM     12  C   UNL     1      19.361  27.373  34.456  1.00  0.00     0.008 C 
ATOM     13  C   UNL     1      22.125  28.292  33.857  1.00  0.00     0.008 C 
ATOM     14  C   UNL     1      20.858  23.665  31.605  1.00  0.00     0.017 C 
ATOM     15  C   UNL     1      18.436  22.813  31.193  1.00  0.00    -0.020 C 
ATOM     16  C   UNL     1      18.240  23.328  33.736  1.00  0.00     0.032 C 
ATOM     17  C   UNL     1      18.328  22.199  32.649  1.00  0.00     0.006 C 
ATOM     18  C   UNL     1      16.995  23.245  30.775  1.00  0.00     0.008 C 
ATOM     19  C   UNL     1      18.998  21.735  30.192  1.00  0.00     0.012 C 
ATOM     20  C   UNL     1      17.212  21.062  32.896  1.00  0.00    -0.025 C 
ATOM     21  C   UNL     1      15.923  22.165  30.950  1.00  0.00     0.005 C 
ATOM     22  C   UNL     1      15.804  21.568  32.388  1.00  0.00     0.003 C 
ATOM     23  C   UNL     1      17.545  19.716  32.172  1.00  0.00     0.010 C 
ATOM     24  C   UNL     1      17.228  20.748  34.439  1.00  0.00     0.012 C 
ATOM     25  C   UNL     1      14.641  20.472  32.468  1.00  0.00    -0.006 C 
ATOM     26  C   UNL     1      16.459  18.631  32.315  1.00  0.00     0.033 C 
ATOM     27  C   UNL     1      15.079  19.106  31.834  1.00  0.00     0.120 C 
ATOM     28  C   UNL     1      13.352  20.970  31.749  1.00  0.00     0.014 C 
ATOM     29  C   UNL     1      14.195  20.234  33.940  1.00  0.00     0.014 C 
ENDROOT
BRANCH   1  30
ATOM     30  C   UNL     1      18.771  28.450  30.122  1.00  0.00     0.048 C 
ATOM     31  O   UNL     1      19.251  29.552  30.501  1.00  0.00    -0.550 OA
ATOM     32  O   UNL     1      17.638  28.463  29.313  1.00  0.00    -0.550 OA
ENDBRANCH   1  30
BRANCH  27  33
ATOM     33  O   UNL     1      15.102  19.172  30.428  1.00  0.00    -0.393 OA
ATOM     34  H   UNL     1      15.811  18.556  30.108  1.00  0.00     0.210 HD
ENDBRANCH  27  33
TORSDOF 2
ENDMDL
MODEL 8
REMARK VINA RESULT:    -8.511      1.803      7.993
REMARK INTER + INTRA:          -9.065
REMARK INTER:                  -8.906
REMARK INTRA:                  -0.159
REMARK UNBOUND:                 0.192
REMARK SMILES C[C@H]1[C@H](C)CC[C@@]2(C(=O)[O-])CC[C@@]3(C)C(=CC[C@H]4[C@]5(C)CC[C@H](O)C(C)(C)[C@@H]5CC[C@]43C)[C@@H]12
REMARK SMILES IDX 7 1 6 2 11 3 33 4 5 5 12 6 15 7 2 8 3 9 13 10 16 11 1 12
REMARK SMILES IDX 4 13 14 14 31 15 17 16 18 17 30 18 32 19 19 20 29 21 28 22
REMARK SMILES IDX 21 23 20 24 25 25 22 26 23 27 26 28 27 29 8 30 9 31 10 32
REMARK SMILES IDX 24 33
REMARK H PARENT 24 34
REMARK Flexibility Score: inf
ROOT
ATOM      1  C   UNL     1      20.002  25.217  30.768  1.00  0.00     0.017 C 
ATOM      2  C   UNL     1      21.243  24.828  31.647  1.00  0.00     0.014 C 
ATOM      3  C   UNL     1      19.833  24.196  29.631  1.00  0.00     0.014 C 
ATOM      4  C   UNL     1      18.668  25.275  31.592  1.00  0.00     0.030 C 
ATOM      5  C   UNL     1      21.355  25.616  32.950  1.00  0.00     0.004 C 
ATOM      6  C   UNL     1      19.624  22.765  30.133  1.00  0.00     0.013 C 
ATOM      7  C   UNL     1      17.922  23.913  31.714  1.00  0.00    -0.063 C 
ATOM      8  C   UNL     1      18.892  26.088  32.927  1.00  0.00    -0.003 C 
ATOM      9  C   UNL     1      20.061  25.509  33.769  1.00  0.00    -0.011 C 
ATOM     10  C   UNL     1      18.462  22.560  31.191  1.00  0.00    -0.006 C 
ATOM     11  C   UNL     1      16.634  23.955  32.095  1.00  0.00    -0.027 C 
ATOM     12  C   UNL     1      17.619  26.336  33.756  1.00  0.00     0.008 C 
ATOM     13  C   UNL     1      20.264  26.233  35.112  1.00  0.00     0.008 C 
ATOM     14  C   UNL     1      19.043  21.825  32.436  1.00  0.00     0.017 C 
ATOM     15  C   UNL     1      17.278  21.668  30.532  1.00  0.00    -0.020 C 
ATOM     16  C   UNL     1      15.781  22.756  32.361  1.00  0.00     0.032 C 
ATOM     17  C   UNL     1      16.090  21.445  31.555  1.00  0.00     0.006 C 
ATOM     18  C   UNL     1      16.680  22.411  29.296  1.00  0.00     0.008 C 
ATOM     19  C   UNL     1      17.886  20.282  30.098  1.00  0.00     0.012 C 
ATOM     20  C   UNL     1      14.737  20.776  30.988  1.00  0.00    -0.025 C 
ATOM     21  C   UNL     1      15.423  21.766  28.704  1.00  0.00     0.005 C 
ATOM     22  C   UNL     1      14.243  21.558  29.707  1.00  0.00     0.003 C 
ATOM     23  C   UNL     1      14.916  19.269  30.610  1.00  0.00     0.010 C 
ATOM     24  C   UNL     1      13.693  20.813  32.166  1.00  0.00     0.012 C 
ATOM     25  C   UNL     1      12.974  20.905  28.984  1.00  0.00    -0.006 C 
ATOM     26  C   UNL     1      13.666  18.617  29.985  1.00  0.00     0.033 C 
ATOM     27  C   UNL     1      13.165  19.367  28.741  1.00  0.00     0.120 C 
ATOM     28  C   UNL     1      12.689  21.598  27.618  1.00  0.00     0.014 C 
ATOM     29  C   UNL     1      11.677  21.136  29.811  1.00  0.00     0.014 C 
ENDROOT
BRANCH   1  30
ATOM     30  C   UNL     1      20.241  26.575  30.101  1.00  0.00     0.048 C 
ATOM     31  O   UNL     1      21.400  26.963  29.796  1.00  0.00    -0.550 OA
ATOM     32  O   UNL     1      19.161  27.386  29.767  1.00  0.00    -0.550 OA
ENDBRANCH   1  30
BRANCH  27  33
ATOM     33  O   UNL     1      14.062  19.117  27.686  1.00  0.00    -0.393 OA
ATOM     34  H   UNL     1      14.370  18.177  27.767  1.00  0.00     0.210 HD
ENDBRANCH  27  33
TORSDOF 2
ENDMDL
MODEL 9
REMARK VINA RESULT:    -8.509      8.774     14.262
REMARK INTER + INTRA:          -9.063
REMARK INTER:                  -8.904
REMARK INTRA:                  -0.159
REMARK UNBOUND:                 0.192
REMARK SMILES C[C@H]1[C@H](C)CC[C@@]2(C(=O)[O-])CC[C@@]3(C)C(=CC[C@H]4[C@]5(C)CC[C@H](O)C(C)(C)[C@@H]5CC[C@]43C)[C@@H]12
REMARK SMILES IDX 7 1 6 2 11 3 33 4 5 5 12 6 15 7 2 8 3 9 13 10 16 11 1 12
REMARK SMILES IDX 4 13 14 14 31 15 17 16 18 17 30 18 32 19 19 20 29 21 28 22
REMARK SMILES IDX 21 23 20 24 25 25 22 26 23 27 26 28 27 29 8 30 9 31 10 32
REMARK SMILES IDX 24 33
REMARK H PARENT 24 34
REMARK Flexibility Score: inf
ROOT
ATOM      1  C   UNL     1       9.606  13.973  25.840  1.00  0.00     0.017 C 
ATOM      2  C   UNL     1       9.142  14.946  26.980  1.00  0.00     0.014 C 
ATOM      3  C   UNL     1       8.410  13.621  24.941  1.00  0.00     0.014 C 
ATOM      4  C   UNL     1      10.742  14.584  24.945  1.00  0.00     0.030 C 
ATOM      5  C   UNL     1      10.289  15.566  27.775  1.00  0.00     0.004 C 
ATOM      6  C   UNL     1       7.769  14.847  24.283  1.00  0.00     0.013 C 
ATOM      7  C   UNL     1      10.234  15.445  23.751  1.00  0.00    -0.063 C 
ATOM      8  C   UNL     1      11.865  15.218  25.856  1.00  0.00    -0.003 C 
ATOM      9  C   UNL     1      11.287  16.267  26.843  1.00  0.00    -0.011 C 
ATOM     10  C   UNL     1       8.751  15.803  23.488  1.00  0.00    -0.006 C 
ATOM     11  C   UNL     1      11.112  15.703  22.767  1.00  0.00    -0.027 C 
ATOM     12  C   UNL     1      13.105  15.726  25.097  1.00  0.00     0.008 C 
ATOM     13  C   UNL     1      12.363  16.960  27.699  1.00  0.00     0.008 C 
ATOM     14  C   UNL     1       8.567  17.258  24.013  1.00  0.00     0.017 C 
ATOM     15  C   UNL     1       8.403  15.745  21.905  1.00  0.00    -0.020 C 
ATOM     16  C   UNL     1      10.845  16.586  21.591  1.00  0.00     0.032 C 
ATOM     17  C   UNL     1       9.368  16.683  21.070  1.00  0.00     0.006 C 
ATOM     18  C   UNL     1       8.606  14.293  21.370  1.00  0.00     0.008 C 
ATOM     19  C   UNL     1       6.907  16.197  21.710  1.00  0.00     0.012 C 
ATOM     20  C   UNL     1       9.307  16.569  19.463  1.00  0.00    -0.025 C 
ATOM     21  C   UNL     1       8.501  14.147  19.849  1.00  0.00     0.005 C 
ATOM     22  C   UNL     1       9.462  15.059  19.022  1.00  0.00     0.003 C 
ATOM     23  C   UNL     1       7.974  17.125  18.863  1.00  0.00     0.010 C 
ATOM     24  C   UNL     1      10.458  17.488  18.906  1.00  0.00     0.012 C 
ATOM     25  C   UNL     1       9.292  14.810  17.451  1.00  0.00    -0.006 C 
ATOM     26  C   UNL     1       7.844  16.957  17.336  1.00  0.00     0.033 C 
ATOM     27  C   UNL     1       7.999  15.496  16.885  1.00  0.00     0.120 C 
ATOM     28  C   UNL     1       9.235  13.286  17.128  1.00  0.00     0.014 C 
ATOM     29  C   UNL     1      10.531  15.325  16.663  1.00  0.00     0.014 C 
ENDROOT
BRANCH   1  30
ATOM     30  C   UNL     1      10.097  12.656  26.446  1.00  0.00     0.048 C 
ATOM     31  O   UNL     1       9.624  12.211  27.526  1.00  0.00    -0.550 OA
ATOM     32  O   UNL     1      11.047  11.890  25.774  1.00  0.00    -0.550 OA
ENDBRANCH   1  30
BRANCH  27  33
ATOM     33  O   UNL     1       6.836  14.794  17.258  1.00  0.00    -0.393 OA
ATOM     34  H   UNL     1       6.227  14.783  16.474  1.00  0.00     0.210 HD
ENDBRANCH  27  33
TORSDOF 2
ENDMDL
