MODEL 1
REMARK VINA RESULT:    -3.769      0.000      0.000
REMARK INTER + INTRA:          -4.574
REMARK INTER:                  -4.430
REMARK INTRA:                  -0.144
REMARK UNBOUND:                -0.144
REMARK SMILES O=C([O-])CCC(=O)[O-]
REMARK SMILES IDX 4 1 2 2 1 3 3 4 5 5 6 6 7 7 8 8
REMARK H PARENT
REMARK Flexibility Score: inf
ROOT
ATOM      1  C   UNL     1      -9.813 -18.148  31.694  1.00  0.00     0.059 C 
ENDROOT
BRANCH   1   2
ATOM      2  C   UNL     1     -11.023 -18.151  32.575  1.00  0.00     0.042 C 
ATOM      3  O   UNL     1     -11.520 -19.240  32.968  1.00  0.00    -0.550 OA
ATOM      4  O   UNL     1     -11.580 -16.950  32.995  1.00  0.00    -0.550 OA
ENDBRANCH   1   2
BRANCH   1   5
ATOM      5  C   UNL     1     -10.063 -18.912  30.388  1.00  0.00     0.059 C 
BRANCH   5   6
ATOM      6  C   UNL     1     -10.880 -18.104  29.425  1.00  0.00     0.042 C 
ATOM      7  O   UNL     1     -11.863 -18.627  28.838  1.00  0.00    -0.550 OA
ATOM      8  O   UNL     1     -10.531 -16.790  29.147  1.00  0.00    -0.550 OA
ENDBRANCH   5   6
ENDBRANCH   1   5
TORSDOF 3
ENDMDL
MODEL 2
REMARK VINA RESULT:    -3.768      0.107      3.537
REMARK INTER + INTRA:          -4.573
REMARK INTER:                  -4.428
REMARK INTRA:                  -0.145
REMARK UNBOUND:                -0.144
REMARK SMILES O=C([O-])CCC(=O)[O-]
REMARK SMILES IDX 4 1 2 2 1 3 3 4 5 5 6 6 7 7 8 8
REMARK H PARENT
REMARK Flexibility Score: inf
ROOT
ATOM      1  C   UNL     1     -10.102 -18.864  30.350  1.00  0.00     0.059 C 
ENDROOT
BRANCH   1   2
ATOM      2  C   UNL     1     -10.924 -18.031  29.415  1.00  0.00     0.042 C 
ATOM      3  O   UNL     1     -11.973 -18.501  28.901  1.00  0.00    -0.550 OA
ATOM      4  O   UNL     1     -10.551 -16.721  29.142  1.00  0.00    -0.550 OA
ENDBRANCH   1   2
BRANCH   1   5
ATOM      5  C   UNL     1      -9.830 -18.131  31.668  1.00  0.00     0.059 C 
BRANCH   5   6
ATOM      6  C   UNL     1     -11.025 -18.159  32.572  1.00  0.00     0.042 C 
ATOM      7  O   UNL     1     -11.525 -17.083  32.993  1.00  0.00    -0.550 OA
ATOM      8  O   UNL     1     -11.561 -19.373  32.981  1.00  0.00    -0.550 OA
ENDBRANCH   5   6
ENDBRANCH   1   5
TORSDOF 3
ENDMDL
MODEL 3
REMARK VINA RESULT:    -3.735      1.422      3.477
REMARK INTER + INTRA:          -4.533
REMARK INTER:                  -4.401
REMARK INTRA:                  -0.132
REMARK UNBOUND:                -0.144
REMARK SMILES O=C([O-])CCC(=O)[O-]
REMARK SMILES IDX 4 1 2 2 1 3 3 4 5 5 6 6 7 7 8 8
REMARK H PARENT
REMARK Flexibility Score: inf
ROOT
ATOM      1  C   UNL     1     -10.352 -18.804  29.659  1.00  0.00     0.059 C 
ENDROOT
BRANCH   1   2
ATOM      2  C   UNL     1     -11.679 -18.291  29.191  1.00  0.00     0.042 C 
ATOM      3  O   UNL     1     -11.754 -17.574  28.158  1.00  0.00    -0.550 OA
ATOM      4  O   UNL     1     -12.839 -18.637  29.874  1.00  0.00    -0.550 OA
ENDBRANCH   1   2
BRANCH   1   5
ATOM      5  C   UNL     1     -10.314 -18.959  31.184  1.00  0.00     0.059 C 
BRANCH   5   6
ATOM      6  C   UNL     1      -9.929 -17.677  31.858  1.00  0.00     0.042 C 
ATOM      7  O   UNL     1      -8.718 -17.342  31.936  1.00  0.00    -0.550 OA
ATOM      8  O   UNL     1     -10.903 -16.874  32.436  1.00  0.00    -0.550 OA
ENDBRANCH   5   6
ENDBRANCH   1   5
TORSDOF 3
ENDMDL
MODEL 4
REMARK VINA RESULT:    -3.713      1.457      3.332
REMARK INTER + INTRA:          -4.508
REMARK INTER:                  -4.382
REMARK INTRA:                  -0.125
REMARK UNBOUND:                -0.144
REMARK SMILES O=C([O-])CCC(=O)[O-]
REMARK SMILES IDX 4 1 2 2 1 3 3 4 5 5 6 6 7 7 8 8
REMARK H PARENT
REMARK Flexibility Score: inf
ROOT
ATOM      1  C   UNL     1     -10.308 -18.824  29.805  1.00  0.00     0.059 C 
ENDROOT
BRANCH   1   2
ATOM      2  C   UNL     1     -11.608 -18.291  29.286  1.00  0.00     0.042 C 
ATOM      3  O   UNL     1     -12.693 -18.624  29.832  1.00  0.00    -0.550 OA
ATOM      4  O   UNL     1     -11.618 -17.396  28.224  1.00  0.00    -0.550 OA
ENDBRANCH   1   2
BRANCH   1   5
ATOM      5  C   UNL     1     -10.322 -18.959  31.331  1.00  0.00     0.059 C 
BRANCH   5   6
ATOM      6  C   UNL     1      -9.900 -17.688  32.002  1.00  0.00     0.042 C 
ATOM      7  O   UNL     1     -10.763 -16.924  32.509  1.00  0.00    -0.550 OA
ATOM      8  O   UNL     1      -8.560 -17.326  32.031  1.00  0.00    -0.550 OA
ENDBRANCH   5   6
ENDBRANCH   1   5
TORSDOF 3
ENDMDL
MODEL 5
REMARK VINA RESULT:    -3.707      2.395      4.589
REMARK INTER + INTRA:          -4.501
REMARK INTER:                  -4.379
REMARK INTRA:                  -0.123
REMARK UNBOUND:                -0.144
REMARK SMILES O=C([O-])CCC(=O)[O-]
REMARK SMILES IDX 4 1 2 2 1 3 3 4 5 5 6 6 7 7 8 8
REMARK H PARENT
REMARK Flexibility Score: inf
ROOT
ATOM      1  C   UNL     1     -12.373 -16.690  28.364  1.00  0.00     0.059 C 
ENDROOT
BRANCH   1   2
ATOM      2  C   UNL     1     -12.018 -16.032  27.066  1.00  0.00     0.042 C 
ATOM      3  O   UNL     1     -12.915 -15.765  26.224  1.00  0.00    -0.550 OA
ATOM      4  O   UNL     1     -10.700 -15.678  26.804  1.00  0.00    -0.550 OA
ENDBRANCH   1   2
BRANCH   1   5
ATOM      5  C   UNL     1     -11.617 -18.010  28.553  1.00  0.00     0.059 C 
BRANCH   5   6
ATOM      6  C   UNL     1     -10.591 -17.907  29.639  1.00  0.00     0.042 C 
ATOM      7  O   UNL     1     -10.155 -18.949  30.198  1.00  0.00    -0.550 OA
ATOM      8  O   UNL     1     -10.145 -16.662  30.062  1.00  0.00    -0.550 OA
ENDBRANCH   5   6
ENDBRANCH   1   5
TORSDOF 3
ENDMDL
MODEL 6
REMARK VINA RESULT:    -3.704      2.343      3.357
REMARK INTER + INTRA:          -4.498
REMARK INTER:                  -4.376
REMARK INTRA:                  -0.122
REMARK UNBOUND:                -0.144
REMARK SMILES O=C([O-])CCC(=O)[O-]
REMARK SMILES IDX 4 1 2 2 1 3 3 4 5 5 6 6 7 7 8 8
REMARK H PARENT
REMARK Flexibility Score: inf
ROOT
ATOM      1  C   UNL     1     -11.911 -17.970  28.800  1.00  0.00     0.059 C 
ENDROOT
BRANCH   1   2
ATOM      2  C   UNL     1     -10.656 -18.041  29.614  1.00  0.00     0.042 C 
ATOM      3  O   UNL     1     -10.084 -19.146  29.803  1.00  0.00    -0.550 OA
ATOM      4  O   UNL     1     -10.096 -16.879  30.131  1.00  0.00    -0.550 OA
ENDBRANCH   1   2
BRANCH   1   5
ATOM      5  C   UNL     1     -12.378 -16.522  28.608  1.00  0.00     0.059 C 
BRANCH   5   6
ATOM      6  C   UNL     1     -12.067 -16.020  27.231  1.00  0.00     0.042 C 
ATOM      7  O   UNL     1     -12.989 -15.884  26.384  1.00  0.00    -0.550 OA
ATOM      8  O   UNL     1     -10.755 -15.741  26.871  1.00  0.00    -0.550 OA
ENDBRANCH   5   6
ENDBRANCH   1   5
TORSDOF 3
ENDMDL
MODEL 7
REMARK VINA RESULT:    -3.704      1.454      2.000
REMARK INTER + INTRA:          -4.497
REMARK INTER:                  -4.368
REMARK INTRA:                  -0.129
REMARK UNBOUND:                -0.144
REMARK SMILES O=C([O-])CCC(=O)[O-]
REMARK SMILES IDX 4 1 2 2 1 3 3 4 5 5 6 6 7 7 8 8
REMARK H PARENT
REMARK Flexibility Score: inf
ROOT
ATOM      1  C   UNL     1     -10.365 -18.908  31.149  1.00  0.00     0.059 C 
ENDROOT
BRANCH   1   2
ATOM      2  C   UNL     1      -9.991 -17.613  31.802  1.00  0.00     0.042 C 
ATOM      3  O   UNL     1     -10.881 -16.868  32.290  1.00  0.00    -0.550 OA
ATOM      4  O   UNL     1      -8.654 -17.248  31.906  1.00  0.00    -0.550 OA
ENDBRANCH   1   2
BRANCH   1   5
ATOM      5  C   UNL     1     -10.372 -18.789  29.621  1.00  0.00     0.059 C 
BRANCH   5   6
ATOM      6  C   UNL     1     -11.696 -18.308  29.112  1.00  0.00     0.042 C 
ATOM      7  O   UNL     1     -11.751 -17.558  28.101  1.00  0.00    -0.550 OA
ATOM      8  O   UNL     1     -12.866 -18.654  29.775  1.00  0.00    -0.550 OA
ENDBRANCH   5   6
ENDBRANCH   1   5
TORSDOF 3
ENDMDL
MODEL 8
REMARK VINA RESULT:    -3.690      1.618      2.140
REMARK INTER + INTRA:          -4.481
REMARK INTER:                  -4.310
REMARK INTRA:                  -0.171
REMARK UNBOUND:                -0.144
REMARK SMILES O=C([O-])CCC(=O)[O-]
REMARK SMILES IDX 4 1 2 2 1 3 3 4 5 5 6 6 7 7 8 8
REMARK H PARENT
REMARK Flexibility Score: inf
ROOT
ATOM      1  C   UNL     1     -10.348 -18.951  29.626  1.00  0.00     0.059 C 
ENDROOT
BRANCH   1   2
ATOM      2  C   UNL     1     -10.291 -18.605  31.083  1.00  0.00     0.042 C 
ATOM      3  O   UNL     1     -11.172 -19.036  31.872  1.00  0.00    -0.550 OA
ATOM      4  O   UNL     1      -9.241 -17.839  31.574  1.00  0.00    -0.550 OA
ENDBRANCH   1   2
BRANCH   1   5
ATOM      5  C   UNL     1     -11.546 -18.289  28.936  1.00  0.00     0.059 C 
BRANCH   5   6
ATOM      6  C   UNL     1     -11.375 -16.804  28.838  1.00  0.00     0.042 C 
ATOM      7  O   UNL     1     -10.357 -16.321  28.276  1.00  0.00    -0.550 OA
ATOM      8  O   UNL     1     -12.317 -15.955  29.403  1.00  0.00    -0.550 OA
ENDBRANCH   5   6
ENDBRANCH   1   5
TORSDOF 3
ENDMDL
MODEL 9
REMARK VINA RESULT:    -3.683      1.578      3.604
REMARK INTER + INTRA:          -4.473
REMARK INTER:                  -4.305
REMARK INTRA:                  -0.168
REMARK UNBOUND:                -0.144
REMARK SMILES O=C([O-])CCC(=O)[O-]
REMARK SMILES IDX 4 1 2 2 1 3 3 4 5 5 6 6 7 7 8 8
REMARK H PARENT
REMARK Flexibility Score: inf
ROOT
ATOM      1  C   UNL     1     -11.562 -18.356  28.973  1.00  0.00     0.059 C 
ENDROOT
BRANCH   1   2
ATOM      2  C   UNL     1     -11.444 -16.865  28.877  1.00  0.00     0.042 C 
ATOM      3  O   UNL     1     -10.472 -16.344  28.271  1.00  0.00    -0.550 OA
ATOM      4  O   UNL     1     -12.430 -16.054  29.424  1.00  0.00    -0.550 OA
ENDBRANCH   1   2
BRANCH   1   5
ATOM      5  C   UNL     1     -10.337 -18.976  29.655  1.00  0.00     0.059 C 
BRANCH   5   6
ATOM      6  C   UNL     1     -10.263 -18.600  31.103  1.00  0.00     0.042 C 
ATOM      7  O   UNL     1      -9.300 -17.909  31.529  1.00  0.00    -0.550 OA
ATOM      8  O   UNL     1     -11.234 -19.047  31.990  1.00  0.00    -0.550 OA
ENDBRANCH   5   6
ENDBRANCH   1   5
TORSDOF 3
ENDMDL
