MODEL 1
REMARK VINA RESULT:    -3.164      0.000      0.000
REMARK INTER + INTRA:          -3.573
REMARK INTER:                  -3.534
REMARK INTRA:                  -0.039
REMARK UNBOUND:                -0.039
REMARK SMILES CCCC(=O)[O-]
REMARK SMILES IDX 3 1 4 2 5 3 6 4 2 5 1 6
REMARK H PARENT
REMARK Flexibility Score: inf
ROOT
ATOM      1  C   UNL     1     127.609 123.986 127.259  1.00  0.00     0.052 C 
ENDROOT
BRANCH   1   2
ATOM      2  C   UNL     1     127.659 122.646 127.922  1.00  0.00     0.041 C 
ATOM      3  O   UNL     1     128.701 121.942 127.848  1.00  0.00    -0.550 OA
ATOM      4  O   UNL     1     126.575 122.196 128.663  1.00  0.00    -0.550 OA
ENDBRANCH   1   2
BRANCH   1   5
ATOM      5  C   UNL     1     126.442 124.812 127.807  1.00  0.00     0.003 C 
ATOM      6  C   UNL     1     126.895 125.712 128.953  1.00  0.00     0.004 C 
ENDBRANCH   1   5
TORSDOF 2
ENDMDL
MODEL 2
REMARK VINA RESULT:    -3.108      8.743      9.630
REMARK INTER + INTRA:          -3.510
REMARK INTER:                  -3.490
REMARK INTRA:                  -0.020
REMARK UNBOUND:                -0.039
REMARK SMILES CCCC(=O)[O-]
REMARK SMILES IDX 3 1 4 2 5 3 6 4 2 5 1 6
REMARK H PARENT
REMARK Flexibility Score: inf
ROOT
ATOM      1  C   UNL     1     128.000 132.228 127.474  1.00  0.00     0.052 C 
ENDROOT
BRANCH   1   2
ATOM      2  C   UNL     1     128.314 133.462 128.260  1.00  0.00     0.041 C 
ATOM      3  O   UNL     1     127.398 134.275 128.556  1.00  0.00    -0.550 OA
ATOM      4  O   UNL     1     129.608 133.690 128.709  1.00  0.00    -0.550 OA
ENDBRANCH   1   2
BRANCH   1   5
ATOM      5  C   UNL     1     129.191 131.268 127.487  1.00  0.00     0.003 C 
ATOM      6  C   UNL     1     129.088 130.279 128.646  1.00  0.00     0.004 C 
ENDBRANCH   1   5
TORSDOF 2
ENDMDL
MODEL 3
REMARK VINA RESULT:    -3.104      2.288      3.347
REMARK INTER + INTRA:          -3.506
REMARK INTER:                  -3.500
REMARK INTRA:                  -0.005
REMARK UNBOUND:                -0.039
REMARK SMILES CCCC(=O)[O-]
REMARK SMILES IDX 3 1 4 2 5 3 6 4 2 5 1 6
REMARK H PARENT
REMARK Flexibility Score: inf
ROOT
ATOM      1  C   UNL     1     126.806 123.171 127.902  1.00  0.00     0.052 C 
ENDROOT
BRANCH   1   2
ATOM      2  C   UNL     1     126.778 124.581 127.402  1.00  0.00     0.041 C 
ATOM      3  O   UNL     1     126.620 125.536 128.208  1.00  0.00    -0.550 OA
ATOM      4  O   UNL     1     126.978 124.845 126.053  1.00  0.00    -0.550 OA
ENDBRANCH   1   2
BRANCH   1   5
ATOM      5  C   UNL     1     128.239 122.637 127.920  1.00  0.00     0.003 C 
ATOM      6  C   UNL     1     128.329 121.327 128.697  1.00  0.00     0.004 C 
ENDBRANCH   1   5
TORSDOF 2
ENDMDL
MODEL 4
REMARK VINA RESULT:    -3.028      2.035      2.899
REMARK INTER + INTRA:          -3.421
REMARK INTER:                  -3.386
REMARK INTRA:                  -0.035
REMARK UNBOUND:                -0.039
REMARK SMILES CCCC(=O)[O-]
REMARK SMILES IDX 3 1 4 2 5 3 6 4 2 5 1 6
REMARK H PARENT
REMARK Flexibility Score: inf
ROOT
ATOM      1  C   UNL     1     126.086 124.539 128.394  1.00  0.00     0.052 C 
ENDROOT
BRANCH   1   2
ATOM      2  C   UNL     1     125.104 123.488 128.807  1.00  0.00     0.041 C 
ATOM      3  O   UNL     1     124.653 123.470 129.982  1.00  0.00    -0.550 OA
ATOM      4  O   UNL     1     124.648 122.561 127.880  1.00  0.00    -0.550 OA
ENDBRANCH   1   2
BRANCH   1   5
ATOM      5  C   UNL     1     127.025 123.999 127.313  1.00  0.00     0.003 C 
ATOM      6  C   UNL     1     128.068 123.058 127.908  1.00  0.00     0.004 C 
ENDBRANCH   1   5
TORSDOF 2
ENDMDL
MODEL 5
REMARK VINA RESULT:    -3.020      7.960      8.761
REMARK INTER + INTRA:          -3.412
REMARK INTER:                  -3.407
REMARK INTRA:                  -0.005
REMARK UNBOUND:                -0.039
REMARK SMILES CCCC(=O)[O-]
REMARK SMILES IDX 3 1 4 2 5 3 6 4 2 5 1 6
REMARK H PARENT
REMARK Flexibility Score: inf
ROOT
ATOM      1  C   UNL     1     129.064 132.618 127.911  1.00  0.00     0.052 C 
ENDROOT
BRANCH   1   2
ATOM      2  C   UNL     1     129.046 131.212 127.401  1.00  0.00     0.041 C 
ATOM      3  O   UNL     1     129.135 130.245 128.203  1.00  0.00    -0.550 OA
ATOM      4  O   UNL     1     128.882 130.967 126.044  1.00  0.00    -0.550 OA
ENDBRANCH   1   2
BRANCH   1   5
ATOM      5  C   UNL     1     127.648 133.198 127.932  1.00  0.00     0.003 C 
ATOM      6  C   UNL     1     127.597 134.499 128.729  1.00  0.00     0.004 C 
ENDBRANCH   1   5
TORSDOF 2
ENDMDL
MODEL 6
REMARK VINA RESULT:    -3.011      9.046      9.501
REMARK INTER + INTRA:          -3.402
REMARK INTER:                  -3.367
REMARK INTRA:                  -0.035
REMARK UNBOUND:                -0.039
REMARK SMILES CCCC(=O)[O-]
REMARK SMILES IDX 3 1 4 2 5 3 6 4 2 5 1 6
REMARK H PARENT
REMARK Flexibility Score: inf
ROOT
ATOM      1  C   UNL     1     129.899 131.331 128.556  1.00  0.00     0.052 C 
ENDROOT
BRANCH   1   2
ATOM      2  C   UNL     1     130.875 132.414 128.893  1.00  0.00     0.041 C 
ATOM      3  O   UNL     1     131.386 132.471 130.042  1.00  0.00    -0.550 OA
ATOM      4  O   UNL     1     131.258 133.331 127.922  1.00  0.00    -0.550 OA
ENDBRANCH   1   2
BRANCH   1   5
ATOM      5  C   UNL     1     129.015 131.753 127.380  1.00  0.00     0.003 C 
ATOM      6  C   UNL     1     127.845 132.613 127.850  1.00  0.00     0.004 C 
ENDBRANCH   1   5
TORSDOF 2
ENDMDL
MODEL 7
REMARK VINA RESULT:    -2.961      8.085      8.905
REMARK INTER + INTRA:          -3.346
REMARK INTER:                  -3.322
REMARK INTRA:                  -0.025
REMARK UNBOUND:                -0.039
REMARK SMILES CCCC(=O)[O-]
REMARK SMILES IDX 3 1 4 2 5 3 6 4 2 5 1 6
REMARK H PARENT
REMARK Flexibility Score: inf
ROOT
ATOM      1  C   UNL     1     129.319 132.767 128.095  1.00  0.00     0.052 C 
ENDROOT
BRANCH   1   2
ATOM      2  C   UNL     1     129.013 131.433 127.491  1.00  0.00     0.041 C 
ATOM      3  O   UNL     1     128.713 131.343 126.271  1.00  0.00    -0.550 OA
ATOM      4  O   UNL     1     129.107 130.283 128.263  1.00  0.00    -0.550 OA
ENDBRANCH   1   2
BRANCH   1   5
ATOM      5  C   UNL     1     130.831 132.954 128.243  1.00  0.00     0.003 C 
ATOM      6  C   UNL     1     131.294 132.596 129.653  1.00  0.00     0.004 C 
ENDBRANCH   1   5
TORSDOF 2
ENDMDL
MODEL 8
REMARK VINA RESULT:    -2.941      9.015      9.841
REMARK INTER + INTRA:          -3.324
REMARK INTER:                  -3.267
REMARK INTRA:                  -0.057
REMARK UNBOUND:                -0.039
REMARK SMILES CCCC(=O)[O-]
REMARK SMILES IDX 3 1 4 2 5 3 6 4 2 5 1 6
REMARK H PARENT
REMARK Flexibility Score: inf
ROOT
ATOM      1  C   UNL     1     128.991 133.015 128.180  1.00  0.00     0.052 C 
ENDROOT
BRANCH   1   2
ATOM      2  C   UNL     1     130.373 133.395 128.608  1.00  0.00     0.041 C 
ATOM      3  O   UNL     1     131.331 133.320 127.795  1.00  0.00    -0.550 OA
ATOM      4  O   UNL     1     130.594 133.879 129.891  1.00  0.00    -0.550 OA
ENDBRANCH   1   2
BRANCH   1   5
ATOM      5  C   UNL     1     129.013 131.693 127.409  1.00  0.00     0.003 C 
ATOM      6  C   UNL     1     129.211 130.509 128.351  1.00  0.00     0.004 C 
ENDBRANCH   1   5
TORSDOF 2
ENDMDL
MODEL 9
REMARK VINA RESULT:    -2.917      2.221      2.517
REMARK INTER + INTRA:          -3.296
REMARK INTER:                  -3.281
REMARK INTRA:                  -0.015
REMARK UNBOUND:                -0.039
REMARK SMILES CCCC(=O)[O-]
REMARK SMILES IDX 3 1 4 2 5 3 6 4 2 5 1 6
REMARK H PARENT
REMARK Flexibility Score: inf
ROOT
ATOM      1  C   UNL     1     126.108 124.349 128.195  1.00  0.00     0.052 C 
ENDROOT
BRANCH   1   2
ATOM      2  C   UNL     1     127.209 123.969 127.256  1.00  0.00     0.041 C 
ATOM      3  O   UNL     1     128.034 123.075 127.577  1.00  0.00    -0.550 OA
ATOM      4  O   UNL     1     127.293 124.568 126.006  1.00  0.00    -0.550 OA
ENDBRANCH   1   2
BRANCH   1   5
ATOM      5  C   UNL     1     125.135 123.183 128.381  1.00  0.00     0.003 C 
ATOM      6  C   UNL     1     124.544 123.177 129.788  1.00  0.00     0.004 C 
ENDBRANCH   1   5
TORSDOF 2
ENDMDL
