MODEL 1
REMARK VINA RESULT:    -4.698      0.000      0.000
REMARK INTER + INTRA:         -10.245
REMARK INTER:                  -8.269
REMARK INTRA:                  -1.976
REMARK UNBOUND:                -1.976
REMARK SMILES CCCCCCCCCCCCCCC(=O)[O-]
REMARK SMILES IDX 9 1 10 2 11 3 12 4 13 5 14 6 15 7 16 8 17 9 8 10 7 11 6 12
REMARK SMILES IDX 5 13 4 14 3 15 2 16 1 17
REMARK H PARENT
REMARK Flexibility Score: inf
ROOT
ATOM      1  C   UNL     1       8.497   9.757  31.085  1.00  0.00     0.000 C 
ENDROOT
BRANCH   1   2
ATOM      2  C   UNL     1       8.607  10.624  29.817  1.00  0.00     0.000 C 
BRANCH   2   3
ATOM      3  C   UNL     1       9.586  10.101  28.750  1.00  0.00     0.000 C 
BRANCH   3   4
ATOM      4  C   UNL     1      10.278   8.791  29.157  1.00  0.00     0.000 C 
BRANCH   4   5
ATOM      5  C   UNL     1      10.372   7.826  27.968  1.00  0.00     0.006 C 
BRANCH   5   6
ATOM      6  C   UNL     1       9.707   8.424  26.724  1.00  0.00     0.053 C 
BRANCH   6   7
ATOM      7  C   UNL     1       9.022   7.356  25.932  1.00  0.00     0.041 C 
ATOM      8  O   UNL     1       9.539   6.211  25.831  1.00  0.00    -0.550 OA
ATOM      9  O   UNL     1       7.835   7.636  25.268  1.00  0.00    -0.550 OA
ENDBRANCH   6   7
ENDBRANCH   5   6
ENDBRANCH   4   5
ENDBRANCH   3   4
ENDBRANCH   2   3
ENDBRANCH   1   2
BRANCH   1  10
ATOM     10  C   UNL     1       7.543  10.346  32.135  1.00  0.00     0.000 C 
BRANCH  10  11
ATOM     11  C   UNL     1       6.368  11.071  31.463  1.00  0.00    -0.000 C 
BRANCH  11  12
ATOM     12  C   UNL     1       5.011  10.756  32.118  1.00  0.00    -0.000 C 
BRANCH  12  13
ATOM     13  C   UNL     1       3.962  10.128  31.182  1.00  0.00    -0.000 C 
BRANCH  13  14
ATOM     14  C   UNL     1       4.523   8.976  30.335  1.00  0.00    -0.000 C 
BRANCH  14  15
ATOM     15  C   UNL     1       4.374   9.273  28.838  1.00  0.00    -0.000 C 
BRANCH  15  16
ATOM     16  C   UNL     1       5.708   9.086  28.106  1.00  0.00    -0.003 C 
ATOM     17  C   UNL     1       6.402   7.800  28.544  1.00  0.00     0.004 C 
ENDBRANCH  15  16
ENDBRANCH  14  15
ENDBRANCH  13  14
ENDBRANCH  12  13
ENDBRANCH  11  12
ENDBRANCH  10  11
ENDBRANCH   1  10
TORSDOF 13
ENDMDL
MODEL 2
REMARK VINA RESULT:    -4.627      1.213      3.504
REMARK INTER + INTRA:         -10.120
REMARK INTER:                  -8.310
REMARK INTRA:                  -1.810
REMARK UNBOUND:                -1.976
REMARK SMILES CCCCCCCCCCCCCCC(=O)[O-]
REMARK SMILES IDX 9 1 10 2 11 3 12 4 13 5 14 6 15 7 16 8 17 9 8 10 7 11 6 12
REMARK SMILES IDX 5 13 4 14 3 15 2 16 1 17
REMARK H PARENT
REMARK Flexibility Score: inf
ROOT
ATOM      1  C   UNL     1       4.802   8.886  30.271  1.00  0.00     0.000 C 
ENDROOT
BRANCH   1   2
ATOM      2  C   UNL     1       4.658   8.967  28.741  1.00  0.00     0.000 C 
BRANCH   2   3
ATOM      3  C   UNL     1       5.760   9.768  28.021  1.00  0.00     0.000 C 
BRANCH   3   4
ATOM      4  C   UNL     1       6.521   8.939  26.976  1.00  0.00     0.000 C 
BRANCH   4   5
ATOM      5  C   UNL     1       6.849   7.541  27.515  1.00  0.00     0.006 C 
BRANCH   5   6
ATOM      6  C   UNL     1       6.924   6.519  26.376  1.00  0.00     0.053 C 
BRANCH   6   7
ATOM      7  C   UNL     1       8.342   6.318  25.944  1.00  0.00     0.041 C 
ATOM      8  O   UNL     1       8.613   5.518  25.010  1.00  0.00    -0.550 OA
ATOM      9  O   UNL     1       9.370   6.982  26.602  1.00  0.00    -0.550 OA
ENDBRANCH   6   7
ENDBRANCH   5   6
ENDBRANCH   4   5
ENDBRANCH   3   4
ENDBRANCH   2   3
ENDBRANCH   1   2
BRANCH   1  10
ATOM     10  C   UNL     1       3.995   9.964  31.010  1.00  0.00     0.000 C 
BRANCH  10  11
ATOM     11  C   UNL     1       4.868  10.691  32.043  1.00  0.00    -0.000 C 
BRANCH  11  12
ATOM     12  C   UNL     1       6.254  11.078  31.495  1.00  0.00    -0.000 C 
BRANCH  12  13
ATOM     13  C   UNL     1       7.449  10.444  32.231  1.00  0.00    -0.000 C 
BRANCH  13  14
ATOM     14  C   UNL     1       8.717  10.365  31.367  1.00  0.00    -0.000 C 
BRANCH  14  15
ATOM     15  C   UNL     1       8.595   9.256  30.316  1.00  0.00    -0.000 C 
BRANCH  15  16
ATOM     16  C   UNL     1       9.642   9.430  29.209  1.00  0.00    -0.003 C 
ATOM     17  C   UNL     1       9.465  10.763  28.488  1.00  0.00     0.004 C 
ENDBRANCH  15  16
ENDBRANCH  14  15
ENDBRANCH  13  14
ENDBRANCH  12  13
ENDBRANCH  11  12
ENDBRANCH  10  11
ENDBRANCH   1  10
TORSDOF 13
ENDMDL
MODEL 3
REMARK VINA RESULT:    -4.607      1.426      2.090
REMARK INTER + INTRA:         -10.084
REMARK INTER:                  -8.042
REMARK INTRA:                  -2.042
REMARK UNBOUND:                -1.976
REMARK SMILES CCCCCCCCCCCCCCC(=O)[O-]
REMARK SMILES IDX 9 1 10 2 11 3 12 4 13 5 14 6 15 7 16 8 17 9 8 10 7 11 6 12
REMARK SMILES IDX 5 13 4 14 3 15 2 16 1 17
REMARK H PARENT
REMARK Flexibility Score: inf
ROOT
ATOM      1  C   UNL     1       9.004   9.274  30.428  1.00  0.00     0.000 C 
ENDROOT
BRANCH   1   2
ATOM      2  C   UNL     1       9.812   8.972  29.153  1.00  0.00     0.000 C 
BRANCH   2   3
ATOM      3  C   UNL     1       9.662  10.007  28.022  1.00  0.00     0.000 C 
BRANCH   3   4
ATOM      4  C   UNL     1       9.228   9.382  26.688  1.00  0.00     0.000 C 
BRANCH   4   5
ATOM      5  C   UNL     1       8.991   7.874  26.838  1.00  0.00     0.006 C 
BRANCH   5   6
ATOM      6  C   UNL     1       7.647   7.468  26.225  1.00  0.00     0.053 C 
BRANCH   6   7
ATOM      7  C   UNL     1       7.019   6.368  27.021  1.00  0.00     0.041 C 
ATOM      8  O   UNL     1       6.230   5.556  26.469  1.00  0.00    -0.550 OA
ATOM      9  O   UNL     1       7.270   6.265  28.383  1.00  0.00    -0.550 OA
ENDBRANCH   6   7
ENDBRANCH   5   6
ENDBRANCH   4   5
ENDBRANCH   3   4
ENDBRANCH   2   3
ENDBRANCH   1   2
BRANCH   1  10
ATOM     10  C   UNL     1       8.558  10.741  30.524  1.00  0.00     0.000 C 
BRANCH  10  11
ATOM     11  C   UNL     1       7.809  11.002  31.839  1.00  0.00    -0.000 C 
BRANCH  11  12
ATOM     12  C   UNL     1       6.608  10.060  32.046  1.00  0.00    -0.000 C 
BRANCH  12  13
ATOM     13  C   UNL     1       5.225  10.726  31.918  1.00  0.00    -0.000 C 
BRANCH  13  14
ATOM     14  C   UNL     1       4.298  10.004  30.928  1.00  0.00    -0.000 C 
BRANCH  14  15
ATOM     15  C   UNL     1       5.018   8.826  30.263  1.00  0.00    -0.000 C 
BRANCH  15  16
ATOM     16  C   UNL     1       4.916   8.912  28.735  1.00  0.00    -0.003 C 
ATOM     17  C   UNL     1       5.794  10.033  28.187  1.00  0.00     0.004 C 
ENDBRANCH  15  16
ENDBRANCH  14  15
ENDBRANCH  13  14
ENDBRANCH  12  13
ENDBRANCH  11  12
ENDBRANCH  10  11
ENDBRANCH   1  10
TORSDOF 13
ENDMDL
MODEL 4
REMARK VINA RESULT:    -4.487      2.745      6.475
REMARK INTER + INTRA:          -9.873
REMARK INTER:                  -7.653
REMARK INTRA:                  -2.220
REMARK UNBOUND:                -1.976
REMARK SMILES CCCCCCCCCCCCCCC(=O)[O-]
REMARK SMILES IDX 9 1 10 2 11 3 12 4 13 5 14 6 15 7 16 8 17 9 8 10 7 11 6 12
REMARK SMILES IDX 5 13 4 14 3 15 2 16 1 17
REMARK H PARENT
REMARK Flexibility Score: inf
ROOT
ATOM      1  C   UNL     1       6.877   6.069  26.155  1.00  0.00     0.000 C 
ENDROOT
BRANCH   1   2
ATOM      2  C   UNL     1       7.095   5.961  27.675  1.00  0.00     0.000 C 
BRANCH   2   3
ATOM      3  C   UNL     1       6.796   7.243  28.472  1.00  0.00     0.000 C 
BRANCH   3   4
ATOM      4  C   UNL     1       6.218   8.371  27.605  1.00  0.00     0.000 C 
BRANCH   4   5
ATOM      5  C   UNL     1       5.055   9.073  28.318  1.00  0.00     0.006 C 
BRANCH   5   6
ATOM      6  C   UNL     1       5.027   8.710  29.806  1.00  0.00     0.053 C 
BRANCH   6   7
ATOM      7  C   UNL     1       5.446   9.880  30.638  1.00  0.00     0.041 C 
ATOM      8  O   UNL     1       4.896  10.097  31.750  1.00  0.00    -0.550 OA
ATOM      9  O   UNL     1       6.416  10.756  30.168  1.00  0.00    -0.550 OA
ENDBRANCH   6   7
ENDBRANCH   5   6
ENDBRANCH   4   5
ENDBRANCH   3   4
ENDBRANCH   2   3
ENDBRANCH   1   2
BRANCH   1  10
ATOM     10  C   UNL     1       8.180   5.956  25.350  1.00  0.00     0.000 C 
BRANCH  10  11
ATOM     11  C   UNL     1       8.571   7.313  24.746  1.00  0.00    -0.000 C 
BRANCH  11  12
ATOM     12  C   UNL     1       9.815   7.932  25.409  1.00  0.00    -0.000 C 
BRANCH  12  13
ATOM     13  C   UNL     1       9.548   9.189  26.257  1.00  0.00    -0.000 C 
BRANCH  13  14
ATOM     14  C   UNL     1       9.939   9.016  27.733  1.00  0.00    -0.000 C 
BRANCH  14  15
ATOM     15  C   UNL     1      11.026   7.945  27.890  1.00  0.00    -0.000 C 
BRANCH  15  16
ATOM     16  C   UNL     1      10.575   6.842  28.854  1.00  0.00    -0.003 C 
ATOM     17  C   UNL     1      10.669   5.467  28.200  1.00  0.00     0.004 C 
ENDBRANCH  15  16
ENDBRANCH  14  15
ENDBRANCH  13  14
ENDBRANCH  12  13
ENDBRANCH  11  12
ENDBRANCH  10  11
ENDBRANCH   1  10
TORSDOF 13
ENDMDL
MODEL 5
REMARK VINA RESULT:    -4.474      3.081      6.361
REMARK INTER + INTRA:          -9.850
REMARK INTER:                  -7.378
REMARK INTRA:                  -2.472
REMARK UNBOUND:                -1.976
REMARK SMILES CCCCCCCCCCCCCCC(=O)[O-]
REMARK SMILES IDX 9 1 10 2 11 3 12 4 13 5 14 6 15 7 16 8 17 9 8 10 7 11 6 12
REMARK SMILES IDX 5 13 4 14 3 15 2 16 1 17
REMARK H PARENT
REMARK Flexibility Score: inf
ROOT
ATOM      1  C   UNL     1       8.785   6.169  25.298  1.00  0.00     0.000 C 
ENDROOT
BRANCH   1   2
ATOM      2  C   UNL     1       7.274   5.891  25.213  1.00  0.00     0.000 C 
BRANCH   2   3
ATOM      3  C   UNL     1       6.554   5.763  26.569  1.00  0.00     0.000 C 
BRANCH   3   4
ATOM      4  C   UNL     1       7.484   6.003  27.769  1.00  0.00     0.000 C 
BRANCH   4   5
ATOM      5  C   UNL     1       6.990   7.179  28.621  1.00  0.00     0.006 C 
BRANCH   5   6
ATOM      6  C   UNL     1       7.222   8.511  27.901  1.00  0.00     0.053 C 
BRANCH   6   7
ATOM      7  C   UNL     1       8.153   9.377  28.690  1.00  0.00     0.041 C 
ATOM      8  O   UNL     1       8.556   9.006  29.824  1.00  0.00    -0.550 OA
ATOM      9  O   UNL     1       8.543  10.614  28.191  1.00  0.00    -0.550 OA
ENDBRANCH   6   7
ENDBRANCH   5   6
ENDBRANCH   4   5
ENDBRANCH   3   4
ENDBRANCH   2   3
ENDBRANCH   1   2
BRANCH   1  10
ATOM     10  C   UNL     1       9.160   7.595  24.866  1.00  0.00     0.000 C 
BRANCH  10  11
ATOM     11  C   UNL     1      10.248   8.176  25.780  1.00  0.00    -0.000 C 
BRANCH  11  12
ATOM     12  C   UNL     1      11.006   7.099  26.577  1.00  0.00    -0.000 C 
BRANCH  12  13
ATOM     13  C   UNL     1      11.266   7.439  28.056  1.00  0.00    -0.000 C 
BRANCH  13  14
ATOM     14  C   UNL     1      10.966   6.269  29.005  1.00  0.00    -0.000 C 
BRANCH  14  15
ATOM     15  C   UNL     1      11.360   4.931  28.368  1.00  0.00    -0.000 C 
BRANCH  15  16
ATOM     16  C   UNL     1      10.299   3.858  28.644  1.00  0.00    -0.003 C 
ATOM     17  C   UNL     1       9.842   3.191  27.351  1.00  0.00     0.004 C 
ENDBRANCH  15  16
ENDBRANCH  14  15
ENDBRANCH  13  14
ENDBRANCH  12  13
ENDBRANCH  11  12
ENDBRANCH  10  11
ENDBRANCH   1  10
TORSDOF 13
ENDMDL
MODEL 6
REMARK VINA RESULT:    -4.470      1.629      3.532
REMARK INTER + INTRA:          -9.843
REMARK INTER:                  -7.915
REMARK INTRA:                  -1.928
REMARK UNBOUND:                -1.976
REMARK SMILES CCCCCCCCCCCCCCC(=O)[O-]
REMARK SMILES IDX 9 1 10 2 11 3 12 4 13 5 14 6 15 7 16 8 17 9 8 10 7 11 6 12
REMARK SMILES IDX 5 13 4 14 3 15 2 16 1 17
REMARK H PARENT
REMARK Flexibility Score: inf
ROOT
ATOM      1  C   UNL     1       6.500   7.633  27.377  1.00  0.00     0.000 C 
ENDROOT
BRANCH   1   2
ATOM      2  C   UNL     1       7.503   8.553  26.657  1.00  0.00     0.000 C 
BRANCH   2   3
ATOM      3  C   UNL     1       7.929   9.803  27.447  1.00  0.00     0.000 C 
BRANCH   3   4
ATOM      4  C   UNL     1       9.451   9.914  27.625  1.00  0.00     0.000 C 
BRANCH   4   5
ATOM      5  C   UNL     1      10.143   8.591  27.276  1.00  0.00     0.006 C 
BRANCH   5   6
ATOM      6  C   UNL     1      11.000   8.096  28.445  1.00  0.00     0.053 C 
BRANCH   6   7
ATOM      7  C   UNL     1      10.696   6.663  28.748  1.00  0.00     0.041 C 
ATOM      8  O   UNL     1       9.505   6.251  28.737  1.00  0.00    -0.550 OA
ATOM      9  O   UNL     1      11.722   5.791  29.085  1.00  0.00    -0.550 OA
ENDBRANCH   6   7
ENDBRANCH   5   6
ENDBRANCH   4   5
ENDBRANCH   3   4
ENDBRANCH   2   3
ENDBRANCH   1   2
BRANCH   1  10
ATOM     10  C   UNL     1       6.476   7.844  28.898  1.00  0.00     0.000 C 
BRANCH  10  11
ATOM     11  C   UNL     1       5.089   8.308  29.365  1.00  0.00    -0.000 C 
BRANCH  11  12
ATOM     12  C   UNL     1       5.068   9.777  29.827  1.00  0.00    -0.000 C 
BRANCH  12  13
ATOM     13  C   UNL     1       5.014   9.984  31.352  1.00  0.00    -0.000 C 
BRANCH  13  14
ATOM     14  C   UNL     1       5.925  11.121  31.838  1.00  0.00    -0.000 C 
BRANCH  14  15
ATOM     15  C   UNL     1       7.221  10.567  32.440  1.00  0.00    -0.000 C 
BRANCH  15  16
ATOM     16  C   UNL     1       8.362  10.604  31.416  1.00  0.00    -0.003 C 
ATOM     17  C   UNL     1       9.002   9.229  31.254  1.00  0.00     0.004 C 
ENDBRANCH  15  16
ENDBRANCH  14  15
ENDBRANCH  13  14
ENDBRANCH  12  13
ENDBRANCH  11  12
ENDBRANCH  10  11
ENDBRANCH   1  10
TORSDOF 13
ENDMDL
MODEL 7
REMARK VINA RESULT:    -4.440      1.249      2.440
REMARK INTER + INTRA:          -9.790
REMARK INTER:                  -7.526
REMARK INTRA:                  -2.264
REMARK UNBOUND:                -1.976
REMARK SMILES CCCCCCCCCCCCCCC(=O)[O-]
REMARK SMILES IDX 9 1 10 2 11 3 12 4 13 5 14 6 15 7 16 8 17 9 8 10 7 11 6 12
REMARK SMILES IDX 5 13 4 14 3 15 2 16 1 17
REMARK H PARENT
REMARK Flexibility Score: inf
ROOT
ATOM      1  C   UNL     1       7.415  10.090  31.842  1.00  0.00     0.000 C 
ENDROOT
BRANCH   1   2
ATOM      2  C   UNL     1       8.695  10.130  30.987  1.00  0.00     0.000 C 
BRANCH   2   3
ATOM      3  C   UNL     1       8.558  10.855  29.636  1.00  0.00     0.000 C 
BRANCH   3   4
ATOM      4  C   UNL     1       9.540  10.340  28.573  1.00  0.00     0.000 C 
BRANCH   4   5
ATOM      5  C   UNL     1      10.065   8.946  28.939  1.00  0.00     0.006 C 
BRANCH   5   6
ATOM      6  C   UNL     1      10.719   8.272  27.729  1.00  0.00     0.053 C 
BRANCH   6   7
ATOM      7  C   UNL     1      10.864   6.801  27.964  1.00  0.00     0.041 C 
ATOM      8  O   UNL     1      10.624   5.984  27.035  1.00  0.00    -0.550 OA
ATOM      9  O   UNL     1      11.222   6.329  29.220  1.00  0.00    -0.550 OA
ENDBRANCH   6   7
ENDBRANCH   5   6
ENDBRANCH   4   5
ENDBRANCH   3   4
ENDBRANCH   2   3
ENDBRANCH   1   2
BRANCH   1  10
ATOM     10  C   UNL     1       6.231  10.814  31.185  1.00  0.00     0.000 C 
BRANCH  10  11
ATOM     11  C   UNL     1       4.940   9.996  31.329  1.00  0.00    -0.000 C 
BRANCH  11  12
ATOM     12  C   UNL     1       4.700   9.036  30.149  1.00  0.00    -0.000 C 
BRANCH  12  13
ATOM     13  C   UNL     1       4.827   9.670  28.752  1.00  0.00    -0.000 C 
BRANCH  13  14
ATOM     14  C   UNL     1       5.870   8.973  27.866  1.00  0.00    -0.000 C 
BRANCH  14  15
ATOM     15  C   UNL     1       6.501   7.782  28.595  1.00  0.00    -0.000 C 
BRANCH  15  16
ATOM     16  C   UNL     1       7.177   6.827  27.605  1.00  0.00    -0.003 C 
ATOM     17  C   UNL     1       7.308   7.465  26.226  1.00  0.00     0.004 C 
ENDBRANCH  15  16
ENDBRANCH  14  15
ENDBRANCH  13  14
ENDBRANCH  12  13
ENDBRANCH  11  12
ENDBRANCH  10  11
ENDBRANCH   1  10
TORSDOF 13
ENDMDL
MODEL 8
REMARK VINA RESULT:    -4.422      2.744      5.454
REMARK INTER + INTRA:          -9.760
REMARK INTER:                  -7.359
REMARK INTRA:                  -2.401
REMARK UNBOUND:                -1.976
REMARK SMILES CCCCCCCCCCCCCCC(=O)[O-]
REMARK SMILES IDX 9 1 10 2 11 3 12 4 13 5 14 6 15 7 16 8 17 9 8 10 7 11 6 12
REMARK SMILES IDX 5 13 4 14 3 15 2 16 1 17
REMARK H PARENT
REMARK Flexibility Score: inf
ROOT
ATOM      1  C   UNL     1      11.049   7.383  26.999  1.00  0.00     0.000 C 
ENDROOT
BRANCH   1   2
ATOM      2  C   UNL     1      10.890   7.873  28.449  1.00  0.00     0.000 C 
BRANCH   2   3
ATOM      3  C   UNL     1      10.047   9.150  28.620  1.00  0.00     0.000 C 
BRANCH   3   4
ATOM      4  C   UNL     1       9.356   9.595  27.322  1.00  0.00     0.000 C 
BRANCH   4   5
ATOM      5  C   UNL     1       7.954  10.148  27.607  1.00  0.00     0.006 C 
BRANCH   5   6
ATOM      6  C   UNL     1       7.593   9.990  29.086  1.00  0.00     0.053 C 
BRANCH   6   7
ATOM      7  C   UNL     1       6.111   9.876  29.255  1.00  0.00     0.041 C 
ATOM      8  O   UNL     1       5.359   9.845  28.245  1.00  0.00    -0.550 OA
ATOM      9  O   UNL     1       5.556   9.848  30.528  1.00  0.00    -0.550 OA
ENDBRANCH   6   7
ENDBRANCH   5   6
ENDBRANCH   4   5
ENDBRANCH   3   4
ENDBRANCH   2   3
ENDBRANCH   1   2
BRANCH   1  10
ATOM     10  C   UNL     1      11.105   5.853  26.884  1.00  0.00     0.000 C 
BRANCH  10  11
ATOM     11  C   UNL     1      10.465   5.187  28.110  1.00  0.00    -0.000 C 
BRANCH  11  12
ATOM     12  C   UNL     1       9.470   4.072  27.740  1.00  0.00    -0.000 C 
BRANCH  12  13
ATOM     13  C   UNL     1       7.990   4.396  28.017  1.00  0.00    -0.000 C 
BRANCH  13  14
ATOM     14  C   UNL     1       7.772   5.829  28.525  1.00  0.00    -0.000 C 
BRANCH  14  15
ATOM     15  C   UNL     1       6.840   6.606  27.588  1.00  0.00    -0.000 C 
BRANCH  15  16
ATOM     16  C   UNL     1       6.902   6.046  26.162  1.00  0.00    -0.003 C 
ATOM     17  C   UNL     1       7.737   6.944  25.254  1.00  0.00     0.004 C 
ENDBRANCH  15  16
ENDBRANCH  14  15
ENDBRANCH  13  14
ENDBRANCH  12  13
ENDBRANCH  11  12
ENDBRANCH  10  11
ENDBRANCH   1  10
TORSDOF 13
ENDMDL
MODEL 9
REMARK VINA RESULT:    -4.404      1.585      4.100
REMARK INTER + INTRA:          -9.727
REMARK INTER:                  -7.706
REMARK INTRA:                  -2.021
REMARK UNBOUND:                -1.976
REMARK SMILES CCCCCCCCCCCCCCC(=O)[O-]
REMARK SMILES IDX 9 1 10 2 11 3 12 4 13 5 14 6 15 7 16 8 17 9 8 10 7 11 6 12
REMARK SMILES IDX 5 13 4 14 3 15 2 16 1 17
REMARK H PARENT
REMARK Flexibility Score: inf
ROOT
ATOM      1  C   UNL     1       6.873  11.125  29.164  1.00  0.00     0.000 C 
ENDROOT
BRANCH   1   2
ATOM      2  C   UNL     1       6.438  10.111  28.090  1.00  0.00     0.000 C 
BRANCH   2   3
ATOM      3  C   UNL     1       5.438   9.041  28.567  1.00  0.00     0.000 C 
BRANCH   3   4
ATOM      4  C   UNL     1       6.019   7.619  28.537  1.00  0.00     0.000 C 
BRANCH   4   5
ATOM      5  C   UNL     1       6.729   7.342  27.206  1.00  0.00     0.006 C 
BRANCH   5   6
ATOM      6  C   UNL     1       6.571   5.876  26.795  1.00  0.00     0.053 C 
BRANCH   6   7
ATOM      7  C   UNL     1       7.868   5.145  26.950  1.00  0.00     0.041 C 
ATOM      8  O   UNL     1       8.791   5.307  26.109  1.00  0.00    -0.550 OA
ATOM      9  O   UNL     1       8.042   4.252  28.000  1.00  0.00    -0.550 OA
ENDBRANCH   6   7
ENDBRANCH   5   6
ENDBRANCH   4   5
ENDBRANCH   3   4
ENDBRANCH   2   3
ENDBRANCH   1   2
BRANCH   1  10
ATOM     10  C   UNL     1       6.996  10.503  30.563  1.00  0.00     0.000 C 
BRANCH  10  11
ATOM     11  C   UNL     1       8.433  10.621  31.091  1.00  0.00    -0.000 C 
BRANCH  11  12
ATOM     12  C   UNL     1       9.110   9.254  31.307  1.00  0.00    -0.000 C 
BRANCH  12  13
ATOM     13  C   UNL     1       9.367   8.441  30.025  1.00  0.00    -0.000 C 
BRANCH  13  14
ATOM     14  C   UNL     1      10.121   9.236  28.948  1.00  0.00    -0.000 C 
BRANCH  14  15
ATOM     15  C   UNL     1      10.248   8.424  27.654  1.00  0.00    -0.000 C 
BRANCH  15  16
ATOM     16  C   UNL     1       9.645   9.183  26.467  1.00  0.00    -0.003 C 
ATOM     17  C   UNL     1       9.957   8.482  25.149  1.00  0.00     0.004 C 
ENDBRANCH  15  16
ENDBRANCH  14  15
ENDBRANCH  13  14
ENDBRANCH  12  13
ENDBRANCH  11  12
ENDBRANCH  10  11
ENDBRANCH   1  10
TORSDOF 13
ENDMDL
