MODEL 1
REMARK VINA RESULT:    -2.020      0.000      0.000
REMARK INTER + INTRA:          -2.537
REMARK INTER:                  -3.082
REMARK INTRA:                   0.546
REMARK UNBOUND:                 0.546
REMARK SMILES OC[C@@H]1O[C@@H](O[C@]2(CO)O[C@H](CO)[C@H](O)[C@@H]2O)[C@H](O)[C@H](O)[C@H]1O
REMARK SMILES IDX 6 1 5 2 3 3 22 4 4 5 20 6 18 7 2 8 1 9 23 11 21 13 19 15
REMARK SMILES IDX 7 17 16 18 10 19 14 20 11 21 8 22 9 23 17 25 15 27 12 29
REMARK SMILES IDX 13 30
REMARK H PARENT 1 10 23 12 21 14 19 16 9 24 17 26 15 28 13 31
REMARK Flexibility Score: inf
ROOT
ATOM      1  O   UNL     1       8.672 -18.169   9.421  1.00  0.00    -0.313 OA
ENDROOT
BRANCH   1   2
ATOM      2  C   UNL     1      10.001 -18.050   8.946  1.00  0.00     0.285 C 
ATOM      3  C   UNL     1      11.260 -17.205   7.121  1.00  0.00     0.178 C 
ATOM      4  C   UNL     1      12.027 -18.544   6.944  1.00  0.00     0.177 C 
ATOM      5  O   UNL     1       9.969 -17.381   7.693  1.00  0.00    -0.341 OA
ATOM      6  C   UNL     1      12.002 -19.399   8.225  1.00  0.00     0.179 C 
ATOM      7  C   UNL     1      10.574 -19.466   8.785  1.00  0.00     0.202 C 
BRANCH   3   8
ATOM      8  C   UNL     1      12.068 -16.103   7.833  1.00  0.00     0.191 C 
BRANCH   8   9
ATOM      9  O   UNL     1      13.433 -16.256   7.557  1.00  0.00    -0.394 OA
ATOM     10  H   UNL     1      13.741 -15.387   7.190  1.00  0.00     0.210 HD
ENDBRANCH   8   9
ENDBRANCH   3   8
BRANCH   4  11
ATOM     11  O   UNL     1      11.438 -19.284   5.903  1.00  0.00    -0.387 OA
ATOM     12  H   UNL     1      12.147 -19.870   5.528  1.00  0.00     0.211 HD
ENDBRANCH   4  11
BRANCH   6  13
ATOM     13  O   UNL     1      12.874 -18.873   9.194  1.00  0.00    -0.387 OA
ATOM     14  H   UNL     1      13.698 -19.426   9.171  1.00  0.00     0.211 HD
ENDBRANCH   6  13
BRANCH   7  15
ATOM     15  O   UNL     1      10.571 -20.120  10.028  1.00  0.00    -0.385 OA
ATOM     16  H   UNL     1       9.621 -20.202  10.305  1.00  0.00     0.211 HD
ENDBRANCH   7  15
ENDBRANCH   1   2
BRANCH   1  17
ATOM     17  C   UNL     1       7.830 -18.999   8.618  1.00  0.00     0.224 C 
ATOM     18  C   UNL     1       6.836 -18.147   7.785  1.00  0.00     0.208 C 
ATOM     19  O   UNL     1       8.578 -19.818   7.729  1.00  0.00    -0.337 OA
ATOM     20  C   UNL     1       7.200 -18.458   6.349  1.00  0.00     0.180 C 
ATOM     21  C   UNL     1       7.907 -19.805   6.490  1.00  0.00     0.179 C 
BRANCH  17  22
ATOM     22  C   UNL     1       7.071 -19.934   9.581  1.00  0.00     0.225 C 
BRANCH  22  23
ATOM     23  O   UNL     1       5.685 -19.868   9.365  1.00  0.00    -0.391 OA
ATOM     24  H   UNL     1       5.521 -20.162   8.432  1.00  0.00     0.210 HD
ENDBRANCH  22  23
ENDBRANCH  17  22
BRANCH  18  25
ATOM     25  O   UNL     1       6.943 -16.772   8.055  1.00  0.00    -0.385 OA
ATOM     26  H   UNL     1       6.026 -16.455   8.265  1.00  0.00     0.211 HD
ENDBRANCH  18  25
BRANCH  20  27
ATOM     27  O   UNL     1       8.060 -17.471   5.833  1.00  0.00    -0.387 OA
ATOM     28  H   UNL     1       8.093 -17.601   4.850  1.00  0.00     0.211 HD
ENDBRANCH  20  27
BRANCH  21  29
ATOM     29  C   UNL     1       8.886 -20.123   5.355  1.00  0.00     0.191 C 
BRANCH  29  30
ATOM     30  O   UNL     1       8.429 -19.556   4.158  1.00  0.00    -0.394 OA
ATOM     31  H   UNL     1       9.241 -19.311   3.642  1.00  0.00     0.210 HD
ENDBRANCH  29  30
ENDBRANCH  21  29
ENDBRANCH   1  17
TORSDOF 13
ENDMDL
MODEL 2
REMARK VINA RESULT:    -1.835      1.488      3.798
REMARK INTER + INTRA:          -2.255
REMARK INTER:                  -3.101
REMARK INTRA:                   0.846
REMARK UNBOUND:                 0.546
REMARK SMILES OC[C@@H]1O[C@@H](O[C@]2(CO)O[C@H](CO)[C@H](O)[C@@H]2O)[C@H](O)[C@H](O)[C@H]1O
REMARK SMILES IDX 6 1 5 2 3 3 22 4 4 5 20 6 18 7 2 8 1 9 23 11 21 13 19 15
REMARK SMILES IDX 7 17 16 18 10 19 14 20 11 21 8 22 9 23 17 25 15 27 12 29
REMARK SMILES IDX 13 30
REMARK H PARENT 1 10 23 12 21 14 19 16 9 24 17 26 15 28 13 31
REMARK Flexibility Score: inf
ROOT
ATOM      1  O   UNL     1       8.795 -17.562   8.522  1.00  0.00    -0.313 OA
ENDROOT
BRANCH   1   2
ATOM      2  C   UNL     1      10.136 -17.902   8.215  1.00  0.00     0.285 C 
ATOM      3  C   UNL     1      12.168 -18.581   9.234  1.00  0.00     0.178 C 
ATOM      4  C   UNL     1      12.982 -17.483   8.499  1.00  0.00     0.177 C 
ATOM      5  O   UNL     1      10.805 -18.221   9.427  1.00  0.00    -0.341 OA
ATOM      6  C   UNL     1      12.264 -16.981   7.231  1.00  0.00     0.179 C 
ATOM      7  C   UNL     1      10.791 -16.685   7.544  1.00  0.00     0.202 C 
BRANCH   3   8
ATOM      8  C   UNL     1      12.319 -19.991   8.630  1.00  0.00     0.191 C 
BRANCH   8   9
ATOM      9  O   UNL     1      11.486 -20.125   7.512  1.00  0.00    -0.394 OA
ATOM     10  H   UNL     1      11.956 -19.680   6.761  1.00  0.00     0.210 HD
ENDBRANCH   8   9
ENDBRANCH   3   8
BRANCH   4  11
ATOM     11  O   UNL     1      13.177 -16.390   9.361  1.00  0.00    -0.387 OA
ATOM     12  H   UNL     1      12.738 -15.605   8.939  1.00  0.00     0.211 HD
ENDBRANCH   4  11
BRANCH   6  13
ATOM     13  O   UNL     1      12.355 -17.929   6.197  1.00  0.00    -0.387 OA
ATOM     14  H   UNL     1      12.970 -18.641   6.512  1.00  0.00     0.211 HD
ENDBRANCH   6  13
BRANCH   7  15
ATOM     15  O   UNL     1      10.098 -16.368   6.364  1.00  0.00    -0.385 OA
ATOM     16  H   UNL     1       9.892 -17.229   5.914  1.00  0.00     0.211 HD
ENDBRANCH   7  15
ENDBRANCH   1   2
BRANCH   1  17
ATOM     17  C   UNL     1       7.816 -18.358   7.853  1.00  0.00     0.224 C 
ATOM     18  C   UNL     1       7.912 -19.844   8.289  1.00  0.00     0.208 C 
ATOM     19  O   UNL     1       6.493 -17.900   8.101  1.00  0.00    -0.337 OA
ATOM     20  C   UNL     1       6.571 -20.125   8.933  1.00  0.00     0.180 C 
ATOM     21  C   UNL     1       5.693 -19.038   8.315  1.00  0.00     0.179 C 
BRANCH  17  22
ATOM     22  C   UNL     1       8.079 -18.217   6.340  1.00  0.00     0.225 C 
BRANCH  22  23
ATOM     23  O   UNL     1       8.887 -19.263   5.866  1.00  0.00    -0.391 OA
ATOM     24  H   UNL     1       8.279 -19.968   5.525  1.00  0.00     0.210 HD
ENDBRANCH  22  23
ENDBRANCH  17  22
BRANCH  18  25
ATOM     25  O   UNL     1       8.970 -20.079   9.184  1.00  0.00    -0.385 OA
ATOM     26  H   UNL     1       8.997 -21.060   9.334  1.00  0.00     0.211 HD
ENDBRANCH  18  25
BRANCH  20  27
ATOM     27  O   UNL     1       6.658 -19.989  10.331  1.00  0.00    -0.387 OA
ATOM     28  H   UNL     1       6.223 -19.129  10.566  1.00  0.00     0.211 HD
ENDBRANCH  20  27
BRANCH  21  29
ATOM     29  C   UNL     1       4.463 -18.672   9.152  1.00  0.00     0.191 C 
BRANCH  29  30
ATOM     30  O   UNL     1       3.923 -19.824   9.738  1.00  0.00    -0.394 OA
ATOM     31  H   UNL     1       2.937 -19.719   9.694  1.00  0.00     0.210 HD
ENDBRANCH  29  30
ENDBRANCH  21  29
ENDBRANCH   1  17
TORSDOF 13
ENDMDL
MODEL 3
REMARK VINA RESULT:    -0.958      0.965      2.353
REMARK INTER + INTRA:          -0.916
REMARK INTER:                   0.117
REMARK INTRA:                  -1.033
REMARK UNBOUND:                 0.546
REMARK SMILES OC[C@@H]1O[C@@H](O[C@]2(CO)O[C@H](CO)[C@H](O)[C@@H]2O)[C@H](O)[C@H](O)[C@H]1O
REMARK SMILES IDX 6 1 5 2 3 3 22 4 4 5 20 6 18 7 2 8 1 9 23 11 21 13 19 15
REMARK SMILES IDX 7 17 16 18 10 19 14 20 11 21 8 22 9 23 17 25 15 27 12 29
REMARK SMILES IDX 13 30
REMARK H PARENT 1 10 23 12 21 14 19 16 9 24 17 26 15 28 13 31
REMARK Flexibility Score: inf
ROOT
ATOM      1  O   UNL     1       8.993 -18.513   9.207  1.00  0.00    -0.313 OA
ENDROOT
BRANCH   1   2
ATOM      2  C   UNL     1      10.283 -18.452   8.623  1.00  0.00     0.285 C 
ATOM      3  C   UNL     1      12.498 -19.254   8.907  1.00  0.00     0.178 C 
ATOM      4  C   UNL     1      13.102 -17.830   8.774  1.00  0.00     0.177 C 
ATOM      5  O   UNL     1      11.166 -19.243   9.407  1.00  0.00    -0.341 OA
ATOM      6  C   UNL     1      12.150 -16.863   8.045  1.00  0.00     0.179 C 
ATOM      7  C   UNL     1      10.733 -16.984   8.625  1.00  0.00     0.202 C 
BRANCH   3   8
ATOM      8  C   UNL     1      12.639 -20.122   7.641  1.00  0.00     0.191 C 
BRANCH   8   9
ATOM      9  O   UNL     1      11.434 -20.125   6.926  1.00  0.00    -0.394 OA
ATOM     10  H   UNL     1      11.478 -19.354   6.304  1.00  0.00     0.210 HD
ENDBRANCH   8   9
ENDBRANCH   3   8
BRANCH   4  11
ATOM     11  O   UNL     1      13.365 -17.314  10.055  1.00  0.00    -0.387 OA
ATOM     12  H   UNL     1      13.880 -18.007  10.546  1.00  0.00     0.211 HD
ENDBRANCH   4  11
BRANCH   6  13
ATOM     13  O   UNL     1      12.128 -17.129   6.665  1.00  0.00    -0.387 OA
ATOM     14  H   UNL     1      12.975 -17.598   6.448  1.00  0.00     0.211 HD
ENDBRANCH   6  13
BRANCH   7  15
ATOM     15  O   UNL     1       9.833 -16.214   7.869  1.00  0.00    -0.385 OA
ATOM     16  H   UNL     1       8.945 -16.651   7.952  1.00  0.00     0.211 HD
ENDBRANCH   7  15
ENDBRANCH   1   2
BRANCH   1  17
ATOM     17  C   UNL     1       8.011 -19.169   8.402  1.00  0.00     0.224 C 
ATOM     18  C   UNL     1       7.068 -18.140   7.724  1.00  0.00     0.208 C 
ATOM     19  O   UNL     1       8.601 -19.974   7.390  1.00  0.00    -0.337 OA
ATOM     20  C   UNL     1       7.298 -18.351   6.243  1.00  0.00     0.180 C 
ATOM     21  C   UNL     1       7.855 -19.773   6.212  1.00  0.00     0.179 C 
BRANCH  17  22
ATOM     22  C   UNL     1       7.217 -20.104   9.334  1.00  0.00     0.225 C 
BRANCH  22  23
ATOM     23  O   UNL     1       5.850 -19.783   9.330  1.00  0.00    -0.391 OA
ATOM     24  H   UNL     1       5.782 -18.804   9.185  1.00  0.00     0.210 HD
ENDBRANCH  22  23
ENDBRANCH  17  22
BRANCH  18  25
ATOM     25  O   UNL     1       7.348 -16.816   8.103  1.00  0.00    -0.385 OA
ATOM     26  H   UNL     1       7.710 -16.364   7.297  1.00  0.00     0.211 HD
ENDBRANCH  18  25
BRANCH  20  27
ATOM     27  O   UNL     1       8.228 -17.417   5.750  1.00  0.00    -0.387 OA
ATOM     28  H   UNL     1       7.996 -17.252   4.800  1.00  0.00     0.211 HD
ENDBRANCH  20  27
BRANCH  21  29
ATOM     29  C   UNL     1       8.714 -20.084   4.982  1.00  0.00     0.191 C 
BRANCH  29  30
ATOM     30  O   UNL     1       8.244 -19.364   3.876  1.00  0.00    -0.394 OA
ATOM     31  H   UNL     1       7.352 -19.742   3.660  1.00  0.00     0.210 HD
ENDBRANCH  29  30
ENDBRANCH  21  29
ENDBRANCH   1  17
TORSDOF 13
ENDMDL
MODEL 4
REMARK VINA RESULT:    -0.314      1.386      5.298
REMARK INTER + INTRA:           0.067
REMARK INTER:                  -1.791
REMARK INTRA:                   1.858
REMARK UNBOUND:                 0.546
REMARK SMILES OC[C@@H]1O[C@@H](O[C@]2(CO)O[C@H](CO)[C@H](O)[C@@H]2O)[C@H](O)[C@H](O)[C@H]1O
REMARK SMILES IDX 6 1 5 2 3 3 22 4 4 5 20 6 18 7 2 8 1 9 23 11 21 13 19 15
REMARK SMILES IDX 7 17 16 18 10 19 14 20 11 21 8 22 9 23 17 25 15 27 12 29
REMARK SMILES IDX 13 30
REMARK H PARENT 1 10 23 12 21 14 19 16 9 24 17 26 15 28 13 31
REMARK Flexibility Score: inf
ROOT
ATOM      1  O   UNL     1       9.472 -17.636   6.641  1.00  0.00    -0.313 OA
ENDROOT
BRANCH   1   2
ATOM      2  C   UNL     1       8.211 -18.065   7.125  1.00  0.00     0.285 C 
ATOM      3  C   UNL     1       6.821 -17.975   9.046  1.00  0.00     0.178 C 
ATOM      4  C   UNL     1       6.591 -19.511   9.034  1.00  0.00     0.177 C 
ATOM      5  O   UNL     1       8.062 -17.599   8.459  1.00  0.00    -0.341 OA
ATOM      6  C   UNL     1       6.858 -20.125   7.647  1.00  0.00     0.179 C 
ATOM      7  C   UNL     1       8.188 -19.600   7.087  1.00  0.00     0.202 C 
BRANCH   3   8
ATOM      8  C   UNL     1       5.641 -17.154   8.492  1.00  0.00     0.191 C 
BRANCH   8   9
ATOM      9  O   UNL     1       5.903 -15.785   8.630  1.00  0.00    -0.394 OA
ATOM     10  H   UNL     1       5.020 -15.333   8.644  1.00  0.00     0.210 HD
ENDBRANCH   8   9
ENDBRANCH   3   8
BRANCH   4  11
ATOM     11  O   UNL     1       7.453 -20.119   9.963  1.00  0.00    -0.387 OA
ATOM     12  H   UNL     1       7.050 -20.994  10.203  1.00  0.00     0.211 HD
ENDBRANCH   4  11
BRANCH   6  13
ATOM     13  O   UNL     1       5.811 -19.826   6.758  1.00  0.00    -0.387 OA
ATOM     14  H   UNL     1       6.225 -19.424   5.950  1.00  0.00     0.211 HD
ENDBRANCH   6  13
BRANCH   7  15
ATOM     15  O   UNL     1       8.366 -20.041   5.765  1.00  0.00    -0.385 OA
ATOM     16  H   UNL     1       8.988 -19.401   5.331  1.00  0.00     0.211 HD
ENDBRANCH   7  15
ENDBRANCH   1   2
BRANCH   1  17
ATOM     17  C   UNL     1      10.522 -17.680   7.610  1.00  0.00     0.224 C 
ATOM     18  C   UNL     1      11.623 -18.691   7.193  1.00  0.00     0.208 C 
ATOM     19  O   UNL     1      11.126 -16.408   7.802  1.00  0.00    -0.337 OA
ATOM     20  C   UNL     1      12.862 -17.836   7.030  1.00  0.00     0.180 C 
ATOM     21  C   UNL     1      12.516 -16.618   7.884  1.00  0.00     0.179 C 
BRANCH  17  22
ATOM     22  C   UNL     1       9.881 -18.096   8.949  1.00  0.00     0.225 C 
BRANCH  22  23
ATOM     23  O   UNL     1      10.483 -19.257   9.460  1.00  0.00    -0.391 OA
ATOM     24  H   UNL     1      11.296 -19.426   8.918  1.00  0.00     0.210 HD
ENDBRANCH  22  23
ENDBRANCH  17  22
BRANCH  18  25
ATOM     25  O   UNL     1      11.311 -19.373   6.004  1.00  0.00    -0.385 OA
ATOM     26  H   UNL     1      10.408 -19.063   5.732  1.00  0.00     0.211 HD
ENDBRANCH  18  25
BRANCH  20  27
ATOM     27  O   UNL     1      13.048 -17.489   5.679  1.00  0.00    -0.387 OA
ATOM     28  H   UNL     1      13.940 -17.060   5.611  1.00  0.00     0.211 HD
ENDBRANCH  20  27
BRANCH  21  29
ATOM     29  C   UNL     1      13.268 -15.341   7.491  1.00  0.00     0.191 C 
BRANCH  29  30
ATOM     30  O   UNL     1      14.612 -15.640   7.228  1.00  0.00    -0.394 OA
ATOM     31  H   UNL     1      14.830 -15.194   6.369  1.00  0.00     0.210 HD
ENDBRANCH  29  30
ENDBRANCH  21  29
ENDBRANCH   1  17
TORSDOF 13
ENDMDL
MODEL 5
REMARK VINA RESULT:     0.279      1.575      5.614
REMARK INTER + INTRA:           0.972
REMARK INTER:                   1.468
REMARK INTRA:                  -0.497
REMARK UNBOUND:                 0.546
REMARK SMILES OC[C@@H]1O[C@@H](O[C@]2(CO)O[C@H](CO)[C@H](O)[C@@H]2O)[C@H](O)[C@H](O)[C@H]1O
REMARK SMILES IDX 6 1 5 2 3 3 22 4 4 5 20 6 18 7 2 8 1 9 23 11 21 13 19 15
REMARK SMILES IDX 7 17 16 18 10 19 14 20 11 21 8 22 9 23 17 25 15 27 12 29
REMARK SMILES IDX 13 30
REMARK H PARENT 1 10 23 12 21 14 19 16 9 24 17 26 15 28 13 31
REMARK Flexibility Score: inf
ROOT
ATOM      1  O   UNL     1      10.882 -16.607   7.553  1.00  0.00    -0.313 OA
ENDROOT
BRANCH   1   2
ATOM      2  C   UNL     1       9.884 -17.611   7.479  1.00  0.00     0.285 C 
ATOM      3  C   UNL     1       7.818 -18.111   6.427  1.00  0.00     0.178 C 
ATOM      4  C   UNL     1       7.144 -18.481   7.776  1.00  0.00     0.177 C 
ATOM      5  O   UNL     1       8.876 -17.173   6.579  1.00  0.00    -0.341 OA
ATOM      6  C   UNL     1       8.178 -18.848   8.858  1.00  0.00     0.179 C 
ATOM      7  C   UNL     1       9.301 -17.802   8.887  1.00  0.00     0.202 C 
BRANCH   3   8
ATOM      8  C   UNL     1       8.232 -19.325   5.573  1.00  0.00     0.191 C 
BRANCH   8   9
ATOM      9  O   UNL     1       8.237 -18.977   4.216  1.00  0.00    -0.394 OA
ATOM     10  H   UNL     1       8.894 -19.577   3.777  1.00  0.00     0.210 HD
ENDBRANCH   8   9
ENDBRANCH   3   8
BRANCH   4  11
ATOM     11  O   UNL     1       6.388 -17.389   8.235  1.00  0.00    -0.387 OA
ATOM     12  H   UNL     1       5.852 -17.711   9.006  1.00  0.00     0.211 HD
ENDBRANCH   4  11
BRANCH   6  13
ATOM     13  O   UNL     1       8.716 -20.125   8.622  1.00  0.00    -0.387 OA
ATOM     14  H   UNL     1       9.415 -20.019   7.926  1.00  0.00     0.211 HD
ENDBRANCH   6  13
BRANCH   7  15
ATOM     15  O   UNL     1      10.318 -18.207   9.767  1.00  0.00    -0.385 OA
ATOM     16  H   UNL     1      10.588 -17.402  10.283  1.00  0.00     0.211 HD
ENDBRANCH   7  15
ENDBRANCH   1   2
BRANCH   1  17
ATOM     17  C   UNL     1      12.221 -17.098   7.455  1.00  0.00     0.224 C 
ATOM     18  C   UNL     1      13.157 -16.041   6.812  1.00  0.00     0.208 C 
ATOM     19  O   UNL     1      12.753 -17.458   8.724  1.00  0.00    -0.337 OA
ATOM     20  C   UNL     1      14.172 -15.741   7.895  1.00  0.00     0.180 C 
ATOM     21  C   UNL     1      14.082 -16.994   8.763  1.00  0.00     0.179 C 
BRANCH  17  22
ATOM     22  C   UNL     1      12.170 -18.376   6.595  1.00  0.00     0.225 C 
BRANCH  22  23
ATOM     23  O   UNL     1      11.930 -19.510   7.386  1.00  0.00    -0.391 OA
ATOM     24  H   UNL     1      12.026 -20.302   6.796  1.00  0.00     0.210 HD
ENDBRANCH  22  23
ENDBRANCH  17  22
BRANCH  18  25
ATOM     25  O   UNL     1      12.472 -14.879   6.415  1.00  0.00    -0.385 OA
ATOM     26  H   UNL     1      12.743 -14.700   5.477  1.00  0.00     0.211 HD
ENDBRANCH  18  25
BRANCH  20  27
ATOM     27  O   UNL     1      13.804 -14.585   8.609  1.00  0.00    -0.387 OA
ATOM     28  H   UNL     1      13.333 -14.889   9.428  1.00  0.00     0.211 HD
ENDBRANCH  20  27
BRANCH  21  29
ATOM     29  C   UNL     1      14.527 -16.785  10.215  1.00  0.00     0.191 C 
BRANCH  29  30
ATOM     30  O   UNL     1      14.215 -17.918  10.978  1.00  0.00    -0.394 OA
ATOM     31  H   UNL     1      13.243 -17.862  11.169  1.00  0.00     0.210 HD
ENDBRANCH  29  30
ENDBRANCH  21  29
ENDBRANCH   1  17
TORSDOF 13
ENDMDL
MODEL 6
REMARK VINA RESULT:     0.364      1.567      5.229
REMARK INTER + INTRA:           1.101
REMARK INTER:                  -2.562
REMARK INTRA:                   3.663
REMARK UNBOUND:                 0.546
REMARK SMILES OC[C@@H]1O[C@@H](O[C@]2(CO)O[C@H](CO)[C@H](O)[C@@H]2O)[C@H](O)[C@H](O)[C@H]1O
REMARK SMILES IDX 6 1 5 2 3 3 22 4 4 5 20 6 18 7 2 8 1 9 23 11 21 13 19 15
REMARK SMILES IDX 7 17 16 18 10 19 14 20 11 21 8 22 9 23 17 25 15 27 12 29
REMARK SMILES IDX 13 30
REMARK H PARENT 1 10 23 12 21 14 19 16 9 24 17 26 15 28 13 31
REMARK Flexibility Score: inf
ROOT
ATOM      1  O   UNL     1      10.505 -17.960   9.205  1.00  0.00    -0.313 OA
ENDROOT
BRANCH   1   2
ATOM      2  C   UNL     1       9.227 -18.114   8.612  1.00  0.00     0.285 C 
ATOM      3  C   UNL     1       6.926 -17.685   9.005  1.00  0.00     0.178 C 
ATOM      4  C   UNL     1       6.526 -19.144   8.654  1.00  0.00     0.177 C 
ATOM      5  O   UNL     1       8.255 -17.584   9.503  1.00  0.00    -0.341 OA
ATOM      6  C   UNL     1       7.592 -19.845   7.790  1.00  0.00     0.179 C 
ATOM      7  C   UNL     1       8.987 -19.614   8.388  1.00  0.00     0.202 C 
BRANCH   3   8
ATOM      8  C   UNL     1       6.643 -16.664   7.886  1.00  0.00     0.191 C 
BRANCH   8   9
ATOM      9  O   UNL     1       5.801 -15.652   8.362  1.00  0.00    -0.394 OA
ATOM     10  H   UNL     1       5.272 -16.054   9.098  1.00  0.00     0.210 HD
ENDBRANCH   8   9
ENDBRANCH   3   8
BRANCH   4  11
ATOM     11  O   UNL     1       6.360 -19.880   9.840  1.00  0.00    -0.387 OA
ATOM     12  H   UNL     1       7.246 -20.267  10.067  1.00  0.00     0.211 HD
ENDBRANCH   4  11
BRANCH   6  13
ATOM     13  O   UNL     1       7.553 -19.373   6.466  1.00  0.00    -0.387 OA
ATOM     14  H   UNL     1       6.849 -18.674   6.431  1.00  0.00     0.211 HD
ENDBRANCH   6  13
BRANCH   7  15
ATOM     15  O   UNL     1       9.974 -20.125   7.528  1.00  0.00    -0.385 OA
ATOM     16  H   UNL     1      10.490 -19.347   7.191  1.00  0.00     0.211 HD
ENDBRANCH   7  15
ENDBRANCH   1   2
BRANCH   1  17
ATOM     17  C   UNL     1      11.594 -18.009   8.280  1.00  0.00     0.224 C 
ATOM     18  C   UNL     1      11.227 -17.301   6.948  1.00  0.00     0.208 C 
ATOM     19  O   UNL     1      12.768 -17.403   8.804  1.00  0.00    -0.337 OA
ATOM     20  C   UNL     1      12.216 -16.158   6.856  1.00  0.00     0.180 C 
ATOM     21  C   UNL     1      13.342 -16.644   7.766  1.00  0.00     0.179 C 
BRANCH  17  22
ATOM     22  C   UNL     1      11.910 -19.498   8.036  1.00  0.00     0.225 C 
BRANCH  22  23
ATOM     23  O   UNL     1      12.338 -20.125   9.216  1.00  0.00    -0.391 OA
ATOM     24  H   UNL     1      12.038 -19.558   9.973  1.00  0.00     0.210 HD
ENDBRANCH  22  23
ENDBRANCH  17  22
BRANCH  18  25
ATOM     25  O   UNL     1       9.901 -16.835   6.929  1.00  0.00    -0.385 OA
ATOM     26  H   UNL     1       9.949 -15.863   6.733  1.00  0.00     0.211 HD
ENDBRANCH  18  25
BRANCH  20  27
ATOM     27  O   UNL     1      11.638 -14.967   7.335  1.00  0.00    -0.387 OA
ATOM     28  H   UNL     1      12.370 -14.435   7.743  1.00  0.00     0.211 HD
ENDBRANCH  20  27
BRANCH  21  29
ATOM     29  C   UNL     1      14.209 -15.522   8.347  1.00  0.00     0.191 C 
BRANCH  29  30
ATOM     30  O   UNL     1      14.921 -14.888   7.321  1.00  0.00    -0.394 OA
ATOM     31  H   UNL     1      14.397 -14.079   7.082  1.00  0.00     0.210 HD
ENDBRANCH  29  30
ENDBRANCH  21  29
ENDBRANCH   1  17
TORSDOF 13
ENDMDL
MODEL 7
REMARK VINA RESULT:     0.620      1.188      2.947
REMARK INTER + INTRA:           1.492
REMARK INTER:                  -2.503
REMARK INTRA:                   3.994
REMARK UNBOUND:                 0.546
REMARK SMILES OC[C@@H]1O[C@@H](O[C@]2(CO)O[C@H](CO)[C@H](O)[C@@H]2O)[C@H](O)[C@H](O)[C@H]1O
REMARK SMILES IDX 6 1 5 2 3 3 22 4 4 5 20 6 18 7 2 8 1 9 23 11 21 13 19 15
REMARK SMILES IDX 7 17 16 18 10 19 14 20 11 21 8 22 9 23 17 25 15 27 12 29
REMARK SMILES IDX 13 30
REMARK H PARENT 1 10 23 12 21 14 19 16 9 24 17 26 15 28 13 31
REMARK Flexibility Score: inf
ROOT
ATOM      1  O   UNL     1       8.788 -17.549   9.066  1.00  0.00    -0.313 OA
ENDROOT
BRANCH   1   2
ATOM      2  C   UNL     1      10.139 -17.476   8.643  1.00  0.00     0.285 C 
ATOM      3  C   UNL     1      11.474 -16.946   6.755  1.00  0.00     0.178 C 
ATOM      4  C   UNL     1      12.281 -18.268   6.872  1.00  0.00     0.177 C 
ATOM      5  O   UNL     1      10.159 -17.055   7.286  1.00  0.00    -0.341 OA
ATOM      6  C   UNL     1      12.207 -18.868   8.289  1.00  0.00     0.179 C 
ATOM      7  C   UNL     1      10.753 -18.877   8.780  1.00  0.00     0.202 C 
BRANCH   3   8
ATOM      8  C   UNL     1      12.216 -15.703   7.285  1.00  0.00     0.191 C 
BRANCH   8   9
ATOM      9  O   UNL     1      13.600 -15.885   7.167  1.00  0.00    -0.394 OA
ATOM     10  H   UNL     1      13.773 -16.840   7.371  1.00  0.00     0.210 HD
ENDBRANCH   8   9
ENDBRANCH   3   8
BRANCH   4  11
ATOM     11  O   UNL     1      11.768 -19.209   5.962  1.00  0.00    -0.387 OA
ATOM     12  H   UNL     1      12.537 -19.550   5.434  1.00  0.00     0.211 HD
ENDBRANCH   4  11
BRANCH   6  13
ATOM     13  O   UNL     1      13.012 -18.140   9.183  1.00  0.00    -0.387 OA
ATOM     14  H   UNL     1      12.424 -17.473   9.622  1.00  0.00     0.211 HD
ENDBRANCH   6  13
BRANCH   7  15
ATOM     15  O   UNL     1      10.697 -19.286  10.123  1.00  0.00    -0.385 OA
ATOM     16  H   UNL     1      10.616 -18.461  10.670  1.00  0.00     0.211 HD
ENDBRANCH   7  15
ENDBRANCH   1   2
BRANCH   1  17
ATOM     17  C   UNL     1       7.926 -18.255   8.171  1.00  0.00     0.224 C 
ATOM     18  C   UNL     1       7.957 -19.780   8.454  1.00  0.00     0.208 C 
ATOM     19  O   UNL     1       6.580 -17.807   8.260  1.00  0.00    -0.337 OA
ATOM     20  C   UNL     1       6.533 -20.109   8.849  1.00  0.00     0.180 C 
ATOM     21  C   UNL     1       5.759 -18.950   8.223  1.00  0.00     0.179 C 
BRANCH  17  22
ATOM     22  C   UNL     1       8.420 -17.956   6.742  1.00  0.00     0.225 C 
BRANCH  22  23
ATOM     23  O   UNL     1       8.594 -19.141   6.008  1.00  0.00    -0.391 OA
ATOM     24  H   UNL     1       9.567 -19.331   5.987  1.00  0.00     0.210 HD
ENDBRANCH  22  23
ENDBRANCH  17  22
BRANCH  18  25
ATOM     25  O   UNL     1       8.863 -20.125   9.471  1.00  0.00    -0.385 OA
ATOM     26  H   UNL     1       8.891 -19.353  10.095  1.00  0.00     0.211 HD
ENDBRANCH  18  25
BRANCH  20  27
ATOM     27  O   UNL     1       6.401 -20.125  10.250  1.00  0.00    -0.387 OA
ATOM     28  H   UNL     1       7.213 -19.693  10.623  1.00  0.00     0.211 HD
ENDBRANCH  20  27
BRANCH  21  29
ATOM     29  C   UNL     1       4.413 -18.657   8.895  1.00  0.00     0.191 C 
BRANCH  29  30
ATOM     30  O   UNL     1       3.921 -19.818   9.506  1.00  0.00    -0.394 OA
ATOM     31  H   UNL     1       4.637 -20.500   9.416  1.00  0.00     0.210 HD
ENDBRANCH  29  30
ENDBRANCH  21  29
ENDBRANCH   1  17
TORSDOF 13
ENDMDL
