MODEL 1
REMARK VINA RESULT:    -3.776      0.000      0.000
REMARK INTER + INTRA:          -4.352
REMARK INTER:                  -4.217
REMARK INTRA:                  -0.135
REMARK UNBOUND:                -0.135
REMARK SMILES O=C([O-])C=Cc1ccccc1
REMARK SMILES IDX 4 1 5 2 2 3 1 4 3 5 6 6 7 7 11 8 8 9 10 10 9 11
REMARK H PARENT
REMARK Flexibility Score: inf
ROOT
ATOM      1  C   UNL     1      -0.395  -0.137  -7.590  1.00  0.00     0.025 C 
ATOM      2  C   UNL     1      -0.600   0.642  -8.662  1.00  0.00     0.010 C 
ENDROOT
BRANCH   1   3
ATOM      3  C   UNL     1      -1.271  -1.276  -7.270  1.00  0.00     0.064 C 
ATOM      4  O   UNL     1      -1.282  -2.314  -7.986  1.00  0.00    -0.545 OA
ATOM      5  O   UNL     1      -2.100  -1.209  -6.157  1.00  0.00    -0.545 OA
ENDBRANCH   1   3
BRANCH   2   6
ATOM      6  C   UNL     1       0.246   1.807  -9.042  1.00  0.00    -0.026 A 
ATOM      7  C   UNL     1       1.632   1.604  -9.178  1.00  0.00     0.008 A 
ATOM      8  C   UNL     1      -0.273   3.102  -9.271  1.00  0.00     0.008 A 
ATOM      9  C   UNL     1       2.476   2.660  -9.533  1.00  0.00     0.001 A 
ATOM     10  C   UNL     1       0.579   4.152  -9.626  1.00  0.00     0.001 A 
ATOM     11  C   UNL     1       1.950   3.933  -9.757  1.00  0.00     0.000 A 
ENDBRANCH   2   6
TORSDOF 2
ENDMDL
MODEL 2
REMARK VINA RESULT:    -3.691     10.761     11.074
REMARK INTER + INTRA:          -4.258
REMARK INTER:                  -4.120
REMARK INTRA:                  -0.138
REMARK UNBOUND:                -0.135
REMARK SMILES O=C([O-])C=Cc1ccccc1
REMARK SMILES IDX 4 1 5 2 2 3 1 4 3 5 6 6 7 7 11 8 8 9 10 10 9 11
REMARK H PARENT
REMARK Flexibility Score: inf
ROOT
ATOM      1  C   UNL     1      -2.674   5.569   0.859  1.00  0.00     0.025 C 
ATOM      2  C   UNL     1      -2.416   6.882   0.777  1.00  0.00     0.010 C 
ENDROOT
BRANCH   1   3
ATOM      3  C   UNL     1      -4.038   5.049   1.059  1.00  0.00     0.064 C 
ATOM      4  O   UNL     1      -4.437   4.686   2.199  1.00  0.00    -0.545 OA
ATOM      5  O   UNL     1      -4.900   4.955  -0.025  1.00  0.00    -0.545 OA
ENDBRANCH   1   3
BRANCH   2   6
ATOM      6  C   UNL     1      -1.064   7.472   0.575  1.00  0.00    -0.026 A 
ATOM      7  C   UNL     1       0.018   6.907   1.275  1.00  0.00     0.008 A 
ATOM      8  C   UNL     1      -0.816   8.568  -0.281  1.00  0.00     0.008 A 
ATOM      9  C   UNL     1       1.310   7.418   1.125  1.00  0.00     0.001 A 
ATOM     10  C   UNL     1       0.480   9.073  -0.426  1.00  0.00     0.001 A 
ATOM     11  C   UNL     1       1.541   8.500   0.276  1.00  0.00     0.000 A 
ENDBRANCH   2   6
TORSDOF 2
ENDMDL
MODEL 3
REMARK VINA RESULT:    -3.691     10.864     11.250
REMARK INTER + INTRA:          -4.257
REMARK INTER:                  -4.115
REMARK INTRA:                  -0.142
REMARK UNBOUND:                -0.135
REMARK SMILES O=C([O-])C=Cc1ccccc1
REMARK SMILES IDX 4 1 5 2 2 3 1 4 3 5 6 6 7 7 11 8 8 9 10 10 9 11
REMARK H PARENT
REMARK Flexibility Score: inf
ROOT
ATOM      1  C   UNL     1      -3.256   5.755   0.717  1.00  0.00     0.025 C 
ATOM      2  C   UNL     1      -2.231   6.114   1.504  1.00  0.00     0.010 C 
ENDROOT
BRANCH   1   3
ATOM      3  C   UNL     1      -4.384   4.951   1.217  1.00  0.00     0.064 C 
ATOM      4  O   UNL     1      -4.412   4.533   2.406  1.00  0.00    -0.545 OA
ATOM      5  O   UNL     1      -5.436   4.646   0.364  1.00  0.00    -0.545 OA
ENDBRANCH   1   3
BRANCH   2   6
ATOM      6  C   UNL     1      -1.062   6.925   1.062  1.00  0.00    -0.026 A 
ATOM      7  C   UNL     1      -1.287   7.966   0.142  1.00  0.00     0.008 A 
ATOM      8  C   UNL     1       0.256   6.699   1.518  1.00  0.00     0.008 A 
ATOM      9  C   UNL     1      -0.229   8.761  -0.308  1.00  0.00     0.001 A 
ATOM     10  C   UNL     1       1.308   7.499   1.063  1.00  0.00     0.001 A 
ATOM     11  C   UNL     1       1.067   8.528   0.151  1.00  0.00     0.000 A 
ENDBRANCH   2   6
TORSDOF 2
ENDMDL
MODEL 4
REMARK VINA RESULT:    -3.678      4.952      8.163
REMARK INTER + INTRA:          -4.242
REMARK INTER:                  -4.110
REMARK INTRA:                  -0.132
REMARK UNBOUND:                -0.135
REMARK SMILES O=C([O-])C=Cc1ccccc1
REMARK SMILES IDX 4 1 5 2 2 3 1 4 3 5 6 6 7 7 11 8 8 9 10 10 9 11
REMARK H PARENT
REMARK Flexibility Score: inf
ROOT
ATOM      1  C   UNL     1      -3.327  -1.722  -5.994  1.00  0.00     0.025 C 
ATOM      2  C   UNL     1      -4.489  -1.056  -5.915  1.00  0.00     0.010 C 
ENDROOT
BRANCH   1   3
ATOM      3  C   UNL     1      -2.214  -1.260  -6.840  1.00  0.00     0.064 C 
ATOM      4  O   UNL     1      -2.274  -1.332  -8.097  1.00  0.00    -0.545 OA
ATOM      5  O   UNL     1      -1.075  -0.734  -6.243  1.00  0.00    -0.545 OA
ENDBRANCH   1   3
BRANCH   2   6
ATOM      6  C   UNL     1      -5.651  -1.468  -5.081  1.00  0.00    -0.026 A 
ATOM      7  C   UNL     1      -5.475  -1.538  -3.687  1.00  0.00     0.008 A 
ATOM      8  C   UNL     1      -6.917  -1.793  -5.620  1.00  0.00     0.008 A 
ATOM      9  C   UNL     1      -6.531  -1.918  -2.853  1.00  0.00     0.001 A 
ATOM     10  C   UNL     1      -7.967  -2.172  -4.779  1.00  0.00     0.001 A 
ATOM     11  C   UNL     1      -7.775  -2.235  -3.398  1.00  0.00     0.000 A 
ENDBRANCH   2   6
TORSDOF 2
ENDMDL
MODEL 5
REMARK VINA RESULT:    -3.493      5.791      6.393
REMARK INTER + INTRA:          -4.036
REMARK INTER:                  -3.904
REMARK INTRA:                  -0.132
REMARK UNBOUND:                -0.135
REMARK SMILES O=C([O-])C=Cc1ccccc1
REMARK SMILES IDX 4 1 5 2 2 3 1 4 3 5 6 6 7 7 11 8 8 9 10 10 9 11
REMARK H PARENT
REMARK Flexibility Score: inf
ROOT
ATOM      1  C   UNL     1       4.168  -1.540  -5.115  1.00  0.00     0.025 C 
ATOM      2  C   UNL     1       4.958  -0.646  -4.503  1.00  0.00     0.010 C 
ENDROOT
BRANCH   1   3
ATOM      3  C   UNL     1       3.475  -2.610  -4.378  1.00  0.00     0.064 C 
ATOM      4  O   UNL     1       3.969  -3.767  -4.288  1.00  0.00    -0.545 OA
ATOM      5  O   UNL     1       2.255  -2.342  -3.771  1.00  0.00    -0.545 OA
ENDBRANCH   1   3
BRANCH   2   6
ATOM      6  C   UNL     1       5.685   0.458  -5.188  1.00  0.00    -0.026 A 
ATOM      7  C   UNL     1       6.376   1.391  -4.393  1.00  0.00     0.008 A 
ATOM      8  C   UNL     1       5.714   0.613  -6.592  1.00  0.00     0.008 A 
ATOM      9  C   UNL     1       7.077   2.448  -4.981  1.00  0.00     0.001 A 
ATOM     10  C   UNL     1       6.418   1.673  -7.172  1.00  0.00     0.001 A 
ATOM     11  C   UNL     1       7.098   2.589  -6.368  1.00  0.00     0.000 A 
ENDBRANCH   2   6
TORSDOF 2
ENDMDL
MODEL 6
REMARK VINA RESULT:    -3.477      5.865      6.514
REMARK INTER + INTRA:          -4.018
REMARK INTER:                  -3.873
REMARK INTRA:                  -0.145
REMARK UNBOUND:                -0.135
REMARK SMILES O=C([O-])C=Cc1ccccc1
REMARK SMILES IDX 4 1 5 2 2 3 1 4 3 5 6 6 7 7 11 8 8 9 10 10 9 11
REMARK H PARENT
REMARK Flexibility Score: inf
ROOT
ATOM      1  C   UNL     1       4.261  -1.540  -5.000  1.00  0.00     0.025 C 
ATOM      2  C   UNL     1       4.967  -0.587  -4.374  1.00  0.00     0.010 C 
ENDROOT
BRANCH   1   3
ATOM      3  C   UNL     1       3.560  -2.607  -4.266  1.00  0.00     0.064 C 
ATOM      4  O   UNL     1       2.436  -2.403  -3.733  1.00  0.00    -0.545 OA
ATOM      5  O   UNL     1       4.147  -3.861  -4.159  1.00  0.00    -0.545 OA
ENDBRANCH   1   3
BRANCH   2   6
ATOM      6  C   UNL     1       5.697   0.517  -5.055  1.00  0.00    -0.026 A 
ATOM      7  C   UNL     1       5.685   0.552  -6.462  1.00  0.00     0.008 A 
ATOM      8  C   UNL     1       6.400   1.527  -4.361  1.00  0.00     0.008 A 
ATOM      9  C   UNL     1       6.352   1.565  -7.157  1.00  0.00     0.001 A 
ATOM     10  C   UNL     1       7.065   2.537  -5.063  1.00  0.00     0.001 A 
ATOM     11  C   UNL     1       7.042   2.557  -6.458  1.00  0.00     0.000 A 
ENDBRANCH   2   6
TORSDOF 2
ENDMDL
MODEL 7
REMARK VINA RESULT:    -3.437      6.896      7.621
REMARK INTER + INTRA:          -3.973
REMARK INTER:                  -3.841
REMARK INTRA:                  -0.133
REMARK UNBOUND:                -0.135
REMARK SMILES O=C([O-])C=Cc1ccccc1
REMARK SMILES IDX 4 1 5 2 2 3 1 4 3 5 6 6 7 7 11 8 8 9 10 10 9 11
REMARK H PARENT
REMARK Flexibility Score: inf
ROOT
ATOM      1  C   UNL     1       4.413  -1.429  -3.766  1.00  0.00     0.025 C 
ATOM      2  C   UNL     1       5.485  -1.250  -4.550  1.00  0.00     0.010 C 
ENDROOT
BRANCH   1   3
ATOM      3  C   UNL     1       3.471  -2.543  -3.967  1.00  0.00     0.064 C 
ATOM      4  O   UNL     1       3.882  -3.719  -4.164  1.00  0.00    -0.545 OA
ATOM      5  O   UNL     1       2.104  -2.295  -3.941  1.00  0.00    -0.545 OA
ENDBRANCH   1   3
BRANCH   2   6
ATOM      6  C   UNL     1       6.475  -0.147  -4.401  1.00  0.00    -0.026 A 
ATOM      7  C   UNL     1       6.027   1.175  -4.580  1.00  0.00     0.008 A 
ATOM      8  C   UNL     1       7.836  -0.363  -4.089  1.00  0.00     0.008 A 
ATOM      9  C   UNL     1       6.909   2.251  -4.452  1.00  0.00     0.001 A 
ATOM     10  C   UNL     1       8.712   0.719  -3.961  1.00  0.00     0.001 A 
ATOM     11  C   UNL     1       8.251   2.024  -4.143  1.00  0.00     0.000 A 
ENDBRANCH   2   6
TORSDOF 2
ENDMDL
MODEL 8
REMARK VINA RESULT:    -3.295      6.914      9.908
REMARK INTER + INTRA:          -3.815
REMARK INTER:                  -3.687
REMARK INTRA:                  -0.128
REMARK UNBOUND:                -0.135
REMARK SMILES O=C([O-])C=Cc1ccccc1
REMARK SMILES IDX 4 1 5 2 2 3 1 4 3 5 6 6 7 7 11 8 8 9 10 10 9 11
REMARK H PARENT
REMARK Flexibility Score: inf
ROOT
ATOM      1  C   UNL     1      -4.887  -2.758  -4.273  1.00  0.00     0.025 C 
ATOM      2  C   UNL     1      -5.885  -1.875  -4.425  1.00  0.00     0.010 C 
ENDROOT
BRANCH   1   3
ATOM      3  C   UNL     1      -3.635  -2.667  -5.043  1.00  0.00     0.064 C 
ATOM      4  O   UNL     1      -2.896  -3.674  -5.210  1.00  0.00    -0.545 OA
ATOM      5  O   UNL     1      -3.260  -1.449  -5.596  1.00  0.00    -0.545 OA
ENDBRANCH   1   3
BRANCH   2   6
ATOM      6  C   UNL     1      -7.173  -1.910  -3.680  1.00  0.00    -0.026 A 
ATOM      7  C   UNL     1      -8.339  -2.257  -4.386  1.00  0.00     0.008 A 
ATOM      8  C   UNL     1      -7.281  -1.611  -2.302  1.00  0.00     0.008 A 
ATOM      9  C   UNL     1      -9.577  -2.308  -3.739  1.00  0.00     0.001 A 
ATOM     10  C   UNL     1      -8.523  -1.664  -1.663  1.00  0.00     0.001 A 
ATOM     11  C   UNL     1      -9.669  -2.011  -2.379  1.00  0.00     0.000 A 
ENDBRANCH   2   6
TORSDOF 2
ENDMDL
MODEL 9
REMARK VINA RESULT:    -3.221      5.971      7.477
REMARK INTER + INTRA:          -3.732
REMARK INTER:                  -3.602
REMARK INTRA:                  -0.130
REMARK UNBOUND:                -0.135
REMARK SMILES O=C([O-])C=Cc1ccccc1
REMARK SMILES IDX 4 1 5 2 2 3 1 4 3 5 6 6 7 7 11 8 8 9 10 10 9 11
REMARK H PARENT
REMARK Flexibility Score: inf
ROOT
ATOM      1  C   UNL     1      -4.080  -3.858  -3.917  1.00  0.00     0.025 C 
ATOM      2  C   UNL     1      -4.600  -2.623  -3.940  1.00  0.00     0.010 C 
ENDROOT
BRANCH   1   3
ATOM      3  C   UNL     1      -3.749  -4.547  -2.658  1.00  0.00     0.064 C 
ATOM      4  O   UNL     1      -4.638  -4.812  -1.805  1.00  0.00    -0.545 OA
ATOM      5  O   UNL     1      -2.432  -4.910  -2.403  1.00  0.00    -0.545 OA
ENDBRANCH   1   3
BRANCH   2   6
ATOM      6  C   UNL     1      -4.956  -1.873  -5.176  1.00  0.00    -0.026 A 
ATOM      7  C   UNL     1      -3.910  -1.359  -5.965  1.00  0.00     0.008 A 
ATOM      8  C   UNL     1      -6.288  -1.652  -5.592  1.00  0.00     0.008 A 
ATOM      9  C   UNL     1      -4.184  -0.647  -7.136  1.00  0.00     0.001 A 
ATOM     10  C   UNL     1      -6.553  -0.939  -6.766  1.00  0.00     0.001 A 
ATOM     11  C   UNL     1      -5.504  -0.437  -7.536  1.00  0.00     0.000 A 
ENDBRANCH   2   6
TORSDOF 2
ENDMDL
