MODEL 1
REMARK VINA RESULT:    -6.547      0.000      0.000
REMARK INTER + INTRA:          -8.132
REMARK INTER:                  -7.886
REMARK INTRA:                  -0.246
REMARK UNBOUND:                -0.246
REMARK SMILES O=c1c(O)c(-c2ccc(O)c(O)c2)oc2cc(O)cc(O)c12
REMARK SMILES IDX 5 1 3 2 2 3 1 4 22 5 20 6 19 7 17 8 16 9 15 10 14 11 6 12
REMARK SMILES IDX 7 13 8 14 9 15 13 16 11 17 10 18 12 20 4 22 21 24 18 26
REMARK H PARENT 10 19 12 21 4 23 21 25 18 27
REMARK Flexibility Score: inf
ROOT
ATOM      1  C   UNL     1      16.548 -13.558   3.291  1.00  0.00     0.180 A 
ATOM      2  C   UNL     1      16.114 -12.295   3.731  1.00  0.00     0.208 A 
ATOM      3  C   UNL     1      16.091 -12.026   5.109  1.00  0.00     0.238 A 
ATOM      4  O   UNL     1      15.651 -10.913   5.500  1.00  0.00    -0.285 OA
ATOM      5  C   UNL     1      16.515 -13.015   6.028  1.00  0.00     0.111 A 
ATOM      6  C   UNL     1      16.570 -12.837   7.444  1.00  0.00     0.134 A 
ATOM      7  C   UNL     1      16.881 -13.926   8.265  1.00  0.00     0.093 A 
ATOM      8  C   UNL     1      17.203 -15.170   7.722  1.00  0.00     0.123 A 
ATOM      9  C   UNL     1      17.210 -15.340   6.337  1.00  0.00     0.094 A 
ATOM     10  C   UNL     1      16.868 -14.281   5.492  1.00  0.00     0.146 A 
ATOM     11  O   UNL     1      16.877 -14.487   4.180  1.00  0.00    -0.452 OA
ENDROOT
BRANCH   1  12
ATOM     12  C   UNL     1      16.625 -13.908   1.855  1.00  0.00     0.025 A 
ATOM     13  C   UNL     1      17.631 -13.336   1.058  1.00  0.00     0.016 A 
ATOM     14  C   UNL     1      17.710 -13.635  -0.304  1.00  0.00     0.051 A 
ATOM     15  C   UNL     1      16.778 -14.499  -0.894  1.00  0.00     0.157 A 
ATOM     16  C   UNL     1      15.680 -14.758   1.255  1.00  0.00     0.062 A 
ATOM     17  C   UNL     1      15.755 -15.058  -0.110  1.00  0.00     0.158 A 
BRANCH  15  18
ATOM     18  O   UNL     1      16.861 -14.797  -2.253  1.00  0.00    -0.504 OA
ATOM     19  H   UNL     1      17.655 -15.293  -2.640  1.00  0.00     0.293 HD
ENDBRANCH  15  18
BRANCH  17  20
ATOM     20  O   UNL     1      14.804 -15.910  -0.670  1.00  0.00    -0.504 OA
ATOM     21  H   UNL     1      14.285 -15.665  -1.505  1.00  0.00     0.293 HD
ENDBRANCH  17  20
ENDBRANCH   1  12
BRANCH   2  22
ATOM     22  O   UNL     1      15.679 -11.340   2.808  1.00  0.00    -0.502 OA
ATOM     23  H   UNL     1      16.249 -10.550   2.534  1.00  0.00     0.293 HD
ENDBRANCH   2  22
BRANCH   6  24
ATOM     24  O   UNL     1      16.357 -11.613   8.084  1.00  0.00    -0.507 OA
ATOM     25  H   UNL     1      16.281 -11.491   9.083  1.00  0.00     0.293 HD
ENDBRANCH   6  24
BRANCH   8  26
ATOM     26  O   UNL     1      17.522 -16.228   8.569  1.00  0.00    -0.508 OA
ATOM     27  H   UNL     1      17.424 -16.151   9.575  1.00  0.00     0.293 HD
ENDBRANCH   8  26
TORSDOF 6
ENDMDL
MODEL 2
REMARK VINA RESULT:    -5.863      0.701      1.524
REMARK INTER + INTRA:          -7.309
REMARK INTER:                  -7.048
REMARK INTRA:                  -0.260
REMARK UNBOUND:                -0.246
REMARK SMILES O=c1c(O)c(-c2ccc(O)c(O)c2)oc2cc(O)cc(O)c12
REMARK SMILES IDX 5 1 3 2 2 3 1 4 22 5 20 6 19 7 17 8 16 9 15 10 14 11 6 12
REMARK SMILES IDX 7 13 8 14 9 15 13 16 11 17 10 18 12 20 4 22 21 24 18 26
REMARK H PARENT 10 19 12 21 4 23 21 25 18 27
REMARK Flexibility Score: inf
ROOT
ATOM      1  C   UNL     1      16.635 -13.308   3.169  1.00  0.00     0.180 A 
ATOM      2  C   UNL     1      16.230 -12.032   3.596  1.00  0.00     0.208 A 
ATOM      3  C   UNL     1      16.168 -11.763   4.973  1.00  0.00     0.238 A 
ATOM      4  O   UNL     1      15.754 -10.636   5.350  1.00  0.00    -0.285 OA
ATOM      5  C   UNL     1      16.526 -12.767   5.904  1.00  0.00     0.111 A 
ATOM      6  C   UNL     1      16.538 -12.592   7.321  1.00  0.00     0.134 A 
ATOM      7  C   UNL     1      16.783 -13.692   8.150  1.00  0.00     0.093 A 
ATOM      8  C   UNL     1      17.080 -14.946   7.616  1.00  0.00     0.123 A 
ATOM      9  C   UNL     1      17.129 -15.115   6.232  1.00  0.00     0.094 A 
ATOM     10  C   UNL     1      16.854 -14.044   5.378  1.00  0.00     0.146 A 
ATOM     11  O   UNL     1      16.901 -14.249   4.067  1.00  0.00    -0.452 OA
ENDROOT
BRANCH   1  12
ATOM     12  C   UNL     1      16.750 -13.659   1.735  1.00  0.00     0.025 A 
ATOM     13  C   UNL     1      15.839 -14.566   1.170  1.00  0.00     0.016 A 
ATOM     14  C   UNL     1      15.941 -14.927  -0.175  1.00  0.00     0.051 A 
ATOM     15  C   UNL     1      16.965 -14.399  -0.974  1.00  0.00     0.157 A 
ATOM     16  C   UNL     1      17.788 -13.147   0.936  1.00  0.00     0.062 A 
ATOM     17  C   UNL     1      17.895 -13.508  -0.412  1.00  0.00     0.158 A 
BRANCH  15  18
ATOM     18  O   UNL     1      17.064 -14.759  -2.316  1.00  0.00    -0.504 OA
ATOM     19  H   UNL     1      16.526 -14.287  -3.033  1.00  0.00     0.293 HD
ENDBRANCH  15  18
BRANCH  17  20
ATOM     20  O   UNL     1      18.934 -12.976  -1.176  1.00  0.00    -0.504 OA
ATOM     21  H   UNL     1      19.058 -11.978  -1.296  1.00  0.00     0.293 HD
ENDBRANCH  17  20
ENDBRANCH   1  12
BRANCH   2  22
ATOM     22  O   UNL     1      15.861 -11.061   2.661  1.00  0.00    -0.502 OA
ATOM     23  H   UNL     1      15.147 -10.368   2.848  1.00  0.00     0.293 HD
ENDBRANCH   2  22
BRANCH   6  24
ATOM     24  O   UNL     1      16.346 -11.362   7.956  1.00  0.00    -0.507 OA
ATOM     25  H   UNL     1      16.673 -11.136   8.883  1.00  0.00     0.293 HD
ENDBRANCH   6  24
BRANCH   8  26
ATOM     26  O   UNL     1      17.333 -16.016   8.471  1.00  0.00    -0.508 OA
ATOM     27  H   UNL     1      16.599 -16.656   8.751  1.00  0.00     0.293 HD
ENDBRANCH   8  26
TORSDOF 6
ENDMDL
MODEL 3
REMARK VINA RESULT:    -5.759      1.877      6.936
REMARK INTER + INTRA:          -7.183
REMARK INTER:                  -6.891
REMARK INTRA:                  -0.292
REMARK UNBOUND:                -0.246
REMARK SMILES O=c1c(O)c(-c2ccc(O)c(O)c2)oc2cc(O)cc(O)c12
REMARK SMILES IDX 5 1 3 2 2 3 1 4 22 5 20 6 19 7 17 8 16 9 15 10 14 11 6 12
REMARK SMILES IDX 7 13 8 14 9 15 13 16 11 17 10 18 12 20 4 22 21 24 18 26
REMARK H PARENT 10 19 12 21 4 23 21 25 18 27
REMARK Flexibility Score: inf
ROOT
ATOM      1  C   UNL     1      16.768 -12.027   3.383  1.00  0.00     0.180 A 
ATOM      2  C   UNL     1      17.948 -11.479   2.851  1.00  0.00     0.208 A 
ATOM      3  C   UNL     1      18.392 -11.912   1.591  1.00  0.00     0.238 A 
ATOM      4  O   UNL     1      19.478 -11.458   1.144  1.00  0.00    -0.285 OA
ATOM      5  C   UNL     1      17.643 -12.875   0.873  1.00  0.00     0.111 A 
ATOM      6  C   UNL     1      17.979 -13.357  -0.429  1.00  0.00     0.134 A 
ATOM      7  C   UNL     1      17.239 -14.405  -0.989  1.00  0.00     0.093 A 
ATOM      8  C   UNL     1      16.138 -14.945  -0.325  1.00  0.00     0.123 A 
ATOM      9  C   UNL     1      15.765 -14.441   0.922  1.00  0.00     0.094 A 
ATOM     10  C   UNL     1      16.506 -13.420   1.523  1.00  0.00     0.146 A 
ATOM     11  O   UNL     1      16.124 -12.976   2.714  1.00  0.00    -0.452 OA
ENDROOT
BRANCH   1  12
ATOM     12  C   UNL     1      16.222 -11.602   4.692  1.00  0.00     0.025 A 
ATOM     13  C   UNL     1      15.511 -10.395   4.784  1.00  0.00     0.016 A 
ATOM     14  C   UNL     1      15.006  -9.964   6.013  1.00  0.00     0.051 A 
ATOM     15  C   UNL     1      15.215 -10.725   7.171  1.00  0.00     0.157 A 
ATOM     16  C   UNL     1      16.447 -12.354   5.859  1.00  0.00     0.062 A 
ATOM     17  C   UNL     1      15.944 -11.923   7.092  1.00  0.00     0.158 A 
BRANCH  15  18
ATOM     18  O   UNL     1      14.708 -10.293   8.395  1.00  0.00    -0.504 OA
ATOM     19  H   UNL     1      14.002  -9.568   8.451  1.00  0.00     0.293 HD
ENDBRANCH  15  18
BRANCH  17  20
ATOM     20  O   UNL     1      16.181 -12.697   8.228  1.00  0.00    -0.504 OA
ATOM     21  H   UNL     1      16.373 -13.689   8.174  1.00  0.00     0.293 HD
ENDBRANCH  17  20
ENDBRANCH   1  12
BRANCH   2  22
ATOM     22  O   UNL     1      18.683 -10.545   3.586  1.00  0.00    -0.502 OA
ATOM     23  H   UNL     1      19.651 -10.695   3.843  1.00  0.00     0.293 HD
ENDBRANCH   2  22
BRANCH   6  24
ATOM     24  O   UNL     1      19.003 -12.825  -1.217  1.00  0.00    -0.507 OA
ATOM     25  H   UNL     1      19.358 -13.248  -2.061  1.00  0.00     0.293 HD
ENDBRANCH   6  24
BRANCH   8  26
ATOM     26  O   UNL     1      15.416 -15.977  -0.919  1.00  0.00    -0.508 OA
ATOM     27  H   UNL     1      15.280 -16.867  -0.452  1.00  0.00     0.293 HD
ENDBRANCH   8  26
TORSDOF 6
ENDMDL
MODEL 4
REMARK VINA RESULT:    -5.714      2.796      7.174
REMARK INTER + INTRA:          -7.129
REMARK INTER:                  -6.848
REMARK INTRA:                  -0.281
REMARK UNBOUND:                -0.246
REMARK SMILES O=c1c(O)c(-c2ccc(O)c(O)c2)oc2cc(O)cc(O)c12
REMARK SMILES IDX 5 1 3 2 2 3 1 4 22 5 20 6 19 7 17 8 16 9 15 10 14 11 6 12
REMARK SMILES IDX 7 13 8 14 9 15 13 16 11 17 10 18 12 20 4 22 21 24 18 26
REMARK H PARENT 10 19 12 21 4 23 21 25 18 27
REMARK Flexibility Score: inf
ROOT
ATOM      1  C   UNL     1      15.863 -12.003   3.152  1.00  0.00     0.180 A 
ATOM      2  C   UNL     1      16.005 -13.370   2.857  1.00  0.00     0.208 A 
ATOM      3  C   UNL     1      16.792 -13.751   1.759  1.00  0.00     0.238 A 
ATOM      4  O   UNL     1      16.871 -14.973   1.467  1.00  0.00    -0.285 OA
ATOM      5  C   UNL     1      17.440 -12.763   0.979  1.00  0.00     0.111 A 
ATOM      6  C   UNL     1      18.293 -13.037  -0.132  1.00  0.00     0.134 A 
ATOM      7  C   UNL     1      18.776 -11.979  -0.910  1.00  0.00     0.093 A 
ATOM      8  C   UNL     1      18.491 -10.654  -0.581  1.00  0.00     0.123 A 
ATOM      9  C   UNL     1      17.706 -10.371   0.538  1.00  0.00     0.094 A 
ATOM     10  C   UNL     1      17.179 -11.408   1.313  1.00  0.00     0.146 A 
ATOM     11  O   UNL     1      16.429 -11.098   2.364  1.00  0.00    -0.452 OA
ENDROOT
BRANCH   1  12
ATOM     12  C   UNL     1      15.071 -11.525   4.309  1.00  0.00     0.025 A 
ATOM     13  C   UNL     1      15.731 -11.153   5.491  1.00  0.00     0.016 A 
ATOM     14  C   UNL     1      15.004 -10.719   6.601  1.00  0.00     0.051 A 
ATOM     15  C   UNL     1      13.604 -10.664   6.552  1.00  0.00     0.157 A 
ATOM     16  C   UNL     1      13.666 -11.487   4.270  1.00  0.00     0.062 A 
ATOM     17  C   UNL     1      12.934 -11.054   5.381  1.00  0.00     0.158 A 
BRANCH  15  18
ATOM     18  O   UNL     1      12.881 -10.229   7.661  1.00  0.00    -0.504 OA
ATOM     19  H   UNL     1      13.264  -9.554   8.314  1.00  0.00     0.293 HD
ENDBRANCH  15  18
BRANCH  17  20
ATOM     20  O   UNL     1      11.541 -11.024   5.305  1.00  0.00    -0.504 OA
ATOM     21  H   UNL     1      10.975 -11.848   5.461  1.00  0.00     0.293 HD
ENDBRANCH  17  20
ENDBRANCH   1  12
BRANCH   2  22
ATOM     22  O   UNL     1      15.339 -14.329   3.626  1.00  0.00    -0.502 OA
ATOM     23  H   UNL     1      14.417 -14.171   4.013  1.00  0.00     0.293 HD
ENDBRANCH   2  22
BRANCH   6  24
ATOM     24  O   UNL     1      18.716 -14.320  -0.493  1.00  0.00    -0.507 OA
ATOM     25  H   UNL     1      18.207 -15.169  -0.299  1.00  0.00     0.293 HD
ENDBRANCH   6  24
BRANCH   8  26
ATOM     26  O   UNL     1      19.000  -9.624  -1.369  1.00  0.00    -0.508 OA
ATOM     27  H   UNL     1      19.973  -9.345  -1.313  1.00  0.00     0.293 HD
ENDBRANCH   8  26
TORSDOF 6
ENDMDL
MODEL 5
REMARK VINA RESULT:    -5.630      1.849      7.236
REMARK INTER + INTRA:          -7.028
REMARK INTER:                  -6.704
REMARK INTRA:                  -0.324
REMARK UNBOUND:                -0.246
REMARK SMILES O=c1c(O)c(-c2ccc(O)c(O)c2)oc2cc(O)cc(O)c12
REMARK SMILES IDX 5 1 3 2 2 3 1 4 22 5 20 6 19 7 17 8 16 9 15 10 14 11 6 12
REMARK SMILES IDX 7 13 8 14 9 15 13 16 11 17 10 18 12 20 4 22 21 24 18 26
REMARK H PARENT 10 19 12 21 4 23 21 25 18 27
REMARK Flexibility Score: inf
ROOT
ATOM      1  C   UNL     1      16.725 -12.618   3.348  1.00  0.00     0.180 A 
ATOM      2  C   UNL     1      16.059 -13.671   2.697  1.00  0.00     0.208 A 
ATOM      3  C   UNL     1      16.366 -13.943   1.354  1.00  0.00     0.238 A 
ATOM      4  O   UNL     1      15.728 -14.852   0.760  1.00  0.00    -0.285 OA
ATOM      5  C   UNL     1      17.344 -13.170   0.684  1.00  0.00     0.111 A 
ATOM      6  C   UNL     1      17.763 -13.382  -0.664  1.00  0.00     0.134 A 
ATOM      7  C   UNL     1      18.643 -12.475  -1.266  1.00  0.00     0.093 A 
ATOM      8  C   UNL     1      19.171 -11.401  -0.550  1.00  0.00     0.123 A 
ATOM      9  C   UNL     1      18.815 -11.217   0.787  1.00  0.00     0.094 A 
ATOM     10  C   UNL     1      17.910 -12.085   1.404  1.00  0.00     0.146 A 
ATOM     11  O   UNL     1      17.589 -11.869   2.674  1.00  0.00    -0.452 OA
ENDROOT
BRANCH   1  12
ATOM     12  C   UNL     1      16.475 -12.288   4.770  1.00  0.00     0.025 A 
ATOM     13  C   UNL     1      15.614 -11.226   5.091  1.00  0.00     0.016 A 
ATOM     14  C   UNL     1      15.380 -10.884   6.425  1.00  0.00     0.051 A 
ATOM     15  C   UNL     1      16.013 -11.588   7.458  1.00  0.00     0.157 A 
ATOM     16  C   UNL     1      17.124 -12.980   5.808  1.00  0.00     0.062 A 
ATOM     17  C   UNL     1      16.893 -12.638   7.145  1.00  0.00     0.158 A 
BRANCH  15  18
ATOM     18  O   UNL     1      15.776 -11.246   8.787  1.00  0.00    -0.504 OA
ATOM     19  H   UNL     1      16.430 -10.678   9.314  1.00  0.00     0.293 HD
ENDBRANCH  15  18
BRANCH  17  20
ATOM     20  O   UNL     1      17.549 -13.350   8.150  1.00  0.00    -0.504 OA
ATOM     21  H   UNL     1      18.265 -14.035   7.944  1.00  0.00     0.293 HD
ENDBRANCH  17  20
ENDBRANCH   1  12
BRANCH   2  22
ATOM     22  O   UNL     1      15.081 -14.409   3.370  1.00  0.00    -0.502 OA
ATOM     23  H   UNL     1      14.361 -14.929   2.884  1.00  0.00     0.293 HD
ENDBRANCH   2  22
BRANCH   6  24
ATOM     24  O   UNL     1      17.368 -14.476  -1.440  1.00  0.00    -0.507 OA
ATOM     25  H   UNL     1      17.019 -15.348  -1.070  1.00  0.00     0.293 HD
ENDBRANCH   6  24
BRANCH   8  26
ATOM     26  O   UNL     1      20.056 -10.527  -1.176  1.00  0.00    -0.508 OA
ATOM     27  H   UNL     1      20.926 -10.852  -1.581  1.00  0.00     0.293 HD
ENDBRANCH   8  26
TORSDOF 6
ENDMDL
MODEL 6
REMARK VINA RESULT:    -5.560      3.773      5.745
REMARK INTER + INTRA:          -6.943
REMARK INTER:                  -6.622
REMARK INTRA:                  -0.321
REMARK UNBOUND:                -0.246
REMARK SMILES O=c1c(O)c(-c2ccc(O)c(O)c2)oc2cc(O)cc(O)c12
REMARK SMILES IDX 5 1 3 2 2 3 1 4 22 5 20 6 19 7 17 8 16 9 15 10 14 11 6 12
REMARK SMILES IDX 7 13 8 14 9 15 13 16 11 17 10 18 12 20 4 22 21 24 18 26
REMARK H PARENT 10 19 12 21 4 23 21 25 18 27
REMARK Flexibility Score: inf
ROOT
ATOM      1  C   UNL     1      18.178 -11.291   0.807  1.00  0.00     0.180 A 
ATOM      2  C   UNL     1      18.231 -12.617   0.344  1.00  0.00     0.208 A 
ATOM      3  C   UNL     1      17.484 -13.601   1.010  1.00  0.00     0.238 A 
ATOM      4  O   UNL     1      17.578 -14.796   0.624  1.00  0.00    -0.285 OA
ATOM      5  C   UNL     1      16.682 -13.246   2.121  1.00  0.00     0.111 A 
ATOM      6  C   UNL     1      15.854 -14.154   2.847  1.00  0.00     0.134 A 
ATOM      7  C   UNL     1      15.206 -13.720   4.009  1.00  0.00     0.093 A 
ATOM      8  C   UNL     1      15.301 -12.396   4.435  1.00  0.00     0.123 A 
ATOM      9  C   UNL     1      16.060 -11.484   3.700  1.00  0.00     0.094 A 
ATOM     10  C   UNL     1      16.749 -11.897   2.557  1.00  0.00     0.146 A 
ATOM     11  O   UNL     1      17.469 -11.001   1.891  1.00  0.00    -0.452 OA
ENDROOT
BRANCH   1  12
ATOM     12  C   UNL     1      18.916 -10.193   0.141  1.00  0.00     0.025 A 
ATOM     13  C   UNL     1      20.134  -9.753   0.683  1.00  0.00     0.016 A 
ATOM     14  C   UNL     1      20.837  -8.705   0.083  1.00  0.00     0.051 A 
ATOM     15  C   UNL     1      20.326  -8.072  -1.059  1.00  0.00     0.157 A 
ATOM     16  C   UNL     1      18.397  -9.543  -0.993  1.00  0.00     0.062 A 
ATOM     17  C   UNL     1      19.098  -8.492  -1.594  1.00  0.00     0.158 A 
BRANCH  15  18
ATOM     18  O   UNL     1      21.031  -7.029  -1.656  1.00  0.00    -0.504 OA
ATOM     19  H   UNL     1      20.856  -6.750  -2.615  1.00  0.00     0.293 HD
ENDBRANCH  15  18
BRANCH  17  20
ATOM     20  O   UNL     1      18.556  -7.874  -2.722  1.00  0.00    -0.504 OA
ATOM     21  H   UNL     1      17.573  -7.942  -2.953  1.00  0.00     0.293 HD
ENDBRANCH  17  20
ENDBRANCH   1  12
BRANCH   2  22
ATOM     22  O   UNL     1      19.045 -12.950  -0.742  1.00  0.00    -0.502 OA
ATOM     23  H   UNL     1      19.800 -13.622  -0.670  1.00  0.00     0.293 HD
ENDBRANCH   2  22
BRANCH   6  24
ATOM     24  O   UNL     1      15.615 -15.475   2.456  1.00  0.00    -0.507 OA
ATOM     25  H   UNL     1      15.587 -15.796   1.500  1.00  0.00     0.293 HD
ENDBRANCH   6  24
BRANCH   8  26
ATOM     26  O   UNL     1      14.631 -11.994   5.588  1.00  0.00    -0.508 OA
ATOM     27  H   UNL     1      14.717 -12.508   6.458  1.00  0.00     0.293 HD
ENDBRANCH   8  26
TORSDOF 6
ENDMDL
MODEL 7
REMARK VINA RESULT:    -5.444      2.859      3.810
REMARK INTER + INTRA:          -6.803
REMARK INTER:                  -6.565
REMARK INTRA:                  -0.238
REMARK UNBOUND:                -0.246
REMARK SMILES O=c1c(O)c(-c2ccc(O)c(O)c2)oc2cc(O)cc(O)c12
REMARK SMILES IDX 5 1 3 2 2 3 1 4 22 5 20 6 19 7 17 8 16 9 15 10 14 11 6 12
REMARK SMILES IDX 7 13 8 14 9 15 13 16 11 17 10 18 12 20 4 22 21 24 18 26
REMARK H PARENT 10 19 12 21 4 23 21 25 18 27
REMARK Flexibility Score: inf
ROOT
ATOM      1  C   UNL     1      16.651 -12.043   3.153  1.00  0.00     0.180 A 
ATOM      2  C   UNL     1      17.458 -11.522   4.179  1.00  0.00     0.208 A 
ATOM      3  C   UNL     1      16.847 -11.026   5.341  1.00  0.00     0.238 A 
ATOM      4  O   UNL     1      17.571 -10.511   6.233  1.00  0.00    -0.285 OA
ATOM      5  C   UNL     1      15.438 -11.070   5.470  1.00  0.00     0.111 A 
ATOM      6  C   UNL     1      14.714 -10.631   6.620  1.00  0.00     0.134 A 
ATOM      7  C   UNL     1      13.316 -10.601   6.586  1.00  0.00     0.093 A 
ATOM      8  C   UNL     1      12.612 -11.054   5.470  1.00  0.00     0.123 A 
ATOM      9  C   UNL     1      13.308 -11.541   4.363  1.00  0.00     0.094 A 
ATOM     10  C   UNL     1      14.705 -11.549   4.353  1.00  0.00     0.146 A 
ATOM     11  O   UNL     1      15.330 -12.011   3.276  1.00  0.00    -0.452 OA
ENDROOT
BRANCH   1  12
ATOM     12  C   UNL     1      17.224 -12.608   1.910  1.00  0.00     0.025 A 
ATOM     13  C   UNL     1      17.248 -14.001   1.732  1.00  0.00     0.016 A 
ATOM     14  C   UNL     1      17.802 -14.557   0.577  1.00  0.00     0.051 A 
ATOM     15  C   UNL     1      18.354 -13.731  -0.412  1.00  0.00     0.157 A 
ATOM     16  C   UNL     1      17.796 -11.784   0.925  1.00  0.00     0.062 A 
ATOM     17  C   UNL     1      18.354 -12.338  -0.232  1.00  0.00     0.158 A 
BRANCH  15  18
ATOM     18  O   UNL     1      18.904 -14.289  -1.564  1.00  0.00    -0.504 OA
ATOM     19  H   UNL     1      19.020 -13.747  -2.413  1.00  0.00     0.293 HD
ENDBRANCH  15  18
BRANCH  17  20
ATOM     20  O   UNL     1      18.907 -11.489  -1.191  1.00  0.00    -0.504 OA
ATOM     21  H   UNL     1      18.451 -10.633  -1.480  1.00  0.00     0.293 HD
ENDBRANCH  17  20
ENDBRANCH   1  12
BRANCH   2  22
ATOM     22  O   UNL     1      18.847 -11.468   4.023  1.00  0.00    -0.502 OA
ATOM     23  H   UNL     1      19.376 -10.616   4.159  1.00  0.00     0.293 HD
ENDBRANCH   2  22
BRANCH   6  24
ATOM     24  O   UNL     1      15.317 -10.246   7.820  1.00  0.00    -0.507 OA
ATOM     25  H   UNL     1      15.247 -10.753   8.689  1.00  0.00     0.293 HD
ENDBRANCH   6  24
BRANCH   8  26
ATOM     26  O   UNL     1      11.220 -11.023   5.476  1.00  0.00    -0.508 OA
ATOM     27  H   UNL     1      10.704 -10.467   6.149  1.00  0.00     0.293 HD
ENDBRANCH   8  26
TORSDOF 6
ENDMDL
MODEL 8
REMARK VINA RESULT:    -5.431      3.718      7.410
REMARK INTER + INTRA:          -6.788
REMARK INTER:                  -6.762
REMARK INTRA:                  -0.025
REMARK UNBOUND:                -0.246
REMARK SMILES O=c1c(O)c(-c2ccc(O)c(O)c2)oc2cc(O)cc(O)c12
REMARK SMILES IDX 5 1 3 2 2 3 1 4 22 5 20 6 19 7 17 8 16 9 15 10 14 11 6 12
REMARK SMILES IDX 7 13 8 14 9 15 13 16 11 17 10 18 12 20 4 22 21 24 18 26
REMARK H PARENT 10 19 12 21 4 23 21 25 18 27
REMARK Flexibility Score: inf
ROOT
ATOM      1  C   UNL     1      17.287 -11.763   1.469  1.00  0.00     0.180 A 
ATOM      2  C   UNL     1      18.318 -12.131   0.587  1.00  0.00     0.208 A 
ATOM      3  C   UNL     1      18.809 -11.179  -0.321  1.00  0.00     0.238 A 
ATOM      4  O   UNL     1      19.694 -11.530  -1.146  1.00  0.00    -0.285 OA
ATOM      5  C   UNL     1      18.275  -9.868  -0.325  1.00  0.00     0.111 A 
ATOM      6  C   UNL     1      18.724  -8.812  -1.175  1.00  0.00     0.134 A 
ATOM      7  C   UNL     1      18.036  -7.594  -1.185  1.00  0.00     0.093 A 
ATOM      8  C   UNL     1      16.958  -7.368  -0.330  1.00  0.00     0.123 A 
ATOM      9  C   UNL     1      16.547  -8.373   0.548  1.00  0.00     0.094 A 
ATOM     10  C   UNL     1      17.191  -9.613   0.554  1.00  0.00     0.146 A 
ATOM     11  O   UNL     1      16.763 -10.546   1.397  1.00  0.00    -0.452 OA
ENDROOT
BRANCH   1  12
ATOM     12  C   UNL     1      16.737 -12.703   2.472  1.00  0.00     0.025 A 
ATOM     13  C   UNL     1      16.224 -13.940   2.051  1.00  0.00     0.016 A 
ATOM     14  C   UNL     1      15.681 -14.833   2.977  1.00  0.00     0.051 A 
ATOM     15  C   UNL     1      15.628 -14.498   4.337  1.00  0.00     0.157 A 
ATOM     16  C   UNL     1      16.664 -12.361   3.835  1.00  0.00     0.062 A 
ATOM     17  C   UNL     1      16.118 -13.252   4.765  1.00  0.00     0.158 A 
BRANCH  15  18
ATOM     18  O   UNL     1      15.087 -15.391   5.259  1.00  0.00    -0.504 OA
ATOM     19  H   UNL     1      14.510 -15.075   6.030  1.00  0.00     0.293 HD
ENDBRANCH  15  18
BRANCH  17  20
ATOM     20  O   UNL     1      16.067 -12.883   6.109  1.00  0.00    -0.504 OA
ATOM     21  H   UNL     1      15.739 -11.972   6.405  1.00  0.00     0.293 HD
ENDBRANCH  17  20
ENDBRANCH   1  12
BRANCH   2  22
ATOM     22  O   UNL     1      18.816 -13.437   0.592  1.00  0.00    -0.502 OA
ATOM     23  H   UNL     1      19.591 -13.721   1.178  1.00  0.00     0.293 HD
ENDBRANCH   2  22
BRANCH   6  24
ATOM     24  O   UNL     1      19.848  -8.901  -2.001  1.00  0.00    -0.507 OA
ATOM     25  H   UNL     1      20.091  -8.232  -2.716  1.00  0.00     0.293 HD
ENDBRANCH   6  24
BRANCH   8  26
ATOM     26  O   UNL     1      16.306  -6.138  -0.355  1.00  0.00    -0.508 OA
ATOM     27  H   UNL     1      15.624  -5.884   0.351  1.00  0.00     0.293 HD
ENDBRANCH   8  26
TORSDOF 6
ENDMDL
MODEL 9
REMARK VINA RESULT:    -5.406      4.128      6.514
REMARK INTER + INTRA:          -6.758
REMARK INTER:                  -6.444
REMARK INTRA:                  -0.314
REMARK UNBOUND:                -0.246
REMARK SMILES O=c1c(O)c(-c2ccc(O)c(O)c2)oc2cc(O)cc(O)c12
REMARK SMILES IDX 5 1 3 2 2 3 1 4 22 5 20 6 19 7 17 8 16 9 15 10 14 11 6 12
REMARK SMILES IDX 7 13 8 14 9 15 13 16 11 17 10 18 12 20 4 22 21 24 18 26
REMARK H PARENT 10 19 12 21 4 23 21 25 18 27
REMARK Flexibility Score: inf
ROOT
ATOM      1  C   UNL     1      18.835 -11.212   0.442  1.00  0.00     0.180 A 
ATOM      2  C   UNL     1      18.665 -12.291  -0.442  1.00  0.00     0.208 A 
ATOM      3  C   UNL     1      17.763 -13.312  -0.105  1.00  0.00     0.238 A 
ATOM      4  O   UNL     1      17.655 -14.303  -0.875  1.00  0.00    -0.285 OA
ATOM      5  C   UNL     1      17.029 -13.234   1.103  1.00  0.00     0.111 A 
ATOM      6  C   UNL     1      16.059 -14.191   1.526  1.00  0.00     0.134 A 
ATOM      7  C   UNL     1      15.490 -14.081   2.800  1.00  0.00     0.093 A 
ATOM      8  C   UNL     1      15.806 -13.014   3.641  1.00  0.00     0.123 A 
ATOM      9  C   UNL     1      16.709 -12.039   3.214  1.00  0.00     0.094 A 
ATOM     10  C   UNL     1      17.321 -12.142   1.962  1.00  0.00     0.146 A 
ATOM     11  O   UNL     1      18.182 -11.199   1.598  1.00  0.00    -0.452 OA
ENDROOT
BRANCH   1  12
ATOM     12  C   UNL     1      19.749 -10.085   0.144  1.00  0.00     0.025 A 
ATOM     13  C   UNL     1      19.304  -9.033  -0.672  1.00  0.00     0.016 A 
ATOM     14  C   UNL     1      20.155  -7.970  -0.984  1.00  0.00     0.051 A 
ATOM     15  C   UNL     1      21.469  -7.950  -0.497  1.00  0.00     0.157 A 
ATOM     16  C   UNL     1      21.074 -10.072   0.614  1.00  0.00     0.062 A 
ATOM     17  C   UNL     1      21.930  -9.010   0.302  1.00  0.00     0.158 A 
BRANCH  15  18
ATOM     18  O   UNL     1      22.315  -6.888  -0.808  1.00  0.00    -0.504 OA
ATOM     19  H   UNL     1      21.954  -5.998  -1.131  1.00  0.00     0.293 HD
ENDBRANCH  15  18
BRANCH  17  20
ATOM     20  O   UNL     1      23.237  -9.026   0.791  1.00  0.00    -0.504 OA
ATOM     21  H   UNL     1      23.673  -9.873   1.133  1.00  0.00     0.293 HD
ENDBRANCH  17  20
ENDBRANCH   1  12
BRANCH   2  22
ATOM     22  O   UNL     1      19.415 -12.360  -1.620  1.00  0.00    -0.502 OA
ATOM     23  H   UNL     1      19.006 -12.215  -2.535  1.00  0.00     0.293 HD
ENDBRANCH   2  22
BRANCH   6  24
ATOM     24  O   UNL     1      15.602 -15.244   0.728  1.00  0.00    -0.507 OA
ATOM     25  H   UNL     1      15.071 -16.032   1.064  1.00  0.00     0.293 HD
ENDBRANCH   6  24
BRANCH   8  26
ATOM     26  O   UNL     1      15.209 -12.928   4.896  1.00  0.00    -0.508 OA
ATOM     27  H   UNL     1      15.605 -12.355   5.633  1.00  0.00     0.293 HD
ENDBRANCH   8  26
TORSDOF 6
ENDMDL
