MODEL 1
REMARK VINA RESULT:    -3.862      0.000      0.000
REMARK INTER + INTRA:          -4.553
REMARK INTER:                  -4.653
REMARK INTRA:                   0.099
REMARK UNBOUND:                 0.099
REMARK SMILES CC[C@H](C)[C@H]([NH3+])C(=O)[O-]
REMARK SMILES IDX 3 1 4 2 5 3 6 4 7 8 8 9 9 10 2 11 1 12
REMARK H PARENT 6 5 6 6 6 7
REMARK Flexibility Score: inf
ROOT
ATOM      1  C   UNL     1       1.114   6.746   1.218  1.00  0.00     0.050 C 
ATOM      2  C   UNL     1       1.336   5.682   0.120  1.00  0.00     0.014 C 
ENDROOT
BRANCH   1   3
ATOM      3  C   UNL     1       2.322   7.738   1.265  1.00  0.00     0.230 C 
BRANCH   3   4
ATOM      4  N   UNL     1       2.424   8.552   0.043  1.00  0.00    -0.350 N 
ATOM      5  H   UNL     1       3.321   9.093   0.041  1.00  0.00     0.345 HD
ATOM      6  H   UNL     1       1.649   9.253   0.009  1.00  0.00     0.345 HD
ATOM      7  H   UNL     1       2.393   7.947  -0.810  1.00  0.00     0.345 HD
ENDBRANCH   3   4
BRANCH   3   8
ATOM      8  C   UNL     1       3.621   6.998   1.478  1.00  0.00     0.099 C 
ATOM      9  O   UNL     1       3.975   6.650   2.635  1.00  0.00    -0.544 OA
ATOM     10  O   UNL     1       4.436   6.699   0.393  1.00  0.00    -0.544 OA
ENDBRANCH   3   8
ENDBRANCH   1   3
BRANCH   1  11
ATOM     11  C   UNL     1       0.877   6.069   2.594  1.00  0.00     0.006 C 
ATOM     12  C   UNL     1       0.502   7.054   3.705  1.00  0.00     0.004 C 
ENDBRANCH   1  11
TORSDOF 4
ENDMDL
MODEL 2
REMARK VINA RESULT:    -3.860      1.319      2.370
REMARK INTER + INTRA:          -4.551
REMARK INTER:                  -4.464
REMARK INTRA:                  -0.087
REMARK UNBOUND:                 0.099
REMARK SMILES CC[C@H](C)[C@H]([NH3+])C(=O)[O-]
REMARK SMILES IDX 3 1 4 2 5 3 6 4 7 8 8 9 9 10 2 11 1 12
REMARK H PARENT 6 5 6 6 6 7
REMARK Flexibility Score: inf
ROOT
ATOM      1  C   UNL     1       1.672   6.283   2.107  1.00  0.00     0.050 C 
ATOM      2  C   UNL     1       0.738   6.519   3.316  1.00  0.00     0.014 C 
ENDROOT
BRANCH   1   3
ATOM      3  C   UNL     1       2.987   7.113   2.267  1.00  0.00     0.230 C 
BRANCH   3   4
ATOM      4  N   UNL     1       2.723   8.547   2.465  1.00  0.00    -0.350 N 
ATOM      5  H   UNL     1       2.136   8.920   1.683  1.00  0.00     0.345 HD
ATOM      6  H   UNL     1       3.618   9.085   2.454  1.00  0.00     0.345 HD
ATOM      7  H   UNL     1       2.222   8.710   3.370  1.00  0.00     0.345 HD
ENDBRANCH   3   4
BRANCH   3   8
ATOM      8  C   UNL     1       3.886   6.936   1.067  1.00  0.00     0.099 C 
ATOM      9  O   UNL     1       4.186   7.922   0.344  1.00  0.00    -0.544 OA
ATOM     10  O   UNL     1       4.388   5.679   0.754  1.00  0.00    -0.544 OA
ENDBRANCH   3   8
ENDBRANCH   1   3
BRANCH   1  11
ATOM     11  C   UNL     1       0.941   6.620   0.780  1.00  0.00     0.006 C 
ATOM     12  C   UNL     1       0.959   5.475  -0.237  1.00  0.00     0.004 C 
ENDBRANCH   1  11
TORSDOF 4
ENDMDL
MODEL 3
REMARK VINA RESULT:    -3.816      1.604      1.724
REMARK INTER + INTRA:          -4.498
REMARK INTER:                  -4.422
REMARK INTRA:                  -0.076
REMARK UNBOUND:                 0.099
REMARK SMILES CC[C@H](C)[C@H]([NH3+])C(=O)[O-]
REMARK SMILES IDX 3 1 4 2 5 3 6 4 7 8 8 9 9 10 2 11 1 12
REMARK H PARENT 6 5 6 6 6 7
REMARK Flexibility Score: inf
ROOT
ATOM      1  C   UNL     1       1.549   6.716   1.881  1.00  0.00     0.050 C 
ATOM      2  C   UNL     1       1.109   5.828   0.697  1.00  0.00     0.014 C 
ENDROOT
BRANCH   1   3
ATOM      3  C   UNL     1       3.094   6.613   2.093  1.00  0.00     0.230 C 
BRANCH   3   4
ATOM      4  N   UNL     1       3.555   7.405   3.245  1.00  0.00    -0.350 N 
ATOM      5  H   UNL     1       2.856   8.149   3.477  1.00  0.00     0.345 HD
ATOM      6  H   UNL     1       4.450   7.893   3.015  1.00  0.00     0.345 HD
ATOM      7  H   UNL     1       3.689   6.795   4.084  1.00  0.00     0.345 HD
ENDBRANCH   3   4
BRANCH   3   8
ATOM      8  C   UNL     1       3.840   7.057   0.857  1.00  0.00     0.099 C 
ATOM      9  O   UNL     1       4.791   6.366   0.404  1.00  0.00    -0.544 OA
ATOM     10  O   UNL     1       3.480   8.234   0.213  1.00  0.00    -0.544 OA
ENDBRANCH   3   8
ENDBRANCH   1   3
BRANCH   1  11
ATOM     11  C   UNL     1       0.770   6.336   3.168  1.00  0.00     0.006 C 
ATOM     12  C   UNL     1       0.006   7.507   3.791  1.00  0.00     0.004 C 
ENDBRANCH   1  11
TORSDOF 4
ENDMDL
MODEL 4
REMARK VINA RESULT:    -3.762      1.451      1.999
REMARK INTER + INTRA:          -4.433
REMARK INTER:                  -4.396
REMARK INTRA:                  -0.037
REMARK UNBOUND:                 0.099
REMARK SMILES CC[C@H](C)[C@H]([NH3+])C(=O)[O-]
REMARK SMILES IDX 3 1 4 2 5 3 6 4 7 8 8 9 9 10 2 11 1 12
REMARK H PARENT 6 5 6 6 6 7
REMARK Flexibility Score: inf
ROOT
ATOM      1  C   UNL     1       0.628   7.253   2.190  1.00  0.00     0.050 C 
ATOM      2  C   UNL     1       1.053   6.002   2.990  1.00  0.00     0.014 C 
ENDROOT
BRANCH   1   3
ATOM      3  C   UNL     1       1.821   7.777   1.326  1.00  0.00     0.230 C 
BRANCH   3   4
ATOM      4  N   UNL     1       1.429   8.896   0.454  1.00  0.00    -0.350 N 
ATOM      5  H   UNL     1       0.431   8.793   0.157  1.00  0.00     0.345 HD
ATOM      6  H   UNL     1       2.006   8.895  -0.418  1.00  0.00     0.345 HD
ATOM      7  H   UNL     1       1.541   9.811   0.951  1.00  0.00     0.345 HD
ENDBRANCH   3   4
BRANCH   3   8
ATOM      8  C   UNL     1       2.403   6.670   0.481  1.00  0.00     0.099 C 
ATOM      9  O   UNL     1       3.640   6.434   0.504  1.00  0.00    -0.544 OA
ATOM     10  O   UNL     1       1.574   5.906  -0.330  1.00  0.00    -0.544 OA
ENDBRANCH   3   8
ENDBRANCH   1   3
BRANCH   1  11
ATOM     11  C   UNL     1       0.088   8.352   3.144  1.00  0.00     0.006 C 
ATOM     12  C   UNL     1      -0.025   7.897   4.602  1.00  0.00     0.004 C 
ENDBRANCH   1  11
TORSDOF 4
ENDMDL
MODEL 5
REMARK VINA RESULT:    -3.751      2.364      3.105
REMARK INTER + INTRA:          -4.419
REMARK INTER:                  -4.260
REMARK INTRA:                  -0.159
REMARK UNBOUND:                 0.099
REMARK SMILES CC[C@H](C)[C@H]([NH3+])C(=O)[O-]
REMARK SMILES IDX 3 1 4 2 5 3 6 4 7 8 8 9 9 10 2 11 1 12
REMARK H PARENT 6 5 6 6 6 7
REMARK Flexibility Score: inf
ROOT
ATOM      1  C   UNL     1       1.569   6.258   1.001  1.00  0.00     0.050 C 
ATOM      2  C   UNL     1       1.083   5.487  -0.247  1.00  0.00     0.014 C 
ENDROOT
BRANCH   1   3
ATOM      3  C   UNL     1       0.682   7.523   1.238  1.00  0.00     0.230 C 
BRANCH   3   4
ATOM      4  N   UNL     1       1.324   8.755   0.750  1.00  0.00    -0.350 N 
ATOM      5  H   UNL     1       1.988   8.534  -0.029  1.00  0.00     0.345 HD
ATOM      6  H   UNL     1       1.888   9.195   1.512  1.00  0.00     0.345 HD
ATOM      7  H   UNL     1       0.608   9.434   0.402  1.00  0.00     0.345 HD
ENDBRANCH   3   4
BRANCH   3   8
ATOM      8  C   UNL     1       0.348   7.684   2.701  1.00  0.00     0.099 C 
ATOM      9  O   UNL     1       0.082   8.821   3.173  1.00  0.00    -0.544 OA
ATOM     10  O   UNL     1       0.335   6.574   3.537  1.00  0.00    -0.544 OA
ENDBRANCH   3   8
ENDBRANCH   1   3
BRANCH   1  11
ATOM     11  C   UNL     1       3.069   6.630   0.862  1.00  0.00     0.006 C 
ATOM     12  C   UNL     1       3.856   6.501   2.170  1.00  0.00     0.004 C 
ENDBRANCH   1  11
TORSDOF 4
ENDMDL
MODEL 6
REMARK VINA RESULT:    -3.642      1.673      2.306
REMARK INTER + INTRA:          -4.287
REMARK INTER:                  -4.189
REMARK INTRA:                  -0.098
REMARK UNBOUND:                 0.099
REMARK SMILES CC[C@H](C)[C@H]([NH3+])C(=O)[O-]
REMARK SMILES IDX 3 1 4 2 5 3 6 4 7 8 8 9 9 10 2 11 1 12
REMARK H PARENT 6 5 6 6 6 7
REMARK Flexibility Score: inf
ROOT
ATOM      1  C   UNL     1       2.012   7.448   2.750  1.00  0.00     0.050 C 
ATOM      2  C   UNL     1       2.127   8.860   3.365  1.00  0.00     0.014 C 
ENDROOT
BRANCH   1   3
ATOM      3  C   UNL     1       2.020   7.533   1.189  1.00  0.00     0.230 C 
BRANCH   3   4
ATOM      4  N   UNL     1       0.684   7.814   0.638  1.00  0.00    -0.350 N 
ATOM      5  H   UNL     1      -0.028   7.832   1.405  1.00  0.00     0.345 HD
ATOM      6  H   UNL     1       0.398   7.057  -0.023  1.00  0.00     0.345 HD
ATOM      7  H   UNL     1       0.673   8.738   0.145  1.00  0.00     0.345 HD
ENDBRANCH   3   4
BRANCH   3   8
ATOM      8  C   UNL     1       2.548   6.256   0.581  1.00  0.00     0.099 C 
ATOM      9  O   UNL     1       1.785   5.499  -0.076  1.00  0.00    -0.544 OA
ATOM     10  O   UNL     1       3.883   5.909   0.744  1.00  0.00    -0.544 OA
ENDBRANCH   3   8
ENDBRANCH   1   3
BRANCH   1  11
ATOM     11  C   UNL     1       0.743   6.725   3.276  1.00  0.00     0.006 C 
ATOM     12  C   UNL     1      -0.134   7.602   4.173  1.00  0.00     0.004 C 
ENDBRANCH   1  11
TORSDOF 4
ENDMDL
MODEL 7
REMARK VINA RESULT:    -3.226      2.152      2.846
REMARK INTER + INTRA:          -3.787
REMARK INTER:                  -3.664
REMARK INTRA:                  -0.123
REMARK UNBOUND:                 0.099
REMARK SMILES CC[C@H](C)[C@H]([NH3+])C(=O)[O-]
REMARK SMILES IDX 3 1 4 2 5 3 6 4 7 8 8 9 9 10 2 11 1 12
REMARK H PARENT 6 5 6 6 6 7
REMARK Flexibility Score: inf
ROOT
ATOM      1  C   UNL     1       3.503   6.718   1.691  1.00  0.00     0.050 C 
ATOM      2  C   UNL     1       4.898   6.283   1.189  1.00  0.00     0.014 C 
ENDROOT
BRANCH   1   3
ATOM      3  C   UNL     1       2.553   6.998   0.482  1.00  0.00     0.230 C 
BRANCH   3   4
ATOM      4  N   UNL     1       1.944   8.337   0.547  1.00  0.00    -0.350 N 
ATOM      5  H   UNL     1       2.674   9.058   0.758  1.00  0.00     0.345 HD
ATOM      6  H   UNL     1       1.245   8.379   1.323  1.00  0.00     0.345 HD
ATOM      7  H   UNL     1       1.482   8.579  -0.360  1.00  0.00     0.345 HD
ENDBRANCH   3   4
BRANCH   3   8
ATOM      8  C   UNL     1       1.460   5.960   0.401  1.00  0.00     0.099 C 
ATOM      9  O   UNL     1       0.817   5.629   1.432  1.00  0.00    -0.544 OA
ATOM     10  O   UNL     1       1.158   5.362  -0.816  1.00  0.00    -0.544 OA
ENDBRANCH   3   8
ENDBRANCH   1   3
BRANCH   1  11
ATOM     11  C   UNL     1       3.620   7.954   2.623  1.00  0.00     0.006 C 
ATOM     12  C   UNL     1       2.959   7.756   3.990  1.00  0.00     0.004 C 
ENDBRANCH   1  11
TORSDOF 4
ENDMDL
MODEL 8
REMARK VINA RESULT:    -3.223      2.528      3.523
REMARK INTER + INTRA:          -3.783
REMARK INTER:                  -3.655
REMARK INTRA:                  -0.128
REMARK UNBOUND:                 0.099
REMARK SMILES CC[C@H](C)[C@H]([NH3+])C(=O)[O-]
REMARK SMILES IDX 3 1 4 2 5 3 6 4 7 8 8 9 9 10 2 11 1 12
REMARK H PARENT 6 5 6 6 6 7
REMARK Flexibility Score: inf
ROOT
ATOM      1  C   UNL     1       1.837   7.886   1.017  1.00  0.00     0.050 C 
ATOM      2  C   UNL     1       2.716   8.998   0.403  1.00  0.00     0.014 C 
ENDROOT
BRANCH   1   3
ATOM      3  C   UNL     1       1.918   7.929   2.578  1.00  0.00     0.230 C 
BRANCH   3   4
ATOM      4  N   UNL     1       3.064   7.166   3.100  1.00  0.00    -0.350 N 
ATOM      5  H   UNL     1       3.960   7.563   2.734  1.00  0.00     0.345 HD
ATOM      6  H   UNL     1       3.017   6.174   2.774  1.00  0.00     0.345 HD
ATOM      7  H   UNL     1       3.083   7.195   4.146  1.00  0.00     0.345 HD
ENDBRANCH   3   4
BRANCH   3   8
ATOM      8  C   UNL     1       0.647   7.402   3.200  1.00  0.00     0.099 C 
ATOM      9  O   UNL     1       0.535   6.180   3.484  1.00  0.00    -0.544 OA
ATOM     10  O   UNL     1      -0.409   8.266   3.462  1.00  0.00    -0.544 OA
ENDBRANCH   3   8
ENDBRANCH   1   3
BRANCH   1  11
ATOM     11  C   UNL     1       2.249   6.496   0.463  1.00  0.00     0.006 C 
ATOM     12  C   UNL     1       1.074   5.684  -0.090  1.00  0.00     0.004 C 
ENDBRANCH   1  11
TORSDOF 4
ENDMDL
MODEL 9
REMARK VINA RESULT:    -2.713      7.377      8.819
REMARK INTER + INTRA:          -3.168
REMARK INTER:                  -3.097
REMARK INTRA:                  -0.071
REMARK UNBOUND:                 0.099
REMARK SMILES CC[C@H](C)[C@H]([NH3+])C(=O)[O-]
REMARK SMILES IDX 3 1 4 2 5 3 6 4 7 8 8 9 9 10 2 11 1 12
REMARK H PARENT 6 5 6 6 6 7
REMARK Flexibility Score: inf
ROOT
ATOM      1  C   UNL     1       9.363   3.973  -3.094  1.00  0.00     0.050 C 
ATOM      2  C   UNL     1      10.076   4.428  -4.387  1.00  0.00     0.014 C 
ENDROOT
BRANCH   1   3
ATOM      3  C   UNL     1       9.208   5.176  -2.107  1.00  0.00     0.230 C 
BRANCH   3   4
ATOM      4  N   UNL     1       9.732   4.870  -0.766  1.00  0.00    -0.350 N 
ATOM      5  H   UNL     1      10.116   3.897  -0.740  1.00  0.00     0.345 HD
ATOM      6  H   UNL     1       8.963   4.910  -0.059  1.00  0.00     0.345 HD
ATOM      7  H   UNL     1      10.491   5.540  -0.503  1.00  0.00     0.345 HD
ENDBRANCH   3   4
BRANCH   3   8
ATOM      8  C   UNL     1       7.762   5.597  -1.990  1.00  0.00     0.099 C 
ATOM      9  O   UNL     1       7.131   5.996  -3.004  1.00  0.00    -0.544 OA
ATOM     10  O   UNL     1       7.122   5.547  -0.759  1.00  0.00    -0.544 OA
ENDBRANCH   3   8
ENDBRANCH   1   3
BRANCH   1  11
ATOM     11  C   UNL     1      10.125   2.791  -2.438  1.00  0.00     0.006 C 
ATOM     12  C   UNL     1      10.019   1.482  -3.224  1.00  0.00     0.004 C 
ENDBRANCH   1  11
TORSDOF 4
ENDMDL
