MODEL 1
REMARK VINA RESULT:    -3.635      0.000      0.000
REMARK INTER + INTRA:          -4.390
REMARK INTER:                  -4.273
REMARK INTRA:                  -0.117
REMARK UNBOUND:                -0.117
REMARK SMILES O=C([O-])CCC(=O)[O-]
REMARK SMILES IDX 4 1 2 2 1 3 3 4 5 5 6 6 7 7 8 8
REMARK H PARENT
REMARK Flexibility Score: inf
ROOT
ATOM      1  C   UNL     1      76.250  82.859  74.994  1.00  0.00     0.059 C 
ENDROOT
BRANCH   1   2
ATOM      2  C   UNL     1      77.131  84.059  74.832  1.00  0.00     0.042 C 
ATOM      3  O   UNL     1      76.638  85.217  74.864  1.00  0.00    -0.550 OA
ATOM      4  O   UNL     1      78.491  83.895  74.604  1.00  0.00    -0.550 OA
ENDBRANCH   1   2
BRANCH   1   5
ATOM      5  C   UNL     1      75.192  83.076  76.081  1.00  0.00     0.059 C 
BRANCH   5   6
ATOM      6  C   UNL     1      73.815  83.182  75.499  1.00  0.00     0.042 C 
ATOM      7  O   UNL     1      73.662  83.435  74.275  1.00  0.00    -0.550 OA
ATOM      8  O   UNL     1      72.702  82.960  76.300  1.00  0.00    -0.550 OA
ENDBRANCH   5   6
ENDBRANCH   1   5
TORSDOF 3
ENDMDL
MODEL 2
REMARK VINA RESULT:    -3.626      0.043      4.010
REMARK INTER + INTRA:          -4.379
REMARK INTER:                  -4.260
REMARK INTRA:                  -0.119
REMARK UNBOUND:                -0.117
REMARK SMILES O=C([O-])CCC(=O)[O-]
REMARK SMILES IDX 4 1 2 2 1 3 3 4 5 5 6 6 7 7 8 8
REMARK H PARENT
REMARK Flexibility Score: inf
ROOT
ATOM      1  C   UNL     1      75.226  83.124  76.093  1.00  0.00     0.059 C 
ENDROOT
BRANCH   1   2
ATOM      2  C   UNL     1      73.846  83.171  75.513  1.00  0.00     0.042 C 
ATOM      3  O   UNL     1      73.679  83.439  74.294  1.00  0.00    -0.550 OA
ATOM      4  O   UNL     1      72.742  82.959  76.329  1.00  0.00    -0.550 OA
ENDBRANCH   1   2
BRANCH   1   5
ATOM      5  C   UNL     1      76.283  82.861  75.017  1.00  0.00     0.059 C 
BRANCH   5   6
ATOM      6  C   UNL     1      77.163  84.055  74.803  1.00  0.00     0.042 C 
ATOM      7  O   UNL     1      76.679  85.217  74.860  1.00  0.00    -0.550 OA
ATOM      8  O   UNL     1      78.524  83.887  74.582  1.00  0.00    -0.550 OA
ENDBRANCH   5   6
ENDBRANCH   1   5
TORSDOF 3
ENDMDL
MODEL 3
REMARK VINA RESULT:    -3.608      2.023      3.804
REMARK INTER + INTRA:          -4.357
REMARK INTER:                  -4.265
REMARK INTRA:                  -0.092
REMARK UNBOUND:                -0.117
REMARK SMILES O=C([O-])CCC(=O)[O-]
REMARK SMILES IDX 4 1 2 2 1 3 3 4 5 5 6 6 7 7 8 8
REMARK H PARENT
REMARK Flexibility Score: inf
ROOT
ATOM      1  C   UNL     1      75.511  82.996  76.434  1.00  0.00     0.059 C 
ENDROOT
BRANCH   1   2
ATOM      2  C   UNL     1      76.197  82.242  77.532  1.00  0.00     0.042 C 
ATOM      3  O   UNL     1      75.688  82.193  78.682  1.00  0.00    -0.550 OA
ATOM      4  O   UNL     1      77.421  81.630  77.293  1.00  0.00    -0.550 OA
ENDBRANCH   1   2
BRANCH   1   5
ATOM      5  C   UNL     1      76.253  82.855  75.102  1.00  0.00     0.059 C 
BRANCH   5   6
ATOM      6  C   UNL     1      77.111  84.051  74.818  1.00  0.00     0.042 C 
ATOM      7  O   UNL     1      76.618  85.209  74.859  1.00  0.00    -0.550 OA
ATOM      8  O   UNL     1      78.465  83.889  74.553  1.00  0.00    -0.550 OA
ENDBRANCH   5   6
ENDBRANCH   1   5
TORSDOF 3
ENDMDL
MODEL 4
REMARK VINA RESULT:    -3.586      2.040      2.774
REMARK INTER + INTRA:          -4.332
REMARK INTER:                  -4.243
REMARK INTRA:                  -0.090
REMARK UNBOUND:                -0.117
REMARK SMILES O=C([O-])CCC(=O)[O-]
REMARK SMILES IDX 4 1 2 2 1 3 3 4 5 5 6 6 7 7 8 8
REMARK H PARENT
REMARK Flexibility Score: inf
ROOT
ATOM      1  C   UNL     1      76.354  82.801  75.150  1.00  0.00     0.059 C 
ENDROOT
BRANCH   1   2
ATOM      2  C   UNL     1      77.147  84.044  74.882  1.00  0.00     0.042 C 
ATOM      3  O   UNL     1      76.586  85.171  74.903  1.00  0.00    -0.550 OA
ATOM      4  O   UNL     1      78.497  83.951  74.569  1.00  0.00    -0.550 OA
ENDBRANCH   1   2
BRANCH   1   5
ATOM      5  C   UNL     1      75.520  82.927  76.428  1.00  0.00     0.059 C 
BRANCH   5   6
ATOM      6  C   UNL     1      76.195  82.273  77.596  1.00  0.00     0.042 C 
ATOM      7  O   UNL     1      75.628  82.240  78.719  1.00  0.00    -0.550 OA
ATOM      8  O   UNL     1      77.432  81.663  77.431  1.00  0.00    -0.550 OA
ENDBRANCH   5   6
ENDBRANCH   1   5
TORSDOF 3
ENDMDL
MODEL 5
REMARK VINA RESULT:    -3.391      0.785      1.729
REMARK INTER + INTRA:          -4.103
REMARK INTER:                  -4.054
REMARK INTRA:                  -0.049
REMARK UNBOUND:                -0.117
REMARK SMILES O=C([O-])CCC(=O)[O-]
REMARK SMILES IDX 4 1 2 2 1 3 3 4 5 5 6 6 7 7 8 8
REMARK H PARENT
REMARK Flexibility Score: inf
ROOT
ATOM      1  C   UNL     1      75.767  83.243  75.854  1.00  0.00     0.059 C 
ENDROOT
BRANCH   1   2
ATOM      2  C   UNL     1      76.708  83.984  74.955  1.00  0.00     0.042 C 
ATOM      3  O   UNL     1      77.617  83.367  74.340  1.00  0.00    -0.550 OA
ATOM      4  O   UNL     1      76.607  85.364  74.831  1.00  0.00    -0.550 OA
ENDBRANCH   1   2
BRANCH   1   5
ATOM      5  C   UNL     1      74.764  82.405  75.054  1.00  0.00     0.059 C 
BRANCH   5   6
ATOM      6  C   UNL     1      73.362  82.903  75.233  1.00  0.00     0.042 C 
ATOM      7  O   UNL     1      72.861  82.987  76.385  1.00  0.00    -0.550 OA
ATOM      8  O   UNL     1      72.624  83.316  74.131  1.00  0.00    -0.550 OA
ENDBRANCH   5   6
ENDBRANCH   1   5
TORSDOF 3
ENDMDL
MODEL 6
REMARK VINA RESULT:    -3.292      1.535      2.012
REMARK INTER + INTRA:          -3.986
REMARK INTER:                  -3.866
REMARK INTRA:                  -0.120
REMARK UNBOUND:                -0.117
REMARK SMILES O=C([O-])CCC(=O)[O-]
REMARK SMILES IDX 4 1 2 2 1 3 3 4 5 5 6 6 7 7 8 8
REMARK H PARENT
REMARK Flexibility Score: inf
ROOT
ATOM      1  C   UNL     1      75.436  83.586  75.797  1.00  0.00     0.059 C 
ENDROOT
BRANCH   1   2
ATOM      2  C   UNL     1      76.582  84.104  74.984  1.00  0.00     0.042 C 
ATOM      3  O   UNL     1      76.732  85.343  74.818  1.00  0.00    -0.550 OA
ATOM      4  O   UNL     1      77.459  83.216  74.375  1.00  0.00    -0.550 OA
ENDBRANCH   1   2
BRANCH   1   5
ATOM      5  C   UNL     1      74.265  83.149  74.911  1.00  0.00     0.059 C 
BRANCH   5   6
ATOM      6  C   UNL     1      74.244  81.664  74.716  1.00  0.00     0.042 C 
ATOM      7  O   UNL     1      73.723  80.917  75.586  1.00  0.00    -0.550 OA
ATOM      8  O   UNL     1      74.761  81.107  73.553  1.00  0.00    -0.550 OA
ENDBRANCH   5   6
ENDBRANCH   1   5
TORSDOF 3
ENDMDL
MODEL 7
REMARK VINA RESULT:    -3.278     12.620     13.554
REMARK INTER + INTRA:          -3.969
REMARK INTER:                  -3.803
REMARK INTRA:                  -0.166
REMARK UNBOUND:                -0.117
REMARK SMILES O=C([O-])CCC(=O)[O-]
REMARK SMILES IDX 4 1 2 2 1 3 3 4 5 5 6 6 7 7 8 8
REMARK H PARENT
REMARK Flexibility Score: inf
ROOT
ATOM      1  C   UNL     1      71.444  95.738  70.491  1.00  0.00     0.059 C 
ENDROOT
BRANCH   1   2
ATOM      2  C   UNL     1      71.544  95.658  71.983  1.00  0.00     0.042 C 
ATOM      3  O   UNL     1      71.822  96.686  72.656  1.00  0.00    -0.550 OA
ATOM      4  O   UNL     1      71.373  94.439  72.627  1.00  0.00    -0.550 OA
ENDBRANCH   1   2
BRANCH   1   5
ATOM      5  C   UNL     1      72.657  96.447  69.879  1.00  0.00     0.059 C 
BRANCH   5   6
ATOM      6  C   UNL     1      73.896  95.610  69.983  1.00  0.00     0.042 C 
ATOM      7  O   UNL     1      74.868  96.001  70.681  1.00  0.00    -0.550 OA
ATOM      8  O   UNL     1      73.959  94.378  69.344  1.00  0.00    -0.550 OA
ENDBRANCH   5   6
ENDBRANCH   1   5
TORSDOF 3
ENDMDL
MODEL 8
REMARK VINA RESULT:    -3.275      1.977      4.468
REMARK INTER + INTRA:          -3.967
REMARK INTER:                  -3.888
REMARK INTRA:                  -0.078
REMARK UNBOUND:                -0.117
REMARK SMILES O=C([O-])CCC(=O)[O-]
REMARK SMILES IDX 4 1 2 2 1 3 3 4 5 5 6 6 7 7 8 8
REMARK H PARENT
REMARK Flexibility Score: inf
ROOT
ATOM      1  C   UNL     1      77.245  82.900  74.882  1.00  0.00     0.059 C 
ENDROOT
BRANCH   1   2
ATOM      2  C   UNL     1      76.356  84.098  75.018  1.00  0.00     0.042 C 
ATOM      3  O   UNL     1      76.813  85.254  74.820  1.00  0.00    -0.550 OA
ATOM      4  O   UNL     1      75.031  83.938  75.406  1.00  0.00    -0.550 OA
ENDBRANCH   1   2
BRANCH   1   5
ATOM      5  C   UNL     1      78.680  83.300  74.525  1.00  0.00     0.059 C 
BRANCH   5   6
ATOM      6  C   UNL     1      79.652  82.874  75.583  1.00  0.00     0.042 C 
ATOM      7  O   UNL     1      80.864  83.206  75.502  1.00  0.00    -0.550 OA
ATOM      8  O   UNL     1      79.211  82.146  76.681  1.00  0.00    -0.550 OA
ENDBRANCH   5   6
ENDBRANCH   1   5
TORSDOF 3
ENDMDL
MODEL 9
REMARK VINA RESULT:    -3.093      9.816     11.377
REMARK INTER + INTRA:          -3.752
REMARK INTER:                  -3.564
REMARK INTRA:                  -0.188
REMARK UNBOUND:                -0.117
REMARK SMILES O=C([O-])CCC(=O)[O-]
REMARK SMILES IDX 4 1 2 2 1 3 3 4 5 5 6 6 7 7 8 8
REMARK H PARENT
REMARK Flexibility Score: inf
ROOT
ATOM      1  C   UNL     1      78.199  92.597  77.434  1.00  0.00     0.059 C 
ENDROOT
BRANCH   1   2
ATOM      2  C   UNL     1      76.987  92.904  78.258  1.00  0.00     0.042 C 
ATOM      3  O   UNL     1      76.580  92.082  79.120  1.00  0.00    -0.550 OA
ATOM      4  O   UNL     1      76.282  94.082  78.042  1.00  0.00    -0.550 OA
ENDBRANCH   1   2
BRANCH   1   5
ATOM      5  C   UNL     1      79.287  93.661  77.609  1.00  0.00     0.059 C 
BRANCH   5   6
ATOM      6  C   UNL     1      79.684  93.814  79.046  1.00  0.00     0.042 C 
ATOM      7  O   UNL     1      80.233  92.860  79.657  1.00  0.00    -0.550 OA
ATOM      8  O   UNL     1      79.485  95.025  79.697  1.00  0.00    -0.550 OA
ENDBRANCH   5   6
ENDBRANCH   1   5
TORSDOF 3
ENDMDL
