MODEL 1
REMARK VINA RESULT:    -4.731      0.000      0.000
REMARK INTER + INTRA:          -7.250
REMARK INTER:                  -6.943
REMARK INTRA:                  -0.306
REMARK UNBOUND:                -0.306
REMARK SMILES O=C([O-])CCCCCCCC(=O)[O-]
REMARK SMILES IDX 7 1 6 2 5 3 4 4 2 5 1 6 3 7 8 8 9 9 10 10 11 11 12 12 13 13
REMARK H PARENT
REMARK Flexibility Score: inf
ROOT
ATOM      1  C   UNL     1       4.192 -37.042  19.791  1.00  0.00     0.000 C 
ENDROOT
BRANCH   1   2
ATOM      2  C   UNL     1       2.742 -37.542  19.714  1.00  0.00     0.000 C 
BRANCH   2   3
ATOM      3  C   UNL     1       2.256 -37.591  18.261  1.00  0.00     0.006 C 
BRANCH   3   4
ATOM      4  C   UNL     1       3.304 -37.009  17.310  1.00  0.00     0.053 C 
BRANCH   4   5
ATOM      5  C   UNL     1       2.877 -37.186  15.887  1.00  0.00     0.041 C 
ATOM      6  O   UNL     1       1.791 -36.690  15.485  1.00  0.00    -0.550 OA
ATOM      7  O   UNL     1       3.653 -37.939  15.015  1.00  0.00    -0.550 OA
ENDBRANCH   4   5
ENDBRANCH   3   4
ENDBRANCH   2   3
ENDBRANCH   1   2
BRANCH   1   8
ATOM      8  C   UNL     1       4.357 -35.840  20.736  1.00  0.00     0.000 C 
BRANCH   8   9
ATOM      9  C   UNL     1       5.796 -35.692  21.258  1.00  0.00     0.006 C 
BRANCH   9  10
ATOM     10  C   UNL     1       6.020 -36.467  22.563  1.00  0.00     0.053 C 
BRANCH  10  11
ATOM     11  C   UNL     1       5.715 -35.629  23.768  1.00  0.00     0.041 C 
ATOM     12  O   UNL     1       5.764 -34.373  23.697  1.00  0.00    -0.550 OA
ATOM     13  O   UNL     1       5.347 -36.238  24.962  1.00  0.00    -0.550 OA
ENDBRANCH  10  11
ENDBRANCH   9  10
ENDBRANCH   8   9
ENDBRANCH   1   8
TORSDOF 8
ENDMDL
MODEL 2
REMARK VINA RESULT:    -4.701      0.196      1.275
REMARK INTER + INTRA:          -7.206
REMARK INTER:                  -6.908
REMARK INTRA:                  -0.297
REMARK UNBOUND:                -0.306
REMARK SMILES O=C([O-])CCCCCCCC(=O)[O-]
REMARK SMILES IDX 7 1 6 2 5 3 4 4 2 5 1 6 3 7 8 8 9 9 10 10 11 11 12 12 13 13
REMARK H PARENT
REMARK Flexibility Score: inf
ROOT
ATOM      1  C   UNL     1       4.172 -37.089  19.673  1.00  0.00     0.000 C 
ENDROOT
BRANCH   1   2
ATOM      2  C   UNL     1       2.715 -37.566  19.596  1.00  0.00     0.000 C 
BRANCH   2   3
ATOM      3  C   UNL     1       2.226 -37.606  18.144  1.00  0.00     0.006 C 
BRANCH   3   4
ATOM      4  C   UNL     1       3.192 -36.862  17.218  1.00  0.00     0.053 C 
BRANCH   4   5
ATOM      5  C   UNL     1       2.916 -37.206  15.788  1.00  0.00     0.041 C 
ATOM      6  O   UNL     1       3.648 -38.032  15.182  1.00  0.00    -0.550 OA
ATOM      7  O   UNL     1       1.879 -36.578  15.109  1.00  0.00    -0.550 OA
ENDBRANCH   4   5
ENDBRANCH   3   4
ENDBRANCH   2   3
ENDBRANCH   1   2
BRANCH   1   8
ATOM      8  C   UNL     1       4.347 -35.853  20.570  1.00  0.00     0.000 C 
BRANCH   8   9
ATOM      9  C   UNL     1       5.745 -35.778  21.208  1.00  0.00     0.006 C 
BRANCH   9  10
ATOM     10  C   UNL     1       5.834 -36.599  22.502  1.00  0.00     0.053 C 
BRANCH  10  11
ATOM     11  C   UNL     1       5.754 -35.729  23.720  1.00  0.00     0.041 C 
ATOM     12  O   UNL     1       5.565 -36.242  24.854  1.00  0.00    -0.550 OA
ATOM     13  O   UNL     1       5.917 -34.354  23.604  1.00  0.00    -0.550 OA
ENDBRANCH  10  11
ENDBRANCH   9  10
ENDBRANCH   8   9
ENDBRANCH   1   8
TORSDOF 8
ENDMDL
MODEL 3
REMARK VINA RESULT:    -4.659      0.157      7.193
REMARK INTER + INTRA:          -7.143
REMARK INTER:                  -6.836
REMARK INTRA:                  -0.308
REMARK UNBOUND:                -0.306
REMARK SMILES O=C([O-])CCCCCCCC(=O)[O-]
REMARK SMILES IDX 7 1 6 2 5 3 4 4 2 5 1 6 3 7 8 8 9 9 10 10 11 11 12 12 13 13
REMARK H PARENT
REMARK Flexibility Score: inf
ROOT
ATOM      1  C   UNL     1       4.230 -37.056  19.864  1.00  0.00     0.000 C 
ENDROOT
BRANCH   1   2
ATOM      2  C   UNL     1       4.406 -35.758  20.665  1.00  0.00     0.000 C 
BRANCH   2   3
ATOM      3  C   UNL     1       5.788 -35.704  21.325  1.00  0.00     0.006 C 
BRANCH   3   4
ATOM      4  C   UNL     1       5.819 -36.540  22.607  1.00  0.00     0.053 C 
BRANCH   4   5
ATOM      5  C   UNL     1       5.812 -35.653  23.812  1.00  0.00     0.041 C 
ATOM      6  O   UNL     1       5.736 -36.152  24.966  1.00  0.00    -0.550 OA
ATOM      7  O   UNL     1       5.841 -34.272  23.660  1.00  0.00    -0.550 OA
ENDBRANCH   4   5
ENDBRANCH   3   4
ENDBRANCH   2   3
ENDBRANCH   1   2
BRANCH   1   8
ATOM      8  C   UNL     1       2.760 -37.496  19.761  1.00  0.00     0.000 C 
BRANCH   8   9
ATOM      9  C   UNL     1       2.290 -37.649  18.304  1.00  0.00     0.006 C 
BRANCH   9  10
ATOM     10  C   UNL     1       3.324 -37.117  17.303  1.00  0.00     0.053 C 
BRANCH  10  11
ATOM     11  C   UNL     1       2.830 -37.205  15.892  1.00  0.00     0.041 C 
ATOM     12  O   UNL     1       1.730 -36.684  15.571  1.00  0.00    -0.550 OA
ATOM     13  O   UNL     1       3.600 -37.839  14.924  1.00  0.00    -0.550 OA
ENDBRANCH  10  11
ENDBRANCH   9  10
ENDBRANCH   8   9
ENDBRANCH   1   8
TORSDOF 8
ENDMDL
MODEL 4
REMARK VINA RESULT:    -4.263      0.837      7.115
REMARK INTER + INTRA:          -6.563
REMARK INTER:                  -6.245
REMARK INTRA:                  -0.318
REMARK UNBOUND:                -0.306
REMARK SMILES O=C([O-])CCCCCCCC(=O)[O-]
REMARK SMILES IDX 7 1 6 2 5 3 4 4 2 5 1 6 3 7 8 8 9 9 10 10 11 11 12 12 13 13
REMARK H PARENT
REMARK Flexibility Score: inf
ROOT
ATOM      1  C   UNL     1       2.514 -37.601  19.728  1.00  0.00     0.000 C 
ENDROOT
BRANCH   1   2
ATOM      2  C   UNL     1       3.989 -37.407  20.110  1.00  0.00     0.000 C 
BRANCH   2   3
ATOM      3  C   UNL     1       4.202 -36.061  20.812  1.00  0.00     0.006 C 
BRANCH   3   4
ATOM      4  C   UNL     1       5.662 -35.887  21.237  1.00  0.00     0.053 C 
BRANCH   4   5
ATOM      5  C   UNL     1       5.779 -35.904  22.729  1.00  0.00     0.041 C 
ATOM      6  O   UNL     1       5.974 -36.990  23.337  1.00  0.00    -0.550 OA
ATOM      7  O   UNL     1       5.624 -34.729  23.453  1.00  0.00    -0.550 OA
ENDBRANCH   4   5
ENDBRANCH   3   4
ENDBRANCH   2   3
ENDBRANCH   1   2
BRANCH   1   8
ATOM      8  C   UNL     1       2.282 -37.555  18.209  1.00  0.00     0.000 C 
BRANCH   8   9
ATOM      9  C   UNL     1       3.463 -36.929  17.449  1.00  0.00     0.006 C 
BRANCH   9  10
ATOM     10  C   UNL     1       3.000 -36.087  16.253  1.00  0.00     0.053 C 
BRANCH  10  11
ATOM     11  C   UNL     1       2.908 -36.903  15.000  1.00  0.00     0.041 C 
ATOM     12  O   UNL     1       3.683 -37.879  14.819  1.00  0.00    -0.550 OA
ATOM     13  O   UNL     1       1.945 -36.602  14.044  1.00  0.00    -0.550 OA
ENDBRANCH  10  11
ENDBRANCH   9  10
ENDBRANCH   8   9
ENDBRANCH   1   8
TORSDOF 8
ENDMDL
MODEL 5
REMARK VINA RESULT:    -3.124      1.496      7.153
REMARK INTER + INTRA:          -4.891
REMARK INTER:                  -4.725
REMARK INTRA:                  -0.166
REMARK UNBOUND:                -0.306
REMARK SMILES O=C([O-])CCCCCCCC(=O)[O-]
REMARK SMILES IDX 7 1 6 2 5 3 4 4 2 5 1 6 3 7 8 8 9 9 10 10 11 11 12 12 13 13
REMARK H PARENT
REMARK Flexibility Score: inf
ROOT
ATOM      1  C   UNL     1       4.067 -35.621  20.918  1.00  0.00     0.000 C 
ENDROOT
BRANCH   1   2
ATOM      2  C   UNL     1       5.354 -35.705  21.752  1.00  0.00     0.000 C 
BRANCH   2   3
ATOM      3  C   UNL     1       5.133 -35.142  23.161  1.00  0.00     0.006 C 
BRANCH   3   4
ATOM      4  C   UNL     1       6.125 -35.748  24.158  1.00  0.00     0.053 C 
BRANCH   4   5
ATOM      5  C   UNL     1       5.555 -36.984  24.778  1.00  0.00     0.041 C 
ATOM      6  O   UNL     1       4.984 -36.926  25.899  1.00  0.00    -0.550 OA
ATOM      7  O   UNL     1       5.695 -38.211  24.140  1.00  0.00    -0.550 OA
ENDBRANCH   4   5
ENDBRANCH   3   4
ENDBRANCH   2   3
ENDBRANCH   1   2
BRANCH   1   8
ATOM      8  C   UNL     1       3.908 -36.804  19.949  1.00  0.00     0.000 C 
BRANCH   8   9
ATOM      9  C   UNL     1       4.053 -36.385  18.476  1.00  0.00     0.006 C 
BRANCH   9  10
ATOM     10  C   UNL     1       3.481 -37.437  17.517  1.00  0.00     0.053 C 
BRANCH  10  11
ATOM     11  C   UNL     1       2.027 -37.207  17.240  1.00  0.00     0.041 C 
ATOM     12  O   UNL     1       1.168 -37.420  18.136  1.00  0.00    -0.550 OA
ATOM     13  O   UNL     1       1.623 -36.728  16.000  1.00  0.00    -0.550 OA
ENDBRANCH  10  11
ENDBRANCH   9  10
ENDBRANCH   8   9
ENDBRANCH   1   8
TORSDOF 8
ENDMDL
MODEL 6
REMARK VINA RESULT:    -3.104      2.048      3.004
REMARK INTER + INTRA:          -4.862
REMARK INTER:                  -4.519
REMARK INTRA:                  -0.343
REMARK UNBOUND:                -0.306
REMARK SMILES O=C([O-])CCCCCCCC(=O)[O-]
REMARK SMILES IDX 7 1 6 2 5 3 4 4 2 5 1 6 3 7 8 8 9 9 10 10 11 11 12 12 13 13
REMARK H PARENT
REMARK Flexibility Score: inf
ROOT
ATOM      1  C   UNL     1       5.928 -35.509  21.274  1.00  0.00     0.000 C 
ENDROOT
BRANCH   1   2
ATOM      2  C   UNL     1       5.385 -36.288  20.067  1.00  0.00     0.000 C 
BRANCH   2   3
ATOM      3  C   UNL     1       3.857 -36.182  19.989  1.00  0.00     0.006 C 
BRANCH   3   4
ATOM      4  C   UNL     1       3.214 -37.567  19.877  1.00  0.00     0.053 C 
BRANCH   4   5
ATOM      5  C   UNL     1       2.337 -37.641  18.667  1.00  0.00     0.041 C 
ATOM      6  O   UNL     1       2.807 -37.381  17.527  1.00  0.00    -0.550 OA
ATOM      7  O   UNL     1       0.989 -37.950  18.802  1.00  0.00    -0.550 OA
ENDBRANCH   4   5
ENDBRANCH   3   4
ENDBRANCH   2   3
ENDBRANCH   1   2
BRANCH   1   8
ATOM      8  C   UNL     1       5.185 -35.839  22.579  1.00  0.00     0.000 C 
BRANCH   8   9
ATOM      9  C   UNL     1       6.120 -36.387  23.670  1.00  0.00     0.006 C 
BRANCH   9  10
ATOM     10  C   UNL     1       5.503 -36.276  25.070  1.00  0.00     0.053 C 
BRANCH  10  11
ATOM     11  C   UNL     1       4.853 -37.557  25.496  1.00  0.00     0.041 C 
ATOM     12  O   UNL     1       3.891 -37.541  26.308  1.00  0.00    -0.550 OA
ATOM     13  O   UNL     1       5.292 -38.766  24.971  1.00  0.00    -0.550 OA
ENDBRANCH  10  11
ENDBRANCH   9  10
ENDBRANCH   8   9
ENDBRANCH   1   8
TORSDOF 8
ENDMDL
MODEL 7
REMARK VINA RESULT:    -2.927      2.178      5.944
REMARK INTER + INTRA:          -4.602
REMARK INTER:                  -4.172
REMARK INTRA:                  -0.430
REMARK UNBOUND:                -0.306
REMARK SMILES O=C([O-])CCCCCCCC(=O)[O-]
REMARK SMILES IDX 7 1 6 2 5 3 4 4 2 5 1 6 3 7 8 8 9 9 10 10 11 11 12 12 13 13
REMARK H PARENT
REMARK Flexibility Score: inf
ROOT
ATOM      1  C   UNL     1       3.987 -35.323  18.480  1.00  0.00     0.000 C 
ENDROOT
BRANCH   1   2
ATOM      2  C   UNL     1       5.355 -34.646  18.642  1.00  0.00     0.000 C 
BRANCH   2   3
ATOM      3  C   UNL     1       6.119 -35.231  19.836  1.00  0.00     0.006 C 
BRANCH   3   4
ATOM      4  C   UNL     1       5.246 -36.218  20.616  1.00  0.00     0.053 C 
BRANCH   4   5
ATOM      5  C   UNL     1       5.245 -35.877  22.073  1.00  0.00     0.041 C 
ATOM      6  O   UNL     1       4.485 -34.973  22.511  1.00  0.00    -0.550 OA
ATOM      7  O   UNL     1       6.116 -36.524  22.941  1.00  0.00    -0.550 OA
ENDBRANCH   4   5
ENDBRANCH   3   4
ENDBRANCH   2   3
ENDBRANCH   1   2
BRANCH   1   8
ATOM      8  C   UNL     1       3.680 -35.703  17.022  1.00  0.00     0.000 C 
BRANCH   8   9
ATOM      9  C   UNL     1       2.974 -37.064  16.901  1.00  0.00     0.006 C 
BRANCH   9  10
ATOM     10  C   UNL     1       3.016 -37.856  18.214  1.00  0.00     0.053 C 
BRANCH  10  11
ATOM     11  C   UNL     1       1.736 -37.726  18.984  1.00  0.00     0.041 C 
ATOM     12  O   UNL     1       1.760 -37.486  20.219  1.00  0.00    -0.550 OA
ATOM     13  O   UNL     1       0.517 -37.843  18.328  1.00  0.00    -0.550 OA
ENDBRANCH  10  11
ENDBRANCH   9  10
ENDBRANCH   8   9
ENDBRANCH   1   8
TORSDOF 8
ENDMDL
MODEL 8
REMARK VINA RESULT:    -2.682      1.706      2.472
REMARK INTER + INTRA:          -4.242
REMARK INTER:                  -3.744
REMARK INTRA:                  -0.498
REMARK UNBOUND:                -0.306
REMARK SMILES O=C([O-])CCCCCCCC(=O)[O-]
REMARK SMILES IDX 7 1 6 2 5 3 4 4 2 5 1 6 3 7 8 8 9 9 10 10 11 11 12 12 13 13
REMARK H PARENT
REMARK Flexibility Score: inf
ROOT
ATOM      1  C   UNL     1       2.007 -37.118  19.809  1.00  0.00     0.000 C 
ENDROOT
BRANCH   1   2
ATOM      2  C   UNL     1       0.873 -37.732  18.975  1.00  0.00     0.000 C 
BRANCH   2   3
ATOM      3  C   UNL     1       1.337 -38.013  17.541  1.00  0.00     0.006 C 
BRANCH   3   4
ATOM      4  C   UNL     1       1.626 -36.710  16.791  1.00  0.00     0.053 C 
BRANCH   4   5
ATOM      5  C   UNL     1       3.072 -36.633  16.413  1.00  0.00     0.041 C 
ATOM      6  O   UNL     1       3.823 -35.779  16.953  1.00  0.00    -0.550 OA
ATOM      7  O   UNL     1       3.580 -37.473  15.429  1.00  0.00    -0.550 OA
ENDBRANCH   4   5
ENDBRANCH   3   4
ENDBRANCH   2   3
ENDBRANCH   1   2
BRANCH   1   8
ATOM      8  C   UNL     1       3.102 -38.136  20.164  1.00  0.00     0.000 C 
BRANCH   8   9
ATOM      9  C   UNL     1       4.491 -37.714  19.654  1.00  0.00     0.006 C 
BRANCH   9  10
ATOM     10  C   UNL     1       5.470 -37.441  20.803  1.00  0.00     0.053 C 
BRANCH  10  11
ATOM     11  C   UNL     1       5.673 -35.973  21.025  1.00  0.00     0.041 C 
ATOM     12  O   UNL     1       5.462 -35.468  22.158  1.00  0.00    -0.550 OA
ATOM     13  O   UNL     1       6.125 -35.169  19.985  1.00  0.00    -0.550 OA
ENDBRANCH  10  11
ENDBRANCH   9  10
ENDBRANCH   8   9
ENDBRANCH   1   8
TORSDOF 8
ENDMDL
MODEL 9
REMARK VINA RESULT:    -2.502      1.825      2.928
REMARK INTER + INTRA:          -3.979
REMARK INTER:                  -3.623
REMARK INTRA:                  -0.356
REMARK UNBOUND:                -0.306
REMARK SMILES O=C([O-])CCCCCCCC(=O)[O-]
REMARK SMILES IDX 7 1 6 2 5 3 4 4 2 5 1 6 3 7 8 8 9 9 10 10 11 11 12 12 13 13
REMARK H PARENT
REMARK Flexibility Score: inf
ROOT
ATOM      1  C   UNL     1       2.020 -37.121  18.061  1.00  0.00     0.000 C 
ENDROOT
BRANCH   1   2
ATOM      2  C   UNL     1       3.185 -37.175  17.062  1.00  0.00     0.000 C 
BRANCH   2   3
ATOM      3  C   UNL     1       2.822 -36.457  15.757  1.00  0.00     0.006 C 
BRANCH   3   4
ATOM      4  C   UNL     1       2.709 -37.450  14.596  1.00  0.00     0.053 C 
BRANCH   4   5
ATOM      5  C   UNL     1       4.057 -37.988  14.234  1.00  0.00     0.041 C 
ATOM      6  O   UNL     1       4.976 -37.205  13.875  1.00  0.00    -0.550 OA
ATOM      7  O   UNL     1       4.286 -39.359  14.247  1.00  0.00    -0.550 OA
ENDBRANCH   4   5
ENDBRANCH   3   4
ENDBRANCH   2   3
ENDBRANCH   1   2
BRANCH   1   8
ATOM      8  C   UNL     1       2.324 -37.867  19.370  1.00  0.00     0.000 C 
BRANCH   8   9
ATOM      9  C   UNL     1       3.755 -37.616  19.876  1.00  0.00     0.006 C 
BRANCH   9  10
ATOM     10  C   UNL     1       3.888 -36.262  20.585  1.00  0.00     0.053 C 
BRANCH  10  11
ATOM     11  C   UNL     1       5.315 -35.940  20.908  1.00  0.00     0.041 C 
ATOM     12  O   UNL     1       6.107 -35.581  19.997  1.00  0.00    -0.550 OA
ATOM     13  O   UNL     1       5.763 -36.009  22.222  1.00  0.00    -0.550 OA
ENDBRANCH  10  11
ENDBRANCH   9  10
ENDBRANCH   8   9
ENDBRANCH   1   8
TORSDOF 8
ENDMDL
