MODEL 1
REMARK VINA RESULT:    -3.991      0.000      0.000
REMARK INTER + INTRA:          -4.589
REMARK INTER:                  -4.340
REMARK INTRA:                  -0.249
REMARK UNBOUND:                -0.249
REMARK SMILES O=C([O-])c1ccccc1O
REMARK SMILES IDX 4 1 9 2 5 3 8 4 6 5 7 6 2 7 1 8 3 9 10 10
REMARK H PARENT 10 11
REMARK Flexibility Score: inf
ROOT
ATOM      1  C   UNL     1      28.743 -21.612 -33.339  1.00  0.00     0.039 A 
ATOM      2  C   UNL     1      30.125 -21.520 -33.048  1.00  0.00     0.124 A 
ATOM      3  C   UNL     1      27.816 -21.399 -32.302  1.00  0.00     0.014 A 
ATOM      4  C   UNL     1      30.547 -21.220 -31.743  1.00  0.00     0.047 A 
ATOM      5  C   UNL     1      28.249 -21.102 -31.007  1.00  0.00     0.001 A 
ATOM      6  C   UNL     1      29.611 -21.012 -30.728  1.00  0.00     0.004 A 
ENDROOT
BRANCH   1   7
ATOM      7  C   UNL     1      28.247 -21.927 -34.703  1.00  0.00     0.075 C 
ATOM      8  O   UNL     1      27.255 -22.683 -34.876  1.00  0.00    -0.545 OA
ATOM      9  O   UNL     1      28.875 -21.385 -35.819  1.00  0.00    -0.545 OA
ENDBRANCH   1   7
BRANCH   2  10
ATOM     10  O   UNL     1      31.080 -21.723 -34.044  1.00  0.00    -0.507 OA
ATOM     11  H   UNL     1      31.267 -21.025 -34.755  1.00  0.00     0.293 HD
ENDBRANCH   2  10
TORSDOF 2
ENDMDL
MODEL 2
REMARK VINA RESULT:    -3.975      2.191      2.646
REMARK INTER + INTRA:          -4.572
REMARK INTER:                  -4.317
REMARK INTRA:                  -0.255
REMARK UNBOUND:                -0.249
REMARK SMILES O=C([O-])c1ccccc1O
REMARK SMILES IDX 4 1 9 2 5 3 8 4 6 5 7 6 2 7 1 8 3 9 10 10
REMARK H PARENT 10 11
REMARK Flexibility Score: inf
ROOT
ATOM      1  C   UNL     1      28.093 -21.997 -31.315  1.00  0.00     0.039 A 
ATOM      2  C   UNL     1      28.797 -20.995 -30.605  1.00  0.00     0.124 A 
ATOM      3  C   UNL     1      27.753 -23.189 -30.647  1.00  0.00     0.014 A 
ATOM      4  C   UNL     1      29.143 -21.202 -29.261  1.00  0.00     0.047 A 
ATOM      5  C   UNL     1      28.104 -23.383 -29.309  1.00  0.00     0.001 A 
ATOM      6  C   UNL     1      28.797 -22.391 -28.617  1.00  0.00     0.004 A 
ENDROOT
BRANCH   1   7
ATOM      7  C   UNL     1      27.704 -21.826 -32.738  1.00  0.00     0.075 C 
ATOM      8  O   UNL     1      26.538 -22.093 -33.130  1.00  0.00    -0.545 OA
ATOM      9  O   UNL     1      28.629 -21.363 -33.666  1.00  0.00    -0.545 OA
ENDBRANCH   1   7
BRANCH   2  10
ATOM     10  O   UNL     1      29.154 -19.798 -31.225  1.00  0.00    -0.507 OA
ATOM     11  H   UNL     1      29.294 -18.944 -30.697  1.00  0.00     0.293 HD
ENDBRANCH   2  10
TORSDOF 2
ENDMDL
MODEL 3
REMARK VINA RESULT:    -3.941      3.339      4.365
REMARK INTER + INTRA:          -4.535
REMARK INTER:                  -4.294
REMARK INTRA:                  -0.241
REMARK UNBOUND:                -0.249
REMARK SMILES O=C([O-])c1ccccc1O
REMARK SMILES IDX 4 1 9 2 5 3 8 4 6 5 7 6 2 7 1 8 3 9 10 10
REMARK H PARENT 10 11
REMARK Flexibility Score: inf
ROOT
ATOM      1  C   UNL     1      28.382 -23.555 -36.136  1.00  0.00     0.039 A 
ATOM      2  C   UNL     1      28.277 -22.550 -37.128  1.00  0.00     0.124 A 
ATOM      3  C   UNL     1      29.090 -23.269 -34.953  1.00  0.00     0.014 A 
ATOM      4  C   UNL     1      28.874 -21.297 -36.919  1.00  0.00     0.047 A 
ATOM      5  C   UNL     1      29.680 -22.018 -34.759  1.00  0.00     0.001 A 
ATOM      6  C   UNL     1      29.571 -21.033 -35.739  1.00  0.00     0.004 A 
ENDROOT
BRANCH   1   7
ATOM      7  C   UNL     1      27.768 -24.896 -36.309  1.00  0.00     0.075 C 
ATOM      8  O   UNL     1      26.534 -25.023 -36.521  1.00  0.00    -0.545 OA
ATOM      9  O   UNL     1      28.554 -26.041 -36.239  1.00  0.00    -0.545 OA
ENDBRANCH   1   7
BRANCH   2  10
ATOM     10  O   UNL     1      27.586 -22.788 -38.315  1.00  0.00    -0.507 OA
ATOM     11  H   UNL     1      26.622 -22.500 -38.438  1.00  0.00     0.293 HD
ENDBRANCH   2  10
TORSDOF 2
ENDMDL
MODEL 4
REMARK VINA RESULT:    -3.859      1.010      2.189
REMARK INTER + INTRA:          -4.446
REMARK INTER:                  -4.203
REMARK INTRA:                  -0.243
REMARK UNBOUND:                -0.249
REMARK SMILES O=C([O-])c1ccccc1O
REMARK SMILES IDX 4 1 9 2 5 3 8 4 6 5 7 6 2 7 1 8 3 9 10 10
REMARK H PARENT 10 11
REMARK Flexibility Score: inf
ROOT
ATOM      1  C   UNL     1      28.948 -21.662 -33.433  1.00  0.00     0.039 A 
ATOM      2  C   UNL     1      27.753 -21.657 -32.674  1.00  0.00     0.124 A 
ATOM      3  C   UNL     1      30.163 -21.368 -32.787  1.00  0.00     0.014 A 
ATOM      4  C   UNL     1      27.797 -21.361 -31.302  1.00  0.00     0.047 A 
ATOM      5  C   UNL     1      30.193 -21.075 -31.421  1.00  0.00     0.001 A 
ATOM      6  C   UNL     1      29.013 -21.072 -30.680  1.00  0.00     0.004 A 
ENDROOT
BRANCH   1   7
ATOM      7  C   UNL     1      28.953 -21.969 -34.886  1.00  0.00     0.075 C 
ATOM      8  O   UNL     1      28.479 -23.050 -35.324  1.00  0.00    -0.545 OA
ATOM      9  O   UNL     1      29.487 -21.060 -35.792  1.00  0.00    -0.545 OA
ENDBRANCH   1   7
BRANCH   2  10
ATOM     10  O   UNL     1      26.525 -21.942 -33.272  1.00  0.00    -0.507 OA
ATOM     11  H   UNL     1      25.857 -22.571 -32.842  1.00  0.00     0.293 HD
ENDBRANCH   2  10
TORSDOF 2
ENDMDL
MODEL 5
REMARK VINA RESULT:    -3.832      1.348      1.542
REMARK INTER + INTRA:          -4.416
REMARK INTER:                  -4.168
REMARK INTRA:                  -0.249
REMARK UNBOUND:                -0.249
REMARK SMILES O=C([O-])c1ccccc1O
REMARK SMILES IDX 4 1 9 2 5 3 8 4 6 5 7 6 2 7 1 8 3 9 10 10
REMARK H PARENT 10 11
REMARK Flexibility Score: inf
ROOT
ATOM      1  C   UNL     1      29.550 -21.764 -32.888  1.00  0.00     0.039 A 
ATOM      2  C   UNL     1      30.492 -21.932 -31.845  1.00  0.00     0.124 A 
ATOM      3  C   UNL     1      28.288 -21.222 -32.581  1.00  0.00     0.014 A 
ATOM      4  C   UNL     1      30.158 -21.560 -30.533  1.00  0.00     0.047 A 
ATOM      5  C   UNL     1      27.967 -20.857 -31.271  1.00  0.00     0.001 A 
ATOM      6  C   UNL     1      28.900 -21.024 -30.250  1.00  0.00     0.004 A 
ENDROOT
BRANCH   1   7
ATOM      7  C   UNL     1      29.856 -22.142 -34.292  1.00  0.00     0.075 C 
ATOM      8  O   UNL     1      30.291 -23.289 -34.576  1.00  0.00    -0.545 OA
ATOM      9  O   UNL     1      29.665 -21.228 -35.321  1.00  0.00    -0.545 OA
ENDBRANCH   1   7
BRANCH   2  10
ATOM     10  O   UNL     1      31.756 -22.464 -32.102  1.00  0.00    -0.507 OA
ATOM     11  H   UNL     1      32.529 -22.336 -31.460  1.00  0.00     0.293 HD
ENDBRANCH   2  10
TORSDOF 2
ENDMDL
MODEL 6
REMARK VINA RESULT:    -3.783      2.276      3.138
REMARK INTER + INTRA:          -4.363
REMARK INTER:                  -4.113
REMARK INTRA:                  -0.250
REMARK UNBOUND:                -0.249
REMARK SMILES O=C([O-])c1ccccc1O
REMARK SMILES IDX 4 1 9 2 5 3 8 4 6 5 7 6 2 7 1 8 3 9 10 10
REMARK H PARENT 10 11
REMARK Flexibility Score: inf
ROOT
ATOM      1  C   UNL     1      27.065 -22.354 -35.300  1.00  0.00     0.039 A 
ATOM      2  C   UNL     1      28.205 -21.793 -35.924  1.00  0.00     0.124 A 
ATOM      3  C   UNL     1      27.038 -22.448 -33.896  1.00  0.00     0.014 A 
ATOM      4  C   UNL     1      29.281 -21.343 -35.142  1.00  0.00     0.047 A 
ATOM      5  C   UNL     1      28.115 -21.997 -33.129  1.00  0.00     0.001 A 
ATOM      6  C   UNL     1      29.234 -21.445 -33.750  1.00  0.00     0.004 A 
ENDROOT
BRANCH   1   7
ATOM      7  C   UNL     1      25.903 -22.845 -36.084  1.00  0.00     0.075 C 
ATOM      8  O   UNL     1      25.306 -23.907 -35.766  1.00  0.00    -0.545 OA
ATOM      9  O   UNL     1      25.451 -22.132 -37.188  1.00  0.00    -0.545 OA
ENDBRANCH   1   7
BRANCH   2  10
ATOM     10  O   UNL     1      28.277 -21.680 -37.313  1.00  0.00    -0.507 OA
ATOM     11  H   UNL     1      28.407 -22.490 -37.908  1.00  0.00     0.293 HD
ENDBRANCH   2  10
TORSDOF 2
ENDMDL
MODEL 7
REMARK VINA RESULT:    -3.764      1.968      4.298
REMARK INTER + INTRA:          -4.343
REMARK INTER:                  -4.090
REMARK INTRA:                  -0.252
REMARK UNBOUND:                -0.249
REMARK SMILES O=C([O-])c1ccccc1O
REMARK SMILES IDX 4 1 9 2 5 3 8 4 6 5 7 6 2 7 1 8 3 9 10 10
REMARK H PARENT 10 11
REMARK Flexibility Score: inf
ROOT
ATOM      1  C   UNL     1      28.347 -21.647 -33.880  1.00  0.00     0.039 A 
ATOM      2  C   UNL     1      27.042 -22.136 -34.130  1.00  0.00     0.124 A 
ATOM      3  C   UNL     1      29.189 -21.372 -34.974  1.00  0.00     0.014 A 
ATOM      4  C   UNL     1      26.611 -22.337 -35.451  1.00  0.00     0.047 A 
ATOM      5  C   UNL     1      28.748 -21.577 -36.284  1.00  0.00     0.001 A 
ATOM      6  C   UNL     1      27.462 -22.057 -36.522  1.00  0.00     0.004 A 
ENDROOT
BRANCH   1   7
ATOM      7  C   UNL     1      28.849 -21.418 -32.501  1.00  0.00     0.075 C 
ATOM      8  O   UNL     1      30.019 -21.748 -32.173  1.00  0.00    -0.545 OA
ATOM      9  O   UNL     1      28.029 -20.830 -31.546  1.00  0.00    -0.545 OA
ENDBRANCH   1   7
BRANCH   2  10
ATOM     10  O   UNL     1      26.173 -22.423 -33.078  1.00  0.00    -0.507 OA
ATOM     11  H   UNL     1      25.175 -22.529 -33.224  1.00  0.00     0.293 HD
ENDBRANCH   2  10
TORSDOF 2
ENDMDL
MODEL 8
REMARK VINA RESULT:    -3.693      1.309      1.685
REMARK INTER + INTRA:          -4.265
REMARK INTER:                  -4.011
REMARK INTRA:                  -0.254
REMARK UNBOUND:                -0.249
REMARK SMILES O=C([O-])c1ccccc1O
REMARK SMILES IDX 4 1 9 2 5 3 8 4 6 5 7 6 2 7 1 8 3 9 10 10
REMARK H PARENT 10 11
REMARK Flexibility Score: inf
ROOT
ATOM      1  C   UNL     1      28.637 -21.841 -34.598  1.00  0.00     0.039 A 
ATOM      2  C   UNL     1      29.694 -21.770 -33.660  1.00  0.00     0.124 A 
ATOM      3  C   UNL     1      27.331 -22.086 -34.132  1.00  0.00     0.014 A 
ATOM      4  C   UNL     1      29.429 -21.945 -32.292  1.00  0.00     0.047 A 
ATOM      5  C   UNL     1      27.081 -22.259 -32.769  1.00  0.00     0.001 A 
ATOM      6  C   UNL     1      28.127 -22.187 -31.850  1.00  0.00     0.004 A 
ENDROOT
BRANCH   1   7
ATOM      7  C   UNL     1      28.866 -21.663 -36.055  1.00  0.00     0.075 C 
ATOM      8  O   UNL     1      28.334 -22.435 -36.895  1.00  0.00    -0.545 OA
ATOM      9  O   UNL     1      29.677 -20.633 -36.516  1.00  0.00    -0.545 OA
ENDBRANCH   1   7
BRANCH   2  10
ATOM     10  O   UNL     1      31.004 -21.529 -34.076  1.00  0.00    -0.507 OA
ATOM     11  H   UNL     1      31.299 -20.617 -34.405  1.00  0.00     0.293 HD
ENDBRANCH   2  10
TORSDOF 2
ENDMDL
MODEL 9
REMARK VINA RESULT:    -3.647      3.811      5.090
REMARK INTER + INTRA:          -4.215
REMARK INTER:                  -4.022
REMARK INTRA:                  -0.193
REMARK UNBOUND:                -0.249
REMARK SMILES O=C([O-])c1ccccc1O
REMARK SMILES IDX 4 1 9 2 5 3 8 4 6 5 7 6 2 7 1 8 3 9 10 10
REMARK H PARENT 10 11
REMARK Flexibility Score: inf
ROOT
ATOM      1  C   UNL     1      28.830 -21.632 -29.719  1.00  0.00     0.039 A 
ATOM      2  C   UNL     1      28.131 -22.831 -29.999  1.00  0.00     0.124 A 
ATOM      3  C   UNL     1      28.800 -20.592 -30.667  1.00  0.00     0.014 A 
ATOM      4  C   UNL     1      27.426 -22.964 -31.206  1.00  0.00     0.047 A 
ATOM      5  C   UNL     1      28.095 -20.737 -31.864  1.00  0.00     0.001 A 
ATOM      6  C   UNL     1      27.408 -21.920 -32.133  1.00  0.00     0.004 A 
ENDROOT
BRANCH   1   7
ATOM      7  C   UNL     1      29.590 -21.443 -28.457  1.00  0.00     0.075 C 
ATOM      8  O   UNL     1      30.651 -22.083 -28.235  1.00  0.00    -0.545 OA
ATOM      9  O   UNL     1      29.137 -20.548 -27.494  1.00  0.00    -0.545 OA
ENDBRANCH   1   7
BRANCH   2  10
ATOM     10  O   UNL     1      28.132 -23.888 -29.089  1.00  0.00    -0.507 OA
ATOM     11  H   UNL     1      27.981 -23.739 -28.098  1.00  0.00     0.293 HD
ENDBRANCH   2  10
TORSDOF 2
ENDMDL
