MODEL 1
REMARK VINA RESULT:    -2.983      0.000      0.000
REMARK INTER + INTRA:          -3.537
REMARK INTER:                  -3.506
REMARK INTRA:                  -0.031
REMARK UNBOUND:                -0.031
REMARK SMILES O=C([O-])CCC(=O)[O-]
REMARK SMILES IDX 4 1 2 2 1 3 3 4 5 5 6 6 7 7 8 8
REMARK H PARENT
REMARK Flexibility Score: inf
ROOT
ATOM      1  C   UNL     1       7.664  -4.689  -6.494  1.00  0.00     0.059 C 
ENDROOT
BRANCH   1   2
ATOM      2  C   UNL     1       8.694  -5.772  -6.594  1.00  0.00     0.042 C 
ATOM      3  O   UNL     1       9.362  -6.105  -5.580  1.00  0.00    -0.550 OA
ATOM      4  O   UNL     1       8.887  -6.442  -7.795  1.00  0.00    -0.550 OA
ENDBRANCH   1   2
BRANCH   1   5
ATOM      5  C   UNL     1       8.147  -3.528  -5.619  1.00  0.00     0.059 C 
BRANCH   5   6
ATOM      6  C   UNL     1       7.034  -2.577  -5.301  1.00  0.00     0.042 C 
ATOM      7  O   UNL     1       6.533  -2.550  -4.146  1.00  0.00    -0.550 OA
ATOM      8  O   UNL     1       6.523  -1.749  -6.293  1.00  0.00    -0.550 OA
ENDBRANCH   5   6
ENDBRANCH   1   5
TORSDOF 3
ENDMDL
MODEL 2
REMARK VINA RESULT:    -2.959     16.530     17.505
REMARK INTER + INTRA:          -3.509
REMARK INTER:                  -3.465
REMARK INTRA:                  -0.044
REMARK UNBOUND:                -0.031
REMARK SMILES O=C([O-])CCC(=O)[O-]
REMARK SMILES IDX 4 1 2 2 1 3 3 4 5 5 6 6 7 7 8 8
REMARK H PARENT
REMARK Flexibility Score: inf
ROOT
ATOM      1  C   UNL     1       0.666   4.436   6.670  1.00  0.00     0.059 C 
ENDROOT
BRANCH   1   2
ATOM      2  C   UNL     1       0.384   3.769   7.982  1.00  0.00     0.042 C 
ATOM      3  O   UNL     1      -0.323   4.348   8.848  1.00  0.00    -0.550 OA
ATOM      4  O   UNL     1       0.869   2.491   8.232  1.00  0.00    -0.550 OA
ENDBRANCH   1   2
BRANCH   1   5
ATOM      5  C   UNL     1      -0.227   5.663   6.457  1.00  0.00     0.059 C 
BRANCH   5   6
ATOM      6  C   UNL     1      -0.473   5.919   5.001  1.00  0.00     0.042 C 
ATOM      7  O   UNL     1       0.039   5.169   4.130  1.00  0.00    -0.550 OA
ATOM      8  O   UNL     1      -1.235   7.012   4.607  1.00  0.00    -0.550 OA
ENDBRANCH   5   6
ENDBRANCH   1   5
TORSDOF 3
ENDMDL
MODEL 3
REMARK VINA RESULT:    -2.936     16.565     17.677
REMARK INTER + INTRA:          -3.483
REMARK INTER:                  -3.440
REMARK INTRA:                  -0.043
REMARK UNBOUND:                -0.031
REMARK SMILES O=C([O-])CCC(=O)[O-]
REMARK SMILES IDX 4 1 2 2 1 3 3 4 5 5 6 6 7 7 8 8
REMARK H PARENT
REMARK Flexibility Score: inf
ROOT
ATOM      1  C   UNL     1      -0.362   5.624   6.452  1.00  0.00     0.059 C 
ENDROOT
BRANCH   1   2
ATOM      2  C   UNL     1      -0.490   5.922   4.989  1.00  0.00     0.042 C 
ATOM      3  O   UNL     1       0.037   5.157   4.139  1.00  0.00    -0.550 OA
ATOM      4  O   UNL     1      -1.225   7.021   4.564  1.00  0.00    -0.550 OA
ENDBRANCH   1   2
BRANCH   1   5
ATOM      5  C   UNL     1       0.627   4.482   6.712  1.00  0.00     0.059 C 
BRANCH   5   6
ATOM      6  C   UNL     1       0.331   3.780   8.002  1.00  0.00     0.042 C 
ATOM      7  O   UNL     1      -0.357   4.348   8.890  1.00  0.00    -0.550 OA
ATOM      8  O   UNL     1       0.849   2.513   8.239  1.00  0.00    -0.550 OA
ENDBRANCH   5   6
ENDBRANCH   1   5
TORSDOF 3
ENDMDL
MODEL 4
REMARK VINA RESULT:    -2.886     12.052     14.258
REMARK INTER + INTRA:          -3.423
REMARK INTER:                  -3.330
REMARK INTRA:                  -0.094
REMARK UNBOUND:                -0.031
REMARK SMILES O=C([O-])CCC(=O)[O-]
REMARK SMILES IDX 4 1 2 2 1 3 3 4 5 5 6 6 7 7 8 8
REMARK H PARENT
REMARK Flexibility Score: inf
ROOT
ATOM      1  C   UNL     1       2.464   5.818   3.532  1.00  0.00     0.059 C 
ENDROOT
BRANCH   1   2
ATOM      2  C   UNL     1       1.455   5.013   4.294  1.00  0.00     0.042 C 
ATOM      3  O   UNL     1       1.829   4.234   5.210  1.00  0.00    -0.550 OA
ATOM      4  O   UNL     1       0.101   5.154   4.021  1.00  0.00    -0.550 OA
ENDBRANCH   1   2
BRANCH   1   5
ATOM      5  C   UNL     1       3.525   4.925   2.881  1.00  0.00     0.059 C 
BRANCH   5   6
ATOM      6  C   UNL     1       3.235   4.695   1.428  1.00  0.00     0.042 C 
ATOM      7  O   UNL     1       3.900   3.850   0.775  1.00  0.00    -0.550 OA
ATOM      8  O   UNL     1       2.256   5.445   0.788  1.00  0.00    -0.550 OA
ENDBRANCH   5   6
ENDBRANCH   1   5
TORSDOF 3
ENDMDL
MODEL 5
REMARK VINA RESULT:    -2.886     16.920     19.126
REMARK INTER + INTRA:          -3.423
REMARK INTER:                  -3.302
REMARK INTRA:                  -0.121
REMARK UNBOUND:                -0.031
REMARK SMILES O=C([O-])CCC(=O)[O-]
REMARK SMILES IDX 4 1 2 2 1 3 3 4 5 5 6 6 7 7 8 8
REMARK H PARENT
REMARK Flexibility Score: inf
ROOT
ATOM      1  C   UNL     1      -0.718   6.049   6.518  1.00  0.00     0.059 C 
ENDROOT
BRANCH   1   2
ATOM      2  C   UNL     1      -0.694   6.215   5.030  1.00  0.00     0.042 C 
ATOM      3  O   UNL     1      -1.187   7.244   4.499  1.00  0.00    -0.550 OA
ATOM      4  O   UNL     1      -0.088   5.252   4.232  1.00  0.00    -0.550 OA
ENDBRANCH   1   2
BRANCH   1   5
ATOM      5  C   UNL     1      -1.992   6.640   7.132  1.00  0.00     0.059 C 
BRANCH   5   6
ATOM      6  C   UNL     1      -1.683   7.794   8.037  1.00  0.00     0.042 C 
ATOM      7  O   UNL     1      -1.956   7.729   9.264  1.00  0.00    -0.550 OA
ATOM      8  O   UNL     1      -1.130   8.957   7.515  1.00  0.00    -0.550 OA
ENDBRANCH   5   6
ENDBRANCH   1   5
TORSDOF 3
ENDMDL
MODEL 6
REMARK VINA RESULT:    -2.869     16.465     18.585
REMARK INTER + INTRA:          -3.404
REMARK INTER:                  -3.364
REMARK INTRA:                  -0.040
REMARK UNBOUND:                -0.031
REMARK SMILES O=C([O-])CCC(=O)[O-]
REMARK SMILES IDX 4 1 2 2 1 3 3 4 5 5 6 6 7 7 8 8
REMARK H PARENT
REMARK Flexibility Score: inf
ROOT
ATOM      1  C   UNL     1      -7.864   4.922  -3.204  1.00  0.00     0.059 C 
ENDROOT
BRANCH   1   2
ATOM      2  C   UNL     1      -9.327   5.043  -3.505  1.00  0.00     0.042 C 
ATOM      3  O   UNL     1      -9.903   4.169  -4.205  1.00  0.00    -0.550 OA
ATOM      4  O   UNL     1     -10.062   6.096  -2.978  1.00  0.00    -0.550 OA
ENDBRANCH   1   2
BRANCH   1   5
ATOM      5  C   UNL     1      -7.020   4.951  -4.483  1.00  0.00     0.059 C 
BRANCH   5   6
ATOM      6  C   UNL     1      -5.712   5.649  -4.264  1.00  0.00     0.042 C 
ATOM      7  O   UNL     1      -4.695   5.312  -4.924  1.00  0.00    -0.550 OA
ATOM      8  O   UNL     1      -5.610   6.646  -3.301  1.00  0.00    -0.550 OA
ENDBRANCH   5   6
ENDBRANCH   1   5
TORSDOF 3
ENDMDL
MODEL 7
REMARK VINA RESULT:    -2.844      8.519      9.785
REMARK INTER + INTRA:          -3.374
REMARK INTER:                  -3.348
REMARK INTRA:                  -0.026
REMARK UNBOUND:                -0.031
REMARK SMILES O=C([O-])CCC(=O)[O-]
REMARK SMILES IDX 4 1 2 2 1 3 3 4 5 5 6 6 7 7 8 8
REMARK H PARENT
REMARK Flexibility Score: inf
ROOT
ATOM      1  C   UNL     1      -0.671  -3.624  -4.031  1.00  0.00     0.059 C 
ENDROOT
BRANCH   1   2
ATOM      2  C   UNL     1      -1.390  -2.369  -4.423  1.00  0.00     0.042 C 
ATOM      3  O   UNL     1      -2.512  -2.434  -4.989  1.00  0.00    -0.550 OA
ATOM      4  O   UNL     1      -0.839  -1.130  -4.124  1.00  0.00    -0.550 OA
ENDBRANCH   1   2
BRANCH   1   5
ATOM      5  C   UNL     1      -0.665  -3.822  -2.511  1.00  0.00     0.059 C 
BRANCH   5   6
ATOM      6  C   UNL     1       0.003  -5.106  -2.126  1.00  0.00     0.042 C 
ATOM      7  O   UNL     1      -0.680  -6.147  -1.941  1.00  0.00    -0.550 OA
ATOM      8  O   UNL     1       1.379  -5.143  -1.931  1.00  0.00    -0.550 OA
ENDBRANCH   5   6
ENDBRANCH   1   5
TORSDOF 3
ENDMDL
MODEL 8
REMARK VINA RESULT:    -2.809     12.280     14.263
REMARK INTER + INTRA:          -3.333
REMARK INTER:                  -3.241
REMARK INTRA:                  -0.092
REMARK UNBOUND:                -0.031
REMARK SMILES O=C([O-])CCC(=O)[O-]
REMARK SMILES IDX 4 1 2 2 1 3 3 4 5 5 6 6 7 7 8 8
REMARK H PARENT
REMARK Flexibility Score: inf
ROOT
ATOM      1  C   UNL     1       3.371   5.427   2.913  1.00  0.00     0.059 C 
ENDROOT
BRANCH   1   2
ATOM      2  C   UNL     1       3.076   4.910   1.538  1.00  0.00     0.042 C 
ATOM      3  O   UNL     1       2.156   5.428   0.852  1.00  0.00    -0.550 OA
ATOM      4  O   UNL     1       3.845   3.887   0.998  1.00  0.00    -0.550 OA
ENDBRANCH   1   2
BRANCH   1   5
ATOM      5  C   UNL     1       2.406   4.848   3.953  1.00  0.00     0.059 C 
BRANCH   5   6
ATOM      6  C   UNL     1       1.184   5.701   4.105  1.00  0.00     0.042 C 
ATOM      7  O   UNL     1       0.045   5.170   4.182  1.00  0.00    -0.550 OA
ATOM      8  O   UNL     1       1.300   7.086   4.121  1.00  0.00    -0.550 OA
ENDBRANCH   5   6
ENDBRANCH   1   5
TORSDOF 3
ENDMDL
MODEL 9
REMARK VINA RESULT:    -2.734     15.001     17.154
REMARK INTER + INTRA:          -3.245
REMARK INTER:                  -3.163
REMARK INTRA:                  -0.083
REMARK UNBOUND:                -0.031
REMARK SMILES O=C([O-])CCC(=O)[O-]
REMARK SMILES IDX 4 1 2 2 1 3 3 4 5 5 6 6 7 7 8 8
REMARK H PARENT
REMARK Flexibility Score: inf
ROOT
ATOM      1  C   UNL     1      -0.003   5.579   5.861  1.00  0.00     0.059 C 
ENDROOT
BRANCH   1   2
ATOM      2  C   UNL     1      -0.993   6.684   5.651  1.00  0.00     0.042 C 
ATOM      3  O   UNL     1      -1.150   7.184   4.507  1.00  0.00    -0.550 OA
ATOM      4  O   UNL     1      -1.772   7.132   6.711  1.00  0.00    -0.550 OA
ENDBRANCH   1   2
BRANCH   1   5
ATOM      5  C   UNL     1       0.398   4.921   4.537  1.00  0.00     0.059 C 
BRANCH   5   6
ATOM      6  C   UNL     1       1.799   5.280   4.145  1.00  0.00     0.042 C 
ATOM      7  O   UNL     1       2.046   5.695   2.982  1.00  0.00    -0.550 OA
ATOM      8  O   UNL     1       2.838   5.119   5.053  1.00  0.00    -0.550 OA
ENDBRANCH   5   6
ENDBRANCH   1   5
TORSDOF 3
ENDMDL
