MODEL 1
REMARK VINA RESULT:    -5.820      0.000      0.000
REMARK INTER + INTRA:          -5.820
REMARK INTER:                  -5.820
REMARK INTRA:                   0.000
REMARK UNBOUND:                 0.000
REMARK SMILES c1ccc2nc3ccccc3cc2c1
REMARK SMILES IDX 1 1 2 2 3 3 4 4 13 5 14 6 12 7 11 8 10 9 9 10 8 11 7 12 6 13
REMARK SMILES IDX 5 14
REMARK H PARENT
REMARK Flexibility Score: inf
ROOT
ATOM      1  C   UNL     1       1.476  21.167  43.165  1.00  0.00     0.001 A 
ATOM      2  C   UNL     1       1.692  21.082  41.786  1.00  0.00     0.002 A 
ATOM      3  C   UNL     1       2.491  22.030  41.139  1.00  0.00     0.029 A 
ATOM      4  C   UNL     1       3.078  23.069  41.871  1.00  0.00     0.071 A 
ATOM      5  C   UNL     1       2.861  23.157  43.266  1.00  0.00     0.001 A 
ATOM      6  C   UNL     1       2.057  22.201  43.906  1.00  0.00     0.010 A 
ATOM      7  C   UNL     1       3.455  24.204  43.983  1.00  0.00     0.020 A 
ATOM      8  C   UNL     1       4.251  25.142  43.314  1.00  0.00     0.001 A 
ATOM      9  C   UNL     1       4.860  26.202  44.004  1.00  0.00     0.010 A 
ATOM     10  C   UNL     1       5.651  27.124  43.311  1.00  0.00     0.001 A 
ATOM     11  C   UNL     1       5.836  26.997  41.931  1.00  0.00     0.002 A 
ATOM     12  C   UNL     1       5.233  25.944  41.234  1.00  0.00     0.029 A 
ATOM     13  C   UNL     1       4.441  25.015  41.918  1.00  0.00     0.071 A 
ATOM     14  N   UNL     1       3.854  23.992  41.242  1.00  0.00    -0.248 NA
ENDROOT
TORSDOF 0
ENDMDL
MODEL 2
REMARK VINA RESULT:    -5.806      3.358      4.605
REMARK INTER + INTRA:          -5.806
REMARK INTER:                  -5.806
REMARK INTRA:                   0.000
REMARK UNBOUND:                 0.000
REMARK SMILES c1ccc2nc3ccccc3cc2c1
REMARK SMILES IDX 1 1 2 2 3 3 4 4 13 5 14 6 12 7 11 8 10 9 9 10 8 11 7 12 6 13
REMARK SMILES IDX 5 14
REMARK H PARENT
REMARK Flexibility Score: inf
ROOT
ATOM      1  C   UNL     1       2.777  22.291  42.921  1.00  0.00     0.001 A 
ATOM      2  C   UNL     1       3.310  23.461  42.370  1.00  0.00     0.002 A 
ATOM      3  C   UNL     1       3.330  24.644  43.116  1.00  0.00     0.029 A 
ATOM      4  C   UNL     1       2.817  24.660  44.418  1.00  0.00     0.071 A 
ATOM      5  C   UNL     1       2.278  23.478  44.978  1.00  0.00     0.001 A 
ATOM      6  C   UNL     1       2.261  22.296  44.221  1.00  0.00     0.010 A 
ATOM      7  C   UNL     1       1.768  23.511  46.282  1.00  0.00     0.020 A 
ATOM      8  C   UNL     1       1.799  24.707  47.011  1.00  0.00     0.001 A 
ATOM      9  C   UNL     1       1.296  24.774  48.319  1.00  0.00     0.010 A 
ATOM     10  C   UNL     1       1.340  25.981  49.024  1.00  0.00     0.001 A 
ATOM     11  C   UNL     1       1.882  27.125  48.430  1.00  0.00     0.002 A 
ATOM     12  C   UNL     1       2.386  27.069  47.126  1.00  0.00     0.029 A 
ATOM     13  C   UNL     1       2.347  25.866  46.412  1.00  0.00     0.071 A 
ATOM     14  N   UNL     1       2.836  25.810  45.144  1.00  0.00    -0.248 NA
ENDROOT
TORSDOF 0
ENDMDL
MODEL 3
REMARK VINA RESULT:    -5.765      3.427      5.407
REMARK INTER + INTRA:          -5.765
REMARK INTER:                  -5.765
REMARK INTRA:                   0.000
REMARK UNBOUND:                 0.000
REMARK SMILES c1ccc2nc3ccccc3cc2c1
REMARK SMILES IDX 1 1 2 2 3 3 4 4 13 5 14 6 12 7 11 8 10 9 9 10 8 11 7 12 6 13
REMARK SMILES IDX 5 14
REMARK H PARENT
REMARK Flexibility Score: inf
ROOT
ATOM      1  C   UNL     1       1.453  25.837  49.215  1.00  0.00     0.001 A 
ATOM      2  C   UNL     1       1.978  26.999  48.642  1.00  0.00     0.002 A 
ATOM      3  C   UNL     1       2.452  26.984  47.326  1.00  0.00     0.029 A 
ATOM      4  C   UNL     1       2.402  25.802  46.577  1.00  0.00     0.071 A 
ATOM      5  C   UNL     1       1.871  24.625  47.154  1.00  0.00     0.001 A 
ATOM      6  C   UNL     1       1.399  24.651  48.475  1.00  0.00     0.010 A 
ATOM      7  C   UNL     1       1.829  23.451  46.391  1.00  0.00     0.020 A 
ATOM      8  C   UNL     1       2.309  23.458  45.075  1.00  0.00     0.001 A 
ATOM      9  C   UNL     1       2.281  22.299  44.285  1.00  0.00     0.010 A 
ATOM     10  C   UNL     1       2.767  22.335  42.974  1.00  0.00     0.001 A 
ATOM     11  C   UNL     1       3.283  23.522  42.446  1.00  0.00     0.002 A 
ATOM     12  C   UNL     1       3.315  24.683  43.226  1.00  0.00     0.029 A 
ATOM     13  C   UNL     1       2.831  24.658  44.539  1.00  0.00     0.071 A 
ATOM     14  N   UNL     1       2.863  25.786  45.298  1.00  0.00    -0.248 NA
ENDROOT
TORSDOF 0
ENDMDL
MODEL 4
REMARK VINA RESULT:    -5.717      3.132      5.370
REMARK INTER + INTRA:          -5.717
REMARK INTER:                  -5.717
REMARK INTRA:                   0.000
REMARK UNBOUND:                 0.000
REMARK SMILES c1ccc2nc3ccccc3cc2c1
REMARK SMILES IDX 1 1 2 2 3 3 4 4 13 5 14 6 12 7 11 8 10 9 9 10 8 11 7 12 6 13
REMARK SMILES IDX 5 14
REMARK H PARENT
REMARK Flexibility Score: inf
ROOT
ATOM      1  C   UNL     1       2.091  26.909  48.039  1.00  0.00     0.001 A 
ATOM      2  C   UNL     1       1.414  25.825  48.607  1.00  0.00     0.002 A 
ATOM      3  C   UNL     1       1.257  24.637  47.886  1.00  0.00     0.029 A 
ATOM      4  C   UNL     1       1.777  24.530  46.591  1.00  0.00     0.071 A 
ATOM      5  C   UNL     1       2.462  25.624  46.014  1.00  0.00     0.001 A 
ATOM      6  C   UNL     1       2.614  26.812  46.745  1.00  0.00     0.010 A 
ATOM      7  C   UNL     1       2.975  25.501  44.716  1.00  0.00     0.020 A 
ATOM      8  C   UNL     1       2.806  24.302  44.012  1.00  0.00     0.001 A 
ATOM      9  C   UNL     1       3.308  24.145  42.711  1.00  0.00     0.010 A 
ATOM     10  C   UNL     1       3.125  22.937  42.032  1.00  0.00     0.001 A 
ATOM     11  C   UNL     1       2.441  21.881  42.642  1.00  0.00     0.002 A 
ATOM     12  C   UNL     1       1.936  22.027  43.939  1.00  0.00     0.029 A 
ATOM     13  C   UNL     1       2.115  23.232  44.628  1.00  0.00     0.071 A 
ATOM     14  N   UNL     1       1.624  23.375  45.888  1.00  0.00    -0.248 NA
ENDROOT
TORSDOF 0
ENDMDL
MODEL 5
REMARK VINA RESULT:    -5.678      2.399      3.765
REMARK INTER + INTRA:          -5.678
REMARK INTER:                  -5.678
REMARK INTRA:                   0.000
REMARK UNBOUND:                 0.000
REMARK SMILES c1ccc2nc3ccccc3cc2c1
REMARK SMILES IDX 1 1 2 2 3 3 4 4 13 5 14 6 12 7 11 8 10 9 9 10 8 11 7 12 6 13
REMARK SMILES IDX 5 14
REMARK H PARENT
REMARK Flexibility Score: inf
ROOT
ATOM      1  C   UNL     1       2.770  22.061  41.304  1.00  0.00     0.001 A 
ATOM      2  C   UNL     1       2.022  21.162  42.070  1.00  0.00     0.002 A 
ATOM      3  C   UNL     1       1.653  21.490  43.379  1.00  0.00     0.029 A 
ATOM      4  C   UNL     1       2.032  22.721  43.926  1.00  0.00     0.071 A 
ATOM      5  C   UNL     1       2.788  23.632  43.153  1.00  0.00     0.001 A 
ATOM      6  C   UNL     1       3.155  23.294  41.842  1.00  0.00     0.010 A 
ATOM      7  C   UNL     1       3.161  24.860  43.717  1.00  0.00     0.020 A 
ATOM      8  C   UNL     1       2.780  25.167  45.029  1.00  0.00     0.001 A 
ATOM      9  C   UNL     1       3.137  26.387  45.623  1.00  0.00     0.010 A 
ATOM     10  C   UNL     1       2.743  26.668  46.935  1.00  0.00     0.001 A 
ATOM     11  C   UNL     1       1.996  25.736  47.661  1.00  0.00     0.002 A 
ATOM     12  C   UNL     1       1.636  24.517  47.079  1.00  0.00     0.029 A 
ATOM     13  C   UNL     1       2.024  24.226  45.766  1.00  0.00     0.071 A 
ATOM     14  N   UNL     1       1.674  23.040  45.199  1.00  0.00    -0.248 NA
ENDROOT
TORSDOF 0
ENDMDL
MODEL 6
REMARK VINA RESULT:    -5.672      2.423      5.158
REMARK INTER + INTRA:          -5.672
REMARK INTER:                  -5.672
REMARK INTRA:                   0.000
REMARK UNBOUND:                 0.000
REMARK SMILES c1ccc2nc3ccccc3cc2c1
REMARK SMILES IDX 1 1 2 2 3 3 4 4 13 5 14 6 12 7 11 8 10 9 9 10 8 11 7 12 6 13
REMARK SMILES IDX 5 14
REMARK H PARENT
REMARK Flexibility Score: inf
ROOT
ATOM      1  C   UNL     1       2.723  26.710  46.965  1.00  0.00     0.001 A 
ATOM      2  C   UNL     1       1.969  25.776  47.683  1.00  0.00     0.002 A 
ATOM      3  C   UNL     1       1.617  24.556  47.099  1.00  0.00     0.029 A 
ATOM      4  C   UNL     1       2.019  24.263  45.791  1.00  0.00     0.071 A 
ATOM      5  C   UNL     1       2.782  25.205  45.062  1.00  0.00     0.001 A 
ATOM      6  C   UNL     1       3.129  26.428  45.656  1.00  0.00     0.010 A 
ATOM      7  C   UNL     1       3.176  24.897  43.753  1.00  0.00     0.020 A 
ATOM      8  C   UNL     1       2.813  23.668  43.188  1.00  0.00     0.001 A 
ATOM      9  C   UNL     1       3.191  23.329  41.879  1.00  0.00     0.010 A 
ATOM     10  C   UNL     1       2.814  22.095  41.340  1.00  0.00     0.001 A 
ATOM     11  C   UNL     1       2.060  21.196  42.099  1.00  0.00     0.002 A 
ATOM     12  C   UNL     1       1.677  21.524  43.403  1.00  0.00     0.029 A 
ATOM     13  C   UNL     1       2.049  22.756  43.953  1.00  0.00     0.071 A 
ATOM     14  N   UNL     1       1.678  23.076  45.221  1.00  0.00    -0.248 NA
ENDROOT
TORSDOF 0
ENDMDL
MODEL 7
REMARK VINA RESULT:    -5.309     13.708     15.180
REMARK INTER + INTRA:          -5.309
REMARK INTER:                  -5.309
REMARK INTRA:                   0.000
REMARK UNBOUND:                 0.000
REMARK SMILES c1ccc2nc3ccccc3cc2c1
REMARK SMILES IDX 1 1 2 2 3 3 4 4 13 5 14 6 12 7 11 8 10 9 9 10 8 11 7 12 6 13
REMARK SMILES IDX 5 14
REMARK H PARENT
REMARK Flexibility Score: inf
ROOT
ATOM      1  C   UNL     1      -2.377  24.540  55.998  1.00  0.00     0.001 A 
ATOM      2  C   UNL     1      -1.549  24.830  54.908  1.00  0.00     0.002 A 
ATOM      3  C   UNL     1      -0.212  24.419  54.910  1.00  0.00     0.029 A 
ATOM      4  C   UNL     1       0.302  23.714  56.004  1.00  0.00     0.071 A 
ATOM      5  C   UNL     1      -0.532  23.419  57.107  1.00  0.00     0.001 A 
ATOM      6  C   UNL     1      -1.872  23.837  57.097  1.00  0.00     0.010 A 
ATOM      7  C   UNL     1      -0.001  22.714  58.195  1.00  0.00     0.020 A 
ATOM      8  C   UNL     1       1.340  22.311  58.175  1.00  0.00     0.001 A 
ATOM      9  C   UNL     1       1.903  21.603  59.248  1.00  0.00     0.010 A 
ATOM     10  C   UNL     1       3.245  21.214  59.202  1.00  0.00     0.001 A 
ATOM     11  C   UNL     1       4.032  21.528  58.090  1.00  0.00     0.002 A 
ATOM     12  C   UNL     1       3.481  22.234  57.016  1.00  0.00     0.029 A 
ATOM     13  C   UNL     1       2.139  22.628  57.051  1.00  0.00     0.071 A 
ATOM     14  N   UNL     1       1.602  23.314  56.007  1.00  0.00    -0.248 NA
ENDROOT
TORSDOF 0
ENDMDL
MODEL 8
REMARK VINA RESULT:    -5.304     13.564     15.095
REMARK INTER + INTRA:          -5.304
REMARK INTER:                  -5.304
REMARK INTRA:                   0.000
REMARK UNBOUND:                 0.000
REMARK SMILES c1ccc2nc3ccccc3cc2c1
REMARK SMILES IDX 1 1 2 2 3 3 4 4 13 5 14 6 12 7 11 8 10 9 9 10 8 11 7 12 6 13
REMARK SMILES IDX 5 14
REMARK H PARENT
REMARK Flexibility Score: inf
ROOT
ATOM      1  C   UNL     1       3.385  21.151  58.850  1.00  0.00     0.001 A 
ATOM      2  C   UNL     1       4.102  21.494  57.700  1.00  0.00     0.002 A 
ATOM      3  C   UNL     1       3.490  22.234  56.683  1.00  0.00     0.029 A 
ATOM      4  C   UNL     1       2.155  22.632  56.813  1.00  0.00     0.071 A 
ATOM      5  C   UNL     1       1.427  22.287  57.975  1.00  0.00     0.001 A 
ATOM      6  C   UNL     1       2.050  21.544  58.990  1.00  0.00     0.010 A 
ATOM      7  C   UNL     1       0.091  22.693  58.089  1.00  0.00     0.020 A 
ATOM      8  C   UNL     1      -0.502  23.432  57.058  1.00  0.00     0.001 A 
ATOM      9  C   UNL     1      -1.837  23.855  57.141  1.00  0.00     0.010 A 
ATOM     10  C   UNL     1      -2.404  24.592  56.097  1.00  0.00     0.001 A 
ATOM     11  C   UNL     1      -1.645  24.911  54.966  1.00  0.00     0.002 A 
ATOM     12  C   UNL     1      -0.313  24.494  54.874  1.00  0.00     0.029 A 
ATOM     13  C   UNL     1       0.264  23.756  55.913  1.00  0.00     0.071 A 
ATOM     14  N   UNL     1       1.559  23.351  55.824  1.00  0.00    -0.248 NA
ENDROOT
TORSDOF 0
ENDMDL
MODEL 9
REMARK VINA RESULT:    -5.204     11.109     12.595
REMARK INTER + INTRA:          -5.204
REMARK INTER:                  -5.204
REMARK INTRA:                   0.000
REMARK UNBOUND:                 0.000
REMARK SMILES c1ccc2nc3ccccc3cc2c1
REMARK SMILES IDX 1 1 2 2 3 3 4 4 13 5 14 6 12 7 11 8 10 9 9 10 8 11 7 12 6 13
REMARK SMILES IDX 5 14
REMARK H PARENT
REMARK Flexibility Score: inf
ROOT
ATOM      1  C   UNL     1      -1.378  24.458  57.368  1.00  0.00     0.001 A 
ATOM      2  C   UNL     1      -2.126  25.157  56.415  1.00  0.00     0.002 A 
ATOM      3  C   UNL     1      -1.758  25.121  55.067  1.00  0.00     0.029 A 
ATOM      4  C   UNL     1      -0.638  24.384  54.665  1.00  0.00     0.071 A 
ATOM      5  C   UNL     1       0.120  23.676  55.627  1.00  0.00     0.001 A 
ATOM      6  C   UNL     1      -0.256  23.719  56.978  1.00  0.00     0.010 A 
ATOM      7  C   UNL     1       1.240  22.944  55.208  1.00  0.00     0.020 A 
ATOM      8  C   UNL     1       1.590  22.923  53.852  1.00  0.00     0.001 A 
ATOM      9  C   UNL     1       2.704  22.200  53.401  1.00  0.00     0.010 A 
ATOM     10  C   UNL     1       3.031  22.195  52.041  1.00  0.00     0.001 A 
ATOM     11  C   UNL     1       2.251  22.910  51.127  1.00  0.00     0.002 A 
ATOM     12  C   UNL     1       1.139  23.634  51.567  1.00  0.00     0.029 A 
ATOM     13  C   UNL     1       0.803  23.645  52.925  1.00  0.00     0.071 A 
ATOM     14  N   UNL     1      -0.279  24.349  53.354  1.00  0.00    -0.248 NA
ENDROOT
TORSDOF 0
ENDMDL
