MODEL 1
REMARK VINA RESULT:    -5.726      0.000      0.000
REMARK INTER + INTRA:         -10.194
REMARK INTER:                  -8.739
REMARK INTRA:                  -1.456
REMARK UNBOUND:                -1.456
REMARK SMILES CC(=O)CCC=C(C)CCC=C(C)CCC=C(C)C
REMARK SMILES IDX 10 1 11 2 12 3 13 4 14 5 15 6 16 7 18 8 17 9 19 10 9 11 7 12
REMARK SMILES IDX 6 13 8 14 5 15 4 16 2 17 3 18 1 19
REMARK H PARENT
REMARK Flexibility Score: inf
ROOT
ATOM      1  C   UNL     1      15.509 -21.446 -21.866  1.00  0.00     0.032 C 
ENDROOT
BRANCH   1   2
ATOM      2  C   UNL     1      14.304 -20.599 -21.526  1.00  0.00    -0.028 C 
ATOM      3  C   UNL     1      14.248 -19.251 -21.640  1.00  0.00    -0.077 C 
ATOM      4  C   UNL     1      15.402 -18.443 -22.186  1.00  0.00     0.039 C 
BRANCH   3   5
ATOM      5  C   UNL     1      12.981 -18.528 -21.233  1.00  0.00     0.034 C 
BRANCH   5   6
ATOM      6  C   UNL     1      13.233 -17.539 -20.089  1.00  0.00     0.032 C 
BRANCH   6   7
ATOM      7  C   UNL     1      13.446 -18.257 -18.776  1.00  0.00    -0.028 C 
ATOM      8  C   UNL     1      15.829 -17.518 -18.546  1.00  0.00     0.039 C 
ATOM      9  C   UNL     1      14.592 -18.234 -18.060  1.00  0.00    -0.080 C 
ATOM     10  C   UNL     1      14.623 -18.948 -16.733  1.00  0.00     0.039 C 
ENDBRANCH   6   7
ENDBRANCH   5   6
ENDBRANCH   3   5
ENDBRANCH   1   2
BRANCH   1  11
ATOM     11  C   UNL     1      15.390 -22.027 -23.279  1.00  0.00     0.034 C 
BRANCH  11  12
ATOM     12  C   UNL     1      16.375 -23.155 -23.506  1.00  0.00    -0.077 C 
ATOM     13  C   UNL     1      16.378 -24.205 -22.653  1.00  0.00    -0.028 C 
ATOM     14  C   UNL     1      17.299 -23.092 -24.699  1.00  0.00     0.039 C 
BRANCH  13  15
ATOM     15  C   UNL     1      17.308 -25.387 -22.757  1.00  0.00     0.035 C 
BRANCH  15  16
ATOM     16  C   UNL     1      18.397 -25.320 -21.682  1.00  0.00     0.079 C 
BRANCH  16  17
ATOM     17  C   UNL     1      19.635 -24.650 -22.220  1.00  0.00     0.130 C 
ATOM     18  O   UNL     1      20.175 -25.100 -23.219  1.00  0.00    -0.300 OA
ATOM     19  C   UNL     1      20.215 -23.434 -21.560  1.00  0.00     0.087 C 
ENDBRANCH  16  17
ENDBRANCH  15  16
ENDBRANCH  13  15
ENDBRANCH  11  12
ENDBRANCH   1  11
TORSDOF 9
ENDMDL
MODEL 2
REMARK VINA RESULT:    -5.595      1.082      1.651
REMARK INTER + INTRA:          -9.995
REMARK INTER:                  -8.504
REMARK INTRA:                  -1.491
REMARK UNBOUND:                -1.456
REMARK SMILES CC(=O)CCC=C(C)CCC=C(C)CCC=C(C)C
REMARK SMILES IDX 10 1 11 2 12 3 13 4 14 5 15 6 16 7 18 8 17 9 19 10 9 11 7 12
REMARK SMILES IDX 6 13 8 14 5 15 4 16 2 17 3 18 1 19
REMARK H PARENT
REMARK Flexibility Score: inf
ROOT
ATOM      1  C   UNL     1      15.086 -22.104 -22.160  1.00  0.00     0.032 C 
ENDROOT
BRANCH   1   2
ATOM      2  C   UNL     1      15.859 -20.816 -22.000  1.00  0.00    -0.028 C 
ATOM      3  C   UNL     1      15.368 -19.581 -22.257  1.00  0.00    -0.077 C 
ATOM      4  C   UNL     1      13.938 -19.360 -22.690  1.00  0.00     0.039 C 
BRANCH   3   5
ATOM      5  C   UNL     1      16.270 -18.376 -22.081  1.00  0.00     0.034 C 
BRANCH   5   6
ATOM      6  C   UNL     1      15.621 -17.306 -21.196  1.00  0.00     0.032 C 
BRANCH   6   7
ATOM      7  C   UNL     1      15.717 -17.667 -19.732  1.00  0.00    -0.028 C 
ATOM      8  C   UNL     1      13.236 -17.669 -19.379  1.00  0.00     0.039 C 
ATOM      9  C   UNL     1      14.659 -17.860 -18.912  1.00  0.00    -0.080 C 
ATOM     10  C   UNL     1      14.922 -18.283 -17.490  1.00  0.00     0.039 C 
ENDBRANCH   6   7
ENDBRANCH   5   6
ENDBRANCH   3   5
ENDBRANCH   1   2
BRANCH   1  11
ATOM     11  C   UNL     1      15.341 -22.731 -23.535  1.00  0.00     0.034 C 
BRANCH  11  12
ATOM     12  C   UNL     1      16.579 -23.603 -23.533  1.00  0.00    -0.077 C 
ATOM     13  C   UNL     1      16.685 -24.589 -22.613  1.00  0.00    -0.028 C 
ATOM     14  C   UNL     1      17.642 -23.370 -24.580  1.00  0.00     0.039 C 
BRANCH  13  15
ATOM     15  C   UNL     1      17.864 -25.522 -22.493  1.00  0.00     0.035 C 
BRANCH  15  16
ATOM     16  C   UNL     1      18.510 -25.408 -21.109  1.00  0.00     0.079 C 
BRANCH  16  17
ATOM     17  C   UNL     1      19.896 -24.827 -21.216  1.00  0.00     0.130 C 
ATOM     18  O   UNL     1      20.861 -25.516 -20.922  1.00  0.00    -0.300 OA
ATOM     19  C   UNL     1      20.120 -23.420 -21.687  1.00  0.00     0.087 C 
ENDBRANCH  16  17
ENDBRANCH  15  16
ENDBRANCH  13  15
ENDBRANCH  11  12
ENDBRANCH   1  11
TORSDOF 9
ENDMDL
MODEL 3
REMARK VINA RESULT:    -5.573      1.369      2.159
REMARK INTER + INTRA:          -9.962
REMARK INTER:                  -8.669
REMARK INTRA:                  -1.293
REMARK UNBOUND:                -1.456
REMARK SMILES CC(=O)CCC=C(C)CCC=C(C)CCC=C(C)C
REMARK SMILES IDX 10 1 11 2 12 3 13 4 14 5 15 6 16 7 18 8 17 9 19 10 9 11 7 12
REMARK SMILES IDX 6 13 8 14 5 15 4 16 2 17 3 18 1 19
REMARK H PARENT
REMARK Flexibility Score: inf
ROOT
ATOM      1  C   UNL     1      15.401 -22.104 -22.039  1.00  0.00     0.032 C 
ENDROOT
BRANCH   1   2
ATOM      2  C   UNL     1      14.902 -20.698 -22.284  1.00  0.00    -0.028 C 
ATOM      3  C   UNL     1      14.001 -20.050 -21.509  1.00  0.00    -0.077 C 
ATOM      4  C   UNL     1      13.431 -20.668 -20.254  1.00  0.00     0.039 C 
BRANCH   3   5
ATOM      5  C   UNL     1      13.569 -18.650 -21.892  1.00  0.00     0.034 C 
BRANCH   5   6
ATOM      6  C   UNL     1      13.753 -17.661 -20.736  1.00  0.00     0.032 C 
BRANCH   6   7
ATOM      7  C   UNL     1      15.215 -17.458 -20.411  1.00  0.00    -0.028 C 
ATOM      8  C   UNL     1      14.897 -17.755 -17.943  1.00  0.00     0.039 C 
ATOM      9  C   UNL     1      15.747 -17.525 -19.170  1.00  0.00    -0.080 C 
ATOM     10  C   UNL     1      17.238 -17.365 -19.019  1.00  0.00     0.039 C 
ENDBRANCH   6   7
ENDBRANCH   5   6
ENDBRANCH   3   5
ENDBRANCH   1   2
BRANCH   1  11
ATOM     11  C   UNL     1      15.383 -22.925 -23.333  1.00  0.00     0.034 C 
BRANCH  11  12
ATOM     12  C   UNL     1      16.600 -23.820 -23.446  1.00  0.00    -0.077 C 
ATOM     13  C   UNL     1      17.527 -23.550 -24.394  1.00  0.00    -0.028 C 
ATOM     14  C   UNL     1      16.761 -24.965 -22.474  1.00  0.00     0.039 C 
BRANCH  13  15
ATOM     15  C   UNL     1      18.777 -24.361 -24.621  1.00  0.00     0.035 C 
BRANCH  15  16
ATOM     16  C   UNL     1      20.029 -23.511 -24.384  1.00  0.00     0.079 C 
BRANCH  16  17
ATOM     17  C   UNL     1      20.034 -22.949 -22.987  1.00  0.00     0.130 C 
ATOM     18  O   UNL     1      20.080 -23.712 -22.033  1.00  0.00    -0.300 OA
ATOM     19  C   UNL     1      19.995 -21.470 -22.738  1.00  0.00     0.087 C 
ENDBRANCH  16  17
ENDBRANCH  15  16
ENDBRANCH  13  15
ENDBRANCH  11  12
ENDBRANCH   1  11
TORSDOF 9
ENDMDL
MODEL 4
REMARK VINA RESULT:    -5.507      1.271      2.150
REMARK INTER + INTRA:          -9.860
REMARK INTER:                  -8.448
REMARK INTRA:                  -1.411
REMARK UNBOUND:                -1.456
REMARK SMILES CC(=O)CCC=C(C)CCC=C(C)CCC=C(C)C
REMARK SMILES IDX 10 1 11 2 12 3 13 4 14 5 15 6 16 7 18 8 17 9 19 10 9 11 7 12
REMARK SMILES IDX 6 13 8 14 5 15 4 16 2 17 3 18 1 19
REMARK H PARENT
REMARK Flexibility Score: inf
ROOT
ATOM      1  C   UNL     1      15.557 -21.290 -22.292  1.00  0.00     0.032 C 
ENDROOT
BRANCH   1   2
ATOM      2  C   UNL     1      14.966 -20.619 -21.074  1.00  0.00    -0.028 C 
ATOM      3  C   UNL     1      14.055 -19.617 -21.106  1.00  0.00    -0.077 C 
ATOM      4  C   UNL     1      13.484 -19.095 -22.403  1.00  0.00     0.039 C 
BRANCH   3   5
ATOM      5  C   UNL     1      13.571 -19.017 -19.803  1.00  0.00     0.034 C 
BRANCH   5   6
ATOM      6  C   UNL     1      14.101 -17.593 -19.601  1.00  0.00     0.032 C 
BRANCH   6   7
ATOM      7  C   UNL     1      15.452 -17.598 -18.925  1.00  0.00    -0.028 C 
ATOM      8  C   UNL     1      16.715 -17.102 -21.031  1.00  0.00     0.039 C 
ATOM      9  C   UNL     1      16.628 -17.353 -19.545  1.00  0.00    -0.080 C 
ATOM     10  C   UNL     1      17.885 -17.328 -18.715  1.00  0.00     0.039 C 
ENDBRANCH   6   7
ENDBRANCH   5   6
ENDBRANCH   3   5
ENDBRANCH   1   2
BRANCH   1  11
ATOM     11  C   UNL     1      15.372 -22.810 -22.225  1.00  0.00     0.034 C 
BRANCH  11  12
ATOM     12  C   UNL     1      16.372 -23.535 -23.101  1.00  0.00    -0.077 C 
ATOM     13  C   UNL     1      17.011 -22.848 -24.076  1.00  0.00    -0.028 C 
ATOM     14  C   UNL     1      16.652 -24.996 -22.839  1.00  0.00     0.039 C 
BRANCH  13  15
ATOM     15  C   UNL     1      18.020 -23.447 -25.022  1.00  0.00     0.035 C 
BRANCH  15  16
ATOM     16  C   UNL     1      19.448 -23.144 -24.560  1.00  0.00     0.079 C 
BRANCH  16  17
ATOM     17  C   UNL     1      20.017 -24.310 -23.795  1.00  0.00     0.130 C 
ATOM     18  O   UNL     1      20.380 -25.307 -24.401  1.00  0.00    -0.300 OA
ATOM     19  C   UNL     1      20.159 -24.272 -22.302  1.00  0.00     0.087 C 
ENDBRANCH  16  17
ENDBRANCH  15  16
ENDBRANCH  13  15
ENDBRANCH  11  12
ENDBRANCH   1  11
TORSDOF 9
ENDMDL
MODEL 5
REMARK VINA RESULT:    -5.502      3.163      7.591
REMARK INTER + INTRA:          -9.852
REMARK INTER:                  -8.201
REMARK INTRA:                  -1.652
REMARK UNBOUND:                -1.456
REMARK SMILES CC(=O)CCC=C(C)CCC=C(C)CCC=C(C)C
REMARK SMILES IDX 10 1 11 2 12 3 13 4 14 5 15 6 16 7 18 8 17 9 19 10 9 11 7 12
REMARK SMILES IDX 6 13 8 14 5 15 4 16 2 17 3 18 1 19
REMARK H PARENT
REMARK Flexibility Score: inf
ROOT
ATOM      1  C   UNL     1      16.969 -22.402 -24.832  1.00  0.00     0.032 C 
ENDROOT
BRANCH   1   2
ATOM      2  C   UNL     1      17.881 -23.605 -24.886  1.00  0.00    -0.028 C 
ATOM      3  C   UNL     1      19.209 -23.584 -24.622  1.00  0.00    -0.077 C 
ATOM      4  C   UNL     1      19.918 -22.326 -24.180  1.00  0.00     0.039 C 
BRANCH   3   5
ATOM      5  C   UNL     1      20.007 -24.865 -24.745  1.00  0.00     0.034 C 
BRANCH   5   6
ATOM      6  C   UNL     1      19.415 -25.989 -23.887  1.00  0.00     0.032 C 
BRANCH   6   7
ATOM      7  C   UNL     1      19.747 -25.800 -22.425  1.00  0.00    -0.028 C 
ATOM      8  C   UNL     1      17.375 -25.347 -21.755  1.00  0.00     0.039 C 
ATOM      9  C   UNL     1      18.842 -25.540 -21.455  1.00  0.00    -0.080 C 
ATOM     10  C   UNL     1      19.326 -25.446 -20.031  1.00  0.00     0.039 C 
ENDBRANCH   6   7
ENDBRANCH   5   6
ENDBRANCH   3   5
ENDBRANCH   1   2
BRANCH   1  11
ATOM     11  C   UNL     1      15.807 -22.638 -23.859  1.00  0.00     0.034 C 
BRANCH  11  12
ATOM     12  C   UNL     1      15.840 -21.664 -22.700  1.00  0.00    -0.077 C 
ATOM     13  C   UNL     1      14.752 -21.555 -21.903  1.00  0.00    -0.028 C 
ATOM     14  C   UNL     1      17.100 -20.871 -22.445  1.00  0.00     0.039 C 
BRANCH  13  15
ATOM     15  C   UNL     1      14.648 -20.622 -20.724  1.00  0.00     0.035 C 
BRANCH  15  16
ATOM     16  C   UNL     1      13.191 -20.469 -20.277  1.00  0.00     0.079 C 
BRANCH  16  17
ATOM     17  C   UNL     1      12.736 -19.041 -20.430  1.00  0.00     0.130 C 
ATOM     18  O   UNL     1      11.616 -18.724 -20.058  1.00  0.00    -0.300 OA
ATOM     19  C   UNL     1      13.632 -17.993 -21.022  1.00  0.00     0.087 C 
ENDBRANCH  16  17
ENDBRANCH  15  16
ENDBRANCH  13  15
ENDBRANCH  11  12
ENDBRANCH   1  11
TORSDOF 9
ENDMDL
MODEL 6
REMARK VINA RESULT:    -5.476      3.133      7.993
REMARK INTER + INTRA:          -9.814
REMARK INTER:                  -8.433
REMARK INTRA:                  -1.381
REMARK UNBOUND:                -1.456
REMARK SMILES CC(=O)CCC=C(C)CCC=C(C)CCC=C(C)C
REMARK SMILES IDX 10 1 11 2 12 3 13 4 14 5 15 6 16 7 18 8 17 9 19 10 9 11 7 12
REMARK SMILES IDX 6 13 8 14 5 15 4 16 2 17 3 18 1 19
REMARK H PARENT
REMARK Flexibility Score: inf
ROOT
ATOM      1  C   UNL     1      15.944 -23.765 -22.401  1.00  0.00     0.032 C 
ENDROOT
BRANCH   1   2
ATOM      2  C   UNL     1      16.907 -24.582 -23.231  1.00  0.00    -0.028 C 
ATOM      3  C   UNL     1      17.940 -25.302 -22.733  1.00  0.00    -0.077 C 
ATOM      4  C   UNL     1      18.205 -25.405 -21.250  1.00  0.00     0.039 C 
BRANCH   3   5
ATOM      5  C   UNL     1      18.846 -26.051 -23.689  1.00  0.00     0.034 C 
BRANCH   5   6
ATOM      6  C   UNL     1      20.156 -25.294 -23.941  1.00  0.00     0.032 C 
BRANCH   6   7
ATOM      7  C   UNL     1      19.994 -24.257 -25.028  1.00  0.00    -0.028 C 
ATOM      8  C   UNL     1      19.921 -22.327 -23.432  1.00  0.00     0.039 C 
ATOM      9  C   UNL     1      19.915 -22.924 -24.819  1.00  0.00    -0.080 C 
ATOM     10  C   UNL     1      19.822 -22.015 -26.017  1.00  0.00     0.039 C 
ENDBRANCH   6   7
ENDBRANCH   5   6
ENDBRANCH   3   5
ENDBRANCH   1   2
BRANCH   1  11
ATOM     11  C   UNL     1      15.667 -22.409 -23.059  1.00  0.00     0.034 C 
BRANCH  11  12
ATOM     12  C   UNL     1      15.597 -21.294 -22.036  1.00  0.00    -0.077 C 
ATOM     13  C   UNL     1      14.544 -21.247 -21.188  1.00  0.00    -0.028 C 
ATOM     14  C   UNL     1      16.721 -20.288 -21.970  1.00  0.00     0.039 C 
BRANCH  13  15
ATOM     15  C   UNL     1      14.346 -20.190 -20.131  1.00  0.00     0.035 C 
BRANCH  15  16
ATOM     16  C   UNL     1      13.066 -19.391 -20.393  1.00  0.00     0.079 C 
BRANCH  16  17
ATOM     17  C   UNL     1      13.005 -18.178 -19.502  1.00  0.00     0.130 C 
ATOM     18  O   UNL     1      11.928 -17.642 -19.289  1.00  0.00    -0.300 OA
ATOM     19  C   UNL     1      14.239 -17.617 -18.858  1.00  0.00     0.087 C 
ENDBRANCH  16  17
ENDBRANCH  15  16
ENDBRANCH  13  15
ENDBRANCH  11  12
ENDBRANCH   1  11
TORSDOF 9
ENDMDL
MODEL 7
REMARK VINA RESULT:    -5.458      4.303      7.214
REMARK INTER + INTRA:          -9.786
REMARK INTER:                  -7.326
REMARK INTRA:                  -2.460
REMARK UNBOUND:                -1.456
REMARK SMILES CC(=O)CCC=C(C)CCC=C(C)CCC=C(C)C
REMARK SMILES IDX 10 1 11 2 12 3 13 4 14 5 15 6 16 7 18 8 17 9 19 10 9 11 7 12
REMARK SMILES IDX 6 13 8 14 5 15 4 16 2 17 3 18 1 19
REMARK H PARENT
REMARK Flexibility Score: inf
ROOT
ATOM      1  C   UNL     1      16.144 -17.933 -23.139  1.00  0.00     0.032 C 
ENDROOT
BRANCH   1   2
ATOM      2  C   UNL     1      15.826 -19.151 -22.303  1.00  0.00    -0.028 C 
ATOM      3  C   UNL     1      14.852 -20.049 -22.582  1.00  0.00    -0.077 C 
ATOM      4  C   UNL     1      13.998 -19.947 -23.824  1.00  0.00     0.039 C 
BRANCH   3   5
ATOM      5  C   UNL     1      14.625 -21.210 -21.636  1.00  0.00     0.034 C 
BRANCH   5   6
ATOM      6  C   UNL     1      14.260 -20.731 -20.226  1.00  0.00     0.032 C 
BRANCH   6   7
ATOM      7  C   UNL     1      12.955 -19.968 -20.223  1.00  0.00    -0.028 C 
ATOM      8  C   UNL     1      13.974 -17.865 -19.318  1.00  0.00     0.039 C 
ATOM      9  C   UNL     1      12.816 -18.678 -19.846  1.00  0.00    -0.080 C 
ATOM     10  C   UNL     1      11.456 -18.039 -19.964  1.00  0.00     0.039 C 
ENDBRANCH   6   7
ENDBRANCH   5   6
ENDBRANCH   3   5
ENDBRANCH   1   2
BRANCH   1  11
ATOM     11  C   UNL     1      15.625 -16.656 -22.469  1.00  0.00     0.034 C 
BRANCH  11  12
ATOM     12  C   UNL     1      14.438 -16.076 -23.210  1.00  0.00    -0.077 C 
ATOM     13  C   UNL     1      13.203 -16.569 -22.959  1.00  0.00    -0.028 C 
ATOM     14  C   UNL     1      14.663 -14.940 -24.179  1.00  0.00     0.039 C 
BRANCH  13  15
ATOM     15  C   UNL     1      11.941 -16.091 -23.631  1.00  0.00     0.035 C 
BRANCH  15  16
ATOM     16  C   UNL     1      10.820 -17.125 -23.483  1.00  0.00     0.079 C 
BRANCH  16  17
ATOM     17  C   UNL     1      10.499 -17.754 -24.813  1.00  0.00     0.130 C 
ATOM     18  O   UNL     1       9.763 -18.729 -24.855  1.00  0.00    -0.300 OA
ATOM     19  C   UNL     1      11.055 -17.204 -26.094  1.00  0.00     0.087 C 
ENDBRANCH  16  17
ENDBRANCH  15  16
ENDBRANCH  13  15
ENDBRANCH  11  12
ENDBRANCH   1  11
TORSDOF 9
ENDMDL
MODEL 8
REMARK VINA RESULT:    -5.306      3.360      8.089
REMARK INTER + INTRA:          -9.554
REMARK INTER:                  -8.320
REMARK INTRA:                  -1.233
REMARK UNBOUND:                -1.456
REMARK SMILES CC(=O)CCC=C(C)CCC=C(C)CCC=C(C)C
REMARK SMILES IDX 10 1 11 2 12 3 13 4 14 5 15 6 16 7 18 8 17 9 19 10 9 11 7 12
REMARK SMILES IDX 6 13 8 14 5 15 4 16 2 17 3 18 1 19
REMARK H PARENT
REMARK Flexibility Score: inf
ROOT
ATOM      1  C   UNL     1      17.020 -19.589 -21.339  1.00  0.00     0.032 C 
ENDROOT
BRANCH   1   2
ATOM      2  C   UNL     1      16.750 -20.676 -22.353  1.00  0.00    -0.028 C 
ATOM      3  C   UNL     1      15.690 -21.518 -22.322  1.00  0.00    -0.077 C 
ATOM      4  C   UNL     1      14.612 -21.412 -21.269  1.00  0.00     0.039 C 
BRANCH   3   5
ATOM      5  C   UNL     1      15.562 -22.584 -23.391  1.00  0.00     0.034 C 
BRANCH   5   6
ATOM      6  C   UNL     1      16.079 -23.942 -22.904  1.00  0.00     0.032 C 
BRANCH   6   7
ATOM      7  C   UNL     1      17.424 -24.270 -23.509  1.00  0.00    -0.028 C 
ATOM      8  C   UNL     1      18.308 -25.342 -21.424  1.00  0.00     0.039 C 
ATOM      9  C   UNL     1      18.422 -24.920 -22.869  1.00  0.00    -0.080 C 
ATOM     10  C   UNL     1      19.682 -25.231 -23.635  1.00  0.00     0.039 C 
ENDBRANCH   6   7
ENDBRANCH   5   6
ENDBRANCH   3   5
ENDBRANCH   1   2
BRANCH   1  11
ATOM     11  C   UNL     1      16.408 -18.257 -21.787  1.00  0.00     0.034 C 
BRANCH  11  12
ATOM     12  C   UNL     1      15.242 -17.852 -20.908  1.00  0.00    -0.077 C 
ATOM     13  C   UNL     1      14.004 -17.792 -21.448  1.00  0.00    -0.028 C 
ATOM     14  C   UNL     1      15.492 -17.564 -19.447  1.00  0.00     0.039 C 
BRANCH  13  15
ATOM     15  C   UNL     1      12.761 -17.396 -20.692  1.00  0.00     0.035 C 
BRANCH  15  16
ATOM     16  C   UNL     1      11.942 -18.632 -20.305  1.00  0.00     0.079 C 
BRANCH  16  17
ATOM     17  C   UNL     1      10.577 -18.231 -19.811  1.00  0.00     0.130 C 
ATOM     18  O   UNL     1      10.478 -17.569 -18.789  1.00  0.00    -0.300 OA
ATOM     19  C   UNL     1       9.331 -18.618 -20.553  1.00  0.00     0.087 C 
ENDBRANCH  16  17
ENDBRANCH  15  16
ENDBRANCH  13  15
ENDBRANCH  11  12
ENDBRANCH   1  11
TORSDOF 9
ENDMDL
MODEL 9
REMARK VINA RESULT:    -5.266      2.445      4.202
REMARK INTER + INTRA:          -9.493
REMARK INTER:                  -7.089
REMARK INTRA:                  -2.404
REMARK UNBOUND:                -1.456
REMARK SMILES CC(=O)CCC=C(C)CCC=C(C)CCC=C(C)C
REMARK SMILES IDX 10 1 11 2 12 3 13 4 14 5 15 6 16 7 18 8 17 9 19 10 9 11 7 12
REMARK SMILES IDX 6 13 8 14 5 15 4 16 2 17 3 18 1 19
REMARK H PARENT
REMARK Flexibility Score: inf
ROOT
ATOM      1  C   UNL     1      15.026 -16.718 -23.459  1.00  0.00     0.032 C 
ENDROOT
BRANCH   1   2
ATOM      2  C   UNL     1      13.721 -16.763 -22.698  1.00  0.00    -0.028 C 
ATOM      3  C   UNL     1      12.942 -17.861 -22.561  1.00  0.00    -0.077 C 
ATOM      4  C   UNL     1      13.341 -19.204 -23.126  1.00  0.00     0.039 C 
BRANCH   3   5
ATOM      5  C   UNL     1      11.641 -17.753 -21.793  1.00  0.00     0.034 C 
BRANCH   5   6
ATOM      6  C   UNL     1      11.692 -18.533 -20.474  1.00  0.00     0.032 C 
BRANCH   6   7
ATOM      7  C   UNL     1      12.622 -17.877 -19.480  1.00  0.00    -0.028 C 
ATOM      8  C   UNL     1      14.282 -19.754 -19.515  1.00  0.00     0.039 C 
ATOM      9  C   UNL     1      13.797 -18.397 -19.062  1.00  0.00    -0.080 C 
ATOM     10  C   UNL     1      14.645 -17.586 -18.116  1.00  0.00     0.039 C 
ENDBRANCH   6   7
ENDBRANCH   5   6
ENDBRANCH   3   5
ENDBRANCH   1   2
BRANCH   1  11
ATOM     11  C   UNL     1      16.191 -16.360 -22.530  1.00  0.00     0.034 C 
BRANCH  11  12
ATOM     12  C   UNL     1      16.725 -17.578 -21.806  1.00  0.00    -0.077 C 
ATOM     13  C   UNL     1      16.746 -18.768 -22.450  1.00  0.00    -0.028 C 
ATOM     14  C   UNL     1      17.251 -17.422 -20.399  1.00  0.00     0.039 C 
BRANCH  13  15
ATOM     15  C   UNL     1      17.240 -20.057 -21.846  1.00  0.00     0.035 C 
BRANCH  15  16
ATOM     16  C   UNL     1      17.587 -21.073 -22.938  1.00  0.00     0.079 C 
BRANCH  16  17
ATOM     17  C   UNL     1      16.433 -22.011 -23.178  1.00  0.00     0.130 C 
ATOM     18  O   UNL     1      16.372 -22.632 -24.228  1.00  0.00    -0.300 OA
ATOM     19  C   UNL     1      15.358 -22.207 -22.151  1.00  0.00     0.087 C 
ENDBRANCH  16  17
ENDBRANCH  15  16
ENDBRANCH  13  15
ENDBRANCH  11  12
ENDBRANCH   1  11
TORSDOF 9
ENDMDL
