MODEL 1
REMARK VINA RESULT:    -3.753      0.000      0.000
REMARK INTER + INTRA:          -7.986
REMARK INTER:                  -6.605
REMARK INTRA:                  -1.381
REMARK UNBOUND:                -1.381
REMARK SMILES CCCCCCCCCCCCCCC(=O)[O-]
REMARK SMILES IDX 9 1 10 2 11 3 12 4 13 5 14 6 15 7 16 8 17 9 8 10 7 11 6 12
REMARK SMILES IDX 5 13 4 14 3 15 2 16 1 17
REMARK H PARENT
REMARK Flexibility Score: inf
ROOT
ATOM      1  C   UNL     1       0.523  22.637  26.050  1.00  0.00     0.000 C 
ENDROOT
BRANCH   1   2
ATOM      2  C   UNL     1       1.813  22.094  26.699  1.00  0.00     0.000 C 
BRANCH   2   3
ATOM      3  C   UNL     1       3.003  23.070  26.718  1.00  0.00     0.000 C 
BRANCH   3   4
ATOM      4  C   UNL     1       4.346  22.370  26.983  1.00  0.00     0.000 C 
BRANCH   4   5
ATOM      5  C   UNL     1       5.534  23.092  26.321  1.00  0.00     0.006 C 
BRANCH   5   6
ATOM      6  C   UNL     1       5.147  24.018  25.156  1.00  0.00     0.053 C 
BRANCH   6   7
ATOM      7  C   UNL     1       6.342  24.458  24.369  1.00  0.00     0.041 C 
ATOM      8  O   UNL     1       6.725  23.790  23.372  1.00  0.00    -0.550 OA
ATOM      9  O   UNL     1       7.014  25.623  24.716  1.00  0.00    -0.550 OA
ENDBRANCH   6   7
ENDBRANCH   5   6
ENDBRANCH   4   5
ENDBRANCH   3   4
ENDBRANCH   2   3
ENDBRANCH   1   2
BRANCH   1  10
ATOM     10  C   UNL     1      -0.355  23.507  26.967  1.00  0.00     0.000 C 
BRANCH  10  11
ATOM     11  C   UNL     1      -0.786  24.825  26.306  1.00  0.00    -0.000 C 
BRANCH  11  12
ATOM     12  C   UNL     1       0.432  25.719  26.022  1.00  0.00    -0.000 C 
BRANCH  12  13
ATOM     13  C   UNL     1       0.701  25.892  24.517  1.00  0.00    -0.000 C 
BRANCH  13  14
ATOM     14  C   UNL     1       1.940  25.111  24.046  1.00  0.00    -0.000 C 
BRANCH  14  15
ATOM     15  C   UNL     1       2.053  25.037  22.513  1.00  0.00    -0.000 C 
BRANCH  15  16
ATOM     16  C   UNL     1       2.506  23.675  21.959  1.00  0.00    -0.003 C 
ATOM     17  C   UNL     1       1.677  22.506  22.491  1.00  0.00     0.004 C 
ENDBRANCH  15  16
ENDBRANCH  14  15
ENDBRANCH  13  14
ENDBRANCH  12  13
ENDBRANCH  11  12
ENDBRANCH  10  11
ENDBRANCH   1  10
TORSDOF 13
ENDMDL
MODEL 2
REMARK VINA RESULT:    -3.649      2.796      4.094
REMARK INTER + INTRA:          -7.803
REMARK INTER:                  -6.891
REMARK INTRA:                  -0.912
REMARK UNBOUND:                -1.381
REMARK SMILES CCCCCCCCCCCCCCC(=O)[O-]
REMARK SMILES IDX 9 1 10 2 11 3 12 4 13 5 14 6 15 7 16 8 17 9 8 10 7 11 6 12
REMARK SMILES IDX 5 13 4 14 3 15 2 16 1 17
REMARK H PARENT
REMARK Flexibility Score: inf
ROOT
ATOM      1  C   UNL     1       1.576  22.638  22.942  1.00  0.00     0.000 C 
ENDROOT
BRANCH   1   2
ATOM      2  C   UNL     1       1.096  23.186  24.302  1.00  0.00     0.000 C 
BRANCH   2   3
ATOM      3  C   UNL     1       1.902  22.710  25.525  1.00  0.00     0.000 C 
BRANCH   3   4
ATOM      4  C   UNL     1       2.743  23.831  26.159  1.00  0.00     0.000 C 
BRANCH   4   5
ATOM      5  C   UNL     1       4.206  23.415  26.396  1.00  0.00     0.006 C 
BRANCH   5   6
ATOM      6  C   UNL     1       5.245  24.381  25.801  1.00  0.00     0.053 C 
BRANCH   6   7
ATOM      7  C   UNL     1       6.035  23.744  24.700  1.00  0.00     0.041 C 
ATOM      8  O   UNL     1       6.938  22.908  24.970  1.00  0.00    -0.550 OA
ATOM      9  O   UNL     1       5.753  24.048  23.375  1.00  0.00    -0.550 OA
ENDBRANCH   6   7
ENDBRANCH   5   6
ENDBRANCH   4   5
ENDBRANCH   3   4
ENDBRANCH   2   3
ENDBRANCH   1   2
BRANCH   1  10
ATOM     10  C   UNL     1       2.075  23.701  21.947  1.00  0.00     0.000 C 
BRANCH  10  11
ATOM     11  C   UNL     1       2.406  25.041  22.622  1.00  0.00    -0.000 C 
BRANCH  11  12
ATOM     12  C   UNL     1       1.875  26.218  21.791  1.00  0.00    -0.000 C 
BRANCH  12  13
ATOM     13  C   UNL     1       1.034  27.200  22.624  1.00  0.00    -0.000 C 
BRANCH  13  14
ATOM     14  C   UNL     1       0.718  28.499  21.862  1.00  0.00    -0.000 C 
BRANCH  14  15
ATOM     15  C   UNL     1      -0.328  28.301  20.750  1.00  0.00    -0.000 C 
BRANCH  15  16
ATOM     16  C   UNL     1      -1.158  29.551  20.407  1.00  0.00    -0.003 C 
ATOM     17  C   UNL     1      -0.298  30.747  19.999  1.00  0.00     0.004 C 
ENDBRANCH  15  16
ENDBRANCH  14  15
ENDBRANCH  13  14
ENDBRANCH  12  13
ENDBRANCH  11  12
ENDBRANCH  10  11
ENDBRANCH   1  10
TORSDOF 13
ENDMDL
MODEL 3
REMARK VINA RESULT:    -3.570      4.352      6.922
REMARK INTER + INTRA:          -7.665
REMARK INTER:                  -6.459
REMARK INTRA:                  -1.205
REMARK UNBOUND:                -1.381
REMARK SMILES CCCCCCCCCCCCCCC(=O)[O-]
REMARK SMILES IDX 9 1 10 2 11 3 12 4 13 5 14 6 15 7 16 8 17 9 8 10 7 11 6 12
REMARK SMILES IDX 5 13 4 14 3 15 2 16 1 17
REMARK H PARENT
REMARK Flexibility Score: inf
ROOT
ATOM      1  C   UNL     1       2.439  24.342  21.923  1.00  0.00     0.000 C 
ENDROOT
BRANCH   1   2
ATOM      2  C   UNL     1       1.510  25.494  21.487  1.00  0.00     0.000 C 
BRANCH   2   3
ATOM      3  C   UNL     1       1.902  26.888  22.009  1.00  0.00     0.000 C 
BRANCH   3   4
ATOM      4  C   UNL     1       0.706  27.852  22.095  1.00  0.00     0.000 C 
BRANCH   4   5
ATOM      5  C   UNL     1      -0.049  27.984  20.760  1.00  0.00     0.006 C 
BRANCH   5   6
ATOM      6  C   UNL     1      -1.068  29.135  20.717  1.00  0.00     0.053 C 
BRANCH   6   7
ATOM      7  C   UNL     1      -0.478  30.383  20.136  1.00  0.00     0.041 C 
ATOM      8  O   UNL     1       0.768  30.484  19.985  1.00  0.00    -0.550 OA
ATOM      9  O   UNL     1      -1.307  31.421  19.732  1.00  0.00    -0.550 OA
ENDBRANCH   6   7
ENDBRANCH   5   6
ENDBRANCH   4   5
ENDBRANCH   3   4
ENDBRANCH   2   3
ENDBRANCH   1   2
BRANCH   1  10
ATOM     10  C   UNL     1       2.119  23.728  23.298  1.00  0.00     0.000 C 
BRANCH  10  11
ATOM     11  C   UNL     1       3.216  23.994  24.340  1.00  0.00    -0.000 C 
BRANCH  11  12
ATOM     12  C   UNL     1       2.790  23.484  25.725  1.00  0.00    -0.000 C 
BRANCH  12  13
ATOM     13  C   UNL     1       1.769  22.336  25.646  1.00  0.00    -0.000 C 
BRANCH  13  14
ATOM     14  C   UNL     1       0.394  22.730  26.214  1.00  0.00    -0.000 C 
BRANCH  14  15
ATOM     15  C   UNL     1       0.428  24.054  26.998  1.00  0.00    -0.000 C 
BRANCH  15  16
ATOM     16  C   UNL     1      -0.476  25.165  26.436  1.00  0.00    -0.003 C 
ATOM     17  C   UNL     1       0.251  26.096  25.466  1.00  0.00     0.004 C 
ENDBRANCH  15  16
ENDBRANCH  14  15
ENDBRANCH  13  14
ENDBRANCH  12  13
ENDBRANCH  11  12
ENDBRANCH  10  11
ENDBRANCH   1  10
TORSDOF 13
ENDMDL
MODEL 4
REMARK VINA RESULT:    -3.337      4.150      6.478
REMARK INTER + INTRA:          -7.254
REMARK INTER:                  -6.168
REMARK INTRA:                  -1.086
REMARK UNBOUND:                -1.381
REMARK SMILES CCCCCCCCCCCCCCC(=O)[O-]
REMARK SMILES IDX 9 1 10 2 11 3 12 4 13 5 14 6 15 7 16 8 17 9 8 10 7 11 6 12
REMARK SMILES IDX 5 13 4 14 3 15 2 16 1 17
REMARK H PARENT
REMARK Flexibility Score: inf
ROOT
ATOM      1  C   UNL     1       2.394  23.463  22.060  1.00  0.00     0.000 C 
ENDROOT
BRANCH   1   2
ATOM      2  C   UNL     1       2.498  24.851  22.725  1.00  0.00     0.000 C 
BRANCH   2   3
ATOM      3  C   UNL     1       2.019  26.032  21.862  1.00  0.00     0.000 C 
BRANCH   3   4
ATOM      4  C   UNL     1       1.069  26.977  22.618  1.00  0.00     0.000 C 
BRANCH   4   5
ATOM      5  C   UNL     1       0.823  28.299  21.868  1.00  0.00     0.006 C 
BRANCH   5   6
ATOM      6  C   UNL     1      -0.381  28.272  20.911  1.00  0.00     0.053 C 
BRANCH   6   7
ATOM      7  C   UNL     1      -0.696  29.632  20.369  1.00  0.00     0.041 C 
ATOM      8  O   UNL     1       0.230  30.380  19.958  1.00  0.00    -0.550 OA
ATOM      9  O   UNL     1      -2.015  30.060  20.287  1.00  0.00    -0.550 OA
ENDBRANCH   6   7
ENDBRANCH   5   6
ENDBRANCH   4   5
ENDBRANCH   3   4
ENDBRANCH   2   3
ENDBRANCH   1   2
BRANCH   1  10
ATOM     10  C   UNL     1       1.561  22.427  22.835  1.00  0.00     0.000 C 
BRANCH  10  11
ATOM     11  C   UNL     1       1.069  22.951  24.193  1.00  0.00    -0.000 C 
BRANCH  11  12
ATOM     12  C   UNL     1       2.014  22.518  25.323  1.00  0.00    -0.000 C 
BRANCH  12  13
ATOM     13  C   UNL     1       2.249  23.630  26.359  1.00  0.00    -0.000 C 
BRANCH  13  14
ATOM     14  C   UNL     1       3.741  23.839  26.673  1.00  0.00    -0.000 C 
BRANCH  14  15
ATOM     15  C   UNL     1       4.651  23.561  25.463  1.00  0.00    -0.000 C 
BRANCH  15  16
ATOM     16  C   UNL     1       5.881  24.478  25.350  1.00  0.00    -0.003 C 
ATOM     17  C   UNL     1       6.341  24.689  23.908  1.00  0.00     0.004 C 
ENDBRANCH  15  16
ENDBRANCH  14  15
ENDBRANCH  13  14
ENDBRANCH  12  13
ENDBRANCH  11  12
ENDBRANCH  10  11
ENDBRANCH   1  10
TORSDOF 13
ENDMDL
MODEL 5
REMARK VINA RESULT:    -3.263      2.040      4.591
REMARK INTER + INTRA:          -7.124
REMARK INTER:                  -5.904
REMARK INTRA:                  -1.220
REMARK UNBOUND:                -1.381
REMARK SMILES CCCCCCCCCCCCCCC(=O)[O-]
REMARK SMILES IDX 9 1 10 2 11 3 12 4 13 5 14 6 15 7 16 8 17 9 8 10 7 11 6 12
REMARK SMILES IDX 5 13 4 14 3 15 2 16 1 17
REMARK H PARENT
REMARK Flexibility Score: inf
ROOT
ATOM      1  C   UNL     1       0.241  22.571  26.936  1.00  0.00     0.000 C 
ENDROOT
BRANCH   1   2
ATOM      2  C   UNL     1      -0.612  23.851  26.814  1.00  0.00     0.000 C 
BRANCH   2   3
ATOM      3  C   UNL     1       0.185  25.160  26.670  1.00  0.00     0.000 C 
BRANCH   3   4
ATOM      4  C   UNL     1       0.363  25.593  25.204  1.00  0.00     0.000 C 
BRANCH   4   5
ATOM      5  C   UNL     1       1.701  25.124  24.604  1.00  0.00     0.006 C 
BRANCH   5   6
ATOM      6  C   UNL     1       1.601  23.855  23.741  1.00  0.00     0.053 C 
BRANCH   6   7
ATOM      7  C   UNL     1       2.004  24.110  22.321  1.00  0.00     0.041 C 
ATOM      8  O   UNL     1       2.126  23.150  21.516  1.00  0.00    -0.550 OA
ATOM      9  O   UNL     1       2.212  25.410  21.880  1.00  0.00    -0.550 OA
ENDBRANCH   6   7
ENDBRANCH   5   6
ENDBRANCH   4   5
ENDBRANCH   3   4
ENDBRANCH   2   3
ENDBRANCH   1   2
BRANCH   1  10
ATOM     10  C   UNL     1       1.750  22.805  27.124  1.00  0.00     0.000 C 
BRANCH  10  11
ATOM     11  C   UNL     1       2.607  21.669  26.544  1.00  0.00    -0.000 C 
BRANCH  11  12
ATOM     12  C   UNL     1       4.099  21.913  26.821  1.00  0.00    -0.000 C 
BRANCH  12  13
ATOM     13  C   UNL     1       4.526  23.362  26.529  1.00  0.00    -0.000 C 
BRANCH  13  14
ATOM     14  C   UNL     1       6.053  23.547  26.581  1.00  0.00    -0.000 C 
BRANCH  14  15
ATOM     15  C   UNL     1       6.510  24.905  26.017  1.00  0.00    -0.000 C 
BRANCH  15  16
ATOM     16  C   UNL     1       6.315  25.078  24.501  1.00  0.00    -0.003 C 
ATOM     17  C   UNL     1       6.842  23.894  23.690  1.00  0.00     0.004 C 
ENDBRANCH  15  16
ENDBRANCH  14  15
ENDBRANCH  13  14
ENDBRANCH  12  13
ENDBRANCH  11  12
ENDBRANCH  10  11
ENDBRANCH   1  10
TORSDOF 13
ENDMDL
MODEL 6
REMARK VINA RESULT:    -3.172      3.514      5.053
REMARK INTER + INTRA:          -6.964
REMARK INTER:                  -6.389
REMARK INTRA:                  -0.575
REMARK UNBOUND:                -1.381
REMARK SMILES CCCCCCCCCCCCCCC(=O)[O-]
REMARK SMILES IDX 9 1 10 2 11 3 12 4 13 5 14 6 15 7 16 8 17 9 8 10 7 11 6 12
REMARK SMILES IDX 5 13 4 14 3 15 2 16 1 17
REMARK H PARENT
REMARK Flexibility Score: inf
ROOT
ATOM      1  C   UNL     1       2.899  23.763  22.274  1.00  0.00     0.000 C 
ENDROOT
BRANCH   1   2
ATOM      2  C   UNL     1       2.611  23.242  23.698  1.00  0.00     0.000 C 
BRANCH   2   3
ATOM      3  C   UNL     1       1.123  23.038  24.036  1.00  0.00     0.000 C 
BRANCH   3   4
ATOM      4  C   UNL     1       0.878  22.807  25.537  1.00  0.00     0.000 C 
BRANCH   4   5
ATOM      5  C   UNL     1       2.133  22.309  26.275  1.00  0.00     0.006 C 
BRANCH   5   6
ATOM      6  C   UNL     1       2.901  23.404  27.034  1.00  0.00     0.053 C 
BRANCH   6   7
ATOM      7  C   UNL     1       4.384  23.241  26.903  1.00  0.00     0.041 C 
ATOM      8  O   UNL     1       5.121  24.251  26.756  1.00  0.00    -0.550 OA
ATOM      9  O   UNL     1       4.954  21.977  26.976  1.00  0.00    -0.550 OA
ENDBRANCH   6   7
ENDBRANCH   5   6
ENDBRANCH   4   5
ENDBRANCH   3   4
ENDBRANCH   2   3
ENDBRANCH   1   2
BRANCH   1  10
ATOM     10  C   UNL     1       1.867  24.762  21.722  1.00  0.00     0.000 C 
BRANCH  10  11
ATOM     11  C   UNL     1       2.234  26.224  22.016  1.00  0.00    -0.000 C 
BRANCH  11  12
ATOM     12  C   UNL     1       1.053  26.967  22.657  1.00  0.00    -0.000 C 
BRANCH  12  13
ATOM     13  C   UNL     1       0.702  28.271  21.920  1.00  0.00    -0.000 C 
BRANCH  13  14
ATOM     14  C   UNL     1      -0.325  28.053  20.795  1.00  0.00    -0.000 C 
BRANCH  14  15
ATOM     15  C   UNL     1      -1.203  29.291  20.538  1.00  0.00    -0.000 C 
BRANCH  15  16
ATOM     16  C   UNL     1      -0.451  30.520  19.996  1.00  0.00    -0.003 C 
ATOM     17  C   UNL     1      -1.385  31.649  19.560  1.00  0.00     0.004 C 
ENDBRANCH  15  16
ENDBRANCH  14  15
ENDBRANCH  13  14
ENDBRANCH  12  13
ENDBRANCH  11  12
ENDBRANCH  10  11
ENDBRANCH   1  10
TORSDOF 13
ENDMDL
MODEL 7
REMARK VINA RESULT:    -3.093      1.643      4.217
REMARK INTER + INTRA:          -6.824
REMARK INTER:                  -5.774
REMARK INTRA:                  -1.050
REMARK UNBOUND:                -1.381
REMARK SMILES CCCCCCCCCCCCCCC(=O)[O-]
REMARK SMILES IDX 9 1 10 2 11 3 12 4 13 5 14 6 15 7 16 8 17 9 8 10 7 11 6 12
REMARK SMILES IDX 5 13 4 14 3 15 2 16 1 17
REMARK H PARENT
REMARK Flexibility Score: inf
ROOT
ATOM      1  C   UNL     1       2.604  23.559  21.588  1.00  0.00     0.000 C 
ENDROOT
BRANCH   1   2
ATOM      2  C   UNL     1       2.565  24.929  22.295  1.00  0.00     0.000 C 
BRANCH   2   3
ATOM      3  C   UNL     1       3.612  25.127  23.406  1.00  0.00     0.000 C 
BRANCH   3   4
ATOM      4  C   UNL     1       4.657  23.999  23.450  1.00  0.00     0.000 C 
BRANCH   4   5
ATOM      5  C   UNL     1       6.065  24.506  23.808  1.00  0.00     0.006 C 
BRANCH   5   6
ATOM      6  C   UNL     1       6.601  23.996  25.156  1.00  0.00     0.053 C 
BRANCH   6   7
ATOM      7  C   UNL     1       5.991  24.725  26.314  1.00  0.00     0.041 C 
ATOM      8  O   UNL     1       6.399  25.876  26.623  1.00  0.00    -0.550 OA
ATOM      9  O   UNL     1       4.950  24.148  27.030  1.00  0.00    -0.550 OA
ENDBRANCH   6   7
ENDBRANCH   5   6
ENDBRANCH   4   5
ENDBRANCH   3   4
ENDBRANCH   2   3
ENDBRANCH   1   2
BRANCH   1  10
ATOM     10  C   UNL     1       1.443  22.610  21.936  1.00  0.00     0.000 C 
BRANCH  10  11
ATOM     11  C   UNL     1       1.590  21.972  23.326  1.00  0.00    -0.000 C 
BRANCH  11  12
ATOM     12  C   UNL     1       1.062  22.914  24.419  1.00  0.00    -0.000 C 
BRANCH  12  13
ATOM     13  C   UNL     1       1.578  22.544  25.820  1.00  0.00    -0.000 C 
BRANCH  13  14
ATOM     14  C   UNL     1       1.183  23.580  26.886  1.00  0.00    -0.000 C 
BRANCH  14  15
ATOM     15  C   UNL     1      -0.342  23.713  27.055  1.00  0.00    -0.000 C 
BRANCH  15  16
ATOM     16  C   UNL     1      -0.969  24.933  26.359  1.00  0.00    -0.003 C 
ATOM     17  C   UNL     1       0.035  26.055  26.096  1.00  0.00     0.004 C 
ENDBRANCH  15  16
ENDBRANCH  14  15
ENDBRANCH  13  14
ENDBRANCH  12  13
ENDBRANCH  11  12
ENDBRANCH  10  11
ENDBRANCH   1  10
TORSDOF 13
ENDMDL
MODEL 8
REMARK VINA RESULT:    -2.884     13.718     15.875
REMARK INTER + INTRA:          -6.457
REMARK INTER:                  -4.114
REMARK INTRA:                  -2.343
REMARK UNBOUND:                -1.381
REMARK SMILES CCCCCCCCCCCCCCC(=O)[O-]
REMARK SMILES IDX 9 1 10 2 11 3 12 4 13 5 14 6 15 7 16 8 17 9 8 10 7 11 6 12
REMARK SMILES IDX 5 13 4 14 3 15 2 16 1 17
REMARK H PARENT
REMARK Flexibility Score: inf
ROOT
ATOM      1  C   UNL     1      -8.799  15.819  23.769  1.00  0.00     0.000 C 
ENDROOT
BRANCH   1   2
ATOM      2  C   UNL     1      -8.887  17.193  24.465  1.00  0.00     0.000 C 
BRANCH   2   3
ATOM      3  C   UNL     1      -8.257  17.262  25.868  1.00  0.00     0.000 C 
BRANCH   3   4
ATOM      4  C   UNL     1      -9.102  18.075  26.864  1.00  0.00     0.000 C 
BRANCH   4   5
ATOM      5  C   UNL     1     -10.335  18.723  26.207  1.00  0.00     0.006 C 
BRANCH   5   6
ATOM      6  C   UNL     1     -10.642  20.146  26.700  1.00  0.00     0.053 C 
BRANCH   6   7
ATOM      7  C   UNL     1     -11.847  20.725  26.024  1.00  0.00     0.041 C 
ATOM      8  O   UNL     1     -12.829  19.990  25.742  1.00  0.00    -0.550 OA
ATOM      9  O   UNL     1     -11.897  22.083  25.735  1.00  0.00    -0.550 OA
ENDBRANCH   6   7
ENDBRANCH   5   6
ENDBRANCH   4   5
ENDBRANCH   3   4
ENDBRANCH   2   3
ENDBRANCH   1   2
BRANCH   1  10
ATOM     10  C   UNL     1      -8.682  14.612  24.717  1.00  0.00     0.000 C 
BRANCH  10  11
ATOM     11  C   UNL     1     -10.031  13.925  24.978  1.00  0.00    -0.000 C 
BRANCH  11  12
ATOM     12  C   UNL     1     -10.641  14.404  26.305  1.00  0.00    -0.000 C 
BRANCH  12  13
ATOM     13  C   UNL     1     -11.827  15.361  26.100  1.00  0.00    -0.000 C 
BRANCH  13  14
ATOM     14  C   UNL     1     -12.439  15.249  24.692  1.00  0.00    -0.000 C 
BRANCH  14  15
ATOM     15  C   UNL     1     -12.495  16.598  23.954  1.00  0.00    -0.000 C 
BRANCH  15  16
ATOM     16  C   UNL     1     -12.359  16.509  22.424  1.00  0.00    -0.003 C 
ATOM     17  C   UNL     1     -11.948  15.118  21.939  1.00  0.00     0.004 C 
ENDBRANCH  15  16
ENDBRANCH  14  15
ENDBRANCH  13  14
ENDBRANCH  12  13
ENDBRANCH  11  12
ENDBRANCH  10  11
ENDBRANCH   1  10
TORSDOF 13
ENDMDL
MODEL 9
REMARK VINA RESULT:    -2.834     13.866     15.957
REMARK INTER + INTRA:          -6.369
REMARK INTER:                  -4.612
REMARK INTRA:                  -1.757
REMARK UNBOUND:                -1.381
REMARK SMILES CCCCCCCCCCCCCCC(=O)[O-]
REMARK SMILES IDX 9 1 10 2 11 3 12 4 13 5 14 6 15 7 16 8 17 9 8 10 7 11 6 12
REMARK SMILES IDX 5 13 4 14 3 15 2 16 1 17
REMARK H PARENT
REMARK Flexibility Score: inf
ROOT
ATOM      1  C   UNL     1      -7.796  15.766  24.462  1.00  0.00     0.000 C 
ENDROOT
BRANCH   1   2
ATOM      2  C   UNL     1      -8.539  17.030  24.942  1.00  0.00     0.000 C 
BRANCH   2   3
ATOM      3  C   UNL     1      -8.453  17.310  26.454  1.00  0.00     0.000 C 
BRANCH   3   4
ATOM      4  C   UNL     1      -9.691  18.043  26.997  1.00  0.00     0.000 C 
BRANCH   4   5
ATOM      5  C   UNL     1     -10.238  19.096  26.015  1.00  0.00     0.006 C 
BRANCH   5   6
ATOM      6  C   UNL     1     -10.860  20.330  26.689  1.00  0.00     0.053 C 
BRANCH   6   7
ATOM      7  C   UNL     1     -12.042  20.847  25.928  1.00  0.00     0.041 C 
ATOM      8  O   UNL     1     -12.990  20.074  25.630  1.00  0.00    -0.550 OA
ATOM      9  O   UNL     1     -12.111  22.189  25.577  1.00  0.00    -0.550 OA
ENDBRANCH   6   7
ENDBRANCH   5   6
ENDBRANCH   4   5
ENDBRANCH   3   4
ENDBRANCH   2   3
ENDBRANCH   1   2
BRANCH   1  10
ATOM     10  C   UNL     1      -8.699  14.637  23.934  1.00  0.00     0.000 C 
BRANCH  10  11
ATOM     11  C   UNL     1      -9.362  14.981  22.592  1.00  0.00    -0.000 C 
BRANCH  11  12
ATOM     12  C   UNL     1     -10.507  14.004  22.281  1.00  0.00    -0.000 C 
BRANCH  12  13
ATOM     13  C   UNL     1     -11.640  14.658  21.472  1.00  0.00    -0.000 C 
BRANCH  13  14
ATOM     14  C   UNL     1     -12.098  15.997  22.075  1.00  0.00    -0.000 C 
BRANCH  14  15
ATOM     15  C   UNL     1     -12.905  15.823  23.374  1.00  0.00    -0.000 C 
BRANCH  15  16
ATOM     16  C   UNL     1     -12.242  16.406  24.635  1.00  0.00    -0.003 C 
ATOM     17  C   UNL     1     -11.911  15.345  25.683  1.00  0.00     0.004 C 
ENDBRANCH  15  16
ENDBRANCH  14  15
ENDBRANCH  13  14
ENDBRANCH  12  13
ENDBRANCH  11  12
ENDBRANCH  10  11
ENDBRANCH   1  10
TORSDOF 13
ENDMDL
