MODEL 1
REMARK VINA RESULT:    -3.983      0.000      0.000
REMARK INTER + INTRA:          -5.478
REMARK INTER:                  -5.613
REMARK INTRA:                   0.135
REMARK UNBOUND:                 0.135
REMARK SMILES CC1=CCC(=C(C)C)C(=O)CC(C)=CCC1
REMARK SMILES IDX 12 1 14 2 13 3 15 4 16 5 2 6 1 7 3 8 11 10 9 11 10 12 5 13
REMARK SMILES IDX 6 14 7 15 8 16 4 17
REMARK H PARENT
REMARK Flexibility Score: 60.00
ROOT
ATOM      1  C   UNL     1      -2.668  -0.343   9.013  1.00  0.00    -0.070 C 
ATOM      2  C   UNL     1      -2.577  -1.505   8.325  1.00  0.00    -0.027 C 
ATOM      3  C   UNL     1      -1.576   0.679   8.829  1.00  0.00     0.039 C 
ENDROOT
BRANCH   2   4
ATOM      4  C   UNL     1      -3.495  -2.687   8.500  1.00  0.00     0.032 C 
BRANCH   4   5
ATOM      5  C   UNL     1      -2.792  -3.775   9.319  1.00  0.00     0.034 C 
BRANCH   5   6
ATOM      6  C   UNL     1      -3.308  -3.855  10.742  1.00  0.00    -0.077 C 
ATOM      7  C   UNL     1      -4.425  -4.821  11.051  1.00  0.00     0.039 C 
ATOM      8  C   UNL     1      -2.774  -3.157  11.774  1.00  0.00    -0.023 CG0
ATOM      9  G   UNL     1      -1.695  -2.092  11.707  1.00  0.00     0.000 G0
ENDBRANCH   5   6
ENDBRANCH   4   5
ENDBRANCH   2   4
BRANCH   1  10
ATOM     10  C   UNL     1      -3.820  -0.012   9.941  1.00  0.00     0.111 C 
BRANCH  10  11
ATOM     11  C   UNL     1      -3.461  -0.243  11.389  1.00  0.00     0.163 C 
ATOM     12  O   UNL     1      -4.387  -0.116  12.236  1.00  0.00    -0.294 OA
BRANCH  11  13
ATOM     13  C   UNL     1      -2.089  -0.629  11.859  1.00  0.00    -0.002 C 
ATOM     14  C   UNL     1      -1.314   0.263  12.550  1.00  0.00    -0.069 C 
ATOM     15  C   UNL     1      -0.033  -0.154  13.237  1.00  0.00     0.039 C 
ATOM     16  C   UNL     1      -1.670   1.730  12.618  1.00  0.00     0.039 C 
BRANCH  13  17
ATOM     17  C   UNL     1      -1.669  -2.087  11.705  1.00  0.00     0.066 CG0
ATOM     18  G   UNL     1      -2.779  -3.120  11.775  1.00  0.00     0.000 G0
ENDBRANCH  13  17
ENDBRANCH  11  13
ENDBRANCH  10  11
ENDBRANCH   1  10
TORSDOF 0
ENDMDL
MODEL 2
REMARK VINA RESULT:    -3.841      5.599      7.818
REMARK INTER + INTRA:          -5.278
REMARK INTER:                  -5.169
REMARK INTRA:                  -0.108
REMARK UNBOUND:                 0.135
REMARK SMILES CC1=CCC(=C(C)C)C(=O)CC(C)=CCC1
REMARK SMILES IDX 12 1 14 2 13 3 15 4 16 5 2 6 1 7 3 8 11 10 9 11 10 12 5 13
REMARK SMILES IDX 6 14 7 15 8 16 4 17
REMARK H PARENT
REMARK Flexibility Score: 60.00
ROOT
ATOM      1  C   UNL     1      -6.049   3.023  15.141  1.00  0.00    -0.070 C 
ATOM      2  C   UNL     1      -5.444   1.997  14.497  1.00  0.00    -0.027 C 
ATOM      3  C   UNL     1      -6.482   2.809  16.569  1.00  0.00     0.039 C 
ENDROOT
BRANCH   2   4
ATOM      4  C   UNL     1      -5.083   1.989  13.034  1.00  0.00     0.032 C 
BRANCH   4   5
ATOM      5  C   UNL     1      -3.684   2.586  12.840  1.00  0.00     0.034 C 
BRANCH   5   6
ATOM      6  C   UNL     1      -3.619   3.545  11.670  1.00  0.00    -0.077 C 
ATOM      7  C   UNL     1      -3.760   2.990  10.273  1.00  0.00     0.039 C 
ATOM      8  C   UNL     1      -3.512   4.890  11.806  1.00  0.00    -0.023 CG0
ATOM      9  G   UNL     1      -3.301   5.674  13.089  1.00  0.00     0.000 G0
ENDBRANCH   5   6
ENDBRANCH   4   5
ENDBRANCH   2   4
BRANCH   1  10
ATOM     10  C   UNL     1      -6.294   4.377  14.507  1.00  0.00     0.111 C 
BRANCH  10  11
ATOM     11  C   UNL     1      -5.181   5.352  14.810  1.00  0.00     0.163 C 
ATOM     12  O   UNL     1      -4.774   5.403  16.003  1.00  0.00    -0.294 OA
BRANCH  11  13
ATOM     13  C   UNL     1      -4.534   6.230  13.779  1.00  0.00    -0.002 C 
ATOM     14  C   UNL     1      -4.951   7.521  13.604  1.00  0.00    -0.069 C 
ATOM     15  C   UNL     1      -4.183   8.503  12.749  1.00  0.00     0.039 C 
ATOM     16  C   UNL     1      -6.238   8.025  14.217  1.00  0.00     0.039 C 
BRANCH  13  17
ATOM     17  C   UNL     1      -3.291   5.699  13.072  1.00  0.00     0.066 CG0
ATOM     18  G   UNL     1      -3.525   4.899  11.803  1.00  0.00     0.000 G0
ENDBRANCH  13  17
ENDBRANCH  11  13
ENDBRANCH  10  11
ENDBRANCH   1  10
TORSDOF 0
ENDMDL
MODEL 3
REMARK VINA RESULT:    -3.819      2.901      5.254
REMARK INTER + INTRA:          -5.247
REMARK INTER:                  -5.215
REMARK INTRA:                  -0.032
REMARK UNBOUND:                 0.135
REMARK SMILES CC1=CCC(=C(C)C)C(=O)CC(C)=CCC1
REMARK SMILES IDX 12 1 14 2 13 3 15 4 16 5 2 6 1 7 3 8 11 10 9 11 10 12 5 13
REMARK SMILES IDX 6 14 7 15 8 16 4 17
REMARK H PARENT
REMARK Flexibility Score: 60.00
ROOT
ATOM      1  C   UNL     1      -3.509   4.272  10.354  1.00  0.00    -0.070 C 
ATOM      2  C   UNL     1      -3.355   4.918  11.533  1.00  0.00    -0.027 C 
ATOM      3  C   UNL     1      -3.101   4.989   9.093  1.00  0.00     0.039 C 
ENDROOT
BRANCH   2   4
ATOM      4  C   UNL     1      -3.844   4.410  12.866  1.00  0.00     0.032 C 
BRANCH   4   5
ATOM      5  C   UNL     1      -2.810   3.453  13.469  1.00  0.00     0.034 C 
BRANCH   5   6
ATOM      6  C   UNL     1      -3.445   2.215  14.069  1.00  0.00    -0.077 C 
ATOM      7  C   UNL     1      -4.377   2.379  15.245  1.00  0.00     0.039 C 
ATOM      8  C   UNL     1      -3.281   0.967  13.564  1.00  0.00    -0.023 CG0
ATOM      9  G   UNL     1      -2.359   0.542  12.435  1.00  0.00     0.000 G0
ENDBRANCH   5   6
ENDBRANCH   4   5
ENDBRANCH   2   4
BRANCH   1  10
ATOM     10  C   UNL     1      -4.051   2.861  10.241  1.00  0.00     0.111 C 
BRANCH  10  11
ATOM     11  C   UNL     1      -2.946   1.831  10.239  1.00  0.00     0.163 C 
ATOM     12  O   UNL     1      -1.924   2.089   9.546  1.00  0.00    -0.294 OA
BRANCH  11  13
ATOM     13  C   UNL     1      -2.995   0.551  11.022  1.00  0.00    -0.002 C 
ATOM     14  C   UNL     1      -3.432  -0.605  10.436  1.00  0.00    -0.069 C 
ATOM     15  C   UNL     1      -3.280  -1.951  11.109  1.00  0.00     0.039 C 
ATOM     16  C   UNL     1      -4.143  -0.596   9.102  1.00  0.00     0.039 C 
BRANCH  13  17
ATOM     17  C   UNL     1      -2.373   0.546  12.414  1.00  0.00     0.066 CG0
ATOM     18  G   UNL     1      -3.283   0.949  13.561  1.00  0.00     0.000 G0
ENDBRANCH  13  17
ENDBRANCH  11  13
ENDBRANCH  10  11
ENDBRANCH   1  10
TORSDOF 0
ENDMDL
MODEL 4
REMARK VINA RESULT:    -3.810      6.548      9.442
REMARK INTER + INTRA:          -5.234
REMARK INTER:                  -5.129
REMARK INTRA:                  -0.104
REMARK UNBOUND:                 0.135
REMARK SMILES CC1=CCC(=C(C)C)C(=O)CC(C)=CCC1
REMARK SMILES IDX 12 1 14 2 13 3 15 4 16 5 2 6 1 7 3 8 11 10 9 11 10 12 5 13
REMARK SMILES IDX 6 14 7 15 8 16 4 17
REMARK H PARENT
REMARK Flexibility Score: 60.00
ROOT
ATOM      1  C   UNL     1      -7.532   4.071  16.261  1.00  0.00    -0.070 C 
ATOM      2  C   UNL     1      -7.632   5.354  16.682  1.00  0.00    -0.027 C 
ATOM      3  C   UNL     1      -8.773   3.397  15.737  1.00  0.00     0.039 C 
ENDROOT
BRANCH   2   4
ATOM      4  C   UNL     1      -6.533   6.126  17.367  1.00  0.00     0.032 C 
BRANCH   4   5
ATOM      5  C   UNL     1      -5.989   7.204  16.423  1.00  0.00     0.034 C 
BRANCH   5   6
ATOM      6  C   UNL     1      -4.475   7.267  16.425  1.00  0.00    -0.077 C 
ATOM      7  C   UNL     1      -3.791   8.174  17.419  1.00  0.00     0.039 C 
ATOM      8  C   UNL     1      -3.691   6.499  15.629  1.00  0.00    -0.023 CG0
ATOM      9  G   UNL     1      -4.138   5.563  14.520  1.00  0.00     0.000 G0
ENDBRANCH   5   6
ENDBRANCH   4   5
ENDBRANCH   2   4
BRANCH   1  10
ATOM     10  C   UNL     1      -6.233   3.289  16.272  1.00  0.00     0.111 C 
BRANCH  10  11
ATOM     11  C   UNL     1      -5.491   3.411  14.963  1.00  0.00     0.163 C 
ATOM     12  O   UNL     1      -6.053   2.936  13.939  1.00  0.00    -0.294 OA
BRANCH  11  13
ATOM     13  C   UNL     1      -4.152   4.076  14.820  1.00  0.00    -0.002 C 
ATOM     14  C   UNL     1      -3.004   3.331  14.803  1.00  0.00    -0.069 C 
ATOM     15  C   UNL     1      -1.667   3.931  14.431  1.00  0.00     0.039 C 
ATOM     16  C   UNL     1      -3.001   1.875  15.207  1.00  0.00     0.039 C 
BRANCH  13  17
ATOM     17  C   UNL     1      -4.130   5.570  14.514  1.00  0.00     0.066 CG0
ATOM     18  G   UNL     1      -3.687   6.484  15.642  1.00  0.00     0.000 G0
ENDBRANCH  13  17
ENDBRANCH  11  13
ENDBRANCH  10  11
ENDBRANCH   1  10
TORSDOF 0
ENDMDL
MODEL 5
REMARK VINA RESULT:    -3.736      2.076      3.803
REMARK INTER + INTRA:          -5.130
REMARK INTER:                  -5.140
REMARK INTRA:                   0.010
REMARK UNBOUND:                 0.135
REMARK SMILES CC1=CCC(=C(C)C)C(=O)CC(C)=CCC1
REMARK SMILES IDX 12 1 14 2 13 3 15 4 16 5 2 6 1 7 3 8 11 10 9 11 10 12 5 13
REMARK SMILES IDX 6 14 7 15 8 16 4 17
REMARK H PARENT
REMARK Flexibility Score: 60.00
ROOT
ATOM      1  C   UNL     1      -3.276  -3.226  10.345  1.00  0.00    -0.070 C 
ATOM      2  C   UNL     1      -2.272  -3.944   9.789  1.00  0.00    -0.027 C 
ATOM      3  C   UNL     1      -3.946  -3.779  11.576  1.00  0.00     0.039 C 
ENDROOT
BRANCH   2   4
ATOM      4  C   UNL     1      -1.597  -3.615   8.481  1.00  0.00     0.032 C 
BRANCH   4   5
ATOM      5  C   UNL     1      -0.252  -2.930   8.749  1.00  0.00     0.034 C 
BRANCH   5   6
ATOM      6  C   UNL     1      -0.096  -1.636   7.977  1.00  0.00    -0.077 C 
ATOM      7  C   UNL     1       0.356  -1.702   6.539  1.00  0.00     0.039 C 
ATOM      8  C   UNL     1      -0.409  -0.417   8.483  1.00  0.00    -0.023 CG0
ATOM      9  G   UNL     1      -0.824  -0.089   9.906  1.00  0.00     0.000 G0
ENDBRANCH   5   6
ENDBRANCH   4   5
ENDBRANCH   2   4
BRANCH   1  10
ATOM     10  C   UNL     1      -3.745  -1.890   9.804  1.00  0.00     0.111 C 
BRANCH  10  11
ATOM     11  C   UNL     1      -3.226  -0.735  10.626  1.00  0.00     0.163 C 
ATOM     12  O   UNL     1      -3.596  -0.677  11.831  1.00  0.00    -0.294 OA
BRANCH  11  13
ATOM     13  C   UNL     1      -2.292   0.314  10.098  1.00  0.00    -0.002 C 
ATOM     14  C   UNL     1      -2.711   1.608   9.951  1.00  0.00    -0.069 C 
ATOM     15  C   UNL     1      -1.748   2.733   9.646  1.00  0.00     0.039 C 
ATOM     16  C   UNL     1      -4.175   1.978  10.033  1.00  0.00     0.039 C 
BRANCH  13  17
ATOM     17  C   UNL     1      -0.827  -0.067   9.909  1.00  0.00     0.066 CG0
ATOM     18  G   UNL     1      -0.399  -0.425   8.497  1.00  0.00     0.000 G0
ENDBRANCH  13  17
ENDBRANCH  11  13
ENDBRANCH  10  11
ENDBRANCH   1  10
TORSDOF 0
ENDMDL
MODEL 6
REMARK VINA RESULT:    -3.648      2.075      4.118
REMARK INTER + INTRA:          -5.005
REMARK INTER:                  -5.109
REMARK INTRA:                   0.104
REMARK UNBOUND:                 0.135
REMARK SMILES CC1=CCC(=C(C)C)C(=O)CC(C)=CCC1
REMARK SMILES IDX 12 1 14 2 13 3 15 4 16 5 2 6 1 7 3 8 11 10 9 11 10 12 5 13
REMARK SMILES IDX 6 14 7 15 8 16 4 17
REMARK H PARENT
REMARK Flexibility Score: 60.00
ROOT
ATOM      1  C   UNL     1      -3.087  -2.214   8.792  1.00  0.00    -0.070 C 
ATOM      2  C   UNL     1      -4.085  -1.401   9.211  1.00  0.00    -0.027 C 
ATOM      3  C   UNL     1      -3.303  -3.702   8.872  1.00  0.00     0.039 C 
ENDROOT
BRANCH   2   4
ATOM      4  C   UNL     1      -3.982   0.098   9.338  1.00  0.00     0.032 C 
BRANCH   4   5
ATOM      5  C   UNL     1      -3.859   0.488  10.816  1.00  0.00     0.034 C 
BRANCH   5   6
ATOM      6  C   UNL     1      -2.484   1.022  11.161  1.00  0.00    -0.077 C 
ATOM      7  C   UNL     1      -2.231   2.504  11.029  1.00  0.00     0.039 C 
ATOM      8  C   UNL     1      -1.481   0.254  11.654  1.00  0.00    -0.023 CG0
ATOM      9  G   UNL     1      -1.473  -1.256  11.821  1.00  0.00     0.000 G0
ENDBRANCH   5   6
ENDBRANCH   4   5
ENDBRANCH   2   4
BRANCH   1  10
ATOM     10  C   UNL     1      -1.775  -1.702   8.230  1.00  0.00     0.111 C 
BRANCH  10  11
ATOM     11  C   UNL     1      -0.763  -1.432   9.317  1.00  0.00     0.163 C 
ATOM     12  O   UNL     1       0.157  -0.612   9.052  1.00  0.00    -0.294 OA
BRANCH  11  13
ATOM     13  C   UNL     1      -0.810  -2.063  10.679  1.00  0.00    -0.002 C 
ATOM     14  C   UNL     1      -0.142  -3.231  10.927  1.00  0.00    -0.069 C 
ATOM     15  C   UNL     1       0.028  -3.774  12.328  1.00  0.00     0.039 C 
ATOM     16  C   UNL     1       0.420  -4.074   9.804  1.00  0.00     0.039 C 
BRANCH  13  17
ATOM     17  C   UNL     1      -1.465  -1.273  11.807  1.00  0.00     0.066 CG0
ATOM     18  G   UNL     1      -1.484   0.237  11.650  1.00  0.00     0.000 G0
ENDBRANCH  13  17
ENDBRANCH  11  13
ENDBRANCH  10  11
ENDBRANCH   1  10
TORSDOF 0
ENDMDL
MODEL 7
REMARK VINA RESULT:    -3.609      6.823      9.077
REMARK INTER + INTRA:          -4.950
REMARK INTER:                  -4.863
REMARK INTRA:                  -0.087
REMARK UNBOUND:                 0.135
REMARK SMILES CC1=CCC(=C(C)C)C(=O)CC(C)=CCC1
REMARK SMILES IDX 12 1 14 2 13 3 15 4 16 5 2 6 1 7 3 8 11 10 9 11 10 12 5 13
REMARK SMILES IDX 6 14 7 15 8 16 4 17
REMARK H PARENT
REMARK Flexibility Score: 60.00
ROOT
ATOM      1  C   UNL     1      -7.108   3.987  15.129  1.00  0.00    -0.070 C 
ATOM      2  C   UNL     1      -6.300   2.925  15.357  1.00  0.00    -0.027 C 
ATOM      3  C   UNL     1      -8.519   3.931  15.654  1.00  0.00     0.039 C 
ENDROOT
BRANCH   2   4
ATOM      4  C   UNL     1      -4.918   2.752  14.782  1.00  0.00     0.032 C 
BRANCH   4   5
ATOM      5  C   UNL     1      -3.884   3.407  15.706  1.00  0.00     0.034 C 
BRANCH   5   6
ATOM      6  C   UNL     1      -2.858   4.221  14.945  1.00  0.00    -0.077 C 
ATOM      7  C   UNL     1      -1.878   3.497  14.054  1.00  0.00     0.039 C 
ATOM      8  C   UNL     1      -2.813   5.576  14.961  1.00  0.00    -0.023 CG0
ATOM      9  G   UNL     1      -3.645   6.517  15.814  1.00  0.00     0.000 G0
ENDBRANCH   5   6
ENDBRANCH   4   5
ENDBRANCH   2   4
BRANCH   1  10
ATOM     10  C   UNL     1      -6.659   5.233  14.392  1.00  0.00     0.111 C 
BRANCH  10  11
ATOM     11  C   UNL     1      -6.185   6.308  15.340  1.00  0.00     0.163 C 
ATOM     12  O   UNL     1      -6.907   6.544  16.347  1.00  0.00    -0.294 OA
BRANCH  11  13
ATOM     13  C   UNL     1      -4.911   7.081  15.158  1.00  0.00    -0.002 C 
ATOM     14  C   UNL     1      -4.925   8.317  14.570  1.00  0.00    -0.069 C 
ATOM     15  C   UNL     1      -3.713   9.220  14.577  1.00  0.00     0.039 C 
ATOM     16  C   UNL     1      -6.142   8.826  13.833  1.00  0.00     0.039 C 
BRANCH  13  17
ATOM     17  C   UNL     1      -3.646   6.530  15.809  1.00  0.00     0.066 CG0
ATOM     18  G   UNL     1      -2.808   5.587  14.965  1.00  0.00     0.000 G0
ENDBRANCH  13  17
ENDBRANCH  11  13
ENDBRANCH  10  11
ENDBRANCH   1  10
TORSDOF 0
ENDMDL
MODEL 8
REMARK VINA RESULT:    -3.606      2.488      4.343
REMARK INTER + INTRA:          -4.946
REMARK INTER:                  -4.800
REMARK INTRA:                  -0.147
REMARK UNBOUND:                 0.135
REMARK SMILES CC1=CCC(=C(C)C)C(=O)CC(C)=CCC1
REMARK SMILES IDX 12 1 14 2 13 3 15 4 16 5 2 6 1 7 3 8 11 10 9 11 10 12 5 13
REMARK SMILES IDX 6 14 7 15 8 16 4 17
REMARK H PARENT
REMARK Flexibility Score: 60.00
ROOT
ATOM      1  C   UNL     1      -3.601  -2.853   9.892  1.00  0.00    -0.070 C 
ATOM      2  C   UNL     1      -4.026  -1.706   9.314  1.00  0.00    -0.027 C 
ATOM      3  C   UNL     1      -4.219  -4.149   9.434  1.00  0.00     0.039 C 
ENDROOT
BRANCH   2   4
ATOM      4  C   UNL     1      -3.625  -0.319   9.750  1.00  0.00     0.032 C 
BRANCH   4   5
ATOM      5  C   UNL     1      -2.461   0.181   8.888  1.00  0.00     0.034 C 
BRANCH   5   6
ATOM      6  C   UNL     1      -1.378   0.853   9.708  1.00  0.00    -0.077 C 
ATOM      7  C   UNL     1      -1.620   2.254  10.214  1.00  0.00     0.039 C 
ATOM      8  C   UNL     1      -0.226   0.239  10.077  1.00  0.00    -0.023 CG0
ATOM      9  G   UNL     1       0.266  -1.132   9.649  1.00  0.00     0.000 G0
ENDBRANCH   5   6
ENDBRANCH   4   5
ENDBRANCH   2   4
BRANCH   1  10
ATOM     10  C   UNL     1      -2.525  -2.901  10.958  1.00  0.00     0.111 C 
BRANCH  10  11
ATOM     11  C   UNL     1      -1.159  -3.162  10.369  1.00  0.00     0.163 C 
ATOM     12  O   UNL     1      -1.043  -4.166   9.615  1.00  0.00    -0.294 OA
BRANCH  11  13
ATOM     13  C   UNL     1       0.038  -2.290  10.615  1.00  0.00    -0.002 C 
ATOM     14  C   UNL     1       0.961  -2.629  11.566  1.00  0.00    -0.069 C 
ATOM     15  C   UNL     1       2.287  -1.912  11.686  1.00  0.00     0.039 C 
ATOM     16  C   UNL     1       0.683  -3.708  12.588  1.00  0.00     0.039 C 
BRANCH  13  17
ATOM     17  C   UNL     1       0.282  -1.130   9.655  1.00  0.00     0.066 CG0
ATOM     18  G   UNL     1      -0.241   0.227  10.090  1.00  0.00     0.000 G0
ENDBRANCH  13  17
ENDBRANCH  11  13
ENDBRANCH  10  11
ENDBRANCH   1  10
TORSDOF 0
ENDMDL
MODEL 9
REMARK VINA RESULT:    -3.553      4.916      6.996
REMARK INTER + INTRA:          -4.872
REMARK INTER:                  -4.795
REMARK INTRA:                  -0.078
REMARK UNBOUND:                 0.135
REMARK SMILES CC1=CCC(=C(C)C)C(=O)CC(C)=CCC1
REMARK SMILES IDX 12 1 14 2 13 3 15 4 16 5 2 6 1 7 3 8 11 10 9 11 10 12 5 13
REMARK SMILES IDX 6 14 7 15 8 16 4 17
REMARK H PARENT
REMARK Flexibility Score: 60.00
ROOT
ATOM      1  C   UNL     1      -1.928   1.481  14.779  1.00  0.00    -0.070 C 
ATOM      2  C   UNL     1      -1.561   1.497  13.477  1.00  0.00    -0.027 C 
ATOM      3  C   UNL     1      -0.903   1.060  15.801  1.00  0.00     0.039 C 
ENDROOT
BRANCH   2   4
ATOM      4  C   UNL     1      -2.494   1.748  12.320  1.00  0.00     0.032 C 
BRANCH   4   5
ATOM      5  C   UNL     1      -2.176   3.104  11.680  1.00  0.00     0.034 C 
BRANCH   5   6
ATOM      6  C   UNL     1      -3.425   3.878  11.308  1.00  0.00    -0.077 C 
ATOM      7  C   UNL     1      -4.006   3.692   9.928  1.00  0.00     0.039 C 
ATOM      8  C   UNL     1      -4.097   4.678  12.173  1.00  0.00    -0.023 CG0
ATOM      9  G   UNL     1      -3.685   5.066  13.582  1.00  0.00     0.000 G0
ENDBRANCH   5   6
ENDBRANCH   4   5
ENDBRANCH   2   4
BRANCH   1  10
ATOM     10  C   UNL     1      -3.308   1.882  15.262  1.00  0.00     0.111 C 
BRANCH  10  11
ATOM     11  C   UNL     1      -3.411   3.368  15.504  1.00  0.00     0.163 C 
ATOM     12  O   UNL     1      -2.676   3.854  16.408  1.00  0.00    -0.294 OA
BRANCH  11  13
ATOM     13  C   UNL     1      -4.310   4.283  14.724  1.00  0.00    -0.002 C 
ATOM     14  C   UNL     1      -5.594   4.513  15.137  1.00  0.00    -0.069 C 
ATOM     15  C   UNL     1      -6.451   5.595  14.520  1.00  0.00     0.039 C 
ATOM     16  C   UNL     1      -6.247   3.660  16.200  1.00  0.00     0.039 C 
BRANCH  13  17
ATOM     17  C   UNL     1      -3.694   5.078  13.578  1.00  0.00     0.066 CG0
ATOM     18  G   UNL     1      -4.100   4.665  12.174  1.00  0.00     0.000 G0
ENDBRANCH  13  17
ENDBRANCH  11  13
ENDBRANCH  10  11
ENDBRANCH   1  10
TORSDOF 0
ENDMDL
