MODEL 1
REMARK VINA RESULT:    -5.489      0.000      0.000
REMARK INTER + INTRA:          -6.242
REMARK INTER:                  -6.131
REMARK INTRA:                  -0.111
REMARK UNBOUND:                -0.111
REMARK SMILES COc1cc2ccc(=O)oc2cc1OC
REMARK SMILES IDX 3 1 13 2 12 3 11 4 5 5 4 6 6 7 7 8 8 9 9 10 10 11 2 12 1 13
REMARK SMILES IDX 14 14 15 15
REMARK H PARENT
REMARK Flexibility Score: inf
ROOT
ATOM      1  C   UNL     1      29.573  23.119  48.869  1.00  0.00     0.161 A 
ATOM      2  C   UNL     1      28.285  23.618  48.611  1.00  0.00     0.164 A 
ATOM      3  C   UNL     1      27.259  23.430  49.559  1.00  0.00     0.098 A 
ATOM      4  C   UNL     1      27.516  22.754  50.753  1.00  0.00     0.142 A 
ATOM      5  C   UNL     1      28.808  22.254  51.013  1.00  0.00     0.022 A 
ATOM      6  C   UNL     1      29.831  22.436  50.074  1.00  0.00     0.062 A 
ATOM      7  C   UNL     1      29.032  21.581  52.219  1.00  0.00     0.019 A 
ATOM      8  C   UNL     1      27.982  21.424  53.122  1.00  0.00     0.094 A 
ATOM      9  C   UNL     1      26.726  21.947  52.796  1.00  0.00     0.336 A 
ATOM     10  O   UNL     1      25.763  21.816  53.597  1.00  0.00    -0.246 OA
ATOM     11  O   UNL     1      26.540  22.583  51.642  1.00  0.00    -0.423 OA
ENDROOT
BRANCH   1  12
ATOM     12  O   UNL     1      30.571  23.323  47.901  1.00  0.00    -0.493 OA
ATOM     13  C   UNL     1      31.874  22.749  47.951  1.00  0.00     0.278 C 
ENDBRANCH   1  12
BRANCH   2  14
ATOM     14  O   UNL     1      28.064  24.292  47.399  1.00  0.00    -0.493 OA
ATOM     15  C   UNL     1      27.028  23.973  46.475  1.00  0.00     0.278 C 
ENDBRANCH   2  14
TORSDOF 2
ENDMDL
MODEL 2
REMARK VINA RESULT:    -5.420      1.386      3.002
REMARK INTER + INTRA:          -6.165
REMARK INTER:                  -6.057
REMARK INTRA:                  -0.108
REMARK UNBOUND:                -0.111
REMARK SMILES COc1cc2ccc(=O)oc2cc1OC
REMARK SMILES IDX 3 1 13 2 12 3 11 4 5 5 4 6 6 7 7 8 8 9 9 10 10 11 2 12 1 13
REMARK SMILES IDX 14 14 15 15
REMARK H PARENT
REMARK Flexibility Score: inf
ROOT
ATOM      1  C   UNL     1      28.289  23.938  48.272  1.00  0.00     0.161 A 
ATOM      2  C   UNL     1      29.525  23.406  48.676  1.00  0.00     0.164 A 
ATOM      3  C   UNL     1      29.739  23.084  50.031  1.00  0.00     0.098 A 
ATOM      4  C   UNL     1      28.729  23.289  50.974  1.00  0.00     0.142 A 
ATOM      5  C   UNL     1      27.489  23.823  50.569  1.00  0.00     0.022 A 
ATOM      6  C   UNL     1      27.271  24.145  49.224  1.00  0.00     0.062 A 
ATOM      7  C   UNL     1      26.498  24.016  51.539  1.00  0.00     0.019 A 
ATOM      8  C   UNL     1      26.763  23.680  52.865  1.00  0.00     0.094 A 
ATOM      9  C   UNL     1      28.017  23.155  53.193  1.00  0.00     0.336 A 
ATOM     10  O   UNL     1      28.277  22.845  54.386  1.00  0.00    -0.246 OA
ATOM     11  O   UNL     1      28.941  22.981  52.252  1.00  0.00    -0.423 OA
ENDROOT
BRANCH   1  12
ATOM     12  O   UNL     1      28.111  24.248  46.913  1.00  0.00    -0.493 OA
ATOM     13  C   UNL     1      26.947  23.929  46.158  1.00  0.00     0.278 C 
ENDBRANCH   1  12
BRANCH   2  14
ATOM     14  O   UNL     1      30.517  23.213  47.701  1.00  0.00    -0.493 OA
ATOM     15  C   UNL     1      31.853  22.803  47.978  1.00  0.00     0.278 C 
ENDBRANCH   2  14
TORSDOF 2
ENDMDL
MODEL 3
REMARK VINA RESULT:    -5.217      1.933      5.528
REMARK INTER + INTRA:          -5.939
REMARK INTER:                  -5.781
REMARK INTRA:                  -0.158
REMARK UNBOUND:                -0.111
REMARK SMILES COc1cc2ccc(=O)oc2cc1OC
REMARK SMILES IDX 3 1 13 2 12 3 11 4 5 5 4 6 6 7 7 8 8 9 9 10 10 11 2 12 1 13
REMARK SMILES IDX 14 14 15 15
REMARK H PARENT
REMARK Flexibility Score: inf
ROOT
ATOM      1  C   UNL     1      26.772  23.120  52.353  1.00  0.00     0.161 A 
ATOM      2  C   UNL     1      27.747  24.127  52.454  1.00  0.00     0.164 A 
ATOM      3  C   UNL     1      28.392  24.596  51.293  1.00  0.00     0.098 A 
ATOM      4  C   UNL     1      28.067  24.069  50.041  1.00  0.00     0.142 A 
ATOM      5  C   UNL     1      27.088  23.059  49.939  1.00  0.00     0.022 A 
ATOM      6  C   UNL     1      26.445  22.588  51.090  1.00  0.00     0.062 A 
ATOM      7  C   UNL     1      26.785  22.551  48.670  1.00  0.00     0.019 A 
ATOM      8  C   UNL     1      27.453  23.052  47.554  1.00  0.00     0.094 A 
ATOM      9  C   UNL     1      28.412  24.054  47.733  1.00  0.00     0.336 A 
ATOM     10  O   UNL     1      29.028  24.520  46.738  1.00  0.00    -0.246 OA
ATOM     11  O   UNL     1      28.681  24.520  48.950  1.00  0.00    -0.423 OA
ENDROOT
BRANCH   1  12
ATOM     12  O   UNL     1      26.150  22.676  53.531  1.00  0.00    -0.493 OA
ATOM     13  C   UNL     1      26.408  21.423  54.158  1.00  0.00     0.278 C 
ENDBRANCH   1  12
BRANCH   2  14
ATOM     14  O   UNL     1      28.049  24.634  53.729  1.00  0.00    -0.493 OA
ATOM     15  C   UNL     1      29.132  24.188  54.540  1.00  0.00     0.278 C 
ENDBRANCH   2  14
TORSDOF 2
ENDMDL
MODEL 4
REMARK VINA RESULT:    -5.198      1.880      4.979
REMARK INTER + INTRA:          -5.917
REMARK INTER:                  -5.773
REMARK INTRA:                  -0.144
REMARK UNBOUND:                -0.111
REMARK SMILES COc1cc2ccc(=O)oc2cc1OC
REMARK SMILES IDX 3 1 13 2 12 3 11 4 5 5 4 6 6 7 7 8 8 9 9 10 10 11 2 12 1 13
REMARK SMILES IDX 14 14 15 15
REMARK H PARENT
REMARK Flexibility Score: inf
ROOT
ATOM      1  C   UNL     1      28.614  23.677  52.020  1.00  0.00     0.161 A 
ATOM      2  C   UNL     1      27.212  23.621  51.950  1.00  0.00     0.164 A 
ATOM      3  C   UNL     1      26.570  23.709  50.698  1.00  0.00     0.098 A 
ATOM      4  C   UNL     1      27.319  23.850  49.528  1.00  0.00     0.142 A 
ATOM      5  C   UNL     1      28.726  23.907  49.598  1.00  0.00     0.022 A 
ATOM      6  C   UNL     1      29.369  23.821  50.839  1.00  0.00     0.062 A 
ATOM      7  C   UNL     1      29.447  24.049  48.407  1.00  0.00     0.019 A 
ATOM      8  C   UNL     1      28.761  24.132  47.196  1.00  0.00     0.094 A 
ATOM      9  C   UNL     1      27.364  24.068  47.205  1.00  0.00     0.336 A 
ATOM     10  O   UNL     1      26.725  24.141  46.121  1.00  0.00    -0.246 OA
ATOM     11  O   UNL     1      26.703  23.932  48.351  1.00  0.00    -0.423 OA
ENDROOT
BRANCH   1  12
ATOM     12  O   UNL     1      29.221  23.587  53.284  1.00  0.00    -0.493 OA
ATOM     13  C   UNL     1      29.860  22.420  53.791  1.00  0.00     0.278 C 
ENDBRANCH   1  12
BRANCH   2  14
ATOM     14  O   UNL     1      26.491  23.478  53.147  1.00  0.00    -0.493 OA
ATOM     15  C   UNL     1      26.086  22.230  53.701  1.00  0.00     0.278 C 
ENDBRANCH   2  14
TORSDOF 2
ENDMDL
MODEL 5
REMARK VINA RESULT:    -5.081      1.571      5.631
REMARK INTER + INTRA:          -5.786
REMARK INTER:                  -5.670
REMARK INTRA:                  -0.116
REMARK UNBOUND:                -0.111
REMARK SMILES COc1cc2ccc(=O)oc2cc1OC
REMARK SMILES IDX 3 1 13 2 12 3 11 4 5 5 4 6 6 7 7 8 8 9 9 10 10 11 2 12 1 13
REMARK SMILES IDX 14 14 15 15
REMARK H PARENT
REMARK Flexibility Score: inf
ROOT
ATOM      1  C   UNL     1      26.856  21.879  50.374  1.00  0.00     0.161 A 
ATOM      2  C   UNL     1      28.171  21.832  50.866  1.00  0.00     0.164 A 
ATOM      3  C   UNL     1      29.207  22.474  50.158  1.00  0.00     0.098 A 
ATOM      4  C   UNL     1      28.934  23.157  48.971  1.00  0.00     0.142 A 
ATOM      5  C   UNL     1      27.614  23.204  48.476  1.00  0.00     0.022 A 
ATOM      6  C   UNL     1      26.582  22.568  49.175  1.00  0.00     0.062 A 
ATOM      7  C   UNL     1      27.374  23.897  47.284  1.00  0.00     0.019 A 
ATOM      8  C   UNL     1      28.436  24.513  46.624  1.00  0.00     0.094 A 
ATOM      9  C   UNL     1      29.718  24.424  47.175  1.00  0.00     0.336 A 
ATOM     10  O   UNL     1      30.692  24.975  46.595  1.00  0.00    -0.246 OA
ATOM     11  O   UNL     1      29.919  23.760  48.310  1.00  0.00    -0.423 OA
ENDROOT
BRANCH   1  12
ATOM     12  O   UNL     1      25.849  21.228  51.105  1.00  0.00    -0.493 OA
ATOM     13  C   UNL     1      24.535  20.971  50.618  1.00  0.00     0.278 C 
ENDBRANCH   1  12
BRANCH   2  14
ATOM     14  O   UNL     1      28.409  21.136  52.063  1.00  0.00    -0.493 OA
ATOM     15  C   UNL     1      28.568  21.752  53.337  1.00  0.00     0.278 C 
ENDBRANCH   2  14
TORSDOF 2
ENDMDL
MODEL 6
REMARK VINA RESULT:    -5.065     13.279     14.716
REMARK INTER + INTRA:          -5.768
REMARK INTER:                  -5.611
REMARK INTRA:                  -0.157
REMARK UNBOUND:                -0.111
REMARK SMILES COc1cc2ccc(=O)oc2cc1OC
REMARK SMILES IDX 3 1 13 2 12 3 11 4 5 5 4 6 6 7 7 8 8 9 9 10 10 11 2 12 1 13
REMARK SMILES IDX 14 14 15 15
REMARK H PARENT
REMARK Flexibility Score: inf
ROOT
ATOM      1  C   UNL     1      19.685  26.038  39.453  1.00  0.00     0.161 A 
ATOM      2  C   UNL     1      19.246  25.919  38.123  1.00  0.00     0.164 A 
ATOM      3  C   UNL     1      19.260  24.659  37.492  1.00  0.00     0.098 A 
ATOM      4  C   UNL     1      19.705  23.528  38.180  1.00  0.00     0.142 A 
ATOM      5  C   UNL     1      20.146  23.647  39.514  1.00  0.00     0.022 A 
ATOM      6  C   UNL     1      20.136  24.896  40.146  1.00  0.00     0.062 A 
ATOM      7  C   UNL     1      20.586  22.495  40.175  1.00  0.00     0.019 A 
ATOM      8  C   UNL     1      20.579  21.274  39.503  1.00  0.00     0.094 A 
ATOM      9  C   UNL     1      20.127  21.233  38.180  1.00  0.00     0.336 A 
ATOM     10  O   UNL     1      20.112  20.139  37.555  1.00  0.00    -0.246 OA
ATOM     11  O   UNL     1      19.713  22.343  37.575  1.00  0.00    -0.423 OA
ENDROOT
BRANCH   1  12
ATOM     12  O   UNL     1      19.659  27.309  40.050  1.00  0.00    -0.493 OA
ATOM     13  C   UNL     1      20.817  28.054  40.416  1.00  0.00     0.278 C 
ENDBRANCH   1  12
BRANCH   2  14
ATOM     14  O   UNL     1      18.805  27.077  37.462  1.00  0.00    -0.493 OA
ATOM     15  C   UNL     1      19.565  27.792  36.493  1.00  0.00     0.278 C 
ENDBRANCH   2  14
TORSDOF 2
ENDMDL
MODEL 7
REMARK VINA RESULT:    -4.878      1.958      3.141
REMARK INTER + INTRA:          -5.560
REMARK INTER:                  -5.532
REMARK INTRA:                  -0.028
REMARK UNBOUND:                -0.111
REMARK SMILES COc1cc2ccc(=O)oc2cc1OC
REMARK SMILES IDX 3 1 13 2 12 3 11 4 5 5 4 6 6 7 7 8 8 9 9 10 10 11 2 12 1 13
REMARK SMILES IDX 14 14 15 15
REMARK H PARENT
REMARK Flexibility Score: inf
ROOT
ATOM      1  C   UNL     1      27.677  23.811  48.207  1.00  0.00     0.161 A 
ATOM      2  C   UNL     1      29.067  23.916  48.033  1.00  0.00     0.164 A 
ATOM      3  C   UNL     1      29.937  23.339  48.980  1.00  0.00     0.098 A 
ATOM      4  C   UNL     1      29.425  22.663  50.090  1.00  0.00     0.142 A 
ATOM      5  C   UNL     1      28.030  22.558  50.265  1.00  0.00     0.022 A 
ATOM      6  C   UNL     1      27.161  23.130  49.327  1.00  0.00     0.062 A 
ATOM      7  C   UNL     1      27.549  21.875  51.388  1.00  0.00     0.019 A 
ATOM      8  C   UNL     1      28.454  21.324  52.294  1.00  0.00     0.094 A 
ATOM      9  C   UNL     1      29.824  21.468  52.054  1.00  0.00     0.336 A 
ATOM     10  O   UNL     1      30.659  20.977  52.860  1.00  0.00    -0.246 OA
ATOM     11  O   UNL     1      30.255  22.122  50.979  1.00  0.00    -0.423 OA
ENDROOT
BRANCH   1  12
ATOM     12  O   UNL     1      26.840  24.398  47.243  1.00  0.00    -0.493 OA
ATOM     13  C   UNL     1      26.491  23.794  46.001  1.00  0.00     0.278 C 
ENDBRANCH   1  12
BRANCH   2  14
ATOM     14  O   UNL     1      29.546  24.602  46.905  1.00  0.00    -0.493 OA
ATOM     15  C   UNL     1      30.915  24.655  46.513  1.00  0.00     0.278 C 
ENDBRANCH   2  14
TORSDOF 2
ENDMDL
MODEL 8
REMARK VINA RESULT:    -4.785      1.780      5.538
REMARK INTER + INTRA:          -5.456
REMARK INTER:                  -5.338
REMARK INTRA:                  -0.118
REMARK UNBOUND:                -0.111
REMARK SMILES COc1cc2ccc(=O)oc2cc1OC
REMARK SMILES IDX 3 1 13 2 12 3 11 4 5 5 4 6 6 7 7 8 8 9 9 10 10 11 2 12 1 13
REMARK SMILES IDX 14 14 15 15
REMARK H PARENT
REMARK Flexibility Score: inf
ROOT
ATOM      1  C   UNL     1      28.489  21.796  52.060  1.00  0.00     0.161 A 
ATOM      2  C   UNL     1      29.861  21.720  51.767  1.00  0.00     0.164 A 
ATOM      3  C   UNL     1      30.358  22.303  50.584  1.00  0.00     0.098 A 
ATOM      4  C   UNL     1      29.494  22.956  49.702  1.00  0.00     0.142 A 
ATOM      5  C   UNL     1      28.118  23.032  49.995  1.00  0.00     0.022 A 
ATOM      6  C   UNL     1      27.619  22.454  51.169  1.00  0.00     0.062 A 
ATOM      7  C   UNL     1      27.279  23.693  49.090  1.00  0.00     0.019 A 
ATOM      8  C   UNL     1      27.823  24.252  47.935  1.00  0.00     0.094 A 
ATOM      9  C   UNL     1      29.199  24.137  47.711  1.00  0.00     0.336 A 
ATOM     10  O   UNL     1      29.711  24.635  46.673  1.00  0.00    -0.246 OA
ATOM     11  O   UNL     1      29.973  23.504  48.587  1.00  0.00    -0.423 OA
ENDROOT
BRANCH   1  12
ATOM     12  O   UNL     1      28.029  21.203  53.248  1.00  0.00    -0.493 OA
ATOM     13  C   UNL     1      26.794  21.520  53.882  1.00  0.00     0.278 C 
ENDBRANCH   1  12
BRANCH   2  14
ATOM     14  O   UNL     1      30.699  21.056  52.678  1.00  0.00    -0.493 OA
ATOM     15  C   UNL     1      31.698  21.693  53.469  1.00  0.00     0.278 C 
ENDBRANCH   2  14
TORSDOF 2
ENDMDL
MODEL 9
REMARK VINA RESULT:    -4.718     12.857     13.925
REMARK INTER + INTRA:          -5.381
REMARK INTER:                  -5.258
REMARK INTRA:                  -0.123
REMARK UNBOUND:                -0.111
REMARK SMILES COc1cc2ccc(=O)oc2cc1OC
REMARK SMILES IDX 3 1 13 2 12 3 11 4 5 5 4 6 6 7 7 8 8 9 9 10 10 11 2 12 1 13
REMARK SMILES IDX 14 14 15 15
REMARK H PARENT
REMARK Flexibility Score: inf
ROOT
ATOM      1  C   UNL     1      17.189  24.188  43.364  1.00  0.00     0.161 A 
ATOM      2  C   UNL     1      17.139  25.497  43.873  1.00  0.00     0.164 A 
ATOM      3  C   UNL     1      17.840  26.529  43.217  1.00  0.00     0.098 A 
ATOM      4  C   UNL     1      18.581  26.259  42.064  1.00  0.00     0.142 A 
ATOM      5  C   UNL     1      18.630  24.946  41.554  1.00  0.00     0.022 A 
ATOM      6  C   UNL     1      17.937  23.916  42.202  1.00  0.00     0.062 A 
ATOM      7  C   UNL     1      19.382  24.708  40.398  1.00  0.00     0.019 A 
ATOM      8  C   UNL     1      20.055  25.766  39.789  1.00  0.00     0.094 A 
ATOM      9  C   UNL     1      19.960  27.042  40.353  1.00  0.00     0.336 A 
ATOM     10  O   UNL     1      20.561  28.012  39.818  1.00  0.00    -0.246 OA
ATOM     11  O   UNL     1      19.238  27.241  41.452  1.00  0.00    -0.423 OA
ENDROOT
BRANCH   1  12
ATOM     12  O   UNL     1      16.479  23.183  44.044  1.00  0.00    -0.493 OA
ATOM     13  C   UNL     1      17.058  21.981  44.542  1.00  0.00     0.278 C 
ENDBRANCH   1  12
BRANCH   2  14
ATOM     14  O   UNL     1      16.384  25.731  45.034  1.00  0.00    -0.493 OA
ATOM     15  C   UNL     1      16.862  26.429  46.180  1.00  0.00     0.278 C 
ENDBRANCH   2  14
TORSDOF 2
ENDMDL
