MODEL 1
REMARK VINA RESULT:    -3.587      0.000      0.000
REMARK INTER + INTRA:          -4.776
REMARK INTER:                  -4.636
REMARK INTRA:                  -0.140
REMARK UNBOUND:                -0.140
REMARK SMILES CCO[C@@H]1O[C@H](CO)[C@H](O)[C@H](O)[C@@H]1O
REMARK SMILES IDX 4 1 13 2 11 3 9 4 6 5 5 6 3 7 2 8 1 9 14 10 12 12 7 14 8 15
REMARK SMILES IDX 10 17
REMARK H PARENT 14 11 12 13 8 16 10 18
REMARK Flexibility Score: inf
ROOT
ATOM      1  C   UNL     1      30.081  12.081  21.138  1.00  0.00     0.281 C 
ATOM      2  C   UNL     1      29.065  13.195  20.843  1.00  0.00     0.202 C 
ATOM      3  C   UNL     1      29.418  13.938  19.527  1.00  0.00     0.179 C 
ATOM      4  C   UNL     1      30.849  13.607  19.046  1.00  0.00     0.177 C 
ATOM      5  C   UNL     1      31.845  13.435  20.237  1.00  0.00     0.178 C 
ATOM      6  O   UNL     1      31.380  12.626  21.318  1.00  0.00    -0.341 OA
ENDROOT
BRANCH   1   7
ATOM      7  O   UNL     1      29.673  11.407  22.312  1.00  0.00    -0.350 OA
BRANCH   7   8
ATOM      8  C   UNL     1      29.611  10.011  22.086  1.00  0.00     0.160 C 
ATOM      9  C   UNL     1      28.159   9.569  22.103  1.00  0.00     0.035 C 
ENDBRANCH   7   8
ENDBRANCH   1   7
BRANCH   2  10
ATOM     10  O   UNL     1      29.042  14.086  21.931  1.00  0.00    -0.385 OA
ATOM     11  H   UNL     1      29.983  14.227  22.216  1.00  0.00     0.211 HD
ENDBRANCH   2  10
BRANCH   3  12
ATOM     12  O   UNL     1      29.263  15.328  19.692  1.00  0.00    -0.387 OA
ATOM     13  H   UNL     1      29.486  15.754  18.823  1.00  0.00     0.211 HD
ENDBRANCH   3  12
BRANCH   5  14
ATOM     14  C   UNL     1      32.305  14.791  20.809  1.00  0.00     0.191 C 
BRANCH  14  15
ATOM     15  O   UNL     1      33.508  14.640  21.517  1.00  0.00    -0.394 OA
ATOM     16  H   UNL     1      34.240  14.598  20.849  1.00  0.00     0.210 HD
ENDBRANCH  14  15
ENDBRANCH   5  14
BRANCH   4  17
ATOM     17  O   UNL     1      31.295  14.573  18.129  1.00  0.00    -0.387 OA
ATOM     18  H   UNL     1      31.091  14.221  17.223  1.00  0.00     0.211 HD
ENDBRANCH   4  17
TORSDOF 7
ENDMDL
MODEL 2
REMARK VINA RESULT:    -3.521      1.505      2.550
REMARK INTER + INTRA:          -4.690
REMARK INTER:                  -4.241
REMARK INTRA:                  -0.449
REMARK UNBOUND:                -0.140
REMARK SMILES CCO[C@@H]1O[C@H](CO)[C@H](O)[C@H](O)[C@@H]1O
REMARK SMILES IDX 4 1 13 2 11 3 9 4 6 5 5 6 3 7 2 8 1 9 14 10 12 12 7 14 8 15
REMARK SMILES IDX 10 17
REMARK H PARENT 14 11 12 13 8 16 10 18
REMARK Flexibility Score: inf
ROOT
ATOM      1  C   UNL     1      30.593  12.082  21.690  1.00  0.00     0.281 C 
ATOM      2  C   UNL     1      30.819  12.896  20.406  1.00  0.00     0.202 C 
ATOM      3  C   UNL     1      32.158  13.677  20.470  1.00  0.00     0.179 C 
ATOM      4  C   UNL     1      32.736  13.711  21.904  1.00  0.00     0.177 C 
ATOM      5  C   UNL     1      31.617  13.821  22.988  1.00  0.00     0.178 C 
ATOM      6  O   UNL     1      30.505  12.941  22.817  1.00  0.00    -0.341 OA
ENDROOT
BRANCH   1   7
ATOM      7  O   UNL     1      29.392  11.349  21.546  1.00  0.00    -0.350 OA
BRANCH   7   8
ATOM      8  C   UNL     1      29.555  10.030  22.030  1.00  0.00     0.160 C 
ATOM      9  C   UNL     1      28.196   9.357  22.107  1.00  0.00     0.035 C 
ENDBRANCH   7   8
ENDBRANCH   1   7
BRANCH   2  10
ATOM     10  O   UNL     1      29.734  13.773  20.231  1.00  0.00    -0.385 OA
ATOM     11  H   UNL     1      29.511  13.776  19.263  1.00  0.00     0.211 HD
ENDBRANCH   2  10
BRANCH   3  12
ATOM     12  O   UNL     1      31.985  14.987  19.979  1.00  0.00    -0.387 OA
ATOM     13  H   UNL     1      31.330  15.439  20.573  1.00  0.00     0.211 HD
ENDBRANCH   3  12
BRANCH   5  14
ATOM     14  C   UNL     1      31.081  15.259  23.125  1.00  0.00     0.191 C 
BRANCH  14  15
ATOM     15  O   UNL     1      29.731  15.317  22.743  1.00  0.00    -0.394 OA
ATOM     16  H   UNL     1      29.256  15.867  23.418  1.00  0.00     0.210 HD
ENDBRANCH  14  15
ENDBRANCH   5  14
BRANCH   4  17
ATOM     17  O   UNL     1      33.684  14.740  22.027  1.00  0.00    -0.387 OA
ATOM     18  H   UNL     1      33.265  15.449  22.583  1.00  0.00     0.211 HD
ENDBRANCH   4  17
TORSDOF 7
ENDMDL
MODEL 3
REMARK VINA RESULT:    -3.422     17.961     18.992
REMARK INTER + INTRA:          -4.562
REMARK INTER:                  -4.177
REMARK INTRA:                  -0.385
REMARK UNBOUND:                -0.140
REMARK SMILES CCO[C@@H]1O[C@H](CO)[C@H](O)[C@H](O)[C@@H]1O
REMARK SMILES IDX 4 1 13 2 11 3 9 4 6 5 5 6 3 7 2 8 1 9 14 10 12 12 7 14 8 15
REMARK SMILES IDX 10 17
REMARK H PARENT 14 11 12 13 8 16 10 18
REMARK Flexibility Score: inf
ROOT
ATOM      1  C   UNL     1      29.171   1.910   4.532  1.00  0.00     0.281 C 
ATOM      2  C   UNL     1      27.823   2.549   4.163  1.00  0.00     0.202 C 
ATOM      3  C   UNL     1      27.961   4.086   4.000  1.00  0.00     0.179 C 
ATOM      4  C   UNL     1      29.299   4.607   4.571  1.00  0.00     0.177 C 
ATOM      5  C   UNL     1      29.733   3.831   5.856  1.00  0.00     0.178 C 
ATOM      6  O   UNL     1      29.635   2.408   5.779  1.00  0.00    -0.341 OA
ENDROOT
BRANCH   1   7
ATOM      7  O   UNL     1      28.993   0.509   4.608  1.00  0.00    -0.350 OA
BRANCH   7   8
ATOM      8  C   UNL     1      29.075  -0.072   3.320  1.00  0.00     0.160 C 
ATOM      9  C   UNL     1      27.967  -1.098   3.166  1.00  0.00     0.035 C 
ENDBRANCH   7   8
ENDBRANCH   1   7
BRANCH   2  10
ATOM     10  O   UNL     1      26.884   2.233   5.162  1.00  0.00    -0.385 OA
ATOM     11  H   UNL     1      26.237   1.592   4.765  1.00  0.00     0.211 HD
ENDBRANCH   2  10
BRANCH   3  12
ATOM     12  O   UNL     1      26.876   4.743   4.612  1.00  0.00    -0.387 OA
ATOM     13  H   UNL     1      26.631   5.510   4.030  1.00  0.00     0.211 HD
ENDBRANCH   3  12
BRANCH   5  14
ATOM     14  C   UNL     1      28.966   4.303   7.106  1.00  0.00     0.191 C 
BRANCH  14  15
ATOM     15  O   UNL     1      29.396   5.583   7.491  1.00  0.00    -0.394 OA
ATOM     16  H   UNL     1      29.865   5.488   8.360  1.00  0.00     0.210 HD
ENDBRANCH  14  15
ENDBRANCH   5  14
BRANCH   4  17
ATOM     17  O   UNL     1      29.231   5.992   4.798  1.00  0.00    -0.387 OA
ATOM     18  H   UNL     1      29.665   6.159   5.675  1.00  0.00     0.211 HD
ENDBRANCH   4  17
TORSDOF 7
ENDMDL
MODEL 4
REMARK VINA RESULT:    -3.358      2.316      4.362
REMARK INTER + INTRA:          -4.479
REMARK INTER:                  -4.093
REMARK INTRA:                  -0.386
REMARK UNBOUND:                -0.140
REMARK SMILES CCO[C@@H]1O[C@H](CO)[C@H](O)[C@H](O)[C@@H]1O
REMARK SMILES IDX 4 1 13 2 11 3 9 4 6 5 5 6 3 7 2 8 1 9 14 10 12 12 7 14 8 15
REMARK SMILES IDX 10 17
REMARK H PARENT 14 11 12 13 8 16 10 18
REMARK Flexibility Score: inf
ROOT
ATOM      1  C   UNL     1      31.161  15.209  18.918  1.00  0.00     0.281 C 
ATOM      2  C   UNL     1      30.747  16.181  20.033  1.00  0.00     0.202 C 
ATOM      3  C   UNL     1      31.846  16.276  21.126  1.00  0.00     0.179 C 
ATOM      4  C   UNL     1      32.887  15.142  20.994  1.00  0.00     0.177 C 
ATOM      5  C   UNL     1      32.239  13.798  20.532  1.00  0.00     0.178 C 
ATOM      6  O   UNL     1      31.328  13.897  19.436  1.00  0.00    -0.341 OA
ENDROOT
BRANCH   1   7
ATOM      7  O   UNL     1      30.152  15.212  17.928  1.00  0.00    -0.350 OA
BRANCH   7   8
ATOM      8  C   UNL     1      30.445  14.266  16.917  1.00  0.00     0.160 C 
ATOM      9  C   UNL     1      31.141  14.968  15.766  1.00  0.00     0.035 C 
ENDBRANCH   7   8
ENDBRANCH   1   7
BRANCH   2  10
ATOM     10  O   UNL     1      29.528  15.747  20.583  1.00  0.00    -0.385 OA
ATOM     11  H   UNL     1      28.905  16.519  20.564  1.00  0.00     0.211 HD
ENDBRANCH   2  10
BRANCH   3  12
ATOM     12  O   UNL     1      31.262  16.261  22.409  1.00  0.00    -0.387 OA
ATOM     13  H   UNL     1      30.439  15.709  22.350  1.00  0.00     0.211 HD
ENDBRANCH   3  12
BRANCH   5  14
ATOM     14  C   UNL     1      31.529  13.068  21.689  1.00  0.00     0.191 C 
BRANCH  14  15
ATOM     15  O   UNL     1      32.457  12.346  22.456  1.00  0.00    -0.394 OA
ATOM     16  H   UNL     1      33.260  12.918  22.564  1.00  0.00     0.210 HD
ENDBRANCH  14  15
ENDBRANCH   5  14
BRANCH   4  17
ATOM     17  O   UNL     1      33.603  14.990  22.193  1.00  0.00    -0.387 OA
ATOM     18  H   UNL     1      33.033  15.366  22.915  1.00  0.00     0.211 HD
ENDBRANCH   4  17
TORSDOF 7
ENDMDL
MODEL 5
REMARK VINA RESULT:    -3.297      1.539      2.910
REMARK INTER + INTRA:          -4.400
REMARK INTER:                  -4.039
REMARK INTRA:                  -0.361
REMARK UNBOUND:                -0.140
REMARK SMILES CCO[C@@H]1O[C@H](CO)[C@H](O)[C@H](O)[C@@H]1O
REMARK SMILES IDX 4 1 13 2 11 3 9 4 6 5 5 6 3 7 2 8 1 9 14 10 12 12 7 14 8 15
REMARK SMILES IDX 10 17
REMARK H PARENT 14 11 12 13 8 16 10 18
REMARK Flexibility Score: inf
ROOT
ATOM      1  C   UNL     1      29.351  12.999  20.836  1.00  0.00     0.281 C 
ATOM      2  C   UNL     1      30.733  13.631  21.064  1.00  0.00     0.202 C 
ATOM      3  C   UNL     1      30.793  15.066  20.476  1.00  0.00     0.179 C 
ATOM      4  C   UNL     1      29.600  15.352  19.535  1.00  0.00     0.177 C 
ATOM      5  C   UNL     1      29.187  14.094  18.707  1.00  0.00     0.178 C 
ATOM      6  O   UNL     1      29.081  12.876  19.447  1.00  0.00    -0.341 OA
ENDROOT
BRANCH   1   7
ATOM      7  O   UNL     1      29.341  11.722  21.444  1.00  0.00    -0.350 OA
BRANCH   7   8
ATOM      8  C   UNL     1      28.082  11.099  21.269  1.00  0.00     0.160 C 
ATOM      9  C   UNL     1      28.084   9.763  21.989  1.00  0.00     0.035 C 
ENDBRANCH   7   8
ENDBRANCH   1   7
BRANCH   2  10
ATOM     10  O   UNL     1      31.710  12.807  20.477  1.00  0.00    -0.385 OA
ATOM     11  H   UNL     1      32.298  12.481  21.208  1.00  0.00     0.211 HD
ENDBRANCH   2  10
BRANCH   3  12
ATOM     12  O   UNL     1      32.012  15.267  19.799  1.00  0.00    -0.387 OA
ATOM     13  H   UNL     1      32.281  16.211  19.953  1.00  0.00     0.211 HD
ENDBRANCH   3  12
BRANCH   5  14
ATOM     14  C   UNL     1      30.128  13.853  17.510  1.00  0.00     0.191 C 
BRANCH  14  15
ATOM     15  O   UNL     1      29.721  14.618  16.406  1.00  0.00    -0.394 OA
ATOM     16  H   UNL     1      29.928  15.567  16.611  1.00  0.00     0.210 HD
ENDBRANCH  14  15
ENDBRANCH   5  14
BRANCH   4  17
ATOM     17  O   UNL     1      29.880  16.452  18.708  1.00  0.00    -0.387 OA
ATOM     18  H   UNL     1      29.111  16.544  18.085  1.00  0.00     0.211 HD
ENDBRANCH   4  17
TORSDOF 7
ENDMDL
MODEL 6
REMARK VINA RESULT:    -3.207      1.739      4.565
REMARK INTER + INTRA:          -4.285
REMARK INTER:                  -3.790
REMARK INTRA:                  -0.495
REMARK UNBOUND:                -0.140
REMARK SMILES CCO[C@@H]1O[C@H](CO)[C@H](O)[C@H](O)[C@@H]1O
REMARK SMILES IDX 4 1 13 2 11 3 9 4 6 5 5 6 3 7 2 8 1 9 14 10 12 12 7 14 8 15
REMARK SMILES IDX 10 17
REMARK H PARENT 14 11 12 13 8 16 10 18
REMARK Flexibility Score: inf
ROOT
ATOM      1  C   UNL     1      30.396  13.710  18.617  1.00  0.00     0.281 C 
ATOM      2  C   UNL     1      31.374  14.670  19.311  1.00  0.00     0.202 C 
ATOM      3  C   UNL     1      32.109  13.966  20.483  1.00  0.00     0.179 C 
ATOM      4  C   UNL     1      31.437  12.626  20.861  1.00  0.00     0.177 C 
ATOM      5  C   UNL     1      29.882  12.688  20.727  1.00  0.00     0.178 C 
ATOM      6  O   UNL     1      29.390  13.280  19.523  1.00  0.00    -0.341 OA
ENDROOT
BRANCH   1   7
ATOM      7  O   UNL     1      29.805  14.389  17.527  1.00  0.00    -0.350 OA
BRANCH   7   8
ATOM      8  C   UNL     1      30.557  14.180  16.346  1.00  0.00     0.160 C 
ATOM      9  C   UNL     1      30.960  15.525  15.769  1.00  0.00     0.035 C 
ENDBRANCH   7   8
ENDBRANCH   1   7
BRANCH   2  10
ATOM     10  O   UNL     1      30.659  15.792  19.768  1.00  0.00    -0.385 OA
ATOM     11  H   UNL     1      29.719  15.684  19.469  1.00  0.00     0.211 HD
ENDBRANCH   2  10
BRANCH   3  12
ATOM     12  O   UNL     1      32.171  14.818  21.604  1.00  0.00    -0.387 OA
ATOM     13  H   UNL     1      31.299  15.289  21.664  1.00  0.00     0.211 HD
ENDBRANCH   3  12
BRANCH   5  14
ATOM     14  C   UNL     1      29.224  13.404  21.923  1.00  0.00     0.191 C 
BRANCH  14  15
ATOM     15  O   UNL     1      28.601  14.589  21.501  1.00  0.00    -0.394 OA
ATOM     16  H   UNL     1      28.118  14.386  20.659  1.00  0.00     0.210 HD
ENDBRANCH  14  15
ENDBRANCH   5  14
BRANCH   4  17
ATOM     17  O   UNL     1      31.834  12.224  22.147  1.00  0.00    -0.387 OA
ATOM     18  H   UNL     1      32.042  13.052  22.654  1.00  0.00     0.211 HD
ENDBRANCH   4  17
TORSDOF 7
ENDMDL
MODEL 7
REMARK VINA RESULT:    -3.199      3.442      5.727
REMARK INTER + INTRA:          -4.274
REMARK INTER:                  -3.881
REMARK INTRA:                  -0.393
REMARK UNBOUND:                -0.140
REMARK SMILES CCO[C@@H]1O[C@H](CO)[C@H](O)[C@H](O)[C@@H]1O
REMARK SMILES IDX 4 1 13 2 11 3 9 4 6 5 5 6 3 7 2 8 1 9 14 10 12 12 7 14 8 15
REMARK SMILES IDX 10 17
REMARK H PARENT 14 11 12 13 8 16 10 18
REMARK Flexibility Score: inf
ROOT
ATOM      1  C   UNL     1      30.712  15.927  16.560  1.00  0.00     0.281 C 
ATOM      2  C   UNL     1      29.691  14.827  16.888  1.00  0.00     0.202 C 
ATOM      3  C   UNL     1      28.899  15.169  18.178  1.00  0.00     0.179 C 
ATOM      4  C   UNL     1      29.560  16.321  18.970  1.00  0.00     0.177 C 
ATOM      5  C   UNL     1      31.119  16.265  18.900  1.00  0.00     0.178 C 
ATOM      6  O   UNL     1      31.670  16.045  17.601  1.00  0.00    -0.341 OA
ENDROOT
BRANCH   1   7
ATOM      7  O   UNL     1      31.355  15.589  15.347  1.00  0.00    -0.350 OA
BRANCH   7   8
ATOM      8  C   UNL     1      31.007  16.506  14.327  1.00  0.00     0.160 C 
ATOM      9  C   UNL     1      31.164  15.832  12.976  1.00  0.00     0.035 C 
ENDBRANCH   7   8
ENDBRANCH   1   7
BRANCH   2  10
ATOM     10  O   UNL     1      30.372  13.604  17.025  1.00  0.00    -0.385 OA
ATOM     11  H   UNL     1      31.266  13.716  16.608  1.00  0.00     0.211 HD
ENDBRANCH   2  10
BRANCH   3  12
ATOM     12  O   UNL     1      28.770  14.025  18.991  1.00  0.00    -0.387 OA
ATOM     13  H   UNL     1      29.637  13.896  19.457  1.00  0.00     0.211 HD
ENDBRANCH   3  12
BRANCH   5  14
ATOM     14  C   UNL     1      31.706  15.212  19.860  1.00  0.00     0.191 C 
BRANCH  14  15
ATOM     15  O   UNL     1      31.853  13.979  19.204  1.00  0.00    -0.394 OA
ATOM     16  H   UNL     1      31.094  13.404  19.481  1.00  0.00     0.210 HD
ENDBRANCH  14  15
ENDBRANCH   5  14
BRANCH   4  17
ATOM     17  O   UNL     1      29.097  16.333  20.296  1.00  0.00    -0.387 OA
ATOM     18  H   UNL     1      29.672  15.702  20.805  1.00  0.00     0.211 HD
ENDBRANCH   4  17
TORSDOF 7
ENDMDL
MODEL 8
REMARK VINA RESULT:    -3.151      2.164      4.138
REMARK INTER + INTRA:          -4.212
REMARK INTER:                  -3.722
REMARK INTRA:                  -0.490
REMARK UNBOUND:                -0.140
REMARK SMILES CCO[C@@H]1O[C@H](CO)[C@H](O)[C@H](O)[C@@H]1O
REMARK SMILES IDX 4 1 13 2 11 3 9 4 6 5 5 6 3 7 2 8 1 9 14 10 12 12 7 14 8 15
REMARK SMILES IDX 10 17
REMARK H PARENT 14 11 12 13 8 16 10 18
REMARK Flexibility Score: inf
ROOT
ATOM      1  C   UNL     1      30.783  14.274  18.907  1.00  0.00     0.281 C 
ATOM      2  C   UNL     1      29.442  14.256  19.657  1.00  0.00     0.202 C 
ATOM      3  C   UNL     1      29.560  14.981  21.025  1.00  0.00     0.179 C 
ATOM      4  C   UNL     1      31.034  15.222  21.422  1.00  0.00     0.177 C 
ATOM      5  C   UNL     1      31.963  14.046  20.983  1.00  0.00     0.178 C 
ATOM      6  O   UNL     1      31.778  13.581  19.645  1.00  0.00    -0.341 OA
ENDROOT
BRANCH   1   7
ATOM      7  O   UNL     1      30.596  13.655  17.649  1.00  0.00    -0.350 OA
BRANCH   7   8
ATOM      8  C   UNL     1      30.006  14.559  16.734  1.00  0.00     0.160 C 
ATOM      9  C   UNL     1      31.082  15.110  15.815  1.00  0.00     0.035 C 
ENDBRANCH   7   8
ENDBRANCH   1   7
BRANCH   2  10
ATOM     10  O   UNL     1      29.038  12.920  19.830  1.00  0.00    -0.385 OA
ATOM     11  H   UNL     1      28.111  12.846  19.481  1.00  0.00     0.211 HD
ENDBRANCH   2  10
BRANCH   3  12
ATOM     12  O   UNL     1      28.894  14.246  22.027  1.00  0.00    -0.387 OA
ATOM     13  H   UNL     1      29.319  13.350  22.065  1.00  0.00     0.211 HD
ENDBRANCH   3  12
BRANCH   5  14
ATOM     14  C   UNL     1      31.860  12.838  21.935  1.00  0.00     0.191 C 
BRANCH  14  15
ATOM     15  O   UNL     1      31.050  11.839  21.371  1.00  0.00    -0.394 OA
ATOM     16  H   UNL     1      31.597  11.014  21.310  1.00  0.00     0.210 HD
ENDBRANCH  14  15
ENDBRANCH   5  14
BRANCH   4  17
ATOM     17  O   UNL     1      31.135  15.480  22.800  1.00  0.00    -0.387 OA
ATOM     18  H   UNL     1      30.252  15.257  23.197  1.00  0.00     0.211 HD
ENDBRANCH   4  17
TORSDOF 7
ENDMDL
MODEL 9
REMARK VINA RESULT:    -3.142      4.301      5.969
REMARK INTER + INTRA:          -4.201
REMARK INTER:                  -3.829
REMARK INTRA:                  -0.371
REMARK UNBOUND:                -0.140
REMARK SMILES CCO[C@@H]1O[C@H](CO)[C@H](O)[C@H](O)[C@@H]1O
REMARK SMILES IDX 4 1 13 2 11 3 9 4 6 5 5 6 3 7 2 8 1 9 14 10 12 12 7 14 8 15
REMARK SMILES IDX 10 17
REMARK H PARENT 14 11 12 13 8 16 10 18
REMARK Flexibility Score: inf
ROOT
ATOM      1  C   UNL     1      30.862  16.729  18.225  1.00  0.00     0.281 C 
ATOM      2  C   UNL     1      31.325  15.386  17.639  1.00  0.00     0.202 C 
ATOM      3  C   UNL     1      31.205  15.382  16.092  1.00  0.00     0.179 C 
ATOM      4  C   UNL     1      30.352  16.564  15.578  1.00  0.00     0.177 C 
ATOM      5  C   UNL     1      29.164  16.895  16.537  1.00  0.00     0.178 C 
ATOM      6  O   UNL     1      29.493  16.959  17.926  1.00  0.00    -0.341 OA
ENDROOT
BRANCH   1   7
ATOM      7  O   UNL     1      31.051  16.692  19.626  1.00  0.00    -0.350 OA
BRANCH   7   8
ATOM      8  C   UNL     1      32.361  17.109  19.961  1.00  0.00     0.160 C 
ATOM      9  C   UNL     1      32.983  16.089  20.898  1.00  0.00     0.035 C 
ENDBRANCH   7   8
ENDBRANCH   1   7
BRANCH   2  10
ATOM     10  O   UNL     1      30.552  14.356  18.205  1.00  0.00    -0.385 OA
ATOM     11  H   UNL     1      29.608  14.520  17.947  1.00  0.00     0.211 HD
ENDBRANCH   2  10
BRANCH   3  12
ATOM     12  O   UNL     1      30.668  14.158  15.645  1.00  0.00    -0.387 OA
ATOM     13  H   UNL     1      29.789  14.358  15.229  1.00  0.00     0.211 HD
ENDBRANCH   3  12
BRANCH   5  14
ATOM     14  C   UNL     1      27.988  15.914  16.363  1.00  0.00     0.191 C 
BRANCH  14  15
ATOM     15  O   UNL     1      27.352  16.128  15.130  1.00  0.00    -0.394 OA
ATOM     16  H   UNL     1      27.692  15.442  14.499  1.00  0.00     0.210 HD
ENDBRANCH  14  15
ENDBRANCH   5  14
BRANCH   4  17
ATOM     17  O   UNL     1      29.911  16.318  14.267  1.00  0.00    -0.387 OA
ATOM     18  H   UNL     1      30.715  16.350  13.685  1.00  0.00     0.211 HD
ENDBRANCH   4  17
TORSDOF 7
ENDMDL
