MODEL 1
REMARK VINA RESULT:    -6.846      0.000      0.000
REMARK INTER + INTRA:          -8.341
REMARK INTER:                  -8.247
REMARK INTRA:                  -0.094
REMARK UNBOUND:                -0.094
REMARK SMILES O=c1c(O)c(-c2ccc(O)c(O)c2)oc2cc(O)cc(O)c12
REMARK SMILES IDX 5 1 3 2 2 3 1 4 22 5 20 6 19 7 17 8 16 9 15 10 14 11 6 12
REMARK SMILES IDX 7 13 8 14 9 15 13 16 11 17 10 18 12 20 4 22 21 24 18 26
REMARK H PARENT 10 19 12 21 4 23 21 25 18 27
REMARK Flexibility Score: inf
ROOT
ATOM      1  C   UNL     1     -15.252  21.232  12.085  1.00  0.00     0.180 A 
ATOM      2  C   UNL     1     -16.503  21.267  11.445  1.00  0.00     0.208 A 
ATOM      3  C   UNL     1     -17.661  21.421  12.223  1.00  0.00     0.238 A 
ATOM      4  O   UNL     1     -18.773  21.505  11.641  1.00  0.00    -0.285 OA
ATOM      5  C   UNL     1     -17.556  21.523  13.631  1.00  0.00     0.111 A 
ATOM      6  C   UNL     1     -18.666  21.642  14.521  1.00  0.00     0.134 A 
ATOM      7  C   UNL     1     -18.437  21.867  15.884  1.00  0.00     0.093 A 
ATOM      8  C   UNL     1     -17.140  21.913  16.399  1.00  0.00     0.123 A 
ATOM      9  C   UNL     1     -16.050  21.738  15.548  1.00  0.00     0.094 A 
ATOM     10  C   UNL     1     -16.246  21.548  14.178  1.00  0.00     0.146 A 
ATOM     11  O   UNL     1     -15.180  21.397  13.400  1.00  0.00    -0.452 OA
ENDROOT
BRANCH   1  12
ATOM     12  C   UNL     1     -13.988  21.048  11.334  1.00  0.00     0.025 A 
ATOM     13  C   UNL     1     -13.600  21.944  10.323  1.00  0.00     0.016 A 
ATOM     14  C   UNL     1     -12.415  21.736   9.611  1.00  0.00     0.051 A 
ATOM     15  C   UNL     1     -11.610  20.623   9.889  1.00  0.00     0.157 A 
ATOM     16  C   UNL     1     -13.188  19.923  11.594  1.00  0.00     0.062 A 
ATOM     17  C   UNL     1     -11.999  19.714  10.880  1.00  0.00     0.158 A 
BRANCH  15  18
ATOM     18  O   UNL     1     -10.428  20.413   9.183  1.00  0.00    -0.504 OA
ATOM     19  H   UNL     1      -9.805  21.180   8.952  1.00  0.00     0.293 HD
ENDBRANCH  15  18
BRANCH  17  20
ATOM     20  O   UNL     1     -11.199  18.605  11.150  1.00  0.00    -0.504 OA
ATOM     21  H   UNL     1     -10.253  18.533  10.792  1.00  0.00     0.293 HD
ENDBRANCH  17  20
ENDBRANCH   1  12
BRANCH   2  22
ATOM     22  O   UNL     1     -16.583  21.185  10.052  1.00  0.00    -0.502 OA
ATOM     23  H   UNL     1     -16.872  20.341   9.572  1.00  0.00     0.293 HD
ENDBRANCH   2  22
BRANCH   6  24
ATOM     24  O   UNL     1     -20.000  21.520  14.124  1.00  0.00    -0.507 OA
ATOM     25  H   UNL     1     -20.372  20.752  13.585  1.00  0.00     0.293 HD
ENDBRANCH   6  24
BRANCH   8  26
ATOM     26  O   UNL     1     -16.921  22.122  17.759  1.00  0.00    -0.508 OA
ATOM     27  H   UNL     1     -16.446  22.949  18.098  1.00  0.00     0.293 HD
ENDBRANCH   8  26
TORSDOF 6
ENDMDL
MODEL 2
REMARK VINA RESULT:    -6.527      0.975      1.158
REMARK INTER + INTRA:          -7.956
REMARK INTER:                  -7.913
REMARK INTRA:                  -0.043
REMARK UNBOUND:                -0.094
REMARK SMILES O=c1c(O)c(-c2ccc(O)c(O)c2)oc2cc(O)cc(O)c12
REMARK SMILES IDX 5 1 3 2 2 3 1 4 22 5 20 6 19 7 17 8 16 9 15 10 14 11 6 12
REMARK SMILES IDX 7 13 8 14 9 15 13 16 11 17 10 18 12 20 4 22 21 24 18 26
REMARK H PARENT 10 19 12 21 4 23 21 25 18 27
REMARK Flexibility Score: inf
ROOT
ATOM      1  C   UNL     1     -14.599  21.155  11.155  1.00  0.00     0.180 A 
ATOM      2  C   UNL     1     -15.805  21.160  10.433  1.00  0.00     0.208 A 
ATOM      3  C   UNL     1     -17.015  21.312  11.130  1.00  0.00     0.238 A 
ATOM      4  O   UNL     1     -18.087  21.370  10.473  1.00  0.00    -0.285 OA
ATOM      5  C   UNL     1     -17.005  21.441  12.539  1.00  0.00     0.111 A 
ATOM      6  C   UNL     1     -18.172  21.561  13.351  1.00  0.00     0.134 A 
ATOM      7  C   UNL     1     -18.037  21.814  14.722  1.00  0.00     0.093 A 
ATOM      8  C   UNL     1     -16.778  21.888  15.321  1.00  0.00     0.123 A 
ATOM      9  C   UNL     1     -15.633  21.713  14.547  1.00  0.00     0.094 A 
ATOM     10  C   UNL     1     -15.734  21.495  13.171  1.00  0.00     0.146 A 
ATOM     11  O   UNL     1     -14.617  21.345  12.468  1.00  0.00    -0.452 OA
ENDROOT
BRANCH   1  12
ATOM     12  C   UNL     1     -13.286  20.975  10.493  1.00  0.00     0.025 A 
ATOM     13  C   UNL     1     -12.881  21.805   9.433  1.00  0.00     0.016 A 
ATOM     14  C   UNL     1     -11.648  21.601   8.807  1.00  0.00     0.051 A 
ATOM     15  C   UNL     1     -10.810  20.556   9.221  1.00  0.00     0.157 A 
ATOM     16  C   UNL     1     -12.452  19.917  10.889  1.00  0.00     0.062 A 
ATOM     17  C   UNL     1     -11.214  19.712  10.262  1.00  0.00     0.158 A 
BRANCH  15  18
ATOM     18  O   UNL     1      -9.580  20.351   8.601  1.00  0.00    -0.504 OA
ATOM     19  H   UNL     1      -9.002  21.127   8.300  1.00  0.00     0.293 HD
ENDBRANCH  15  18
BRANCH  17  20
ATOM     20  O   UNL     1     -10.382  18.671  10.668  1.00  0.00    -0.504 OA
ATOM     21  H   UNL     1      -9.689  18.272  10.044  1.00  0.00     0.293 HD
ENDBRANCH  17  20
ENDBRANCH   1  12
BRANCH   2  22
ATOM     22  O   UNL     1     -15.792  21.052   9.040  1.00  0.00    -0.502 OA
ATOM     23  H   UNL     1     -14.973  20.751   8.525  1.00  0.00     0.293 HD
ENDBRANCH   2  22
BRANCH   6  24
ATOM     24  O   UNL     1     -19.476  21.413  12.869  1.00  0.00    -0.507 OA
ATOM     25  H   UNL     1     -19.775  20.688  12.233  1.00  0.00     0.293 HD
ENDBRANCH   6  24
BRANCH   8  26
ATOM     26  O   UNL     1     -16.653  22.125  16.688  1.00  0.00    -0.508 OA
ATOM     27  H   UNL     1     -17.464  22.184  17.292  1.00  0.00     0.293 HD
ENDBRANCH   8  26
TORSDOF 6
ENDMDL
MODEL 3
REMARK VINA RESULT:    -6.421     11.922     15.030
REMARK INTER + INTRA:          -7.829
REMARK INTER:                  -7.682
REMARK INTRA:                  -0.147
REMARK UNBOUND:                -0.094
REMARK SMILES O=c1c(O)c(-c2ccc(O)c(O)c2)oc2cc(O)cc(O)c12
REMARK SMILES IDX 5 1 3 2 2 3 1 4 22 5 20 6 19 7 17 8 16 9 15 10 14 11 6 12
REMARK SMILES IDX 7 13 8 14 9 15 13 16 11 17 10 18 12 20 4 22 21 24 18 26
REMARK H PARENT 10 19 12 21 4 23 21 25 18 27
REMARK Flexibility Score: inf
ROOT
ATOM      1  C   UNL     1     -10.319   7.877   8.655  1.00  0.00     0.180 A 
ATOM      2  C   UNL     1      -9.326   8.552   7.924  1.00  0.00     0.208 A 
ATOM      3  C   UNL     1      -8.986   9.865   8.289  1.00  0.00     0.238 A 
ATOM      4  O   UNL     1      -8.060  10.444   7.665  1.00  0.00    -0.285 OA
ATOM      5  C   UNL     1      -9.654  10.491   9.368  1.00  0.00     0.111 A 
ATOM      6  C   UNL     1      -9.418  11.831   9.799  1.00  0.00     0.134 A 
ATOM      7  C   UNL     1     -10.043  12.303  10.961  1.00  0.00     0.093 A 
ATOM      8  C   UNL     1     -10.944  11.505  11.669  1.00  0.00     0.123 A 
ATOM      9  C   UNL     1     -11.226  10.216  11.223  1.00  0.00     0.094 A 
ATOM     10  C   UNL     1     -10.591   9.704  10.089  1.00  0.00     0.146 A 
ATOM     11  O   UNL     1     -10.880   8.467   9.703  1.00  0.00    -0.452 OA
ENDROOT
BRANCH   1  12
ATOM     12  C   UNL     1     -10.749   6.501   8.315  1.00  0.00     0.025 A 
ATOM     13  C   UNL     1      -9.859   5.416   8.396  1.00  0.00     0.016 A 
ATOM     14  C   UNL     1     -10.280   4.129   8.047  1.00  0.00     0.051 A 
ATOM     15  C   UNL     1     -11.589   3.912   7.598  1.00  0.00     0.157 A 
ATOM     16  C   UNL     1     -12.053   6.280   7.844  1.00  0.00     0.062 A 
ATOM     17  C   UNL     1     -12.476   4.990   7.494  1.00  0.00     0.158 A 
BRANCH  15  18
ATOM     18  O   UNL     1     -12.013   2.631   7.251  1.00  0.00    -0.504 OA
ATOM     19  H   UNL     1     -12.670   2.477   6.494  1.00  0.00     0.293 HD
ENDBRANCH  15  18
BRANCH  17  20
ATOM     20  O   UNL     1     -13.776   4.772   7.042  1.00  0.00    -0.504 OA
ATOM     21  H   UNL     1     -13.985   4.677   6.054  1.00  0.00     0.293 HD
ENDBRANCH  17  20
ENDBRANCH   1  12
BRANCH   2  22
ATOM     22  O   UNL     1      -8.665   7.908   6.875  1.00  0.00    -0.502 OA
ATOM     23  H   UNL     1      -8.317   8.405   6.064  1.00  0.00     0.293 HD
ENDBRANCH   2  22
BRANCH   6  24
ATOM     24  O   UNL     1      -8.609  12.740   9.113  1.00  0.00    -0.507 OA
ATOM     25  H   UNL     1      -8.174  13.551   9.528  1.00  0.00     0.293 HD
ENDBRANCH   6  24
BRANCH   8  26
ATOM     26  O   UNL     1     -11.573  11.988  12.815  1.00  0.00    -0.508 OA
ATOM     27  H   UNL     1     -11.568  11.465  13.682  1.00  0.00     0.293 HD
ENDBRANCH   8  26
TORSDOF 6
ENDMDL
MODEL 4
REMARK VINA RESULT:    -6.369      2.187      3.946
REMARK INTER + INTRA:          -7.765
REMARK INTER:                  -7.450
REMARK INTRA:                  -0.315
REMARK UNBOUND:                -0.094
REMARK SMILES O=c1c(O)c(-c2ccc(O)c(O)c2)oc2cc(O)cc(O)c12
REMARK SMILES IDX 5 1 3 2 2 3 1 4 22 5 20 6 19 7 17 8 16 9 15 10 14 11 6 12
REMARK SMILES IDX 7 13 8 14 9 15 13 16 11 17 10 18 12 20 4 22 21 24 18 26
REMARK H PARENT 10 19 12 21 4 23 21 25 18 27
REMARK Flexibility Score: inf
ROOT
ATOM      1  C   UNL     1     -12.726  20.178   9.842  1.00  0.00     0.180 A 
ATOM      2  C   UNL     1     -13.531  20.694   8.812  1.00  0.00     0.208 A 
ATOM      3  C   UNL     1     -14.785  21.237   9.136  1.00  0.00     0.238 A 
ATOM      4  O   UNL     1     -15.478  21.745   8.217  1.00  0.00    -0.285 OA
ATOM      5  C   UNL     1     -15.224  21.243  10.481  1.00  0.00     0.111 A 
ATOM      6  C   UNL     1     -16.492  21.731  10.918  1.00  0.00     0.134 A 
ATOM      7  C   UNL     1     -16.767  21.808  12.289  1.00  0.00     0.093 A 
ATOM      8  C   UNL     1     -15.847  21.354  13.236  1.00  0.00     0.123 A 
ATOM      9  C   UNL     1     -14.630  20.820  12.817  1.00  0.00     0.094 A 
ATOM     10  C   UNL     1     -14.311  20.764  11.458  1.00  0.00     0.146 A 
ATOM     11  O   UNL     1     -13.137  20.258  11.102  1.00  0.00    -0.452 OA
ENDROOT
BRANCH   1  12
ATOM     12  C   UNL     1     -11.403  19.567   9.576  1.00  0.00     0.025 A 
ATOM     13  C   UNL     1     -11.253  18.175   9.445  1.00  0.00     0.016 A 
ATOM     14  C   UNL     1      -9.990  17.619   9.218  1.00  0.00     0.051 A 
ATOM     15  C   UNL     1      -8.860  18.443   9.134  1.00  0.00     0.157 A 
ATOM     16  C   UNL     1     -10.263  20.386   9.512  1.00  0.00     0.062 A 
ATOM     17  C   UNL     1      -8.997  19.828   9.284  1.00  0.00     0.158 A 
BRANCH  15  18
ATOM     18  O   UNL     1      -7.601  17.892   8.907  1.00  0.00    -0.504 OA
ATOM     19  H   UNL     1      -6.849  17.995   9.579  1.00  0.00     0.293 HD
ENDBRANCH  15  18
BRANCH  17  20
ATOM     20  O   UNL     1      -7.870  20.645   9.206  1.00  0.00    -0.504 OA
ATOM     21  H   UNL     1      -7.763  21.331   8.469  1.00  0.00     0.293 HD
ENDBRANCH  17  20
ENDBRANCH   1  12
BRANCH   2  22
ATOM     22  O   UNL     1     -13.070  20.697   7.493  1.00  0.00    -0.502 OA
ATOM     23  H   UNL     1     -13.571  21.156   6.743  1.00  0.00     0.293 HD
ENDBRANCH   2  22
BRANCH   6  24
ATOM     24  O   UNL     1     -17.517  22.124  10.053  1.00  0.00    -0.507 OA
ATOM     25  H   UNL     1     -18.461  21.768  10.081  1.00  0.00     0.293 HD
ENDBRANCH   6  24
BRANCH   8  26
ATOM     26  O   UNL     1     -16.135  21.419  14.598  1.00  0.00    -0.508 OA
ATOM     27  H   UNL     1     -16.991  21.840  14.938  1.00  0.00     0.293 HD
ENDBRANCH   8  26
TORSDOF 6
ENDMDL
MODEL 5
REMARK VINA RESULT:    -6.154      1.497      6.889
REMARK INTER + INTRA:          -7.507
REMARK INTER:                  -7.839
REMARK INTRA:                   0.332
REMARK UNBOUND:                -0.094
REMARK SMILES O=c1c(O)c(-c2ccc(O)c(O)c2)oc2cc(O)cc(O)c12
REMARK SMILES IDX 5 1 3 2 2 3 1 4 22 5 20 6 19 7 17 8 16 9 15 10 14 11 6 12
REMARK SMILES IDX 7 13 8 14 9 15 13 16 11 17 10 18 12 20 4 22 21 24 18 26
REMARK H PARENT 10 19 12 21 4 23 21 25 18 27
REMARK Flexibility Score: inf
ROOT
ATOM      1  C   UNL     1     -15.160  21.415  11.527  1.00  0.00     0.180 A 
ATOM      2  C   UNL     1     -15.666  21.715  10.251  1.00  0.00     0.208 A 
ATOM      3  C   UNL     1     -14.830  21.559   9.133  1.00  0.00     0.238 A 
ATOM      4  O   UNL     1     -15.304  21.777   7.989  1.00  0.00    -0.285 OA
ATOM      5  C   UNL     1     -13.495  21.122   9.308  1.00  0.00     0.111 A 
ATOM      6  C   UNL     1     -12.548  20.968   8.252  1.00  0.00     0.134 A 
ATOM      7  C   UNL     1     -11.295  20.404   8.525  1.00  0.00     0.093 A 
ATOM      8  C   UNL     1     -10.932  20.049   9.825  1.00  0.00     0.123 A 
ATOM      9  C   UNL     1     -11.828  20.251  10.873  1.00  0.00     0.094 A 
ATOM     10  C   UNL     1     -13.098  20.778  10.627  1.00  0.00     0.146 A 
ATOM     11  O   UNL     1     -13.925  20.945  11.652  1.00  0.00    -0.452 OA
ENDROOT
BRANCH   1  12
ATOM     12  C   UNL     1     -15.973  21.578  12.755  1.00  0.00     0.025 A 
ATOM     13  C   UNL     1     -15.375  21.847  13.998  1.00  0.00     0.016 A 
ATOM     14  C   UNL     1     -16.161  21.973  15.148  1.00  0.00     0.051 A 
ATOM     15  C   UNL     1     -17.552  21.817  15.073  1.00  0.00     0.157 A 
ATOM     16  C   UNL     1     -17.365  21.403  12.690  1.00  0.00     0.062 A 
ATOM     17  C   UNL     1     -18.154  21.530  13.843  1.00  0.00     0.158 A 
BRANCH  15  18
ATOM     18  O   UNL     1     -18.338  21.943  16.216  1.00  0.00    -0.504 OA
ATOM     19  H   UNL     1     -18.543  21.147  16.809  1.00  0.00     0.293 HD
ENDBRANCH  15  18
BRANCH  17  20
ATOM     20  O   UNL     1     -19.537  21.369  13.773  1.00  0.00    -0.504 OA
ATOM     21  H   UNL     1     -19.960  20.455  13.659  1.00  0.00     0.293 HD
ENDBRANCH  17  20
ENDBRANCH   1  12
BRANCH   2  22
ATOM     22  O   UNL     1     -16.993  22.125  10.098  1.00  0.00    -0.502 OA
ATOM     23  H   UNL     1     -17.432  22.790  10.723  1.00  0.00     0.293 HD
ENDBRANCH   2  22
BRANCH   6  24
ATOM     24  O   UNL     1     -12.775  21.374   6.934  1.00  0.00    -0.507 OA
ATOM     25  H   UNL     1     -12.284  21.016   6.128  1.00  0.00     0.293 HD
ENDBRANCH   6  24
BRANCH   8  26
ATOM     26  O   UNL     1      -9.677  19.504  10.090  1.00  0.00    -0.508 OA
ATOM     27  H   UNL     1      -9.432  19.163  11.012  1.00  0.00     0.293 HD
ENDBRANCH   8  26
TORSDOF 6
ENDMDL
MODEL 6
REMARK VINA RESULT:    -6.012     10.365     14.315
REMARK INTER + INTRA:          -7.336
REMARK INTER:                  -7.006
REMARK INTRA:                  -0.330
REMARK UNBOUND:                -0.094
REMARK SMILES O=c1c(O)c(-c2ccc(O)c(O)c2)oc2cc(O)cc(O)c12
REMARK SMILES IDX 5 1 3 2 2 3 1 4 22 5 20 6 19 7 17 8 16 9 15 10 14 11 6 12
REMARK SMILES IDX 7 13 8 14 9 15 13 16 11 17 10 18 12 20 4 22 21 24 18 26
REMARK H PARENT 10 19 12 21 4 23 21 25 18 27
REMARK Flexibility Score: inf
ROOT
ATOM      1  C   UNL     1      -9.521  10.467   9.134  1.00  0.00     0.180 A 
ATOM      2  C   UNL     1      -8.273   9.948   8.748  1.00  0.00     0.208 A 
ATOM      3  C   UNL     1      -8.213   8.657   8.198  1.00  0.00     0.238 A 
ATOM      4  O   UNL     1      -7.101   8.219   7.805  1.00  0.00    -0.285 OA
ATOM      5  C   UNL     1      -9.398   7.896   8.057  1.00  0.00     0.111 A 
ATOM      6  C   UNL     1      -9.450   6.563   7.549  1.00  0.00     0.134 A 
ATOM      7  C   UNL     1     -10.693   5.955   7.332  1.00  0.00     0.093 A 
ATOM      8  C   UNL     1     -11.882   6.607   7.663  1.00  0.00     0.123 A 
ATOM      9  C   UNL     1     -11.840   7.886   8.215  1.00  0.00     0.094 A 
ATOM     10  C   UNL     1     -10.617   8.533   8.410  1.00  0.00     0.146 A 
ATOM     11  O   UNL     1     -10.622   9.755   8.928  1.00  0.00    -0.452 OA
ENDROOT
BRANCH   1  12
ATOM     12  C   UNL     1      -9.660  11.810   9.744  1.00  0.00     0.025 A 
ATOM     13  C   UNL     1      -9.617  11.988  11.138  1.00  0.00     0.016 A 
ATOM     14  C   UNL     1      -9.776  13.262  11.693  1.00  0.00     0.051 A 
ATOM     15  C   UNL     1      -9.994  14.370  10.864  1.00  0.00     0.157 A 
ATOM     16  C   UNL     1      -9.900  12.922   8.921  1.00  0.00     0.062 A 
ATOM     17  C   UNL     1     -10.059  14.199   9.476  1.00  0.00     0.158 A 
BRANCH  15  18
ATOM     18  O   UNL     1     -10.151  15.641  11.413  1.00  0.00    -0.504 OA
ATOM     19  H   UNL     1     -10.741  16.339  10.974  1.00  0.00     0.293 HD
ENDBRANCH  15  18
BRANCH  17  20
ATOM     20  O   UNL     1     -10.282  15.303   8.655  1.00  0.00    -0.504 OA
ATOM     21  H   UNL     1      -9.925  15.340   7.707  1.00  0.00     0.293 HD
ENDBRANCH  17  20
ENDBRANCH   1  12
BRANCH   2  22
ATOM     22  O   UNL     1      -7.118  10.724   8.877  1.00  0.00    -0.502 OA
ATOM     23  H   UNL     1      -6.218  10.325   9.116  1.00  0.00     0.293 HD
ENDBRANCH   2  22
BRANCH   6  24
ATOM     24  O   UNL     1      -8.319   5.790   7.272  1.00  0.00    -0.507 OA
ATOM     25  H   UNL     1      -7.989   5.027   7.845  1.00  0.00     0.293 HD
ENDBRANCH   6  24
BRANCH   8  26
ATOM     26  O   UNL     1     -13.114   5.988   7.458  1.00  0.00    -0.508 OA
ATOM     27  H   UNL     1     -13.247   5.001   7.640  1.00  0.00     0.293 HD
ENDBRANCH   8  26
TORSDOF 6
ENDMDL
MODEL 7
REMARK VINA RESULT:    -5.879      8.823     12.398
REMARK INTER + INTRA:          -7.175
REMARK INTER:                  -6.891
REMARK INTRA:                  -0.284
REMARK UNBOUND:                -0.094
REMARK SMILES O=c1c(O)c(-c2ccc(O)c(O)c2)oc2cc(O)cc(O)c12
REMARK SMILES IDX 5 1 3 2 2 3 1 4 22 5 20 6 19 7 17 8 16 9 15 10 14 11 6 12
REMARK SMILES IDX 7 13 8 14 9 15 13 16 11 17 10 18 12 20 4 22 21 24 18 26
REMARK H PARENT 10 19 12 21 4 23 21 25 18 27
REMARK Flexibility Score: inf
ROOT
ATOM      1  C   UNL     1      -9.594  11.389   9.262  1.00  0.00     0.180 A 
ATOM      2  C   UNL     1      -9.704  11.676  10.633  1.00  0.00     0.208 A 
ATOM      3  C   UNL     1      -9.891  13.008  11.037  1.00  0.00     0.238 A 
ATOM      4  O   UNL     1     -10.042  13.252  12.262  1.00  0.00    -0.285 OA
ATOM      5  C   UNL     1      -9.949  14.037  10.066  1.00  0.00     0.111 A 
ATOM      6  C   UNL     1     -10.095  15.425  10.364  1.00  0.00     0.134 A 
ATOM      7  C   UNL     1     -10.272  16.340   9.319  1.00  0.00     0.093 A 
ATOM      8  C   UNL     1     -10.244  15.926   7.986  1.00  0.00     0.123 A 
ATOM      9  C   UNL     1     -10.042  14.581   7.683  1.00  0.00     0.094 A 
ATOM     10  C   UNL     1      -9.899  13.639   8.704  1.00  0.00     0.146 A 
ATOM     11  O   UNL     1      -9.719  12.366   8.373  1.00  0.00    -0.452 OA
ENDROOT
BRANCH   1  12
ATOM     12  C   UNL     1      -9.372  10.012   8.761  1.00  0.00     0.025 A 
ATOM     13  C   UNL     1     -10.423   9.082   8.688  1.00  0.00     0.016 A 
ATOM     14  C   UNL     1     -10.185   7.781   8.235  1.00  0.00     0.051 A 
ATOM     15  C   UNL     1      -8.892   7.388   7.863  1.00  0.00     0.157 A 
ATOM     16  C   UNL     1      -8.075   9.607   8.407  1.00  0.00     0.062 A 
ATOM     17  C   UNL     1      -7.835   8.302   7.952  1.00  0.00     0.158 A 
BRANCH  15  18
ATOM     18  O   UNL     1      -8.651   6.093   7.410  1.00  0.00    -0.504 OA
ATOM     19  H   UNL     1      -7.811   5.588   7.671  1.00  0.00     0.293 HD
ENDBRANCH  15  18
BRANCH  17  20
ATOM     20  O   UNL     1      -6.549   7.907   7.587  1.00  0.00    -0.504 OA
ATOM     21  H   UNL     1      -6.157   8.149   6.684  1.00  0.00     0.293 HD
ENDBRANCH  17  20
ENDBRANCH   1  12
BRANCH   2  22
ATOM     22  O   UNL     1      -9.665  10.643  11.574  1.00  0.00    -0.502 OA
ATOM     23  H   UNL     1      -9.093   9.816  11.450  1.00  0.00     0.293 HD
ENDBRANCH   2  22
BRANCH   6  24
ATOM     24  O   UNL     1     -10.046  15.955  11.657  1.00  0.00    -0.507 OA
ATOM     25  H   UNL     1     -10.589  15.618  12.438  1.00  0.00     0.293 HD
ENDBRANCH   6  24
BRANCH   8  26
ATOM     26  O   UNL     1     -10.405  16.846   6.952  1.00  0.00    -0.508 OA
ATOM     27  H   UNL     1     -11.190  16.794   6.314  1.00  0.00     0.293 HD
ENDBRANCH   8  26
TORSDOF 6
ENDMDL
MODEL 8
REMARK VINA RESULT:    -5.733      3.414      8.591
REMARK INTER + INTRA:          -7.000
REMARK INTER:                  -7.495
REMARK INTRA:                   0.495
REMARK UNBOUND:                -0.094
REMARK SMILES O=c1c(O)c(-c2ccc(O)c(O)c2)oc2cc(O)cc(O)c12
REMARK SMILES IDX 5 1 3 2 2 3 1 4 22 5 20 6 19 7 17 8 16 9 15 10 14 11 6 12
REMARK SMILES IDX 7 13 8 14 9 15 13 16 11 17 10 18 12 20 4 22 21 24 18 26
REMARK H PARENT 10 19 12 21 4 23 21 25 18 27
REMARK Flexibility Score: inf
ROOT
ATOM      1  C   UNL     1     -19.046  21.728  16.580  1.00  0.00     0.180 A 
ATOM      2  C   UNL     1     -17.651  21.890  16.539  1.00  0.00     0.208 A 
ATOM      3  C   UNL     1     -16.996  21.847  15.298  1.00  0.00     0.238 A 
ATOM      4  O   UNL     1     -15.755  22.046  15.262  1.00  0.00    -0.285 OA
ATOM      5  C   UNL     1     -17.743  21.629  14.115  1.00  0.00     0.111 A 
ATOM      6  C   UNL     1     -17.180  21.528  12.808  1.00  0.00     0.134 A 
ATOM      7  C   UNL     1     -18.027  21.441  11.696  1.00  0.00     0.093 A 
ATOM      8  C   UNL     1     -19.414  21.387  11.849  1.00  0.00     0.123 A 
ATOM      9  C   UNL     1     -19.971  21.425  13.125  1.00  0.00     0.094 A 
ATOM     10  C   UNL     1     -19.154  21.548  14.251  1.00  0.00     0.146 A 
ATOM     11  O   UNL     1     -19.727  21.591  15.449  1.00  0.00    -0.452 OA
ENDROOT
BRANCH   1  12
ATOM     12  C   UNL     1     -19.803  21.736  17.854  1.00  0.00     0.025 A 
ATOM     13  C   UNL     1     -21.200  21.895  17.874  1.00  0.00     0.016 A 
ATOM     14  C   UNL     1     -21.890  21.923  19.089  1.00  0.00     0.051 A 
ATOM     15  C   UNL     1     -21.194  21.809  20.300  1.00  0.00     0.157 A 
ATOM     16  C   UNL     1     -19.109  21.644  19.071  1.00  0.00     0.062 A 
ATOM     17  C   UNL     1     -19.801  21.671  20.290  1.00  0.00     0.158 A 
BRANCH  15  18
ATOM     18  O   UNL     1     -21.879  21.836  21.513  1.00  0.00    -0.504 OA
ATOM     19  H   UNL     1     -21.880  21.038  22.139  1.00  0.00     0.293 HD
ENDBRANCH  15  18
BRANCH  17  20
ATOM     20  O   UNL     1     -19.111  21.564  21.497  1.00  0.00    -0.504 OA
ATOM     21  H   UNL     1     -18.906  22.379  22.064  1.00  0.00     0.293 HD
ENDBRANCH  17  20
ENDBRANCH   1  12
BRANCH   2  22
ATOM     22  O   UNL     1     -16.935  22.125  17.716  1.00  0.00    -0.502 OA
ATOM     23  H   UNL     1     -16.272  22.885  17.808  1.00  0.00     0.293 HD
ENDBRANCH   2  22
BRANCH   6  24
ATOM     24  O   UNL     1     -15.807  21.480  12.552  1.00  0.00    -0.507 OA
ATOM     25  H   UNL     1     -15.339  21.998  11.822  1.00  0.00     0.293 HD
ENDBRANCH   6  24
BRANCH   8  26
ATOM     26  O   UNL     1     -20.249  21.285  10.738  1.00  0.00    -0.508 OA
ATOM     27  H   UNL     1     -21.214  21.590  10.771  1.00  0.00     0.293 HD
ENDBRANCH   8  26
TORSDOF 6
ENDMDL
MODEL 9
REMARK VINA RESULT:    -5.658      3.341      5.590
REMARK INTER + INTRA:          -6.909
REMARK INTER:                  -6.660
REMARK INTRA:                  -0.249
REMARK UNBOUND:                -0.094
REMARK SMILES O=c1c(O)c(-c2ccc(O)c(O)c2)oc2cc(O)cc(O)c12
REMARK SMILES IDX 5 1 3 2 2 3 1 4 22 5 20 6 19 7 17 8 16 9 15 10 14 11 6 12
REMARK SMILES IDX 7 13 8 14 9 15 13 16 11 17 10 18 12 20 4 22 21 24 18 26
REMARK H PARENT 10 19 12 21 4 23 21 25 18 27
REMARK Flexibility Score: inf
ROOT
ATOM      1  C   UNL     1     -12.019  19.527  10.033  1.00  0.00     0.180 A 
ATOM      2  C   UNL     1     -12.527  19.650  11.338  1.00  0.00     0.208 A 
ATOM      3  C   UNL     1     -13.747  20.318  11.534  1.00  0.00     0.238 A 
ATOM      4  O   UNL     1     -14.222  20.378  12.697  1.00  0.00    -0.285 OA
ATOM      5  C   UNL     1     -14.434  20.868  10.425  1.00  0.00     0.111 A 
ATOM      6  C   UNL     1     -15.657  21.599  10.512  1.00  0.00     0.134 A 
ATOM      7  C   UNL     1     -16.316  21.983   9.337  1.00  0.00     0.093 A 
ATOM      8  C   UNL     1     -15.764  21.720   8.082  1.00  0.00     0.123 A 
ATOM      9  C   UNL     1     -14.541  21.059   7.988  1.00  0.00     0.094 A 
ATOM     10  C   UNL     1     -13.877  20.631   9.141  1.00  0.00     0.146 A 
ATOM     11  O   UNL     1     -12.719  19.995   9.007  1.00  0.00    -0.452 OA
ENDROOT
BRANCH   1  12
ATOM     12  C   UNL     1     -10.727  18.859   9.750  1.00  0.00     0.025 A 
ATOM     13  C   UNL     1      -9.589  19.595   9.378  1.00  0.00     0.016 A 
ATOM     14  C   UNL     1      -8.387  18.941   9.092  1.00  0.00     0.051 A 
ATOM     15  C   UNL     1      -8.310  17.543   9.160  1.00  0.00     0.157 A 
ATOM     16  C   UNL     1     -10.650  17.457   9.796  1.00  0.00     0.062 A 
ATOM     17  C   UNL     1      -9.444  16.801   9.510  1.00  0.00     0.158 A 
BRANCH  15  18
ATOM     18  O   UNL     1      -7.114  16.888   8.878  1.00  0.00    -0.504 OA
ATOM     19  H   UNL     1      -6.621  16.355   9.586  1.00  0.00     0.293 HD
ENDBRANCH  15  18
BRANCH  17  20
ATOM     20  O   UNL     1      -9.366  15.410   9.571  1.00  0.00    -0.504 OA
ATOM     21  H   UNL     1      -9.884  14.822   8.929  1.00  0.00     0.293 HD
ENDBRANCH  17  20
ENDBRANCH   1  12
BRANCH   2  22
ATOM     22  O   UNL     1     -11.842  19.082  12.416  1.00  0.00    -0.502 OA
ATOM     23  H   UNL     1     -12.313  18.564  13.147  1.00  0.00     0.293 HD
ENDBRANCH   2  22
BRANCH   6  24
ATOM     24  O   UNL     1     -16.247  21.993  11.716  1.00  0.00    -0.507 OA
ATOM     25  H   UNL     1     -16.509  21.365  12.461  1.00  0.00     0.293 HD
ENDBRANCH   6  24
BRANCH   8  26
ATOM     26  O   UNL     1     -16.418  22.121   6.918  1.00  0.00    -0.508 OA
ATOM     27  H   UNL     1     -17.230  21.625   6.570  1.00  0.00     0.293 HD
ENDBRANCH   8  26
TORSDOF 6
ENDMDL
