MODEL 1
REMARK VINA RESULT:    -4.393      0.000      0.000
REMARK INTER + INTRA:          -6.742
REMARK INTER:                  -6.190
REMARK INTRA:                  -0.552
REMARK UNBOUND:                -0.552
REMARK SMILES C=CCCCCCCC(=O)[O-]
REMARK SMILES IDX 6 1 7 2 8 3 9 4 10 5 11 6 5 7 4 8 3 9 2 10 1 11
REMARK H PARENT
REMARK Flexibility Score: inf
ROOT
ATOM      1  C   UNL     1      -5.063   7.226  -5.346  1.00  0.00     0.000 C 
ENDROOT
BRANCH   1   2
ATOM      2  C   UNL     1      -5.211   6.286  -4.134  1.00  0.00     0.006 C 
BRANCH   2   3
ATOM      3  C   UNL     1      -5.970   4.985  -4.432  1.00  0.00     0.053 C 
BRANCH   3   4
ATOM      4  C   UNL     1      -5.046   3.817  -4.595  1.00  0.00     0.041 C 
ATOM      5  O   UNL     1      -4.252   3.769  -5.571  1.00  0.00    -0.550 OA
ATOM      6  O   UNL     1      -5.087   2.766  -3.688  1.00  0.00    -0.550 OA
ENDBRANCH   3   4
ENDBRANCH   2   3
ENDBRANCH   1   2
BRANCH   1   7
ATOM      7  C   UNL     1      -6.390   7.461  -6.082  1.00  0.00     0.000 C 
BRANCH   7   8
ATOM      8  C   UNL     1      -6.153   7.705  -7.577  1.00  0.00     0.004 C 
BRANCH   8   9
ATOM      9  C   UNL     1      -4.689   7.441  -7.953  1.00  0.00     0.027 C 
BRANCH   9  10
ATOM     10  C   UNL     1      -4.584   6.425  -9.056  1.00  0.00    -0.035 C 
ATOM     11  C   UNL     1      -4.191   5.169  -8.820  1.00  0.00     0.004 C 
ENDBRANCH   9  10
ENDBRANCH   8   9
ENDBRANCH   7   8
ENDBRANCH   1   7
TORSDOF 7
ENDMDL
MODEL 2
REMARK VINA RESULT:    -4.039      1.208      2.816
REMARK INTER + INTRA:          -6.243
REMARK INTER:                  -5.620
REMARK INTRA:                  -0.623
REMARK UNBOUND:                -0.552
REMARK SMILES C=CCCCCCCC(=O)[O-]
REMARK SMILES IDX 6 1 7 2 8 3 9 4 10 5 11 6 5 7 4 8 3 9 2 10 1 11
REMARK H PARENT
REMARK Flexibility Score: inf
ROOT
ATOM      1  C   UNL     1      -5.437   4.720  -7.676  1.00  0.00     0.000 C 
ENDROOT
BRANCH   1   2
ATOM      2  C   UNL     1      -4.709   4.363  -6.366  1.00  0.00     0.006 C 
BRANCH   2   3
ATOM      3  C   UNL     1      -5.407   4.873  -5.096  1.00  0.00     0.053 C 
BRANCH   3   4
ATOM      4  C   UNL     1      -5.874   3.751  -4.221  1.00  0.00     0.041 C 
ATOM      5  O   UNL     1      -7.013   3.798  -3.684  1.00  0.00    -0.550 OA
ATOM      6  O   UNL     1      -5.039   2.670  -3.970  1.00  0.00    -0.550 OA
ENDBRANCH   3   4
ENDBRANCH   2   3
ENDBRANCH   1   2
BRANCH   1   7
ATOM      7  C   UNL     1      -4.534   5.454  -8.678  1.00  0.00     0.000 C 
BRANCH   7   8
ATOM      8  C   UNL     1      -4.372   6.929  -8.294  1.00  0.00     0.004 C 
BRANCH   8   9
ATOM      9  C   UNL     1      -5.738   7.616  -8.161  1.00  0.00     0.027 C 
BRANCH   9  10
ATOM     10  C   UNL     1      -5.961   8.118  -6.761  1.00  0.00    -0.035 C 
ATOM     11  C   UNL     1      -7.148   8.008  -6.155  1.00  0.00     0.004 C 
ENDBRANCH   9  10
ENDBRANCH   8   9
ENDBRANCH   7   8
ENDBRANCH   1   7
TORSDOF 7
ENDMDL
MODEL 3
REMARK VINA RESULT:    -3.965      1.482      2.181
REMARK INTER + INTRA:          -6.140
REMARK INTER:                  -5.762
REMARK INTRA:                  -0.378
REMARK UNBOUND:                -0.552
REMARK SMILES C=CCCCCCCC(=O)[O-]
REMARK SMILES IDX 6 1 7 2 8 3 9 4 10 5 11 6 5 7 4 8 3 9 2 10 1 11
REMARK H PARENT
REMARK Flexibility Score: inf
ROOT
ATOM      1  C   UNL     1      -5.200   4.877  -6.968  1.00  0.00     0.000 C 
ENDROOT
BRANCH   1   2
ATOM      2  C   UNL     1      -4.801   4.031  -5.744  1.00  0.00     0.006 C 
BRANCH   2   3
ATOM      3  C   UNL     1      -5.536   4.409  -4.448  1.00  0.00     0.053 C 
BRANCH   3   4
ATOM      4  C   UNL     1      -5.881   3.206  -3.625  1.00  0.00     0.041 C 
ATOM      5  O   UNL     1      -5.084   2.233  -3.560  1.00  0.00    -0.550 OA
ATOM      6  O   UNL     1      -7.098   3.145  -2.958  1.00  0.00    -0.550 OA
ENDBRANCH   3   4
ENDBRANCH   2   3
ENDBRANCH   1   2
BRANCH   1   7
ATOM      7  C   UNL     1      -5.864   6.207  -6.582  1.00  0.00     0.000 C 
BRANCH   7   8
ATOM      8  C   UNL     1      -5.044   7.398  -7.091  1.00  0.00     0.004 C 
BRANCH   8   9
ATOM      9  C   UNL     1      -4.436   7.100  -8.467  1.00  0.00     0.027 C 
BRANCH   9  10
ATOM     10  C   UNL     1      -5.026   7.987  -9.528  1.00  0.00    -0.035 C 
ATOM     11  C   UNL     1      -6.318   8.333  -9.517  1.00  0.00     0.004 C 
ENDBRANCH   9  10
ENDBRANCH   8   9
ENDBRANCH   7   8
ENDBRANCH   1   7
TORSDOF 7
ENDMDL
MODEL 4
REMARK VINA RESULT:    -3.800      2.149      4.317
REMARK INTER + INTRA:          -5.907
REMARK INTER:                  -5.360
REMARK INTRA:                  -0.548
REMARK UNBOUND:                -0.552
REMARK SMILES C=CCCCCCCC(=O)[O-]
REMARK SMILES IDX 6 1 7 2 8 3 9 4 10 5 11 6 5 7 4 8 3 9 2 10 1 11
REMARK H PARENT
REMARK Flexibility Score: inf
ROOT
ATOM      1  C   UNL     1      -6.345   7.123  -6.893  1.00  0.00     0.000 C 
ENDROOT
BRANCH   1   2
ATOM      2  C   UNL     1      -4.878   7.390  -7.280  1.00  0.00     0.006 C 
BRANCH   2   3
ATOM      3  C   UNL     1      -4.608   7.364  -8.792  1.00  0.00     0.053 C 
BRANCH   3   4
ATOM      4  C   UNL     1      -4.788   5.995  -9.373  1.00  0.00     0.041 C 
ATOM      5  O   UNL     1      -5.629   5.802 -10.289  1.00  0.00    -0.550 OA
ATOM      6  O   UNL     1      -4.050   4.927  -8.878  1.00  0.00    -0.550 OA
ENDBRANCH   3   4
ENDBRANCH   2   3
ENDBRANCH   1   2
BRANCH   1   7
ATOM      7  C   UNL     1      -6.563   7.087  -5.373  1.00  0.00     0.000 C 
BRANCH   7   8
ATOM      8  C   UNL     1      -5.377   6.423  -4.664  1.00  0.00     0.004 C 
BRANCH   8   9
ATOM      9  C   UNL     1      -5.837   5.221  -3.829  1.00  0.00     0.027 C 
BRANCH   9  10
ATOM     10  C   UNL     1      -5.427   3.924  -4.468  1.00  0.00    -0.035 C 
ATOM     11  C   UNL     1      -4.976   3.870  -5.725  1.00  0.00     0.004 C 
ENDBRANCH   9  10
ENDBRANCH   8   9
ENDBRANCH   7   8
ENDBRANCH   1   7
TORSDOF 7
ENDMDL
MODEL 5
REMARK VINA RESULT:    -3.762      1.601      2.233
REMARK INTER + INTRA:          -5.853
REMARK INTER:                  -5.450
REMARK INTRA:                  -0.403
REMARK UNBOUND:                -0.552
REMARK SMILES C=CCCCCCCC(=O)[O-]
REMARK SMILES IDX 6 1 7 2 8 3 9 4 10 5 11 6 5 7 4 8 3 9 2 10 1 11
REMARK H PARENT
REMARK Flexibility Score: inf
ROOT
ATOM      1  C   UNL     1      -4.940   5.067  -5.176  1.00  0.00     0.000 C 
ENDROOT
BRANCH   1   2
ATOM      2  C   UNL     1      -6.109   5.186  -4.180  1.00  0.00     0.006 C 
BRANCH   2   3
ATOM      3  C   UNL     1      -6.781   3.849  -3.833  1.00  0.00     0.053 C 
BRANCH   3   4
ATOM      4  C   UNL     1      -5.926   3.002  -2.942  1.00  0.00     0.041 C 
ATOM      5  O   UNL     1      -5.028   2.270  -3.435  1.00  0.00    -0.550 OA
ATOM      6  O   UNL     1      -6.144   2.995  -1.570  1.00  0.00    -0.550 OA
ENDBRANCH   3   4
ENDBRANCH   2   3
ENDBRANCH   1   2
BRANCH   1   7
ATOM      7  C   UNL     1      -5.336   4.352  -6.476  1.00  0.00     0.000 C 
BRANCH   7   8
ATOM      8  C   UNL     1      -6.137   5.283  -7.393  1.00  0.00     0.004 C 
BRANCH   8   9
ATOM      9  C   UNL     1      -5.533   5.322  -8.803  1.00  0.00     0.027 C 
BRANCH   9  10
ATOM     10  C   UNL     1      -4.368   6.269  -8.872  1.00  0.00    -0.035 C 
ATOM     11  C   UNL     1      -4.430   7.500  -8.355  1.00  0.00     0.004 C 
ENDBRANCH   9  10
ENDBRANCH   8   9
ENDBRANCH   7   8
ENDBRANCH   1   7
TORSDOF 7
ENDMDL
MODEL 6
REMARK VINA RESULT:    -3.729     11.971     13.300
REMARK INTER + INTRA:          -5.807
REMARK INTER:                  -5.513
REMARK INTRA:                  -0.294
REMARK UNBOUND:                -0.552
REMARK SMILES C=CCCCCCCC(=O)[O-]
REMARK SMILES IDX 6 1 7 2 8 3 9 4 10 5 11 6 5 7 4 8 3 9 2 10 1 11
REMARK H PARENT
REMARK Flexibility Score: inf
ROOT
ATOM      1  C   UNL     1      -3.561  -5.352  -0.060  1.00  0.00     0.000 C 
ENDROOT
BRANCH   1   2
ATOM      2  C   UNL     1      -3.178  -4.487   1.156  1.00  0.00     0.006 C 
BRANCH   2   3
ATOM      3  C   UNL     1      -2.390  -3.216   0.805  1.00  0.00     0.053 C 
BRANCH   3   4
ATOM      4  C   UNL     1      -0.950  -3.317   1.205  1.00  0.00     0.041 C 
ATOM      5  O   UNL     1      -0.119  -2.463   0.800  1.00  0.00    -0.550 OA
ATOM      6  O   UNL     1      -0.520  -4.375   1.996  1.00  0.00    -0.550 OA
ENDBRANCH   3   4
ENDBRANCH   2   3
ENDBRANCH   1   2
BRANCH   1   7
ATOM      7  C   UNL     1      -3.916  -6.796   0.324  1.00  0.00     0.000 C 
BRANCH   7   8
ATOM      8  C   UNL     1      -4.257  -7.627  -0.917  1.00  0.00     0.004 C 
BRANCH   8   9
ATOM      9  C   UNL     1      -4.365  -6.737  -2.163  1.00  0.00     0.027 C 
BRANCH   9  10
ATOM     10  C   UNL     1      -5.609  -7.048  -2.948  1.00  0.00    -0.035 C 
ATOM     11  C   UNL     1      -5.834  -8.263  -3.458  1.00  0.00     0.004 C 
ENDBRANCH   9  10
ENDBRANCH   8   9
ENDBRANCH   7   8
ENDBRANCH   1   7
TORSDOF 7
ENDMDL
MODEL 7
REMARK VINA RESULT:    -3.639      3.205      5.493
REMARK INTER + INTRA:          -5.681
REMARK INTER:                  -5.387
REMARK INTRA:                  -0.294
REMARK UNBOUND:                -0.552
REMARK SMILES C=CCCCCCCC(=O)[O-]
REMARK SMILES IDX 6 1 7 2 8 3 9 4 10 5 11 6 5 7 4 8 3 9 2 10 1 11
REMARK H PARENT
REMARK Flexibility Score: inf
ROOT
ATOM      1  C   UNL     1      -5.567   5.038  -8.048  1.00  0.00     0.000 C 
ENDROOT
BRANCH   1   2
ATOM      2  C   UNL     1      -4.421   5.756  -8.786  1.00  0.00     0.006 C 
BRANCH   2   3
ATOM      3  C   UNL     1      -4.415   7.283  -8.610  1.00  0.00     0.053 C 
BRANCH   3   4
ATOM      4  C   UNL     1      -5.435   7.954  -9.477  1.00  0.00     0.041 C 
ATOM      5  O   UNL     1      -6.596   8.170  -9.039  1.00  0.00    -0.550 OA
ATOM      6  O   UNL     1      -5.114   8.311 -10.780  1.00  0.00    -0.550 OA
ENDBRANCH   3   4
ENDBRANCH   2   3
ENDBRANCH   1   2
BRANCH   1   7
ATOM      7  C   UNL     1      -5.149   4.515  -6.665  1.00  0.00     0.000 C 
BRANCH   7   8
ATOM      8  C   UNL     1      -5.414   5.563  -5.579  1.00  0.00     0.004 C 
BRANCH   8   9
ATOM      9  C   UNL     1      -5.494   4.912  -4.192  1.00  0.00     0.027 C 
BRANCH   9  10
ATOM     10  C   UNL     1      -5.338   3.419  -4.282  1.00  0.00    -0.035 C 
ATOM     11  C   UNL     1      -5.612   2.620  -3.245  1.00  0.00     0.004 C 
ENDBRANCH   9  10
ENDBRANCH   8   9
ENDBRANCH   7   8
ENDBRANCH   1   7
TORSDOF 7
ENDMDL
MODEL 8
REMARK VINA RESULT:    -3.615     18.011     20.084
REMARK INTER + INTRA:          -5.647
REMARK INTER:                  -5.025
REMARK INTRA:                  -0.622
REMARK UNBOUND:                -0.552
REMARK SMILES C=CCCCCCCC(=O)[O-]
REMARK SMILES IDX 6 1 7 2 8 3 9 4 10 5 11 6 5 7 4 8 3 9 2 10 1 11
REMARK H PARENT
REMARK Flexibility Score: inf
ROOT
ATOM      1  C   UNL     1      10.529  -6.003 -16.086  1.00  0.00     0.000 C 
ENDROOT
BRANCH   1   2
ATOM      2  C   UNL     1      10.579  -6.765 -14.748  1.00  0.00     0.006 C 
BRANCH   2   3
ATOM      3  C   UNL     1       9.205  -7.002 -14.104  1.00  0.00     0.053 C 
BRANCH   3   4
ATOM      4  C   UNL     1       9.057  -6.267 -12.807  1.00  0.00     0.041 C 
ATOM      5  O   UNL     1       7.974  -5.686 -12.529  1.00  0.00    -0.550 OA
ATOM      6  O   UNL     1      10.125  -6.194 -11.922  1.00  0.00    -0.550 OA
ENDBRANCH   3   4
ENDBRANCH   2   3
ENDBRANCH   1   2
BRANCH   1   7
ATOM      7  C   UNL     1      10.148  -4.525 -15.915  1.00  0.00     0.000 C 
BRANCH   7   8
ATOM      8  C   UNL     1       9.277  -4.044 -17.080  1.00  0.00     0.004 C 
BRANCH   8   9
ATOM      9  C   UNL     1       7.797  -4.358 -16.828  1.00  0.00     0.027 C 
BRANCH   9  10
ATOM     10  C   UNL     1       7.380  -3.945 -15.444  1.00  0.00    -0.035 C 
ATOM     11  C   UNL     1       6.124  -3.577 -15.168  1.00  0.00     0.004 C 
ENDBRANCH   9  10
ENDBRANCH   8   9
ENDBRANCH   7   8
ENDBRANCH   1   7
TORSDOF 7
ENDMDL
MODEL 9
REMARK VINA RESULT:    -3.558      1.916      2.529
REMARK INTER + INTRA:          -5.566
REMARK INTER:                  -5.174
REMARK INTRA:                  -0.392
REMARK UNBOUND:                -0.552
REMARK SMILES C=CCCCCCCC(=O)[O-]
REMARK SMILES IDX 6 1 7 2 8 3 9 4 10 5 11 6 5 7 4 8 3 9 2 10 1 11
REMARK H PARENT
REMARK Flexibility Score: inf
ROOT
ATOM      1  C   UNL     1      -5.050   6.559  -7.216  1.00  0.00     0.000 C 
ENDROOT
BRANCH   1   2
ATOM      2  C   UNL     1      -5.693   5.189  -6.926  1.00  0.00     0.006 C 
BRANCH   2   3
ATOM      3  C   UNL     1      -4.812   4.240  -6.099  1.00  0.00     0.053 C 
BRANCH   3   4
ATOM      4  C   UNL     1      -5.415   3.933  -4.763  1.00  0.00     0.041 C 
ATOM      5  O   UNL     1      -4.978   2.973  -4.076  1.00  0.00    -0.550 OA
ATOM      6  O   UNL     1      -6.482   4.687  -4.291  1.00  0.00    -0.550 OA
ENDBRANCH   3   4
ENDBRANCH   2   3
ENDBRANCH   1   2
BRANCH   1   7
ATOM      7  C   UNL     1      -4.437   6.643  -8.622  1.00  0.00     0.000 C 
BRANCH   7   8
ATOM      8  C   UNL     1      -4.894   7.914  -9.345  1.00  0.00     0.004 C 
BRANCH   8   9
ATOM      9  C   UNL     1      -5.749   7.573 -10.573  1.00  0.00     0.027 C 
BRANCH   9  10
ATOM     10  C   UNL     1      -5.941   6.088 -10.708  1.00  0.00    -0.035 C 
ATOM     11  C   UNL     1      -6.673   5.560 -11.694  1.00  0.00     0.004 C 
ENDBRANCH   9  10
ENDBRANCH   8   9
ENDBRANCH   7   8
ENDBRANCH   1   7
TORSDOF 7
ENDMDL
