MODEL 1
REMARK VINA RESULT:    -6.613      0.000      0.000
REMARK INTER + INTRA:         -10.130
REMARK INTER:                  -8.739
REMARK INTRA:                  -1.391
REMARK UNBOUND:                -1.391
REMARK SMILES CC[C@H](C=C[C@H](C)[C@H]1CC[C@@H]2[C@@H]3CC=C4C[C@H](O)CC[C@@]4(C)[C@@H]3CC[C@]21C)C(C)C
REMARK SMILES IDX 6 1 7 2 5 3 4 4 3 5 2 6 1 7 28 8 29 9 30 10 8 11 9 12 26 13
REMARK SMILES IDX 10 14 11 15 25 16 27 17 12 18 24 19 23 20 13 21 21 22 14 23
REMARK SMILES IDX 15 24 20 25 22 26 16 27 19 28 17 29 18 30
REMARK H PARENT 18 31
REMARK Flexibility Score: inf
ROOT
ATOM      1  C   UNL     1     128.797 134.000 134.920  1.00  0.00     0.012 C 
ATOM      2  C   UNL     1     130.278 133.926 134.494  1.00  0.00     0.012 C 
ENDROOT
BRANCH   1   3
ATOM      3  C   UNL     1     128.731 134.386 136.384  1.00  0.00    -0.028 C 
ATOM      4  C   UNL     1     127.665 134.082 137.143  1.00  0.00    -0.027 C 
BRANCH   4   5
ATOM      5  C   UNL     1     127.579 134.481 138.603  1.00  0.00     0.014 C 
BRANCH   5   6
ATOM      6  C   UNL     1     128.977 134.957 139.066  1.00  0.00     0.004 C 
ATOM      7  C   UNL     1     129.671 133.973 140.009  1.00  0.00     0.004 C 
ENDBRANCH   5   6
BRANCH   5   8
ATOM      8  C   UNL     1     126.435 135.515 138.851  1.00  0.00    -0.011 C 
ATOM      9  C   UNL     1     125.417 135.603 137.702  1.00  0.00     0.008 C 
ATOM     10  C   UNL     1     125.709 135.231 140.176  1.00  0.00     0.008 C 
ENDBRANCH   5   8
ENDBRANCH   4   5
ENDBRANCH   1   3
BRANCH   1  11
ATOM     11  C   UNL     1     127.879 134.959 134.079  1.00  0.00     0.002 C 
ATOM     12  C   UNL     1     128.586 135.586 132.840  1.00  0.00     0.005 C 
ATOM     13  C   UNL     1     126.530 134.398 133.511  1.00  0.00    -0.026 C 
ATOM     14  C   UNL     1     127.881 135.051 131.579  1.00  0.00     0.005 C 
ATOM     15  C   UNL     1     126.974 133.950 132.107  1.00  0.00    -0.001 C 
ATOM     16  C   UNL     1     125.876 133.187 134.225  1.00  0.00     0.007 C 
ATOM     17  C   UNL     1     125.511 135.589 133.520  1.00  0.00     0.012 C 
ATOM     18  C   UNL     1     125.900 133.318 131.191  1.00  0.00     0.000 C 
ATOM     19  C   UNL     1     124.753 132.539 133.364  1.00  0.00     0.005 C 
ATOM     20  C   UNL     1     125.232 132.125 131.933  1.00  0.00     0.003 C 
ATOM     21  C   UNL     1     124.842 134.276 130.632  1.00  0.00     0.031 C 
ATOM     22  C   UNL     1     124.165 131.373 131.012  1.00  0.00    -0.008 C 
ATOM     23  C   UNL     1     123.927 133.545 129.707  1.00  0.00    -0.027 C 
ATOM     24  C   UNL     1     123.562 132.261 129.903  1.00  0.00    -0.065 C 
ATOM     25  C   UNL     1     124.902 130.200 130.287  1.00  0.00     0.014 C 
ATOM     26  C   UNL     1     123.009 130.781 131.864  1.00  0.00     0.016 C 
ATOM     27  C   UNL     1     122.705 131.590 128.848  1.00  0.00     0.063 C 
ATOM     28  C   UNL     1     124.059 129.484 129.213  1.00  0.00     0.033 C 
ATOM     29  C   UNL     1     123.507 130.468 128.172  1.00  0.00     0.118 C 
BRANCH  29  30
ATOM     30  O   UNL     1     122.687 129.770 127.273  1.00  0.00    -0.393 OA
ATOM     31  H   UNL     1     123.162 129.757 126.401  1.00  0.00     0.210 HD
ENDBRANCH  29  30
ENDBRANCH   1  11
TORSDOF 6
ENDMDL
MODEL 2
REMARK VINA RESULT:    -6.386      3.538      5.598
REMARK INTER + INTRA:          -9.830
REMARK INTER:                  -8.574
REMARK INTRA:                  -1.256
REMARK UNBOUND:                -1.391
REMARK SMILES CC[C@H](C=C[C@H](C)[C@H]1CC[C@@H]2[C@@H]3CC=C4C[C@H](O)CC[C@@]4(C)[C@@H]3CC[C@]21C)C(C)C
REMARK SMILES IDX 6 1 7 2 5 3 4 4 3 5 2 6 1 7 28 8 29 9 30 10 8 11 9 12 26 13
REMARK SMILES IDX 10 14 11 15 25 16 27 17 12 18 24 19 23 20 13 21 21 22 14 23
REMARK SMILES IDX 15 24 20 25 22 26 16 27 19 28 17 29 18 30
REMARK H PARENT 18 31
REMARK Flexibility Score: inf
ROOT
ATOM      1  C   UNL     1     130.346 132.227 133.568  1.00  0.00     0.012 C 
ATOM      2  C   UNL     1     131.752 132.584 133.041  1.00  0.00     0.012 C 
ENDROOT
BRANCH   1   3
ATOM      3  C   UNL     1     130.442 130.955 134.387  1.00  0.00    -0.028 C 
ATOM      4  C   UNL     1     129.907 129.801 133.957  1.00  0.00    -0.027 C 
BRANCH   4   5
ATOM      5  C   UNL     1     129.979 128.528 134.777  1.00  0.00     0.014 C 
BRANCH   5   6
ATOM      6  C   UNL     1     128.633 127.777 134.638  1.00  0.00     0.004 C 
ATOM      7  C   UNL     1     127.671 128.434 133.646  1.00  0.00     0.004 C 
ENDBRANCH   5   6
BRANCH   5   8
ATOM      8  C   UNL     1     131.231 127.673 134.403  1.00  0.00    -0.011 C 
ATOM      9  C   UNL     1     131.342 126.356 135.189  1.00  0.00     0.008 C 
ATOM     10  C   UNL     1     131.279 127.390 132.892  1.00  0.00     0.008 C 
ENDBRANCH   5   8
ENDBRANCH   4   5
ENDBRANCH   1   3
BRANCH   1  11
ATOM     11  C   UNL     1     129.614 133.339 134.403  1.00  0.00     0.002 C 
ATOM     12  C   UNL     1     130.219 134.764 134.227  1.00  0.00     0.005 C 
ATOM     13  C   UNL     1     128.074 133.544 134.190  1.00  0.00    -0.026 C 
ATOM     14  C   UNL     1     129.151 135.644 133.550  1.00  0.00     0.005 C 
ATOM     15  C   UNL     1     128.077 134.655 133.125  1.00  0.00    -0.001 C 
ATOM     16  C   UNL     1     127.239 132.354 133.651  1.00  0.00     0.007 C 
ATOM     17  C   UNL     1     127.485 133.976 135.577  1.00  0.00     0.012 C 
ATOM     18  C   UNL     1     126.704 135.162 132.624  1.00  0.00     0.000 C 
ATOM     19  C   UNL     1     125.827 132.801 133.174  1.00  0.00     0.005 C 
ATOM     20  C   UNL     1     125.867 133.953 132.116  1.00  0.00     0.003 C 
ATOM     21  C   UNL     1     125.896 136.009 133.614  1.00  0.00     0.031 C 
ATOM     22  C   UNL     1     124.464 134.414 131.508  1.00  0.00    -0.008 C 
ATOM     23  C   UNL     1     124.641 136.492 132.968  1.00  0.00    -0.027 C 
ATOM     24  C   UNL     1     123.951 135.758 132.070  1.00  0.00    -0.065 C 
ATOM     25  C   UNL     1     124.656 134.624 129.970  1.00  0.00     0.014 C 
ATOM     26  C   UNL     1     123.374 133.330 131.729  1.00  0.00     0.016 C 
ATOM     27  C   UNL     1     122.742 136.386 131.406  1.00  0.00     0.063 C 
ATOM     28  C   UNL     1     123.442 135.252 129.256  1.00  0.00     0.033 C 
ATOM     29  C   UNL     1     123.019 136.576 129.908  1.00  0.00     0.118 C 
BRANCH  29  30
ATOM     30  O   UNL     1     121.866 137.053 129.266  1.00  0.00    -0.393 OA
ATOM     31  H   UNL     1     121.600 136.362 128.603  1.00  0.00     0.210 HD
ENDBRANCH  29  30
ENDBRANCH   1  11
TORSDOF 6
ENDMDL
MODEL 3
REMARK VINA RESULT:    -6.337      9.020     11.184
REMARK INTER + INTRA:          -9.766
REMARK INTER:                  -7.954
REMARK INTRA:                  -1.812
REMARK UNBOUND:                -1.391
REMARK SMILES CC[C@H](C=C[C@H](C)[C@H]1CC[C@@H]2[C@@H]3CC=C4C[C@H](O)CC[C@@]4(C)[C@@H]3CC[C@]21C)C(C)C
REMARK SMILES IDX 6 1 7 2 5 3 4 4 3 5 2 6 1 7 28 8 29 9 30 10 8 11 9 12 26 13
REMARK SMILES IDX 10 14 11 15 25 16 27 17 12 18 24 19 23 20 13 21 21 22 14 23
REMARK SMILES IDX 15 24 20 25 22 26 16 27 19 28 17 29 18 30
REMARK H PARENT 18 31
REMARK Flexibility Score: inf
ROOT
ATOM      1  C   UNL     1     127.793 125.133 137.168  1.00  0.00     0.012 C 
ATOM      2  C   UNL     1     126.478 125.745 136.643  1.00  0.00     0.012 C 
ENDROOT
BRANCH   1   3
ATOM      3  C   UNL     1     127.736 123.629 136.985  1.00  0.00    -0.028 C 
ATOM      4  C   UNL     1     126.756 123.045 136.277  1.00  0.00    -0.027 C 
BRANCH   4   5
ATOM      5  C   UNL     1     126.677 121.541 136.104  1.00  0.00     0.014 C 
BRANCH   5   6
ATOM      6  C   UNL     1     125.291 121.062 136.598  1.00  0.00     0.004 C 
ATOM      7  C   UNL     1     124.161 122.042 136.277  1.00  0.00     0.004 C 
ENDBRANCH   5   6
BRANCH   5   8
ATOM      8  C   UNL     1     127.022 121.110 134.643  1.00  0.00    -0.011 C 
ATOM      9  C   UNL     1     126.435 122.038 133.566  1.00  0.00     0.008 C 
ATOM     10  C   UNL     1     128.541 120.973 134.449  1.00  0.00     0.008 C 
ENDBRANCH   5   8
ENDBRANCH   4   5
ENDBRANCH   1   3
BRANCH   1  11
ATOM     11  C   UNL     1     129.120 125.691 136.538  1.00  0.00     0.002 C 
ATOM     12  C   UNL     1     130.405 124.942 137.001  1.00  0.00     0.005 C 
ATOM     13  C   UNL     1     129.244 125.741 134.976  1.00  0.00    -0.026 C 
ATOM     14  C   UNL     1     131.011 124.247 135.768  1.00  0.00     0.005 C 
ATOM     15  C   UNL     1     129.939 124.395 134.700  1.00  0.00    -0.001 C 
ATOM     16  C   UNL     1     127.944 125.800 134.134  1.00  0.00     0.007 C 
ATOM     17  C   UNL     1     130.112 127.001 134.636  1.00  0.00     0.012 C 
ATOM     18  C   UNL     1     130.251 124.047 133.226  1.00  0.00     0.000 C 
ATOM     19  C   UNL     1     128.208 125.501 132.630  1.00  0.00     0.005 C 
ATOM     20  C   UNL     1     128.943 124.141 132.389  1.00  0.00     0.003 C 
ATOM     21  C   UNL     1     131.380 124.849 132.568  1.00  0.00     0.031 C 
ATOM     22  C   UNL     1     129.177 123.714 130.868  1.00  0.00    -0.008 C 
ATOM     23  C   UNL     1     131.622 124.350 131.183  1.00  0.00    -0.027 C 
ATOM     24  C   UNL     1     130.632 123.901 130.384  1.00  0.00    -0.065 C 
ATOM     25  C   UNL     1     128.864 122.188 130.746  1.00  0.00     0.014 C 
ATOM     26  C   UNL     1     128.229 124.493 129.915  1.00  0.00     0.016 C 
ATOM     27  C   UNL     1     131.005 123.329 129.031  1.00  0.00     0.063 C 
ATOM     28  C   UNL     1     129.220 121.570 129.378  1.00  0.00     0.033 C 
ATOM     29  C   UNL     1     130.686 121.828 129.002  1.00  0.00     0.118 C 
BRANCH  29  30
ATOM     30  O   UNL     1     130.924 121.314 127.718  1.00  0.00    -0.393 OA
ATOM     31  H   UNL     1     130.620 120.368 127.727  1.00  0.00     0.210 HD
ENDBRANCH  29  30
ENDBRANCH   1  11
TORSDOF 6
ENDMDL
MODEL 4
REMARK VINA RESULT:    -6.322      5.179      9.973
REMARK INTER + INTRA:          -9.746
REMARK INTER:                  -8.611
REMARK INTRA:                  -1.135
REMARK UNBOUND:                -1.391
REMARK SMILES CC[C@H](C=C[C@H](C)[C@H]1CC[C@@H]2[C@@H]3CC=C4C[C@H](O)CC[C@@]4(C)[C@@H]3CC[C@]21C)C(C)C
REMARK SMILES IDX 6 1 7 2 5 3 4 4 3 5 2 6 1 7 28 8 29 9 30 10 8 11 9 12 26 13
REMARK SMILES IDX 10 14 11 15 25 16 27 17 12 18 24 19 23 20 13 21 21 22 14 23
REMARK SMILES IDX 15 24 20 25 22 26 16 27 19 28 17 29 18 30
REMARK H PARENT 18 31
REMARK Flexibility Score: inf
ROOT
ATOM      1  C   UNL     1     125.813 133.266 136.825  1.00  0.00     0.012 C 
ATOM      2  C   UNL     1     125.381 131.891 136.270  1.00  0.00     0.012 C 
ENDROOT
BRANCH   1   3
ATOM      3  C   UNL     1     127.018 133.749 136.041  1.00  0.00    -0.028 C 
ATOM      4  C   UNL     1     126.882 134.380 134.863  1.00  0.00    -0.027 C 
BRANCH   4   5
ATOM      5  C   UNL     1     128.080 134.849 134.061  1.00  0.00     0.014 C 
BRANCH   5   6
ATOM      6  C   UNL     1     128.996 133.633 133.788  1.00  0.00     0.004 C 
ATOM      7  C   UNL     1     130.420 133.815 134.316  1.00  0.00     0.004 C 
ENDBRANCH   5   6
BRANCH   5   8
ATOM      8  C   UNL     1     127.644 135.626 132.778  1.00  0.00    -0.011 C 
ATOM      9  C   UNL     1     127.909 137.139 132.846  1.00  0.00     0.008 C 
ATOM     10  C   UNL     1     128.302 135.033 131.521  1.00  0.00     0.008 C 
ENDBRANCH   5   8
ENDBRANCH   4   5
ENDBRANCH   1   3
BRANCH   1  11
ATOM     11  C   UNL     1     124.710 134.385 136.842  1.00  0.00     0.002 C 
ATOM     12  C   UNL     1     123.278 133.868 136.515  1.00  0.00     0.005 C 
ATOM     13  C   UNL     1     124.525 135.233 138.148  1.00  0.00    -0.026 C 
ATOM     14  C   UNL     1     122.412 134.061 137.774  1.00  0.00     0.005 C 
ATOM     15  C   UNL     1     123.415 134.435 138.854  1.00  0.00    -0.001 C 
ATOM     16  C   UNL     1     125.726 135.362 139.121  1.00  0.00     0.007 C 
ATOM     17  C   UNL     1     124.101 136.671 137.691  1.00  0.00     0.012 C 
ATOM     18  C   UNL     1     122.926 134.959 140.225  1.00  0.00     0.000 C 
ATOM     19  C   UNL     1     125.298 135.929 140.505  1.00  0.00     0.005 C 
ATOM     20  C   UNL     1     124.146 135.112 141.178  1.00  0.00     0.003 C 
ATOM     21  C   UNL     1     122.089 136.242 140.197  1.00  0.00     0.031 C 
ATOM     22  C   UNL     1     123.703 135.573 142.642  1.00  0.00    -0.008 C 
ATOM     23  C   UNL     1     121.622 136.579 141.573  1.00  0.00    -0.027 C 
ATOM     24  C   UNL     1     122.366 136.345 142.675  1.00  0.00    -0.065 C 
ATOM     25  C   UNL     1     123.492 134.287 143.505  1.00  0.00     0.014 C 
ATOM     26  C   UNL     1     124.801 136.445 143.310  1.00  0.00     0.016 C 
ATOM     27  C   UNL     1     121.754 136.640 144.030  1.00  0.00     0.063 C 
ATOM     28  C   UNL     1     122.880 134.546 144.897  1.00  0.00     0.033 C 
ATOM     29  C   UNL     1     121.561 135.327 144.803  1.00  0.00     0.118 C 
BRANCH  29  30
ATOM     30  O   UNL     1     121.099 135.600 146.099  1.00  0.00    -0.393 OA
ATOM     31  H   UNL     1     121.783 135.246 146.728  1.00  0.00     0.210 HD
ENDBRANCH  29  30
ENDBRANCH   1  11
TORSDOF 6
ENDMDL
MODEL 5
REMARK VINA RESULT:    -6.095      3.477      7.658
REMARK INTER + INTRA:          -9.446
REMARK INTER:                  -8.027
REMARK INTRA:                  -1.419
REMARK UNBOUND:                -1.391
REMARK SMILES CC[C@H](C=C[C@H](C)[C@H]1CC[C@@H]2[C@@H]3CC=C4C[C@H](O)CC[C@@]4(C)[C@@H]3CC[C@]21C)C(C)C
REMARK SMILES IDX 6 1 7 2 5 3 4 4 3 5 2 6 1 7 28 8 29 9 30 10 8 11 9 12 26 13
REMARK SMILES IDX 10 14 11 15 25 16 27 17 12 18 24 19 23 20 13 21 21 22 14 23
REMARK SMILES IDX 15 24 20 25 22 26 16 27 19 28 17 29 18 30
REMARK H PARENT 18 31
REMARK Flexibility Score: inf
ROOT
ATOM      1  C   UNL     1     126.473 134.033 131.111  1.00  0.00     0.012 C 
ATOM      2  C   UNL     1     125.775 132.759 130.589  1.00  0.00     0.012 C 
ENDROOT
BRANCH   1   3
ATOM      3  C   UNL     1     125.441 134.904 131.801  1.00  0.00    -0.028 C 
ATOM      4  C   UNL     1     124.144 134.862 131.457  1.00  0.00    -0.027 C 
BRANCH   4   5
ATOM      5  C   UNL     1     123.108 135.743 132.125  1.00  0.00     0.014 C 
BRANCH   5   6
ATOM      6  C   UNL     1     123.518 135.952 133.603  1.00  0.00     0.004 C 
ATOM      7  C   UNL     1     122.746 135.062 134.578  1.00  0.00     0.004 C 
ENDBRANCH   5   6
BRANCH   5   8
ATOM      8  C   UNL     1     122.879 137.068 131.330  1.00  0.00    -0.011 C 
ATOM      9  C   UNL     1     123.806 138.218 131.757  1.00  0.00     0.008 C 
ATOM     10  C   UNL     1     122.996 136.833 129.815  1.00  0.00     0.008 C 
ENDBRANCH   5   8
ENDBRANCH   4   5
ENDBRANCH   1   3
BRANCH   1  11
ATOM     11  C   UNL     1     127.701 133.810 132.066  1.00  0.00     0.002 C 
ATOM     12  C   UNL     1     128.603 135.068 132.239  1.00  0.00     0.005 C 
ATOM     13  C   UNL     1     127.431 133.324 133.532  1.00  0.00    -0.026 C 
ATOM     14  C   UNL     1     128.510 135.511 133.712  1.00  0.00     0.005 C 
ATOM     15  C   UNL     1     127.376 134.670 134.276  1.00  0.00    -0.001 C 
ATOM     16  C   UNL     1     126.118 132.551 133.823  1.00  0.00     0.007 C 
ATOM     17  C   UNL     1     128.642 132.411 133.930  1.00  0.00     0.012 C 
ATOM     18  C   UNL     1     127.118 134.628 135.800  1.00  0.00     0.000 C 
ATOM     19  C   UNL     1     125.833 132.440 135.348  1.00  0.00     0.005 C 
ATOM     20  C   UNL     1     125.816 133.824 136.078  1.00  0.00     0.003 C 
ATOM     21  C   UNL     1     128.274 134.113 136.665  1.00  0.00     0.031 C 
ATOM     22  C   UNL     1     125.444 133.809 137.631  1.00  0.00    -0.008 C 
ATOM     23  C   UNL     1     127.913 134.207 138.110  1.00  0.00    -0.027 C 
ATOM     24  C   UNL     1     126.659 134.006 138.565  1.00  0.00    -0.065 C 
ATOM     25  C   UNL     1     124.480 135.008 137.903  1.00  0.00     0.014 C 
ATOM     26  C   UNL     1     124.721 132.491 138.022  1.00  0.00     0.016 C 
ATOM     27  C   UNL     1     126.387 134.220 140.041  1.00  0.00     0.063 C 
ATOM     28  C   UNL     1     124.170 135.253 139.394  1.00  0.00     0.033 C 
ATOM     29  C   UNL     1     125.452 135.424 140.222  1.00  0.00     0.118 C 
BRANCH  29  30
ATOM     30  O   UNL     1     125.107 135.561 141.575  1.00  0.00    -0.393 OA
ATOM     31  H   UNL     1     124.773 136.490 141.693  1.00  0.00     0.210 HD
ENDBRANCH  29  30
ENDBRANCH   1  11
TORSDOF 6
ENDMDL
MODEL 6
REMARK VINA RESULT:    -6.071      3.367      6.561
REMARK INTER + INTRA:          -9.414
REMARK INTER:                  -8.502
REMARK INTRA:                  -0.913
REMARK UNBOUND:                -1.391
REMARK SMILES CC[C@H](C=C[C@H](C)[C@H]1CC[C@@H]2[C@@H]3CC=C4C[C@H](O)CC[C@@]4(C)[C@@H]3CC[C@]21C)C(C)C
REMARK SMILES IDX 6 1 7 2 5 3 4 4 3 5 2 6 1 7 28 8 29 9 30 10 8 11 9 12 26 13
REMARK SMILES IDX 10 14 11 15 25 16 27 17 12 18 24 19 23 20 13 21 21 22 14 23
REMARK SMILES IDX 15 24 20 25 22 26 16 27 19 28 17 29 18 30
REMARK H PARENT 18 31
REMARK Flexibility Score: inf
ROOT
ATOM      1  C   UNL     1     124.863 134.914 140.652  1.00  0.00     0.012 C 
ATOM      2  C   UNL     1     126.280 135.449 140.356  1.00  0.00     0.012 C 
ENDROOT
BRANCH   1   3
ATOM      3  C   UNL     1     124.296 135.669 141.838  1.00  0.00    -0.028 C 
ATOM      4  C   UNL     1     123.163 135.277 142.443  1.00  0.00    -0.027 C 
BRANCH   4   5
ATOM      5  C   UNL     1     122.575 136.036 143.616  1.00  0.00     0.014 C 
BRANCH   5   6
ATOM      6  C   UNL     1     121.353 136.844 143.117  1.00  0.00     0.004 C 
ATOM      7  C   UNL     1     120.868 136.416 141.732  1.00  0.00     0.004 C 
ENDBRANCH   5   6
BRANCH   5   8
ATOM      8  C   UNL     1     122.270 135.089 144.820  1.00  0.00    -0.011 C 
ATOM      9  C   UNL     1     120.786 134.702 144.946  1.00  0.00     0.008 C 
ATOM     10  C   UNL     1     123.140 133.823 144.764  1.00  0.00     0.008 C 
ENDBRANCH   5   8
ENDBRANCH   4   5
ENDBRANCH   1   3
BRANCH   1  11
ATOM     11  C   UNL     1     123.840 134.959 139.459  1.00  0.00     0.002 C 
ATOM     12  C   UNL     1     123.418 136.399 139.043  1.00  0.00     0.005 C 
ATOM     13  C   UNL     1     124.234 134.266 138.109  1.00  0.00    -0.026 C 
ATOM     14  C   UNL     1     123.931 136.641 137.611  1.00  0.00     0.005 C 
ATOM     15  C   UNL     1     124.843 135.454 137.344  1.00  0.00    -0.001 C 
ATOM     16  C   UNL     1     125.279 133.121 138.144  1.00  0.00     0.007 C 
ATOM     17  C   UNL     1     122.906 133.707 137.490  1.00  0.00     0.012 C 
ATOM     18  C   UNL     1     125.372 135.182 135.916  1.00  0.00     0.000 C 
ATOM     19  C   UNL     1     125.812 132.774 136.725  1.00  0.00     0.005 C 
ATOM     20  C   UNL     1     126.396 134.011 135.964  1.00  0.00     0.003 C 
ATOM     21  C   UNL     1     124.310 134.937 134.839  1.00  0.00     0.031 C 
ATOM     22  C   UNL     1     127.045 133.729 134.532  1.00  0.00    -0.008 C 
ATOM     23  C   UNL     1     124.961 134.772 133.506  1.00  0.00    -0.027 C 
ATOM     24  C   UNL     1     126.158 134.170 133.347  1.00  0.00    -0.065 C 
ATOM     25  C   UNL     1     128.363 134.562 134.432  1.00  0.00     0.014 C 
ATOM     26  C   UNL     1     127.394 132.225 134.362  1.00  0.00     0.016 C 
ATOM     27  C   UNL     1     126.769 134.143 131.960  1.00  0.00     0.063 C 
ATOM     28  C   UNL     1     129.021 134.551 133.037  1.00  0.00     0.033 C 
ATOM     29  C   UNL     1     128.043 135.000 131.942  1.00  0.00     0.118 C 
BRANCH  29  30
ATOM     30  O   UNL     1     128.675 134.890 130.694  1.00  0.00    -0.393 OA
ATOM     31  H   UNL     1     129.268 135.682 130.602  1.00  0.00     0.210 HD
ENDBRANCH  29  30
ENDBRANCH   1  11
TORSDOF 6
ENDMDL
MODEL 7
REMARK VINA RESULT:    -6.040      7.452      9.587
REMARK INTER + INTRA:          -9.373
REMARK INTER:                  -8.047
REMARK INTRA:                  -1.326
REMARK UNBOUND:                -1.391
REMARK SMILES CC[C@H](C=C[C@H](C)[C@H]1CC[C@@H]2[C@@H]3CC=C4C[C@H](O)CC[C@@]4(C)[C@@H]3CC[C@]21C)C(C)C
REMARK SMILES IDX 6 1 7 2 5 3 4 4 3 5 2 6 1 7 28 8 29 9 30 10 8 11 9 12 26 13
REMARK SMILES IDX 10 14 11 15 25 16 27 17 12 18 24 19 23 20 13 21 21 22 14 23
REMARK SMILES IDX 15 24 20 25 22 26 16 27 19 28 17 29 18 30
REMARK H PARENT 18 31
REMARK Flexibility Score: inf
ROOT
ATOM      1  C   UNL     1     130.610 125.891 136.682  1.00  0.00     0.012 C 
ATOM      2  C   UNL     1     131.417 125.464 137.926  1.00  0.00     0.012 C 
ENDROOT
BRANCH   1   3
ATOM      3  C   UNL     1     131.571 126.427 135.639  1.00  0.00    -0.028 C 
ATOM      4  C   UNL     1     131.172 127.300 134.699  1.00  0.00    -0.027 C 
BRANCH   4   5
ATOM      5  C   UNL     1     132.119 127.826 133.639  1.00  0.00     0.014 C 
BRANCH   5   6
ATOM      6  C   UNL     1     131.970 126.954 132.369  1.00  0.00     0.004 C 
ATOM      7  C   UNL     1     130.589 126.309 132.236  1.00  0.00     0.004 C 
ENDBRANCH   5   6
BRANCH   5   8
ATOM      8  C   UNL     1     131.916 129.355 133.394  1.00  0.00    -0.011 C 
ATOM      9  C   UNL     1     132.125 129.784 131.932  1.00  0.00     0.008 C 
ATOM     10  C   UNL     1     130.535 129.817 133.885  1.00  0.00     0.008 C 
ENDBRANCH   5   8
ENDBRANCH   4   5
ENDBRANCH   1   3
BRANCH   1  11
ATOM     11  C   UNL     1     129.691 124.791 136.038  1.00  0.00     0.002 C 
ATOM     12  C   UNL     1     129.416 123.573 136.969  1.00  0.00     0.005 C 
ATOM     13  C   UNL     1     128.271 125.210 135.520  1.00  0.00    -0.026 C 
ATOM     14  C   UNL     1     127.909 123.559 137.288  1.00  0.00     0.005 C 
ATOM     15  C   UNL     1     127.410 124.893 136.756  1.00  0.00    -0.001 C 
ATOM     16  C   UNL     1     128.036 126.691 135.128  1.00  0.00     0.007 C 
ATOM     17  C   UNL     1     127.969 124.313 134.271  1.00  0.00     0.012 C 
ATOM     18  C   UNL     1     125.893 125.175 136.654  1.00  0.00     0.000 C 
ATOM     19  C   UNL     1     126.524 127.019 134.968  1.00  0.00     0.005 C 
ATOM     20  C   UNL     1     125.674 126.656 136.231  1.00  0.00     0.003 C 
ATOM     21  C   UNL     1     125.089 124.225 135.759  1.00  0.00     0.031 C 
ATOM     22  C   UNL     1     124.124 127.040 136.184  1.00  0.00    -0.008 C 
ATOM     23  C   UNL     1     123.638 124.567 135.823  1.00  0.00    -0.027 C 
ATOM     24  C   UNL     1     123.190 125.834 135.946  1.00  0.00    -0.065 C 
ATOM     25  C   UNL     1     123.737 127.630 137.579  1.00  0.00     0.014 C 
ATOM     26  C   UNL     1     123.845 128.112 135.096  1.00  0.00     0.016 C 
ATOM     27  C   UNL     1     121.698 126.056 136.097  1.00  0.00     0.063 C 
ATOM     28  C   UNL     1     122.227 127.880 137.768  1.00  0.00     0.033 C 
ATOM     29  C   UNL     1     121.401 126.615 137.496  1.00  0.00     0.118 C 
BRANCH  29  30
ATOM     30  O   UNL     1     120.037 126.928 137.605  1.00  0.00    -0.393 OA
ATOM     31  H   UNL     1     119.634 126.770 136.711  1.00  0.00     0.210 HD
ENDBRANCH  29  30
ENDBRANCH   1  11
TORSDOF 6
ENDMDL
MODEL 8
REMARK VINA RESULT:    -5.963      8.316     10.258
REMARK INTER + INTRA:          -9.271
REMARK INTER:                  -7.631
REMARK INTRA:                  -1.640
REMARK UNBOUND:                -1.391
REMARK SMILES CC[C@H](C=C[C@H](C)[C@H]1CC[C@@H]2[C@@H]3CC=C4C[C@H](O)CC[C@@]4(C)[C@@H]3CC[C@]21C)C(C)C
REMARK SMILES IDX 6 1 7 2 5 3 4 4 3 5 2 6 1 7 28 8 29 9 30 10 8 11 9 12 26 13
REMARK SMILES IDX 10 14 11 15 25 16 27 17 12 18 24 19 23 20 13 21 21 22 14 23
REMARK SMILES IDX 15 24 20 25 22 26 16 27 19 28 17 29 18 30
REMARK H PARENT 18 31
REMARK Flexibility Score: inf
ROOT
ATOM      1  C   UNL     1     131.005 125.693 137.286  1.00  0.00     0.012 C 
ATOM      2  C   UNL     1     132.026 124.792 138.013  1.00  0.00     0.012 C 
ENDROOT
BRANCH   1   3
ATOM      3  C   UNL     1     131.440 125.852 135.841  1.00  0.00    -0.028 C 
ATOM      4  C   UNL     1     131.400 127.044 135.224  1.00  0.00    -0.027 C 
BRANCH   4   5
ATOM      5  C   UNL     1     131.811 127.211 133.774  1.00  0.00     0.014 C 
BRANCH   5   6
ATOM      6  C   UNL     1     131.523 125.888 133.026  1.00  0.00     0.004 C 
ATOM      7  C   UNL     1     131.131 126.093 131.561  1.00  0.00     0.004 C 
ENDBRANCH   5   6
BRANCH   5   8
ATOM      8  C   UNL     1     131.150 128.470 133.129  1.00  0.00    -0.011 C 
ATOM      9  C   UNL     1     129.827 128.887 133.794  1.00  0.00     0.008 C 
ATOM     10  C   UNL     1     132.125 129.659 133.107  1.00  0.00     0.008 C 
ENDBRANCH   5   8
ENDBRANCH   4   5
ENDBRANCH   1   3
BRANCH   1  11
ATOM     11  C   UNL     1     129.505 125.227 137.338  1.00  0.00     0.002 C 
ATOM     12  C   UNL     1     128.479 126.373 137.092  1.00  0.00     0.005 C 
ATOM     13  C   UNL     1     129.043 124.080 136.374  1.00  0.00    -0.026 C 
ATOM     14  C   UNL     1     127.734 126.059 135.780  1.00  0.00     0.005 C 
ATOM     15  C   UNL     1     128.518 124.901 135.183  1.00  0.00    -0.001 C 
ATOM     16  C   UNL     1     130.109 123.084 135.848  1.00  0.00     0.007 C 
ATOM     17  C   UNL     1     127.942 123.270 137.140  1.00  0.00     0.012 C 
ATOM     18  C   UNL     1     127.953 124.116 133.975  1.00  0.00     0.000 C 
ATOM     19  C   UNL     1     129.577 122.235 134.659  1.00  0.00     0.005 C 
ATOM     20  C   UNL     1     129.022 123.101 133.479  1.00  0.00     0.003 C 
ATOM     21  C   UNL     1     126.602 123.427 134.192  1.00  0.00     0.031 C 
ATOM     22  C   UNL     1     128.534 122.310 132.180  1.00  0.00    -0.008 C 
ATOM     23  C   UNL     1     126.146 122.783 132.925  1.00  0.00    -0.027 C 
ATOM     24  C   UNL     1     126.999 122.218 132.045  1.00  0.00    -0.065 C 
ATOM     25  C   UNL     1     129.042 123.094 130.926  1.00  0.00     0.014 C 
ATOM     26  C   UNL     1     129.127 120.875 132.142  1.00  0.00     0.016 C 
ATOM     27  C   UNL     1     126.435 121.678 130.745  1.00  0.00     0.063 C 
ATOM     28  C   UNL     1     128.498 122.567 129.582  1.00  0.00     0.033 C 
ATOM     29  C   UNL     1     126.964 122.513 129.570  1.00  0.00     0.118 C 
BRANCH  29  30
ATOM     30  O   UNL     1     126.537 121.952 128.356  1.00  0.00    -0.393 OA
ATOM     31  H   UNL     1     125.649 122.349 128.154  1.00  0.00     0.210 HD
ENDBRANCH  29  30
ENDBRANCH   1  11
TORSDOF 6
ENDMDL
MODEL 9
REMARK VINA RESULT:    -5.891      7.976     10.371
REMARK INTER + INTRA:          -9.177
REMARK INTER:                  -7.568
REMARK INTRA:                  -1.608
REMARK UNBOUND:                -1.391
REMARK SMILES CC[C@H](C=C[C@H](C)[C@H]1CC[C@@H]2[C@@H]3CC=C4C[C@H](O)CC[C@@]4(C)[C@@H]3CC[C@]21C)C(C)C
REMARK SMILES IDX 6 1 7 2 5 3 4 4 3 5 2 6 1 7 28 8 29 9 30 10 8 11 9 12 26 13
REMARK SMILES IDX 10 14 11 15 25 16 27 17 12 18 24 19 23 20 13 21 21 22 14 23
REMARK SMILES IDX 15 24 20 25 22 26 16 27 19 28 17 29 18 30
REMARK H PARENT 18 31
REMARK Flexibility Score: inf
ROOT
ATOM      1  C   UNL     1     126.546 122.238 136.369  1.00  0.00     0.012 C 
ATOM      2  C   UNL     1     127.135 121.431 137.545  1.00  0.00     0.012 C 
ENDROOT
BRANCH   1   3
ATOM      3  C   UNL     1     126.524 123.706 136.748  1.00  0.00    -0.028 C 
ATOM      4  C   UNL     1     125.415 124.450 136.613  1.00  0.00    -0.027 C 
BRANCH   4   5
ATOM      5  C   UNL     1     125.387 125.923 136.970  1.00  0.00     0.014 C 
BRANCH   5   6
ATOM      6  C   UNL     1     126.686 126.580 136.445  1.00  0.00     0.004 C 
ATOM      7  C   UNL     1     126.438 127.640 135.370  1.00  0.00     0.004 C 
ENDBRANCH   5   6
BRANCH   5   8
ATOM      8  C   UNL     1     124.075 126.611 136.475  1.00  0.00    -0.011 C 
ATOM      9  C   UNL     1     123.141 125.675 135.689  1.00  0.00     0.008 C 
ATOM     10  C   UNL     1     123.312 127.256 137.643  1.00  0.00     0.008 C 
ENDBRANCH   5   8
ENDBRANCH   4   5
ENDBRANCH   1   3
BRANCH   1  11
ATOM     11  C   UNL     1     127.259 122.063 134.979  1.00  0.00     0.002 C 
ATOM     12  C   UNL     1     126.333 122.327 133.755  1.00  0.00     0.005 C 
ATOM     13  C   UNL     1     128.543 122.913 134.684  1.00  0.00    -0.026 C 
ATOM     14  C   UNL     1     126.876 123.566 133.018  1.00  0.00     0.005 C 
ATOM     15  C   UNL     1     127.925 124.125 133.966  1.00  0.00    -0.001 C 
ATOM     16  C   UNL     1     129.378 123.430 135.884  1.00  0.00     0.007 C 
ATOM     17  C   UNL     1     129.468 122.026 133.782  1.00  0.00     0.012 C 
ATOM     18  C   UNL     1     128.890 125.238 133.493  1.00  0.00     0.000 C 
ATOM     19  C   UNL     1     130.400 124.522 135.456  1.00  0.00     0.005 C 
ATOM     20  C   UNL     1     129.741 125.724 134.701  1.00  0.00     0.003 C 
ATOM     21  C   UNL     1     129.784 124.892 132.298  1.00  0.00     0.031 C 
ATOM     22  C   UNL     1     130.707 126.933 134.302  1.00  0.00    -0.008 C 
ATOM     23  C   UNL     1     130.597 126.080 131.905  1.00  0.00    -0.027 C 
ATOM     24  C   UNL     1     131.074 126.968 132.803  1.00  0.00    -0.065 C 
ATOM     25  C   UNL     1     129.950 128.267 134.602  1.00  0.00     0.014 C 
ATOM     26  C   UNL     1     132.015 126.904 135.138  1.00  0.00     0.016 C 
ATOM     27  C   UNL     1     131.807 128.189 132.284  1.00  0.00     0.063 C 
ATOM     28  C   UNL     1     130.670 129.535 134.098  1.00  0.00     0.033 C 
ATOM     29  C   UNL     1     130.991 129.451 132.600  1.00  0.00     0.118 C 
BRANCH  29  30
ATOM     30  O   UNL     1     131.713 130.594 132.223  1.00  0.00    -0.393 OA
ATOM     31  H   UNL     1     131.270 130.957 131.411  1.00  0.00     0.210 HD
ENDBRANCH  29  30
ENDBRANCH   1  11
TORSDOF 6
ENDMDL
