MODEL 1
REMARK VINA RESULT:    28.172      0.000      0.000
REMARK INTER + INTRA:          33.634
REMARK INTER:                  33.936
REMARK INTRA:                  -0.302
REMARK UNBOUND:                -0.302
REMARK SMILES O=c1c(O)c(-c2ccc(O)c(O)c2)oc2cc(O)cc(O)c12
REMARK SMILES IDX 5 1 3 2 2 3 1 4 22 5 20 6 19 7 17 8 16 9 15 10 14 11 6 12
REMARK SMILES IDX 7 13 8 14 9 15 13 16 11 17 10 18 12 20 4 22 21 24 18 26
REMARK H PARENT 10 19 12 21 4 23 21 25 18 27
REMARK Flexibility Score: inf
ROOT
ATOM      1  C   UNL     1      20.303 -12.596 -15.655  1.00  0.00     0.180 A 
ATOM      2  C   UNL     1      21.468 -12.138 -15.015  1.00  0.00     0.208 A 
ATOM      3  C   UNL     1      22.567 -11.749 -15.796  1.00  0.00     0.238 A 
ATOM      4  O   UNL     1      23.626 -11.392 -15.217  1.00  0.00    -0.285 OA
ATOM      5  C   UNL     1      22.483 -11.807 -17.208  1.00  0.00     0.111 A 
ATOM      6  C   UNL     1      23.521 -11.399 -18.099  1.00  0.00     0.134 A 
ATOM      7  C   UNL     1      23.378 -11.622 -19.475  1.00  0.00     0.093 A 
ATOM      8  C   UNL     1      22.210 -12.177 -19.996  1.00  0.00     0.123 A 
ATOM      9  C   UNL     1      21.164 -12.525 -19.140  1.00  0.00     0.094 A 
ATOM     10  C   UNL     1      21.292 -12.347 -17.760  1.00  0.00     0.146 A 
ATOM     11  O   UNL     1      20.279 -12.700 -16.978  1.00  0.00    -0.452 OA
ENDROOT
BRANCH   1  12
ATOM     12  C   UNL     1      19.095 -13.000 -14.899  1.00  0.00     0.025 A 
ATOM     13  C   UNL     1      18.204 -12.045 -14.379  1.00  0.00     0.016 A 
ATOM     14  C   UNL     1      17.058 -12.450 -13.690  1.00  0.00     0.051 A 
ATOM     15  C   UNL     1      16.779 -13.814 -13.523  1.00  0.00     0.157 A 
ATOM     16  C   UNL     1      18.799 -14.365 -14.748  1.00  0.00     0.062 A 
ATOM     17  C   UNL     1      17.649 -14.772 -14.055  1.00  0.00     0.158 A 
BRANCH  15  18
ATOM     18  O   UNL     1      15.637 -14.221 -12.835  1.00  0.00    -0.504 OA
ATOM     19  H   UNL     1      15.357 -13.782 -11.966  1.00  0.00     0.293 HD
ENDBRANCH  15  18
BRANCH  17  20
ATOM     20  O   UNL     1      17.366 -16.127 -13.896  1.00  0.00    -0.504 OA
ATOM     21  H   UNL     1      17.577 -16.616 -13.034  1.00  0.00     0.293 HD
ENDBRANCH  17  20
ENDBRANCH   1  12
BRANCH   2  22
ATOM     22  O   UNL     1      21.537 -12.109 -13.619  1.00  0.00    -0.502 OA
ATOM     23  H   UNL     1      21.844 -11.291 -13.106  1.00  0.00     0.293 HD
ENDBRANCH   2  22
BRANCH   6  24
ATOM     24  O   UNL     1      24.690 -10.751 -17.691  1.00  0.00    -0.507 OA
ATOM     25  H   UNL     1      25.224 -10.115 -18.263  1.00  0.00     0.293 HD
ENDBRANCH   6  24
BRANCH   8  26
ATOM     26  O   UNL     1      22.095 -12.371 -21.371  1.00  0.00    -0.508 OA
ATOM     27  H   UNL     1      22.241 -11.613 -22.028  1.00  0.00     0.293 HD
ENDBRANCH   8  26
TORSDOF 6
ENDMDL
MODEL 2
REMARK VINA RESULT:    28.861      1.213      2.831
REMARK INTER + INTRA:          34.464
REMARK INTER:                  34.663
REMARK INTRA:                  -0.199
REMARK UNBOUND:                -0.302
REMARK SMILES O=c1c(O)c(-c2ccc(O)c(O)c2)oc2cc(O)cc(O)c12
REMARK SMILES IDX 5 1 3 2 2 3 1 4 22 5 20 6 19 7 17 8 16 9 15 10 14 11 6 12
REMARK SMILES IDX 7 13 8 14 9 15 13 16 11 17 10 18 12 20 4 22 21 24 18 26
REMARK H PARENT 10 19 12 21 4 23 21 25 18 27
REMARK Flexibility Score: inf
ROOT
ATOM      1  C   UNL     1      20.163 -12.692 -16.277  1.00  0.00     0.180 A 
ATOM      2  C   UNL     1      20.029 -12.988 -17.645  1.00  0.00     0.208 A 
ATOM      3  C   UNL     1      21.063 -12.629 -18.524  1.00  0.00     0.238 A 
ATOM      4  O   UNL     1      20.915 -12.847 -19.754  1.00  0.00    -0.285 OA
ATOM      5  C   UNL     1      22.225 -11.993 -18.022  1.00  0.00     0.111 A 
ATOM      6  C   UNL     1      23.352 -11.622 -18.816  1.00  0.00     0.134 A 
ATOM      7  C   UNL     1      24.390 -10.882 -18.237  1.00  0.00     0.093 A 
ATOM      8  C   UNL     1      24.374 -10.556 -16.881  1.00  0.00     0.123 A 
ATOM      9  C   UNL     1      23.305 -10.966 -16.082  1.00  0.00     0.094 A 
ATOM     10  C   UNL     1      22.238 -11.674 -16.639  1.00  0.00     0.146 A 
ATOM     11  O   UNL     1      21.235 -12.037 -15.848  1.00  0.00    -0.452 OA
ENDROOT
BRANCH   1  12
ATOM     12  C   UNL     1      19.126 -13.061 -15.286  1.00  0.00     0.025 A 
ATOM     13  C   UNL     1      18.330 -12.085 -14.661  1.00  0.00     0.016 A 
ATOM     14  C   UNL     1      17.341 -12.460 -13.747  1.00  0.00     0.051 A 
ATOM     15  C   UNL     1      17.124 -13.813 -13.456  1.00  0.00     0.157 A 
ATOM     16  C   UNL     1      18.889 -14.418 -15.007  1.00  0.00     0.062 A 
ATOM     17  C   UNL     1      17.897 -14.793 -14.089  1.00  0.00     0.158 A 
BRANCH  15  18
ATOM     18  O   UNL     1      16.139 -14.189 -12.545  1.00  0.00    -0.504 OA
ATOM     19  H   UNL     1      15.656 -13.506 -11.973  1.00  0.00     0.293 HD
ENDBRANCH  15  18
BRANCH  17  20
ATOM     20  O   UNL     1      17.674 -16.139 -13.804  1.00  0.00    -0.504 OA
ATOM     21  H   UNL     1      18.253 -16.646 -13.145  1.00  0.00     0.293 HD
ENDBRANCH  17  20
ENDBRANCH   1  12
BRANCH   2  22
ATOM     22  O   UNL     1      18.864 -13.596 -18.122  1.00  0.00    -0.502 OA
ATOM     23  H   UNL     1      18.001 -13.608 -17.591  1.00  0.00     0.293 HD
ENDBRANCH   2  22
BRANCH   6  24
ATOM     24  O   UNL     1      23.512 -11.976 -20.158  1.00  0.00    -0.507 OA
ATOM     25  H   UNL     1      22.938 -11.635 -20.915  1.00  0.00     0.293 HD
ENDBRANCH   6  24
BRANCH   8  26
ATOM     26  O   UNL     1      25.431  -9.833 -16.335  1.00  0.00    -0.508 OA
ATOM     27  H   UNL     1      26.390  -9.996 -16.621  1.00  0.00     0.293 HD
ENDBRANCH   8  26
TORSDOF 6
ENDMDL
