MODEL 1
REMARK VINA RESULT:    -5.372      0.000      0.000
REMARK INTER + INTRA:          -9.840
REMARK INTER:                  -8.199
REMARK INTRA:                  -1.642
REMARK UNBOUND:                -1.642
REMARK SMILES CC(=O)CCC=C(C)CCC=C(C)CCC=C(C)C
REMARK SMILES IDX 10 1 11 2 12 3 13 4 14 5 15 6 16 7 18 8 17 9 19 10 9 11 7 12
REMARK SMILES IDX 6 13 8 14 5 15 4 16 2 17 3 18 1 19
REMARK H PARENT
REMARK Flexibility Score: inf
ROOT
ATOM      1  C   UNL     1      49.247  22.870  21.866  1.00  0.00     0.032 C 
ENDROOT
BRANCH   1   2
ATOM      2  C   UNL     1      49.800  24.239  21.548  1.00  0.00    -0.028 C 
ATOM      3  C   UNL     1      49.053  25.361  21.442  1.00  0.00    -0.077 C 
ATOM      4  C   UNL     1      47.568  25.360  21.711  1.00  0.00     0.039 C 
BRANCH   3   5
ATOM      5  C   UNL     1      49.730  26.659  21.053  1.00  0.00     0.034 C 
BRANCH   5   6
ATOM      6  C   UNL     1      50.970  26.413  20.180  1.00  0.00     0.032 C 
BRANCH   6   7
ATOM      7  C   UNL     1      50.652  26.553  18.711  1.00  0.00    -0.028 C 
ATOM      8  C   UNL     1      50.452  25.863  16.362  1.00  0.00     0.039 C 
ATOM      9  C   UNL     1      50.752  25.555  17.806  1.00  0.00    -0.080 C 
ATOM     10  C   UNL     1      51.136  24.149  18.204  1.00  0.00     0.039 C 
ENDBRANCH   6   7
ENDBRANCH   5   6
ENDBRANCH   3   5
ENDBRANCH   1   2
BRANCH   1  11
ATOM     11  C   UNL     1      49.215  21.970  20.622  1.00  0.00     0.034 C 
BRANCH  11  12
ATOM     12  C   UNL     1      47.894  21.240  20.483  1.00  0.00    -0.077 C 
ATOM     13  C   UNL     1      46.757  21.953  20.327  1.00  0.00    -0.028 C 
ATOM     14  C   UNL     1      47.876  19.730  20.514  1.00  0.00     0.039 C 
BRANCH  13  15
ATOM     15  C   UNL     1      45.395  21.314  20.190  1.00  0.00     0.035 C 
BRANCH  15  16
ATOM     16  C   UNL     1      44.505  21.588  21.410  1.00  0.00     0.079 C 
BRANCH  16  17
ATOM     17  C   UNL     1      43.495  22.673  21.132  1.00  0.00     0.130 C 
ATOM     18  O   UNL     1      42.319  22.377  20.986  1.00  0.00    -0.300 OA
ATOM     19  C   UNL     1      43.903  24.114  21.041  1.00  0.00     0.087 C 
ENDBRANCH  16  17
ENDBRANCH  15  16
ENDBRANCH  13  15
ENDBRANCH  11  12
ENDBRANCH   1  11
TORSDOF 9
ENDMDL
MODEL 2
REMARK VINA RESULT:    -5.366      3.358      8.308
REMARK INTER + INTRA:          -9.831
REMARK INTER:                  -8.742
REMARK INTRA:                  -1.089
REMARK UNBOUND:                -1.642
REMARK SMILES CC(=O)CCC=C(C)CCC=C(C)CCC=C(C)C
REMARK SMILES IDX 10 1 11 2 12 3 13 4 14 5 15 6 16 7 18 8 17 9 19 10 9 11 7 12
REMARK SMILES IDX 6 13 8 14 5 15 4 16 2 17 3 18 1 19
REMARK H PARENT
REMARK Flexibility Score: inf
ROOT
ATOM      1  C   UNL     1      45.303  22.893  20.465  1.00  0.00     0.032 C 
ENDROOT
BRANCH   1   2
ATOM      2  C   UNL     1      44.114  22.153  21.030  1.00  0.00    -0.028 C 
ATOM      3  C   UNL     1      42.928  22.727  21.332  1.00  0.00    -0.077 C 
ATOM      4  C   UNL     1      42.653  24.186  21.058  1.00  0.00     0.039 C 
BRANCH   3   5
ATOM      5  C   UNL     1      41.839  21.878  21.956  1.00  0.00     0.034 C 
BRANCH   5   6
ATOM      6  C   UNL     1      41.084  22.641  23.055  1.00  0.00     0.032 C 
BRANCH   6   7
ATOM      7  C   UNL     1      39.597  22.384  22.988  1.00  0.00    -0.028 C 
ATOM      8  C   UNL     1      37.212  22.932  22.774  1.00  0.00     0.039 C 
ATOM      9  C   UNL     1      38.665  23.333  22.757  1.00  0.00    -0.080 C 
ATOM     10  C   UNL     1      39.037  24.768  22.466  1.00  0.00     0.039 C 
ENDBRANCH   6   7
ENDBRANCH   5   6
ENDBRANCH   3   5
ENDBRANCH   1   2
BRANCH   1  11
ATOM     11  C   UNL     1      46.243  21.952  19.700  1.00  0.00     0.034 C 
BRANCH  11  12
ATOM     12  C   UNL     1      47.577  21.788  20.401  1.00  0.00    -0.077 C 
ATOM     13  C   UNL     1      48.076  22.815  21.123  1.00  0.00    -0.028 C 
ATOM     14  C   UNL     1      48.318  20.476  20.286  1.00  0.00     0.039 C 
BRANCH  13  15
ATOM     15  C   UNL     1      49.400  22.748  21.848  1.00  0.00     0.035 C 
BRANCH  15  16
ATOM     16  C   UNL     1      50.272  23.980  21.570  1.00  0.00     0.079 C 
BRANCH  16  17
ATOM     17  C   UNL     1      50.545  24.150  20.097  1.00  0.00     0.130 C 
ATOM     18  O   UNL     1      50.250  25.200  19.548  1.00  0.00    -0.300 OA
ATOM     19  C   UNL     1      51.182  23.057  19.290  1.00  0.00     0.087 C 
ENDBRANCH  16  17
ENDBRANCH  15  16
ENDBRANCH  13  15
ENDBRANCH  11  12
ENDBRANCH   1  11
TORSDOF 9
ENDMDL
MODEL 3
REMARK VINA RESULT:    -5.238      3.472      6.073
REMARK INTER + INTRA:          -9.635
REMARK INTER:                  -8.627
REMARK INTRA:                  -1.009
REMARK UNBOUND:                -1.642
REMARK SMILES CC(=O)CCC=C(C)CCC=C(C)CCC=C(C)C
REMARK SMILES IDX 10 1 11 2 12 3 13 4 14 5 15 6 16 7 18 8 17 9 19 10 9 11 7 12
REMARK SMILES IDX 6 13 8 14 5 15 4 16 2 17 3 18 1 19
REMARK H PARENT
REMARK Flexibility Score: inf
ROOT
ATOM      1  C   UNL     1      43.164  22.433  21.094  1.00  0.00     0.032 C 
ENDROOT
BRANCH   1   2
ATOM      2  C   UNL     1      44.343  21.531  20.809  1.00  0.00    -0.028 C 
ATOM      3  C   UNL     1      45.634  21.931  20.828  1.00  0.00    -0.077 C 
ATOM      4  C   UNL     1      46.031  23.335  21.216  1.00  0.00     0.039 C 
BRANCH   3   5
ATOM      5  C   UNL     1      46.716  20.936  20.458  1.00  0.00     0.034 C 
BRANCH   5   6
ATOM      6  C   UNL     1      48.071  21.316  21.074  1.00  0.00     0.032 C 
BRANCH   6   7
ATOM      7  C   UNL     1      49.022  21.856  20.032  1.00  0.00    -0.028 C 
ATOM      8  C   UNL     1      50.691  23.374  19.061  1.00  0.00     0.039 C 
ATOM      9  C   UNL     1      49.836  22.919  20.215  1.00  0.00    -0.080 C 
ATOM     10  C   UNL     1      49.923  23.643  21.538  1.00  0.00     0.039 C 
ENDBRANCH   6   7
ENDBRANCH   5   6
ENDBRANCH   3   5
ENDBRANCH   1   2
BRANCH   1  11
ATOM     11  C   UNL     1      42.194  21.795  22.098  1.00  0.00     0.034 C 
BRANCH  11  12
ATOM     12  C   UNL     1      41.180  22.792  22.619  1.00  0.00    -0.077 C 
ATOM     13  C   UNL     1      40.217  22.374  23.470  1.00  0.00    -0.028 C 
ATOM     14  C   UNL     1      41.269  24.236  22.182  1.00  0.00     0.039 C 
BRANCH  13  15
ATOM     15  C   UNL     1      39.158  23.293  24.035  1.00  0.00     0.035 C 
BRANCH  15  16
ATOM     16  C   UNL     1      37.740  22.790  23.734  1.00  0.00     0.079 C 
BRANCH  16  17
ATOM     17  C   UNL     1      37.220  23.333  22.427  1.00  0.00     0.130 C 
ATOM     18  O   UNL     1      36.519  22.626  21.719  1.00  0.00    -0.300 OA
ATOM     19  C   UNL     1      37.538  24.729  21.980  1.00  0.00     0.087 C 
ENDBRANCH  16  17
ENDBRANCH  15  16
ENDBRANCH  13  15
ENDBRANCH  11  12
ENDBRANCH   1  11
TORSDOF 9
ENDMDL
MODEL 4
REMARK VINA RESULT:    -5.208      2.471      4.108
REMARK INTER + INTRA:          -9.590
REMARK INTER:                  -8.413
REMARK INTRA:                  -1.177
REMARK UNBOUND:                -1.642
REMARK SMILES CC(=O)CCC=C(C)CCC=C(C)CCC=C(C)C
REMARK SMILES IDX 10 1 11 2 12 3 13 4 14 5 15 6 16 7 18 8 17 9 19 10 9 11 7 12
REMARK SMILES IDX 6 13 8 14 5 15 4 16 2 17 3 18 1 19
REMARK H PARENT
REMARK Flexibility Score: inf
ROOT
ATOM      1  C   UNL     1      45.780  22.561  20.064  1.00  0.00     0.032 C 
ENDROOT
BRANCH   1   2
ATOM      2  C   UNL     1      47.147  22.259  20.631  1.00  0.00    -0.028 C 
ATOM      3  C   UNL     1      47.864  23.112  21.396  1.00  0.00    -0.077 C 
ATOM      4  C   UNL     1      47.318  24.453  21.825  1.00  0.00     0.039 C 
BRANCH   3   5
ATOM      5  C   UNL     1      49.254  22.707  21.844  1.00  0.00     0.034 C 
BRANCH   5   6
ATOM      6  C   UNL     1      50.294  23.788  21.517  1.00  0.00     0.032 C 
BRANCH   6   7
ATOM      7  C   UNL     1      50.736  23.716  20.074  1.00  0.00    -0.028 C 
ATOM      8  C   UNL     1      51.112  24.507  17.780  1.00  0.00     0.039 C 
ATOM      9  C   UNL     1      50.686  24.748  19.205  1.00  0.00    -0.080 C 
ATOM     10  C   UNL     1      50.238  26.128  19.625  1.00  0.00     0.039 C 
ENDBRANCH   6   7
ENDBRANCH   5   6
ENDBRANCH   3   5
ENDBRANCH   1   2
BRANCH   1  11
ATOM     11  C   UNL     1      44.681  21.772  20.789  1.00  0.00     0.034 C 
BRANCH  11  12
ATOM     12  C   UNL     1      43.553  22.669  21.258  1.00  0.00    -0.077 C 
ATOM     13  C   UNL     1      42.421  22.112  21.741  1.00  0.00    -0.028 C 
ATOM     14  C   UNL     1      43.720  24.169  21.182  1.00  0.00     0.039 C 
BRANCH  13  15
ATOM     15  C   UNL     1      41.241  22.925  22.222  1.00  0.00     0.035 C 
BRANCH  15  16
ATOM     16  C   UNL     1      40.235  22.071  23.006  1.00  0.00     0.079 C 
BRANCH  16  17
ATOM     17  C   UNL     1      38.830  22.600  22.871  1.00  0.00     0.130 C 
ATOM     18  O   UNL     1      38.624  23.798  22.992  1.00  0.00    -0.300 OA
ATOM     19  C   UNL     1      37.676  21.686  22.580  1.00  0.00     0.087 C 
ENDBRANCH  16  17
ENDBRANCH  15  16
ENDBRANCH  13  15
ENDBRANCH  11  12
ENDBRANCH   1  11
TORSDOF 9
ENDMDL
MODEL 5
REMARK VINA RESULT:    -5.192      1.903      3.744
REMARK INTER + INTRA:          -9.565
REMARK INTER:                  -7.979
REMARK INTRA:                  -1.586
REMARK UNBOUND:                -1.642
REMARK SMILES CC(=O)CCC=C(C)CCC=C(C)CCC=C(C)C
REMARK SMILES IDX 10 1 11 2 12 3 13 4 14 5 15 6 16 7 18 8 17 9 19 10 9 11 7 12
REMARK SMILES IDX 6 13 8 14 5 15 4 16 2 17 3 18 1 19
REMARK H PARENT
REMARK Flexibility Score: inf
ROOT
ATOM      1  C   UNL     1      46.039  22.264  20.008  1.00  0.00     0.032 C 
ENDROOT
BRANCH   1   2
ATOM      2  C   UNL     1      47.408  22.096  20.624  1.00  0.00    -0.028 C 
ATOM      3  C   UNL     1      48.028  23.031  21.379  1.00  0.00    -0.077 C 
ATOM      4  C   UNL     1      47.360  24.335  21.744  1.00  0.00     0.039 C 
BRANCH   3   5
ATOM      5  C   UNL     1      49.430  22.757  21.882  1.00  0.00     0.034 C 
BRANCH   5   6
ATOM      6  C   UNL     1      50.396  23.894  21.515  1.00  0.00     0.032 C 
BRANCH   6   7
ATOM      7  C   UNL     1      50.918  23.746  20.105  1.00  0.00    -0.028 C 
ATOM      8  C   UNL     1      51.339  24.378  17.769  1.00  0.00     0.039 C 
ATOM      9  C   UNL     1      50.819  24.694  19.148  1.00  0.00    -0.080 C 
ATOM     10  C   UNL     1      50.224  26.054  19.426  1.00  0.00     0.039 C 
ENDBRANCH   6   7
ENDBRANCH   5   6
ENDBRANCH   3   5
ENDBRANCH   1   2
BRANCH   1  11
ATOM     11  C   UNL     1      44.955  21.563  20.839  1.00  0.00     0.034 C 
BRANCH  11  12
ATOM     12  C   UNL     1      43.754  22.457  21.075  1.00  0.00    -0.077 C 
ATOM     13  C   UNL     1      43.855  23.781  20.827  1.00  0.00    -0.028 C 
ATOM     14  C   UNL     1      42.466  21.849  21.578  1.00  0.00     0.039 C 
BRANCH  13  15
ATOM     15  C   UNL     1      42.716  24.751  21.041  1.00  0.00     0.035 C 
BRANCH  15  16
ATOM     16  C   UNL     1      43.145  26.205  20.804  1.00  0.00     0.079 C 
BRANCH  16  17
ATOM     17  C   UNL     1      44.239  26.626  21.753  1.00  0.00     0.130 C 
ATOM     18  O   UNL     1      45.268  27.110  21.308  1.00  0.00    -0.300 OA
ATOM     19  C   UNL     1      44.087  26.471  23.238  1.00  0.00     0.087 C 
ENDBRANCH  16  17
ENDBRANCH  15  16
ENDBRANCH  13  15
ENDBRANCH  11  12
ENDBRANCH   1  11
TORSDOF 9
ENDMDL
MODEL 6
REMARK VINA RESULT:    -5.191      2.880      7.130
REMARK INTER + INTRA:          -9.564
REMARK INTER:                  -8.043
REMARK INTRA:                  -1.521
REMARK UNBOUND:                -1.642
REMARK SMILES CC(=O)CCC=C(C)CCC=C(C)CCC=C(C)C
REMARK SMILES IDX 10 1 11 2 12 3 13 4 14 5 15 6 16 7 18 8 17 9 19 10 9 11 7 12
REMARK SMILES IDX 6 13 8 14 5 15 4 16 2 17 3 18 1 19
REMARK H PARENT
REMARK Flexibility Score: inf
ROOT
ATOM      1  C   UNL     1      50.365  23.839  21.743  1.00  0.00     0.032 C 
ENDROOT
BRANCH   1   2
ATOM      2  C   UNL     1      49.451  22.772  21.189  1.00  0.00    -0.028 C 
ATOM      3  C   UNL     1      48.101  22.811  21.252  1.00  0.00    -0.077 C 
ATOM      4  C   UNL     1      47.362  23.991  21.835  1.00  0.00     0.039 C 
BRANCH   3   5
ATOM      5  C   UNL     1      47.307  21.639  20.714  1.00  0.00     0.034 C 
BRANCH   5   6
ATOM      6  C   UNL     1      46.065  22.103  19.939  1.00  0.00     0.032 C 
BRANCH   6   7
ATOM      7  C   UNL     1      44.789  21.660  20.616  1.00  0.00    -0.028 C 
ATOM      8  C   UNL     1      42.625  21.908  21.750  1.00  0.00     0.039 C 
ATOM      9  C   UNL     1      43.817  22.496  21.040  1.00  0.00    -0.080 C 
ATOM     10  C   UNL     1      43.884  23.987  20.809  1.00  0.00     0.039 C 
ENDBRANCH   6   7
ENDBRANCH   5   6
ENDBRANCH   3   5
ENDBRANCH   1   2
BRANCH   1  11
ATOM     11  C   UNL     1      51.391  24.302  20.700  1.00  0.00     0.034 C 
BRANCH  11  12
ATOM     12  C   UNL     1      50.736  25.032  19.544  1.00  0.00    -0.077 C 
ATOM     13  C   UNL     1      50.902  24.565  18.287  1.00  0.00    -0.028 C 
ATOM     14  C   UNL     1      49.905  26.263  19.822  1.00  0.00     0.039 C 
BRANCH  13  15
ATOM     15  C   UNL     1      50.296  25.230  17.073  1.00  0.00     0.035 C 
BRANCH  15  16
ATOM     16  C   UNL     1      51.356  25.925  16.208  1.00  0.00     0.079 C 
BRANCH  16  17
ATOM     17  C   UNL     1      51.276  27.426  16.326  1.00  0.00     0.130 C 
ATOM     18  O   UNL     1      50.623  28.059  15.510  1.00  0.00    -0.300 OA
ATOM     19  C   UNL     1      51.975  28.161  17.431  1.00  0.00     0.087 C 
ENDBRANCH  16  17
ENDBRANCH  15  16
ENDBRANCH  13  15
ENDBRANCH  11  12
ENDBRANCH   1  11
TORSDOF 9
ENDMDL
MODEL 7
REMARK VINA RESULT:    -5.176      2.978      7.462
REMARK INTER + INTRA:          -9.541
REMARK INTER:                  -8.224
REMARK INTRA:                  -1.317
REMARK UNBOUND:                -1.642
REMARK SMILES CC(=O)CCC=C(C)CCC=C(C)CCC=C(C)C
REMARK SMILES IDX 10 1 11 2 12 3 13 4 14 5 15 6 16 7 18 8 17 9 19 10 9 11 7 12
REMARK SMILES IDX 6 13 8 14 5 15 4 16 2 17 3 18 1 19
REMARK H PARENT
REMARK Flexibility Score: inf
ROOT
ATOM      1  C   UNL     1      44.925  21.627  21.132  1.00  0.00     0.032 C 
ENDROOT
BRANCH   1   2
ATOM      2  C   UNL     1      43.937  22.730  20.834  1.00  0.00    -0.028 C 
ATOM      3  C   UNL     1      44.103  24.023  21.194  1.00  0.00    -0.077 C 
ATOM      4  C   UNL     1      45.357  24.508  21.881  1.00  0.00     0.039 C 
BRANCH   3   5
ATOM      5  C   UNL     1      43.000  25.017  20.890  1.00  0.00     0.034 C 
BRANCH   5   6
ATOM      6  C   UNL     1      41.608  24.388  21.055  1.00  0.00     0.032 C 
BRANCH   6   7
ATOM      7  C   UNL     1      41.161  24.400  22.497  1.00  0.00    -0.028 C 
ATOM      8  C   UNL     1      40.328  23.480  24.617  1.00  0.00     0.039 C 
ATOM      9  C   UNL     1      40.806  23.301  23.199  1.00  0.00    -0.080 C 
ATOM     10  C   UNL     1      40.892  21.913  22.611  1.00  0.00     0.039 C 
ENDBRANCH   6   7
ENDBRANCH   5   6
ENDBRANCH   3   5
ENDBRANCH   1   2
BRANCH   1  11
ATOM     11  C   UNL     1      45.954  21.470  20.002  1.00  0.00     0.034 C 
BRANCH  11  12
ATOM     12  C   UNL     1      47.365  21.328  20.536  1.00  0.00    -0.077 C 
ATOM     13  C   UNL     1      48.012  22.420  20.998  1.00  0.00    -0.028 C 
ATOM     14  C   UNL     1      48.018  19.965  20.547  1.00  0.00     0.039 C 
BRANCH  13  15
ATOM     15  C   UNL     1      49.422  22.377  21.540  1.00  0.00     0.035 C 
BRANCH  15  16
ATOM     16  C   UNL     1      49.985  23.782  21.793  1.00  0.00     0.079 C 
BRANCH  16  17
ATOM     17  C   UNL     1      51.024  24.160  20.768  1.00  0.00     0.130 C 
ATOM     18  O   UNL     1      51.750  25.121  20.974  1.00  0.00    -0.300 OA
ATOM     19  C   UNL     1      51.193  23.375  19.501  1.00  0.00     0.087 C 
ENDBRANCH  16  17
ENDBRANCH  15  16
ENDBRANCH  13  15
ENDBRANCH  11  12
ENDBRANCH   1  11
TORSDOF 9
ENDMDL
MODEL 8
REMARK VINA RESULT:    -5.159      3.145      7.213
REMARK INTER + INTRA:          -9.515
REMARK INTER:                  -8.445
REMARK INTRA:                  -1.070
REMARK UNBOUND:                -1.642
REMARK SMILES CC(=O)CCC=C(C)CCC=C(C)CCC=C(C)C
REMARK SMILES IDX 10 1 11 2 12 3 13 4 14 5 15 6 16 7 18 8 17 9 19 10 9 11 7 12
REMARK SMILES IDX 6 13 8 14 5 15 4 16 2 17 3 18 1 19
REMARK H PARENT
REMARK Flexibility Score: inf
ROOT
ATOM      1  C   UNL     1      49.409  22.611  21.364  1.00  0.00     0.032 C 
ENDROOT
BRANCH   1   2
ATOM      2  C   UNL     1      47.963  22.478  20.945  1.00  0.00    -0.028 C 
ATOM      3  C   UNL     1      47.388  21.324  20.538  1.00  0.00    -0.077 C 
ATOM      4  C   UNL     1      48.138  20.014  20.535  1.00  0.00     0.039 C 
BRANCH   3   5
ATOM      5  C   UNL     1      45.943  21.345  20.082  1.00  0.00     0.034 C 
BRANCH   5   6
ATOM      6  C   UNL     1      44.982  21.606  21.252  1.00  0.00     0.032 C 
BRANCH   6   7
ATOM      7  C   UNL     1      43.902  22.591  20.874  1.00  0.00    -0.028 C 
ATOM      8  C   UNL     1      42.782  24.771  20.714  1.00  0.00     0.039 C 
ATOM      9  C   UNL     1      43.966  23.921  21.098  1.00  0.00    -0.080 C 
ATOM     10  C   UNL     1      45.186  24.575  21.703  1.00  0.00     0.039 C 
ENDBRANCH   6   7
ENDBRANCH   5   6
ENDBRANCH   3   5
ENDBRANCH   1   2
BRANCH   1  11
ATOM     11  C   UNL     1      50.148  23.656  20.518  1.00  0.00     0.034 C 
BRANCH  11  12
ATOM     12  C   UNL     1      50.350  24.956  21.270  1.00  0.00    -0.077 C 
ATOM     13  C   UNL     1      51.604  25.357  21.576  1.00  0.00    -0.028 C 
ATOM     14  C   UNL     1      49.146  25.782  21.658  1.00  0.00     0.039 C 
BRANCH  13  15
ATOM     15  C   UNL     1      51.903  26.631  22.330  1.00  0.00     0.035 C 
BRANCH  15  16
ATOM     16  C   UNL     1      52.152  26.372  23.822  1.00  0.00     0.079 C 
BRANCH  16  17
ATOM     17  C   UNL     1      51.492  27.416  24.687  1.00  0.00     0.130 C 
ATOM     18  O   UNL     1      50.409  27.874  24.357  1.00  0.00    -0.300 OA
ATOM     19  C   UNL     1      52.134  27.900  25.954  1.00  0.00     0.087 C 
ENDBRANCH  16  17
ENDBRANCH  15  16
ENDBRANCH  13  15
ENDBRANCH  11  12
ENDBRANCH   1  11
TORSDOF 9
ENDMDL
MODEL 9
REMARK VINA RESULT:    -5.146      2.194      3.701
REMARK INTER + INTRA:          -9.495
REMARK INTER:                  -8.481
REMARK INTRA:                  -1.014
REMARK UNBOUND:                -1.642
REMARK SMILES CC(=O)CCC=C(C)CCC=C(C)CCC=C(C)C
REMARK SMILES IDX 10 1 11 2 12 3 13 4 14 5 15 6 16 7 18 8 17 9 19 10 9 11 7 12
REMARK SMILES IDX 6 13 8 14 5 15 4 16 2 17 3 18 1 19
REMARK H PARENT
REMARK Flexibility Score: inf
ROOT
ATOM      1  C   UNL     1      49.076  23.012  21.861  1.00  0.00     0.032 C 
ENDROOT
BRANCH   1   2
ATOM      2  C   UNL     1      50.340  23.840  21.839  1.00  0.00    -0.028 C 
ATOM      3  C   UNL     1      50.391  25.150  21.510  1.00  0.00    -0.077 C 
ATOM      4  C   UNL     1      49.147  25.944  21.194  1.00  0.00     0.039 C 
BRANCH   3   5
ATOM      5  C   UNL     1      51.737  25.844  21.465  1.00  0.00     0.034 C 
BRANCH   5   6
ATOM      6  C   UNL     1      51.693  27.212  22.162  1.00  0.00     0.032 C 
BRANCH   6   7
ATOM      7  C   UNL     1      52.151  27.120  23.598  1.00  0.00    -0.028 C 
ATOM      8  C   UNL     1      52.067  27.468  26.028  1.00  0.00     0.039 C 
ATOM      9  C   UNL     1      51.453  27.584  24.656  1.00  0.00    -0.080 C 
ATOM     10  C   UNL     1      50.079  28.194  24.505  1.00  0.00     0.039 C 
ENDBRANCH   6   7
ENDBRANCH   5   6
ENDBRANCH   3   5
ENDBRANCH   1   2
BRANCH   1  11
ATOM     11  C   UNL     1      49.184  21.793  20.934  1.00  0.00     0.034 C 
BRANCH  11  12
ATOM     12  C   UNL     1      47.829  21.175  20.650  1.00  0.00    -0.077 C 
ATOM     13  C   UNL     1      46.791  21.975  20.323  1.00  0.00    -0.028 C 
ATOM     14  C   UNL     1      47.669  19.675  20.732  1.00  0.00     0.039 C 
BRANCH  13  15
ATOM     15  C   UNL     1      45.404  21.451  20.032  1.00  0.00     0.035 C 
BRANCH  15  16
ATOM     16  C   UNL     1      44.500  21.496  21.271  1.00  0.00     0.079 C 
BRANCH  16  17
ATOM     17  C   UNL     1      43.532  22.651  21.214  1.00  0.00     0.130 C 
ATOM     18  O   UNL     1      43.920  23.743  20.829  1.00  0.00    -0.300 OA
ATOM     19  C   UNL     1      42.095  22.485  21.613  1.00  0.00     0.087 C 
ENDBRANCH  16  17
ENDBRANCH  15  16
ENDBRANCH  13  15
ENDBRANCH  11  12
ENDBRANCH   1  11
TORSDOF 9
ENDMDL
