MODEL 1
REMARK VINA RESULT:    -2.522      0.000      0.000
REMARK INTER + INTRA:          -3.593
REMARK INTER:                  -3.260
REMARK INTRA:                  -0.333
REMARK UNBOUND:                -0.333
REMARK SMILES CCCCCCC=O
REMARK SMILES IDX 4 1 3 2 2 3 1 4 5 5 6 6 7 7 8 8
REMARK H PARENT
REMARK Flexibility Score: inf
ROOT
ATOM      1  C   UNL     1     140.188 148.541 140.336  1.00  0.00     0.000 C 
ENDROOT
BRANCH   1   2
ATOM      2  C   UNL     1     140.395 149.667 141.359  1.00  0.00    -0.000 C 
BRANCH   2   3
ATOM      3  C   UNL     1     141.629 150.508 141.007  1.00  0.00    -0.003 C 
ATOM      4  C   UNL     1     142.723 150.349 142.058  1.00  0.00     0.004 C 
ENDBRANCH   2   3
ENDBRANCH   1   2
BRANCH   1   5
ATOM      5  C   UNL     1     140.959 148.781 139.028  1.00  0.00     0.008 C 
BRANCH   5   6
ATOM      6  C   UNL     1     141.605 147.500 138.479  1.00  0.00     0.072 C 
BRANCH   6   7
ATOM      7  C   UNL     1     142.501 146.874 139.506  1.00  0.00     0.224 C 
ATOM      8  O   UNL     1     143.420 147.510 139.996  1.00  0.00    -0.303 OA
ENDBRANCH   6   7
ENDBRANCH   5   6
ENDBRANCH   1   5
TORSDOF 5
ENDMDL
MODEL 2
REMARK VINA RESULT:    -2.489     10.162     11.343
REMARK INTER + INTRA:          -3.550
REMARK INTER:                  -3.344
REMARK INTRA:                  -0.206
REMARK UNBOUND:                -0.333
REMARK SMILES CCCCCCC=O
REMARK SMILES IDX 4 1 3 2 2 3 1 4 5 5 6 6 7 7 8 8
REMARK H PARENT
REMARK Flexibility Score: inf
ROOT
ATOM      1  C   UNL     1     148.476 141.141 140.083  1.00  0.00     0.000 C 
ENDROOT
BRANCH   1   2
ATOM      2  C   UNL     1     149.594 141.133 141.134  1.00  0.00    -0.000 C 
BRANCH   2   3
ATOM      3  C   UNL     1     150.468 139.880 140.995  1.00  0.00    -0.003 C 
ATOM      4  C   UNL     1     150.317 138.965 142.206  1.00  0.00     0.004 C 
ENDBRANCH   2   3
ENDBRANCH   1   2
BRANCH   1   5
ATOM      5  C   UNL     1     148.484 139.882 139.200  1.00  0.00     0.008 C 
BRANCH   5   6
ATOM      6  C   UNL     1     147.308 138.942 139.504  1.00  0.00     0.072 C 
BRANCH   6   7
ATOM      7  C   UNL     1     145.998 139.634 139.272  1.00  0.00     0.224 C 
ATOM      8  O   UNL     1     145.220 139.812 140.196  1.00  0.00    -0.303 OA
ENDBRANCH   6   7
ENDBRANCH   5   6
ENDBRANCH   1   5
TORSDOF 5
ENDMDL
MODEL 3
REMARK VINA RESULT:    -2.483     10.292     11.438
REMARK INTER + INTRA:          -3.542
REMARK INTER:                  -3.284
REMARK INTRA:                  -0.258
REMARK UNBOUND:                -0.333
REMARK SMILES CCCCCCC=O
REMARK SMILES IDX 4 1 3 2 2 3 1 4 5 5 6 6 7 7 8 8
REMARK H PARENT
REMARK Flexibility Score: inf
ROOT
ATOM      1  C   UNL     1     148.759 140.473 138.939  1.00  0.00     0.000 C 
ENDROOT
BRANCH   1   2
ATOM      2  C   UNL     1     147.456 139.836 138.437  1.00  0.00    -0.000 C 
BRANCH   2   3
ATOM      3  C   UNL     1     146.671 139.209 139.595  1.00  0.00    -0.003 C 
ATOM      4  C   UNL     1     145.205 139.629 139.558  1.00  0.00     0.004 C 
ENDBRANCH   2   3
ENDBRANCH   1   2
BRANCH   1   5
ATOM      5  C   UNL     1     148.565 141.270 140.240  1.00  0.00     0.008 C 
BRANCH   5   6
ATOM      6  C   UNL     1     149.714 141.061 141.237  1.00  0.00     0.072 C 
BRANCH   6   7
ATOM      7  C   UNL     1     150.150 139.626 141.256  1.00  0.00     0.224 C 
ATOM      8  O   UNL     1     150.238 139.020 142.312  1.00  0.00    -0.303 OA
ENDBRANCH   6   7
ENDBRANCH   5   6
ENDBRANCH   1   5
TORSDOF 5
ENDMDL
MODEL 4
REMARK VINA RESULT:    -2.482     10.381     11.426
REMARK INTER + INTRA:          -3.541
REMARK INTER:                  -3.242
REMARK INTRA:                  -0.300
REMARK UNBOUND:                -0.333
REMARK SMILES CCCCCCC=O
REMARK SMILES IDX 4 1 3 2 2 3 1 4 5 5 6 6 7 7 8 8
REMARK H PARENT
REMARK Flexibility Score: inf
ROOT
ATOM      1  C   UNL     1     133.125 140.177 140.278  1.00  0.00     0.000 C 
ENDROOT
BRANCH   1   2
ATOM      2  C   UNL     1     131.983 140.414 141.276  1.00  0.00    -0.000 C 
BRANCH   2   3
ATOM      3  C   UNL     1     131.185 141.671 140.908  1.00  0.00    -0.003 C 
ATOM      4  C   UNL     1     131.321 142.745 141.983  1.00  0.00     0.004 C 
ENDBRANCH   2   3
ENDBRANCH   1   2
BRANCH   1   5
ATOM      5  C   UNL     1     132.997 141.047 139.016  1.00  0.00     0.008 C 
BRANCH   5   6
ATOM      6  C   UNL     1     134.359 141.513 138.481  1.00  0.00     0.072 C 
BRANCH   6   7
ATOM      7  C   UNL     1     134.587 142.962 138.795  1.00  0.00     0.224 C 
ATOM      8  O   UNL     1     134.102 143.461 139.799  1.00  0.00    -0.303 OA
ENDBRANCH   6   7
ENDBRANCH   5   6
ENDBRANCH   1   5
TORSDOF 5
ENDMDL
MODEL 5
REMARK VINA RESULT:    -2.473      1.335      3.704
REMARK INTER + INTRA:          -3.529
REMARK INTER:                  -3.264
REMARK INTRA:                  -0.265
REMARK UNBOUND:                -0.333
REMARK SMILES CCCCCCC=O
REMARK SMILES IDX 4 1 3 2 2 3 1 4 5 5 6 6 7 7 8 8
REMARK H PARENT
REMARK Flexibility Score: inf
ROOT
ATOM      1  C   UNL     1     141.097 148.800 139.064  1.00  0.00     0.000 C 
ENDROOT
BRANCH   1   2
ATOM      2  C   UNL     1     141.627 147.484 138.478  1.00  0.00    -0.000 C 
BRANCH   2   3
ATOM      3  C   UNL     1     142.422 146.698 139.529  1.00  0.00    -0.003 C 
ATOM      4  C   UNL     1     141.910 145.266 139.650  1.00  0.00     0.004 C 
ENDBRANCH   2   3
ENDBRANCH   1   2
BRANCH   1   5
ATOM      5  C   UNL     1     140.284 148.590 140.352  1.00  0.00     0.008 C 
BRANCH   5   6
ATOM      6  C   UNL     1     140.486 149.722 141.370  1.00  0.00     0.072 C 
BRANCH   6   7
ATOM      7  C   UNL     1     141.866 150.299 141.258  1.00  0.00     0.224 C 
ATOM      8  O   UNL     1     142.725 150.011 142.076  1.00  0.00    -0.303 OA
ENDBRANCH   6   7
ENDBRANCH   5   6
ENDBRANCH   1   5
TORSDOF 5
ENDMDL
MODEL 6
REMARK VINA RESULT:    -2.453     15.478     16.693
REMARK INTER + INTRA:          -3.503
REMARK INTER:                  -3.187
REMARK INTRA:                  -0.315
REMARK UNBOUND:                -0.333
REMARK SMILES CCCCCCC=O
REMARK SMILES IDX 4 1 3 2 2 3 1 4 5 5 6 6 7 7 8 8
REMARK H PARENT
REMARK Flexibility Score: inf
ROOT
ATOM      1  C   UNL     1     141.305 133.103 140.172  1.00  0.00     0.000 C 
ENDROOT
BRANCH   1   2
ATOM      2  C   UNL     1     141.274 131.984 141.224  1.00  0.00    -0.000 C 
BRANCH   2   3
ATOM      3  C   UNL     1     140.085 131.044 140.989  1.00  0.00    -0.003 C 
ATOM      4  C   UNL     1     138.974 131.295 142.004  1.00  0.00     0.004 C 
ENDBRANCH   2   3
ENDBRANCH   1   2
BRANCH   1   5
ATOM      5  C   UNL     1     140.479 132.761 138.921  1.00  0.00     0.008 C 
BRANCH   5   6
ATOM      6  C   UNL     1     139.516 133.889 138.523  1.00  0.00     0.072 C 
BRANCH   6   7
ATOM      7  C   UNL     1     138.146 133.348 138.246  1.00  0.00     0.224 C 
ATOM      8  O   UNL     1     137.873 132.188 138.512  1.00  0.00    -0.303 OA
ENDBRANCH   6   7
ENDBRANCH   5   6
ENDBRANCH   1   5
TORSDOF 5
ENDMDL
MODEL 7
REMARK VINA RESULT:    -2.443     10.692     11.896
REMARK INTER + INTRA:          -3.490
REMARK INTER:                  -3.196
REMARK INTRA:                  -0.294
REMARK UNBOUND:                -0.333
REMARK SMILES CCCCCCC=O
REMARK SMILES IDX 4 1 3 2 2 3 1 4 5 5 6 6 7 7 8 8
REMARK H PARENT
REMARK Flexibility Score: inf
ROOT
ATOM      1  C   UNL     1     148.560 141.289 140.233  1.00  0.00     0.000 C 
ENDROOT
BRANCH   1   2
ATOM      2  C   UNL     1     147.913 140.047 139.603  1.00  0.00    -0.000 C 
BRANCH   2   3
ATOM      3  C   UNL     1     147.451 140.338 138.169  1.00  0.00    -0.003 C 
ATOM      4  C   UNL     1     148.631 140.702 137.273  1.00  0.00     0.004 C 
ENDBRANCH   2   3
ENDBRANCH   1   2
BRANCH   1   5
ATOM      5  C   UNL     1     149.763 140.941 141.125  1.00  0.00     0.008 C 
BRANCH   5   6
ATOM      6  C   UNL     1     150.706 139.920 140.472  1.00  0.00     0.072 C 
BRANCH   6   7
ATOM      7  C   UNL     1     150.973 138.772 141.398  1.00  0.00     0.224 C 
ATOM      8  O   UNL     1     150.388 138.689 142.467  1.00  0.00    -0.303 OA
ENDBRANCH   6   7
ENDBRANCH   5   6
ENDBRANCH   1   5
TORSDOF 5
ENDMDL
MODEL 8
REMARK VINA RESULT:    -2.441      1.777      3.561
REMARK INTER + INTRA:          -3.488
REMARK INTER:                  -3.226
REMARK INTRA:                  -0.262
REMARK UNBOUND:                -0.333
REMARK SMILES CCCCCCC=O
REMARK SMILES IDX 4 1 3 2 2 3 1 4 5 5 6 6 7 7 8 8
REMARK H PARENT
REMARK Flexibility Score: inf
ROOT
ATOM      1  C   UNL     1     141.224 148.451 139.327  1.00  0.00     0.000 C 
ENDROOT
BRANCH   1   2
ATOM      2  C   UNL     1     140.577 148.163 137.964  1.00  0.00    -0.000 C 
BRANCH   2   3
ATOM      3  C   UNL     1     141.138 149.096 136.884  1.00  0.00    -0.003 C 
ATOM      4  C   UNL     1     142.110 150.109 137.480  1.00  0.00     0.004 C 
ENDBRANCH   2   3
ENDBRANCH   1   2
BRANCH   1   5
ATOM      5  C   UNL     1     140.190 148.583 140.457  1.00  0.00     0.008 C 
BRANCH   5   6
ATOM      6  C   UNL     1     140.473 149.779 141.378  1.00  0.00     0.072 C 
BRANCH   6   7
ATOM      7  C   UNL     1     141.911 150.193 141.287  1.00  0.00     0.224 C 
ATOM      8  O   UNL     1     142.629 150.157 142.275  1.00  0.00    -0.303 OA
ENDBRANCH   6   7
ENDBRANCH   5   6
ENDBRANCH   1   5
TORSDOF 5
ENDMDL
MODEL 9
REMARK VINA RESULT:    -2.425     11.052     12.370
REMARK INTER + INTRA:          -3.467
REMARK INTER:                  -3.235
REMARK INTRA:                  -0.232
REMARK UNBOUND:                -0.333
REMARK SMILES CCCCCCC=O
REMARK SMILES IDX 4 1 3 2 2 3 1 4 5 5 6 6 7 7 8 8
REMARK H PARENT
REMARK Flexibility Score: inf
ROOT
ATOM      1  C   UNL     1     133.726 141.555 139.700  1.00  0.00     0.000 C 
ENDROOT
BRANCH   1   2
ATOM      2  C   UNL     1     134.200 141.438 138.244  1.00  0.00    -0.000 C 
BRANCH   2   3
ATOM      3  C   UNL     1     133.597 140.199 137.570  1.00  0.00    -0.003 C 
ATOM      4  C   UNL     1     132.680 140.590 136.416  1.00  0.00     0.004 C 
ENDBRANCH   2   3
ENDBRANCH   1   2
BRANCH   1   5
ATOM      5  C   UNL     1     133.063 140.266 140.211  1.00  0.00     0.008 C 
BRANCH   5   6
ATOM      6  C   UNL     1     132.030 140.533 141.317  1.00  0.00     0.072 C 
BRANCH   6   7
ATOM      7  C   UNL     1     131.478 141.922 141.206  1.00  0.00     0.224 C 
ATOM      8  O   UNL     1     131.385 142.632 142.195  1.00  0.00    -0.303 OA
ENDBRANCH   6   7
ENDBRANCH   5   6
ENDBRANCH   1   5
TORSDOF 5
ENDMDL
