MODEL 1
REMARK VINA RESULT:    -3.920      0.000      0.000
REMARK INTER + INTRA:          -5.833
REMARK INTER:                  -5.295
REMARK INTRA:                  -0.538
REMARK UNBOUND:                -0.538
REMARK SMILES O=C[C@H](O)[C@@H](O)[C@@H](O)CO
REMARK SMILES IDX 7 1 9 2 10 3 5 5 3 6 2 7 1 8 4 9 6 11 8 13
REMARK H PARENT 10 4 4 10 6 12 8 14
REMARK Flexibility Score: inf
ROOT
ATOM      1  C   UNL     1      26.625  27.291  23.775  1.00  0.00     0.171 C 
ENDROOT
BRANCH   1   2
ATOM      2  C   UNL     1      25.667  26.143  24.157  1.00  0.00     0.190 C 
BRANCH   2   3
ATOM      3  O   UNL     1      24.657  25.988  23.200  1.00  0.00    -0.394 OA
ATOM      4  H   UNL     1      24.279  26.893  23.050  1.00  0.00     0.210 HD
ENDBRANCH   2   3
ENDBRANCH   1   2
BRANCH   1   5
ATOM      5  C   UNL     1      27.977  26.848  23.147  1.00  0.00     0.181 C 
BRANCH   5   6
ATOM      6  C   UNL     1      27.805  26.047  21.830  1.00  0.00     0.209 C 
BRANCH   6   7
ATOM      7  C   UNL     1      29.116  25.461  21.367  1.00  0.00     0.258 C 
ATOM      8  O   UNL     1      30.022  25.286  22.165  1.00  0.00    -0.300 OA
ENDBRANCH   6   7
BRANCH   6   9
ATOM      9  O   UNL     1      27.242  26.833  20.810  1.00  0.00    -0.383 OA
ATOM     10  H   UNL     1      27.982  27.170  20.239  1.00  0.00     0.211 HD
ENDBRANCH   6   9
ENDBRANCH   5   6
BRANCH   5  11
ATOM     11  O   UNL     1      28.825  27.951  22.933  1.00  0.00    -0.387 OA
ATOM     12  H   UNL     1      28.864  28.107  21.954  1.00  0.00     0.211 HD
ENDBRANCH   5  11
ENDBRANCH   1   5
BRANCH   1  13
ATOM     13  O   UNL     1      25.975  28.214  22.937  1.00  0.00    -0.388 OA
ATOM     14  H   UNL     1      26.102  27.916  21.998  1.00  0.00     0.211 HD
ENDBRANCH   1  13
TORSDOF 8
ENDMDL
MODEL 2
REMARK VINA RESULT:    -3.872      1.214      1.793
REMARK INTER + INTRA:          -5.769
REMARK INTER:                  -5.281
REMARK INTRA:                  -0.488
REMARK UNBOUND:                -0.538
REMARK SMILES O=C[C@H](O)[C@@H](O)[C@@H](O)CO
REMARK SMILES IDX 7 1 9 2 10 3 5 5 3 6 2 7 1 8 4 9 6 11 8 13
REMARK H PARENT 10 4 4 10 6 12 8 14
REMARK Flexibility Score: inf
ROOT
ATOM      1  C   UNL     1      25.517  27.164  23.127  1.00  0.00     0.171 C 
ENDROOT
BRANCH   1   2
ATOM      2  C   UNL     1      24.936  28.297  23.999  1.00  0.00     0.190 C 
BRANCH   2   3
ATOM      3  O   UNL     1      24.869  29.501  23.285  1.00  0.00    -0.394 OA
ATOM      4  H   UNL     1      24.530  30.181  23.923  1.00  0.00     0.210 HD
ENDBRANCH   2   3
ENDBRANCH   1   2
BRANCH   1   5
ATOM      5  C   UNL     1      27.064  27.008  23.185  1.00  0.00     0.181 C 
BRANCH   5   6
ATOM      6  C   UNL     1      27.642  26.215  21.984  1.00  0.00     0.209 C 
BRANCH   6   7
ATOM      7  C   UNL     1      29.135  26.042  22.106  1.00  0.00     0.258 C 
ATOM      8  O   UNL     1      29.879  26.983  21.885  1.00  0.00    -0.300 OA
ENDBRANCH   6   7
BRANCH   6   9
ATOM      9  O   UNL     1      27.326  26.822  20.755  1.00  0.00    -0.383 OA
ATOM     10  H   UNL     1      28.151  26.840  20.202  1.00  0.00     0.211 HD
ENDBRANCH   6   9
ENDBRANCH   5   6
BRANCH   5  11
ATOM     11  O   UNL     1      27.699  28.259  23.287  1.00  0.00    -0.387 OA
ATOM     12  H   UNL     1      28.678  28.097  23.260  1.00  0.00     0.211 HD
ENDBRANCH   5  11
ENDBRANCH   1   5
BRANCH   1  13
ATOM     13  O   UNL     1      24.890  25.942  23.428  1.00  0.00    -0.388 OA
ATOM     14  H   UNL     1      24.249  25.740  22.697  1.00  0.00     0.211 HD
ENDBRANCH   1  13
TORSDOF 8
ENDMDL
MODEL 3
REMARK VINA RESULT:    -3.561      1.352      3.969
REMARK INTER + INTRA:          -5.348
REMARK INTER:                  -4.723
REMARK INTRA:                  -0.625
REMARK UNBOUND:                -0.538
REMARK SMILES O=C[C@H](O)[C@@H](O)[C@@H](O)CO
REMARK SMILES IDX 7 1 9 2 10 3 5 5 3 6 2 7 1 8 4 9 6 11 8 13
REMARK H PARENT 10 4 4 10 6 12 8 14
REMARK Flexibility Score: inf
ROOT
ATOM      1  C   UNL     1      27.576  26.441  22.008  1.00  0.00     0.171 C 
ENDROOT
BRANCH   1   2
ATOM      2  C   UNL     1      29.115  26.375  21.911  1.00  0.00     0.190 C 
BRANCH   2   3
ATOM      3  O   UNL     1      29.695  27.610  22.228  1.00  0.00    -0.394 OA
ATOM      4  H   UNL     1      29.963  27.551  23.182  1.00  0.00     0.210 HD
ENDBRANCH   2   3
ENDBRANCH   1   2
BRANCH   1   5
ATOM      5  C   UNL     1      27.019  27.329  23.157  1.00  0.00     0.181 C 
BRANCH   5   6
ATOM      6  C   UNL     1      25.472  27.291  23.263  1.00  0.00     0.209 C 
BRANCH   6   7
ATOM      7  C   UNL     1      24.999  27.821  24.593  1.00  0.00     0.258 C 
ATOM      8  O   UNL     1      25.579  28.756  25.120  1.00  0.00    -0.300 OA
ENDBRANCH   6   7
BRANCH   6   9
ATOM      9  O   UNL     1      24.966  25.996  23.052  1.00  0.00    -0.383 OA
ATOM     10  H   UNL     1      25.509  25.363  23.592  1.00  0.00     0.211 HD
ENDBRANCH   6   9
ENDBRANCH   5   6
BRANCH   5  11
ATOM     11  O   UNL     1      27.596  26.983  24.392  1.00  0.00    -0.387 OA
ATOM     12  H   UNL     1      28.563  26.823  24.233  1.00  0.00     0.211 HD
ENDBRANCH   5  11
ENDBRANCH   1   5
BRANCH   1  13
ATOM     13  O   UNL     1      27.023  26.833  20.775  1.00  0.00    -0.388 OA
ATOM     14  H   UNL     1      27.741  26.784  20.090  1.00  0.00     0.211 HD
ENDBRANCH   1  13
TORSDOF 8
ENDMDL
MODEL 4
REMARK VINA RESULT:    -3.560      1.131      1.810
REMARK INTER + INTRA:          -5.348
REMARK INTER:                  -5.086
REMARK INTRA:                  -0.261
REMARK UNBOUND:                -0.538
REMARK SMILES O=C[C@H](O)[C@@H](O)[C@@H](O)CO
REMARK SMILES IDX 7 1 9 2 10 3 5 5 3 6 2 7 1 8 4 9 6 11 8 13
REMARK H PARENT 10 4 4 10 6 12 8 14
REMARK Flexibility Score: inf
ROOT
ATOM      1  C   UNL     1      25.560  26.029  23.483  1.00  0.00     0.171 C 
ENDROOT
BRANCH   1   2
ATOM      2  C   UNL     1      25.017  26.183  24.920  1.00  0.00     0.190 C 
BRANCH   2   3
ATOM      3  O   UNL     1      23.749  25.602  25.046  1.00  0.00    -0.394 OA
ATOM      4  H   UNL     1      23.897  24.699  25.430  1.00  0.00     0.210 HD
ENDBRANCH   2   3
ENDBRANCH   1   2
BRANCH   1   5
ATOM      5  C   UNL     1      26.883  26.791  23.187  1.00  0.00     0.181 C 
BRANCH   5   6
ATOM      6  C   UNL     1      27.676  26.196  21.994  1.00  0.00     0.209 C 
BRANCH   6   7
ATOM      7  C   UNL     1      29.163  26.265  22.232  1.00  0.00     0.258 C 
ATOM      8  O   UNL     1      29.686  27.327  22.531  1.00  0.00    -0.300 OA
ENDBRANCH   6   7
BRANCH   6   9
ATOM      9  O   UNL     1      27.352  26.832  20.782  1.00  0.00    -0.383 OA
ATOM     10  H   UNL     1      26.493  26.452  20.458  1.00  0.00     0.211 HD
ENDBRANCH   6   9
ENDBRANCH   5   6
BRANCH   5  11
ATOM     11  O   UNL     1      26.645  28.161  22.972  1.00  0.00    -0.387 OA
ATOM     12  H   UNL     1      27.338  28.664  23.474  1.00  0.00     0.211 HD
ENDBRANCH   5  11
ENDBRANCH   1   5
BRANCH   1  13
ATOM     13  O   UNL     1      25.693  24.669  23.152  1.00  0.00    -0.388 OA
ATOM     14  H   UNL     1      25.095  24.483  22.381  1.00  0.00     0.211 HD
ENDBRANCH   1  13
TORSDOF 8
ENDMDL
MODEL 5
REMARK VINA RESULT:    -3.541      1.217      3.987
REMARK INTER + INTRA:          -5.321
REMARK INTER:                  -4.703
REMARK INTRA:                  -0.618
REMARK UNBOUND:                -0.538
REMARK SMILES O=C[C@H](O)[C@@H](O)[C@@H](O)CO
REMARK SMILES IDX 7 1 9 2 10 3 5 5 3 6 2 7 1 8 4 9 6 11 8 13
REMARK H PARENT 10 4 4 10 6 12 8 14
REMARK Flexibility Score: inf
ROOT
ATOM      1  C   UNL     1      29.321  26.270  21.686  1.00  0.00     0.171 C 
ENDROOT
BRANCH   1   2
ATOM      2  C   UNL     1      30.184  25.653  22.807  1.00  0.00     0.190 C 
BRANCH   2   3
ATOM      3  O   UNL     1      30.855  26.646  23.533  1.00  0.00    -0.394 OA
ATOM      4  H   UNL     1      31.553  27.005  22.927  1.00  0.00     0.210 HD
ENDBRANCH   2   3
ENDBRANCH   1   2
BRANCH   1   5
ATOM      5  C   UNL     1      27.803  26.386  22.002  1.00  0.00     0.181 C 
BRANCH   5   6
ATOM      6  C   UNL     1      27.506  27.213  23.280  1.00  0.00     0.209 C 
BRANCH   6   7
ATOM      7  C   UNL     1      26.032  27.493  23.424  1.00  0.00     0.258 C 
ATOM      8  O   UNL     1      25.218  26.606  23.225  1.00  0.00    -0.300 OA
ENDBRANCH   6   7
BRANCH   6   9
ATOM      9  O   UNL     1      28.231  28.418  23.303  1.00  0.00    -0.383 OA
ATOM     10  H   UNL     1      28.675  28.525  22.421  1.00  0.00     0.211 HD
ENDBRANCH   6   9
ENDBRANCH   5   6
BRANCH   5  11
ATOM     11  O   UNL     1      27.095  26.918  20.908  1.00  0.00    -0.387 OA
ATOM     12  H   UNL     1      26.238  27.278  21.258  1.00  0.00     0.211 HD
ENDBRANCH   5  11
ENDBRANCH   1   5
BRANCH   1  13
ATOM     13  O   UNL     1      29.838  27.521  21.301  1.00  0.00    -0.388 OA
ATOM     14  H   UNL     1      30.072  28.021  22.126  1.00  0.00     0.211 HD
ENDBRANCH   1  13
TORSDOF 8
ENDMDL
MODEL 6
REMARK VINA RESULT:    -3.453      2.181      3.862
REMARK INTER + INTRA:          -5.202
REMARK INTER:                  -4.507
REMARK INTRA:                  -0.695
REMARK UNBOUND:                -0.538
REMARK SMILES O=C[C@H](O)[C@@H](O)[C@@H](O)CO
REMARK SMILES IDX 7 1 9 2 10 3 5 5 3 6 2 7 1 8 4 9 6 11 8 13
REMARK H PARENT 10 4 4 10 6 12 8 14
REMARK Flexibility Score: inf
ROOT
ATOM      1  C   UNL     1      29.398  26.127  21.888  1.00  0.00     0.171 C 
ENDROOT
BRANCH   1   2
ATOM      2  C   UNL     1      27.897  25.824  21.702  1.00  0.00     0.190 C 
BRANCH   2   3
ATOM      3  O   UNL     1      27.275  26.809  20.923  1.00  0.00    -0.394 OA
ATOM      4  H   UNL     1      26.742  27.361  21.553  1.00  0.00     0.210 HD
ENDBRANCH   2   3
ENDBRANCH   1   2
BRANCH   1   5
ATOM      5  C   UNL     1      29.736  27.152  23.008  1.00  0.00     0.181 C 
BRANCH   5   6
ATOM      6  C   UNL     1      31.193  27.679  22.934  1.00  0.00     0.209 C 
BRANCH   6   7
ATOM      7  C   UNL     1      31.376  28.633  21.781  1.00  0.00     0.258 C 
ATOM      8  O   UNL     1      31.204  29.830  21.946  1.00  0.00    -0.300 OA
ENDBRANCH   6   7
BRANCH   6   9
ATOM      9  O   UNL     1      32.125  26.629  22.843  1.00  0.00    -0.383 OA
ATOM     10  H   UNL     1      32.908  26.958  22.328  1.00  0.00     0.211 HD
ENDBRANCH   6   9
ENDBRANCH   5   6
BRANCH   5  11
ATOM     11  O   UNL     1      28.833  28.231  23.000  1.00  0.00    -0.387 OA
ATOM     12  H   UNL     1      28.067  27.970  22.424  1.00  0.00     0.211 HD
ENDBRANCH   5  11
ENDBRANCH   1   5
BRANCH   1  13
ATOM     13  O   UNL     1      30.120  24.935  22.081  1.00  0.00    -0.388 OA
ATOM     14  H   UNL     1      30.199  24.782  23.059  1.00  0.00     0.211 HD
ENDBRANCH   1  13
TORSDOF 8
ENDMDL
MODEL 7
REMARK VINA RESULT:    -3.412      1.690      2.142
REMARK INTER + INTRA:          -5.147
REMARK INTER:                  -4.491
REMARK INTRA:                  -0.656
REMARK UNBOUND:                -0.538
REMARK SMILES O=C[C@H](O)[C@@H](O)[C@@H](O)CO
REMARK SMILES IDX 7 1 9 2 10 3 5 5 3 6 2 7 1 8 4 9 6 11 8 13
REMARK H PARENT 10 4 4 10 6 12 8 14
REMARK Flexibility Score: inf
ROOT
ATOM      1  C   UNL     1      26.931  26.602  22.624  1.00  0.00     0.171 C 
ENDROOT
BRANCH   1   2
ATOM      2  C   UNL     1      25.743  27.036  23.508  1.00  0.00     0.190 C 
BRANCH   2   3
ATOM      3  O   UNL     1      25.350  28.349  23.218  1.00  0.00    -0.394 OA
ATOM      4  H   UNL     1      25.012  28.336  22.285  1.00  0.00     0.210 HD
ENDBRANCH   2   3
ENDBRANCH   1   2
BRANCH   1   5
ATOM      5  C   UNL     1      28.330  27.080  23.108  1.00  0.00     0.181 C 
BRANCH   5   6
ATOM      6  C   UNL     1      29.482  26.657  22.160  1.00  0.00     0.209 C 
BRANCH   6   7
ATOM      7  C   UNL     1      30.741  27.438  22.441  1.00  0.00     0.258 C 
ATOM      8  O   UNL     1      30.967  28.472  21.834  1.00  0.00    -0.300 OA
ENDBRANCH   6   7
BRANCH   6   9
ATOM      9  O   UNL     1      29.122  26.792  20.807  1.00  0.00    -0.383 OA
ATOM     10  H   UNL     1      28.656  27.663  20.700  1.00  0.00     0.211 HD
ENDBRANCH   6   9
ENDBRANCH   5   6
BRANCH   5  11
ATOM     11  O   UNL     1      28.352  28.474  23.302  1.00  0.00    -0.387 OA
ATOM     12  H   UNL     1      27.777  28.672  24.087  1.00  0.00     0.211 HD
ENDBRANCH   5  11
ENDBRANCH   1   5
BRANCH   1  13
ATOM     13  O   UNL     1      26.926  25.207  22.444  1.00  0.00    -0.388 OA
ATOM     14  H   UNL     1      27.514  24.808  23.139  1.00  0.00     0.211 HD
ENDBRANCH   1  13
TORSDOF 8
ENDMDL
MODEL 8
REMARK VINA RESULT:    -3.392      1.445      4.236
REMARK INTER + INTRA:          -5.120
REMARK INTER:                  -4.406
REMARK INTRA:                  -0.714
REMARK UNBOUND:                -0.538
REMARK SMILES O=C[C@H](O)[C@@H](O)[C@@H](O)CO
REMARK SMILES IDX 7 1 9 2 10 3 5 5 3 6 2 7 1 8 4 9 6 11 8 13
REMARK H PARENT 10 4 4 10 6 12 8 14
REMARK Flexibility Score: inf
ROOT
ATOM      1  C   UNL     1      27.716  27.045  22.990  1.00  0.00     0.171 C 
ENDROOT
BRANCH   1   2
ATOM      2  C   UNL     1      27.882  26.180  21.723  1.00  0.00     0.190 C 
BRANCH   2   3
ATOM      3  O   UNL     1      27.304  26.800  20.607  1.00  0.00    -0.394 OA
ATOM      4  H   UNL     1      27.236  26.101  19.907  1.00  0.00     0.210 HD
ENDBRANCH   2   3
ENDBRANCH   1   2
BRANCH   1   5
ATOM      5  C   UNL     1      26.332  26.941  23.691  1.00  0.00     0.181 C 
BRANCH   5   6
ATOM      6  C   UNL     1      26.041  28.127  24.646  1.00  0.00     0.209 C 
BRANCH   6   7
ATOM      7  C   UNL     1      24.661  28.691  24.419  1.00  0.00     0.258 C 
ATOM      8  O   UNL     1      24.479  29.530  23.552  1.00  0.00    -0.300 OA
ENDBRANCH   6   7
BRANCH   6   9
ATOM      9  O   UNL     1      27.004  29.145  24.525  1.00  0.00    -0.383 OA
ATOM     10  H   UNL     1      27.901  28.731  24.630  1.00  0.00     0.211 HD
ENDBRANCH   6   9
ENDBRANCH   5   6
BRANCH   5  11
ATOM     11  O   UNL     1      25.293  26.813  22.750  1.00  0.00    -0.387 OA
ATOM     12  H   UNL     1      24.442  27.014  23.221  1.00  0.00     0.211 HD
ENDBRANCH   5  11
ENDBRANCH   1   5
BRANCH   1  13
ATOM     13  O   UNL     1      28.750  26.778  23.905  1.00  0.00    -0.388 OA
ATOM     14  H   UNL     1      28.945  27.618  24.398  1.00  0.00     0.211 HD
ENDBRANCH   1  13
TORSDOF 8
ENDMDL
MODEL 9
REMARK VINA RESULT:    -3.375      1.903      3.104
REMARK INTER + INTRA:          -5.097
REMARK INTER:                  -4.372
REMARK INTRA:                  -0.724
REMARK UNBOUND:                -0.538
REMARK SMILES O=C[C@H](O)[C@@H](O)[C@@H](O)CO
REMARK SMILES IDX 7 1 9 2 10 3 5 5 3 6 2 7 1 8 4 9 6 11 8 13
REMARK H PARENT 10 4 4 10 6 12 8 14
REMARK Flexibility Score: inf
ROOT
ATOM      1  C   UNL     1      28.530  27.035  22.954  1.00  0.00     0.171 C 
ENDROOT
BRANCH   1   2
ATOM      2  C   UNL     1      27.143  26.699  22.366  1.00  0.00     0.190 C 
BRANCH   2   3
ATOM      3  O   UNL     1      27.131  26.863  20.975  1.00  0.00    -0.394 OA
ATOM      4  H   UNL     1      27.541  27.749  20.799  1.00  0.00     0.210 HD
ENDBRANCH   2   3
ENDBRANCH   1   2
BRANCH   1   5
ATOM      5  C   UNL     1      29.744  26.600  22.085  1.00  0.00     0.181 C 
BRANCH   5   6
ATOM      6  C   UNL     1      31.110  26.854  22.774  1.00  0.00     0.209 C 
BRANCH   6   7
ATOM      7  C   UNL     1      31.231  26.077  24.061  1.00  0.00     0.258 C 
ATOM      8  O   UNL     1      31.365  24.865  24.032  1.00  0.00    -0.300 OA
ENDBRANCH   6   7
BRANCH   6   9
ATOM      9  O   UNL     1      31.328  28.223  23.015  1.00  0.00    -0.383 OA
ATOM     10  H   UNL     1      32.066  28.303  23.675  1.00  0.00     0.211 HD
ENDBRANCH   6   9
ENDBRANCH   5   6
BRANCH   5  11
ATOM     11  O   UNL     1      29.640  25.250  21.704  1.00  0.00    -0.387 OA
ATOM     12  H   UNL     1      30.533  24.966  21.375  1.00  0.00     0.211 HD
ENDBRANCH   5  11
ENDBRANCH   1   5
BRANCH   1  13
ATOM     13  O   UNL     1      28.614  28.404  23.263  1.00  0.00    -0.388 OA
ATOM     14  H   UNL     1      27.989  28.891  22.664  1.00  0.00     0.211 HD
ENDBRANCH   1  13
TORSDOF 8
ENDMDL
