MODEL 1
REMARK VINA RESULT:     3.830      0.000      0.000
REMARK INTER + INTRA:           8.161
REMARK INTER:                   5.174
REMARK INTRA:                   2.987
REMARK UNBOUND:                 2.987
REMARK SMILES CC[C@H](CC[C@H](C)[C@H]1CC[C@@H]2[C@H]3CC(=O)C4=CC(=O)CC[C@]4(C)[C@H]3CC[C@@]21C)C(C)C
REMARK SMILES IDX 4 1 3 2 2 3 1 4 29 5 30 6 31 7 5 8 6 9 7 10 8 11 9 12 27 13
REMARK SMILES IDX 10 14 11 15 26 16 28 17 12 18 25 19 24 20 13 21 22 22 14 23
REMARK SMILES IDX 16 24 21 25 23 26 15 27 17 28 20 29 18 30 19 31
REMARK H PARENT
REMARK Flexibility Score: inf
ROOT
ATOM      1  C   UNL     1      -4.006  44.138  10.209  1.00  0.00     0.004 C 
ENDROOT
BRANCH   1   2
ATOM      2  C   UNL     1      -3.429  43.199   9.111  1.00  0.00    -0.009 C 
BRANCH   2   3
ATOM      3  C   UNL     1      -1.877  43.175   9.163  1.00  0.00     0.000 C 
ATOM      4  C   UNL     1      -1.331  42.263  10.264  1.00  0.00     0.004 C 
ENDBRANCH   2   3
BRANCH   2   5
ATOM      5  C   UNL     1      -4.046  41.758   9.198  1.00  0.00    -0.014 C 
ATOM      6  C   UNL     1      -5.559  41.711   8.920  1.00  0.00     0.007 C 
ATOM      7  C   UNL     1      -3.736  41.090  10.548  1.00  0.00     0.007 C 
ENDBRANCH   2   5
ENDBRANCH   1   2
BRANCH   1   8
ATOM      8  C   UNL     1      -4.501  45.487   9.642  1.00  0.00     0.004 C 
BRANCH   8   9
ATOM      9  C   UNL     1      -4.918  46.539  10.721  1.00  0.00    -0.011 C 
ATOM     10  C   UNL     1      -6.126  47.334  10.161  1.00  0.00     0.008 C 
BRANCH   9  11
ATOM     11  C   UNL     1      -3.750  47.488  11.242  1.00  0.00    -0.002 C 
ATOM     12  C   UNL     1      -4.065  48.099  12.627  1.00  0.00     0.005 C 
ATOM     13  C   UNL     1      -2.343  46.819  11.495  1.00  0.00    -0.026 C 
ATOM     14  C   UNL     1      -3.490  47.151  13.666  1.00  0.00     0.005 C 
ATOM     15  C   UNL     1      -2.476  46.249  12.940  1.00  0.00    -0.001 C 
ATOM     16  C   UNL     1      -1.236  47.922  11.398  1.00  0.00     0.007 C 
ATOM     17  C   UNL     1      -1.986  45.708  10.481  1.00  0.00     0.012 C 
ATOM     18  C   UNL     1      -1.158  46.076  13.761  1.00  0.00     0.004 C 
ATOM     19  C   UNL     1       0.069  47.570  12.120  1.00  0.00     0.005 C 
ATOM     20  C   UNL     1      -0.180  47.270  13.617  1.00  0.00     0.003 C 
ATOM     21  C   UNL     1      -0.450  44.739  13.463  1.00  0.00     0.085 C 
ATOM     22  C   UNL     1       1.131  47.115  14.528  1.00  0.00    -0.000 C 
ATOM     23  C   UNL     1       0.702  44.544  14.392  1.00  0.00     0.159 C 
ATOM     24  C   UNL     1       1.280  45.700  15.111  1.00  0.00     0.005 C 
ATOM     25  C   UNL     1       1.011  48.123  15.713  1.00  0.00     0.020 C 
ATOM     26  C   UNL     1       2.438  47.415  13.745  1.00  0.00     0.017 C 
ATOM     27  O   UNL     1       1.172  43.384  14.554  1.00  0.00    -0.295 OA
ATOM     28  C   UNL     1       1.964  45.488  16.252  1.00  0.00     0.055 C 
ATOM     29  C   UNL     1       2.167  48.025  16.718  1.00  0.00     0.081 C 
ATOM     30  C   UNL     1       2.467  46.600  17.074  1.00  0.00     0.156 C 
ATOM     31  O   UNL     1       3.184  46.348  18.082  1.00  0.00    -0.295 OA
ENDBRANCH   9  11
ENDBRANCH   8   9
ENDBRANCH   1   8
TORSDOF 6
ENDMDL
MODEL 2
REMARK VINA RESULT:     5.238      1.651      3.037
REMARK INTER + INTRA:          10.062
REMARK INTER:                   9.179
REMARK INTRA:                   0.883
REMARK UNBOUND:                 2.987
REMARK SMILES CC[C@H](CC[C@H](C)[C@H]1CC[C@@H]2[C@H]3CC(=O)C4=CC(=O)CC[C@]4(C)[C@H]3CC[C@@]21C)C(C)C
REMARK SMILES IDX 4 1 3 2 2 3 1 4 29 5 30 6 31 7 5 8 6 9 7 10 8 11 9 12 27 13
REMARK SMILES IDX 10 14 11 15 26 16 28 17 12 18 25 19 24 20 13 21 22 22 14 23
REMARK SMILES IDX 16 24 21 25 23 26 15 27 17 28 20 29 18 30 19 31
REMARK H PARENT
REMARK Flexibility Score: inf
ROOT
ATOM      1  C   UNL     1      -3.647  46.333  11.206  1.00  0.00     0.004 C 
ENDROOT
BRANCH   1   2
ATOM      2  C   UNL     1      -4.315  45.803   9.905  1.00  0.00    -0.009 C 
BRANCH   2   3
ATOM      3  C   UNL     1      -5.222  46.891   9.267  1.00  0.00     0.000 C 
ATOM      4  C   UNL     1      -5.516  48.055  10.217  1.00  0.00     0.004 C 
ENDBRANCH   2   3
BRANCH   2   5
ATOM      5  C   UNL     1      -3.253  45.248   8.892  1.00  0.00    -0.014 C 
ATOM      6  C   UNL     1      -2.886  43.771   9.120  1.00  0.00     0.007 C 
ATOM      7  C   UNL     1      -1.981  46.112   8.875  1.00  0.00     0.007 C 
ENDBRANCH   2   5
ENDBRANCH   1   2
BRANCH   1   8
ATOM      8  C   UNL     1      -4.074  45.543  12.463  1.00  0.00     0.004 C 
BRANCH   8   9
ATOM      9  C   UNL     1      -4.182  46.396  13.769  1.00  0.00    -0.011 C 
ATOM     10  C   UNL     1      -5.565  47.097  13.760  1.00  0.00     0.008 C 
BRANCH   9  11
ATOM     11  C   UNL     1      -2.983  47.411  14.027  1.00  0.00    -0.002 C 
ATOM     12  C   UNL     1      -2.866  47.814  15.515  1.00  0.00     0.005 C 
ATOM     13  C   UNL     1      -1.526  46.892  13.716  1.00  0.00    -0.026 C 
ATOM     14  C   UNL     1      -1.909  46.828  16.163  1.00  0.00     0.005 C 
ATOM     15  C   UNL     1      -1.128  46.146  15.025  1.00  0.00    -0.001 C 
ATOM     16  C   UNL     1      -0.600  48.125  13.438  1.00  0.00     0.007 C 
ATOM     17  C   UNL     1      -1.442  45.958  12.486  1.00  0.00     0.012 C 
ATOM     18  C   UNL     1       0.396  46.038  15.348  1.00  0.00     0.004 C 
ATOM     19  C   UNL     1       0.893  47.851  13.646  1.00  0.00     0.005 C 
ATOM     20  C   UNL     1       1.178  47.351  15.082  1.00  0.00     0.003 C 
ATOM     21  C   UNL     1       1.065  44.840  14.644  1.00  0.00     0.085 C 
ATOM     22  C   UNL     1       2.725  47.249  15.494  1.00  0.00    -0.000 C 
ATOM     23  C   UNL     1       2.471  44.679  15.118  1.00  0.00     0.159 C 
ATOM     24  C   UNL     1       3.166  45.805  15.780  1.00  0.00     0.005 C 
ATOM     25  C   UNL     1       2.929  48.091  16.792  1.00  0.00     0.020 C 
ATOM     26  C   UNL     1       3.671  47.794  14.390  1.00  0.00     0.017 C 
ATOM     27  O   UNL     1       3.055  43.574  14.946  1.00  0.00    -0.295 OA
ATOM     28  C   UNL     1       4.204  45.544  16.599  1.00  0.00     0.055 C 
ATOM     29  C   UNL     1       4.357  48.016  17.350  1.00  0.00     0.081 C 
ATOM     30  C   UNL     1       4.865  46.605  17.375  1.00  0.00     0.156 C 
ATOM     31  O   UNL     1       5.892  46.326  18.052  1.00  0.00    -0.295 OA
ENDBRANCH   9  11
ENDBRANCH   8   9
ENDBRANCH   1   8
TORSDOF 6
ENDMDL
MODEL 3
REMARK VINA RESULT:     6.808     17.521     20.513
REMARK INTER + INTRA:          12.183
REMARK INTER:                  10.408
REMARK INTRA:                   1.775
REMARK UNBOUND:                 2.987
REMARK SMILES CC[C@H](CC[C@H](C)[C@H]1CC[C@@H]2[C@H]3CC(=O)C4=CC(=O)CC[C@]4(C)[C@H]3CC[C@@]21C)C(C)C
REMARK SMILES IDX 4 1 3 2 2 3 1 4 29 5 30 6 31 7 5 8 6 9 7 10 8 11 9 12 27 13
REMARK SMILES IDX 10 14 11 15 26 16 28 17 12 18 25 19 24 20 13 21 22 22 14 23
REMARK SMILES IDX 16 24 21 25 23 26 15 27 17 28 20 29 18 30 19 31
REMARK H PARENT
REMARK Flexibility Score: inf
ROOT
ATOM      1  C   UNL     1      -9.563  31.527  27.549  1.00  0.00     0.004 C 
ENDROOT
BRANCH   1   2
ATOM      2  C   UNL     1      -8.924  32.913  27.848  1.00  0.00    -0.009 C 
BRANCH   2   3
ATOM      3  C   UNL     1      -7.740  32.773  28.844  1.00  0.00     0.000 C 
ATOM      4  C   UNL     1      -6.375  32.763  28.150  1.00  0.00     0.004 C 
ENDBRANCH   2   3
BRANCH   2   5
ATOM      5  C   UNL     1      -8.505  33.654  26.530  1.00  0.00    -0.014 C 
ATOM      6  C   UNL     1      -8.093  35.121  26.744  1.00  0.00     0.007 C 
ATOM      7  C   UNL     1      -9.602  33.565  25.456  1.00  0.00     0.007 C 
ENDBRANCH   2   5
ENDBRANCH   1   2
BRANCH   1   8
ATOM      8  C   UNL     1      -8.655  30.348  27.961  1.00  0.00     0.004 C 
BRANCH   8   9
ATOM      9  C   UNL     1      -9.119  28.948  27.442  1.00  0.00    -0.011 C 
ATOM     10  C   UNL     1      -8.536  27.875  28.398  1.00  0.00     0.008 C 
BRANCH   9  11
ATOM     11  C   UNL     1      -8.800  28.643  25.912  1.00  0.00    -0.002 C 
ATOM     12  C   UNL     1     -10.059  28.746  25.019  1.00  0.00     0.005 C 
ATOM     13  C   UNL     1      -7.802  29.622  25.180  1.00  0.00    -0.026 C 
ATOM     14  C   UNL     1     -10.124  30.179  24.517  1.00  0.00     0.005 C 
ATOM     15  C   UNL     1      -8.726  30.790  24.718  1.00  0.00    -0.001 C 
ATOM     16  C   UNL     1      -7.157  28.869  23.967  1.00  0.00     0.007 C 
ATOM     17  C   UNL     1      -6.653  30.133  26.079  1.00  0.00     0.012 C 
ATOM     18  C   UNL     1      -8.265  31.613  23.473  1.00  0.00     0.004 C 
ATOM     19  C   UNL     1      -6.604  29.791  22.876  1.00  0.00     0.005 C 
ATOM     20  C   UNL     1      -7.702  30.733  22.327  1.00  0.00     0.003 C 
ATOM     21  C   UNL     1      -7.280  32.740  23.843  1.00  0.00     0.085 C 
ATOM     22  C   UNL     1      -7.308  31.584  21.025  1.00  0.00    -0.000 C 
ATOM     23  C   UNL     1      -7.006  33.600  22.654  1.00  0.00     0.159 C 
ATOM     24  C   UNL     1      -7.290  33.097  21.292  1.00  0.00     0.005 C 
ATOM     25  C   UNL     1      -8.374  31.293  19.924  1.00  0.00     0.020 C 
ATOM     26  C   UNL     1      -5.904  31.212  20.474  1.00  0.00     0.017 C 
ATOM     27  O   UNL     1      -6.532  34.757  22.828  1.00  0.00    -0.295 OA
ATOM     28  C   UNL     1      -7.492  33.982  20.296  1.00  0.00     0.055 C 
ATOM     29  C   UNL     1      -8.167  32.110  18.640  1.00  0.00     0.081 C 
ATOM     30  C   UNL     1      -7.889  33.551  18.946  1.00  0.00     0.156 C 
ATOM     31  O   UNL     1      -7.972  34.409  18.024  1.00  0.00    -0.295 OA
ENDBRANCH   9  11
ENDBRANCH   8   9
ENDBRANCH   1   8
TORSDOF 6
ENDMDL
