MODEL 1
REMARK VINA RESULT:    -5.755      0.000      0.000
REMARK INTER + INTRA:          -6.643
REMARK INTER:                  -6.596
REMARK INTRA:                  -0.047
REMARK UNBOUND:                -0.047
REMARK SMILES O=C([O-])c1cc(O)c(O)c(O)c1
REMARK SMILES IDX 4 1 5 2 12 3 6 4 10 5 8 6 2 7 1 8 3 9 7 10 11 12 9 14
REMARK H PARENT 7 11 11 13 9 15
REMARK Flexibility Score: inf
ROOT
ATOM      1  C   UNL     1       8.489  -0.247 -30.632  1.00  0.00     0.005 A 
ATOM      2  C   UNL     1       7.788  -1.461 -30.718  1.00  0.00     0.060 A 
ATOM      3  C   UNL     1       9.431  -0.078 -29.606  1.00  0.00     0.060 A 
ATOM      4  C   UNL     1       8.017  -2.494 -29.802  1.00  0.00     0.162 A 
ATOM      5  C   UNL     1       9.670  -1.104 -28.682  1.00  0.00     0.162 A 
ATOM      6  C   UNL     1       8.969  -2.315 -28.770  1.00  0.00     0.200 A 
ENDROOT
BRANCH   1   7
ATOM      7  C   UNL     1       8.240   0.840 -31.604  1.00  0.00     0.072 C 
ATOM      8  O   UNL     1       7.959   2.003 -31.208  1.00  0.00    -0.545 OA
ATOM      9  O   UNL     1       8.313   0.594 -32.970  1.00  0.00    -0.545 OA
ENDBRANCH   1   7
BRANCH   4  10
ATOM     10  O   UNL     1       7.282  -3.672 -29.953  1.00  0.00    -0.504 OA
ATOM     11  H   UNL     1       7.302  -4.250 -30.781  1.00  0.00     0.293 HD
ENDBRANCH   4  10
BRANCH   5  12
ATOM     12  O   UNL     1      10.608  -0.926 -27.666  1.00  0.00    -0.504 OA
ATOM     13  H   UNL     1      11.562  -0.650 -27.867  1.00  0.00     0.293 HD
ENDBRANCH   5  12
BRANCH   6  14
ATOM     14  O   UNL     1       9.246  -3.304 -27.825  1.00  0.00    -0.502 OA
ATOM     15  H   UNL     1       8.882  -4.245 -27.865  1.00  0.00     0.293 HD
ENDBRANCH   6  14
TORSDOF 4
ENDMDL
MODEL 2
REMARK VINA RESULT:    -5.696      0.264      2.449
REMARK INTER + INTRA:          -6.575
REMARK INTER:                  -6.531
REMARK INTRA:                  -0.045
REMARK UNBOUND:                -0.047
REMARK SMILES O=C([O-])c1cc(O)c(O)c(O)c1
REMARK SMILES IDX 4 1 5 2 12 3 6 4 10 5 8 6 2 7 1 8 3 9 7 10 11 12 9 14
REMARK H PARENT 7 11 11 13 9 15
REMARK Flexibility Score: inf
ROOT
ATOM      1  C   UNL     1       8.517  -0.199 -30.752  1.00  0.00     0.005 A 
ATOM      2  C   UNL     1       9.487  -0.059 -29.745  1.00  0.00     0.060 A 
ATOM      3  C   UNL     1       7.765  -1.381 -30.812  1.00  0.00     0.060 A 
ATOM      4  C   UNL     1       9.708  -1.077 -28.810  1.00  0.00     0.162 A 
ATOM      5  C   UNL     1       7.976  -2.408 -29.881  1.00  0.00     0.162 A 
ATOM      6  C   UNL     1       8.944  -2.266 -28.878  1.00  0.00     0.200 A 
ENDROOT
BRANCH   1   7
ATOM      7  C   UNL     1       8.290   0.882 -31.738  1.00  0.00     0.072 C 
ATOM      8  O   UNL     1       7.558   1.867 -31.451  1.00  0.00    -0.545 OA
ATOM      9  O   UNL     1       8.882   0.825 -32.994  1.00  0.00    -0.545 OA
ENDBRANCH   1   7
BRANCH   4  10
ATOM     10  O   UNL     1      10.688  -0.865 -27.838  1.00  0.00    -0.504 OA
ATOM     11  H   UNL     1      10.559  -1.051 -26.855  1.00  0.00     0.293 HD
ENDBRANCH   4  10
BRANCH   5  12
ATOM     12  O   UNL     1       7.223  -3.579 -29.950  1.00  0.00    -0.504 OA
ATOM     13  H   UNL     1       7.548  -4.390 -30.463  1.00  0.00     0.293 HD
ENDBRANCH   5  12
BRANCH   6  14
ATOM     14  O   UNL     1       9.113  -3.319 -27.977  1.00  0.00    -0.502 OA
ATOM     15  H   UNL     1       8.391  -3.659 -27.359  1.00  0.00     0.293 HD
ENDBRANCH   6  14
TORSDOF 4
ENDMDL
MODEL 3
REMARK VINA RESULT:    -5.551     11.807     14.071
REMARK INTER + INTRA:          -6.409
REMARK INTER:                  -6.364
REMARK INTRA:                  -0.045
REMARK UNBOUND:                -0.047
REMARK SMILES O=C([O-])c1cc(O)c(O)c(O)c1
REMARK SMILES IDX 4 1 5 2 12 3 6 4 10 5 8 6 2 7 1 8 3 9 7 10 11 12 9 14
REMARK H PARENT 7 11 11 13 9 15
REMARK Flexibility Score: inf
ROOT
ATOM      1  C   UNL     1      14.788   0.989 -17.779  1.00  0.00     0.005 A 
ATOM      2  C   UNL     1      14.083   1.408 -16.639  1.00  0.00     0.060 A 
ATOM      3  C   UNL     1      14.282   1.312 -19.047  1.00  0.00     0.060 A 
ATOM      4  C   UNL     1      12.894   2.137 -16.752  1.00  0.00     0.162 A 
ATOM      5  C   UNL     1      13.092   2.042 -19.175  1.00  0.00     0.162 A 
ATOM      6  C   UNL     1      12.391   2.458 -18.035  1.00  0.00     0.200 A 
ENDROOT
BRANCH   1   7
ATOM      7  C   UNL     1      16.044   0.218 -17.651  1.00  0.00     0.072 C 
ATOM      8  O   UNL     1      16.057  -1.026 -17.857  1.00  0.00    -0.545 OA
ATOM      9  O   UNL     1      17.229   0.855 -17.301  1.00  0.00    -0.545 OA
ENDBRANCH   1   7
BRANCH   4  10
ATOM     10  O   UNL     1      12.251   2.519 -15.573  1.00  0.00    -0.504 OA
ATOM     11  H   UNL     1      12.685   2.506 -14.662  1.00  0.00     0.293 HD
ENDBRANCH   4  10
BRANCH   5  12
ATOM     12  O   UNL     1      12.597   2.357 -20.439  1.00  0.00    -0.504 OA
ATOM     13  H   UNL     1      11.610   2.285 -20.657  1.00  0.00     0.293 HD
ENDBRANCH   5  12
BRANCH   6  14
ATOM     14  O   UNL     1      11.212   3.183 -18.219  1.00  0.00    -0.502 OA
ATOM     15  H   UNL     1      11.149   4.189 -18.162  1.00  0.00     0.293 HD
ENDBRANCH   6  14
TORSDOF 4
ENDMDL
MODEL 4
REMARK VINA RESULT:    -5.533     11.759     13.882
REMARK INTER + INTRA:          -6.389
REMARK INTER:                  -6.344
REMARK INTRA:                  -0.045
REMARK UNBOUND:                -0.047
REMARK SMILES O=C([O-])c1cc(O)c(O)c(O)c1
REMARK SMILES IDX 4 1 5 2 12 3 6 4 10 5 8 6 2 7 1 8 3 9 7 10 11 12 9 14
REMARK H PARENT 7 11 11 13 9 15
REMARK Flexibility Score: inf
ROOT
ATOM      1  C   UNL     1      14.780   0.957 -17.892  1.00  0.00     0.005 A 
ATOM      2  C   UNL     1      14.247   1.318 -19.140  1.00  0.00     0.060 A 
ATOM      3  C   UNL     1      14.116   1.367 -16.726  1.00  0.00     0.060 A 
ATOM      4  C   UNL     1      13.074   2.075 -19.233  1.00  0.00     0.162 A 
ATOM      5  C   UNL     1      12.940   2.125 -16.805  1.00  0.00     0.162 A 
ATOM      6  C   UNL     1      12.411   2.485 -18.051  1.00  0.00     0.200 A 
ENDROOT
BRANCH   1   7
ATOM      7  C   UNL     1      16.022   0.157 -17.802  1.00  0.00     0.072 C 
ATOM      8  O   UNL     1      17.122   0.710 -17.534  1.00  0.00    -0.545 OA
ATOM      9  O   UNL     1      15.991  -1.216 -18.013  1.00  0.00    -0.545 OA
ENDBRANCH   1   7
BRANCH   4  10
ATOM     10  O   UNL     1      12.605   2.395 -20.509  1.00  0.00    -0.504 OA
ATOM     11  H   UNL     1      11.630   2.506 -20.743  1.00  0.00     0.293 HD
ENDBRANCH   4  10
BRANCH   5  12
ATOM     12  O   UNL     1      12.288   2.528 -15.640  1.00  0.00    -0.504 OA
ATOM     13  H   UNL     1      11.803   1.865 -15.046  1.00  0.00     0.293 HD
ENDBRANCH   5  12
BRANCH   6  14
ATOM     14  O   UNL     1      11.237   3.240 -18.073  1.00  0.00    -0.502 OA
ATOM     15  H   UNL     1      11.209   4.240 -18.210  1.00  0.00     0.293 HD
ENDBRANCH   6  14
TORSDOF 4
ENDMDL
MODEL 5
REMARK VINA RESULT:    -5.492     12.428     14.196
REMARK INTER + INTRA:          -6.342
REMARK INTER:                  -6.298
REMARK INTRA:                  -0.045
REMARK UNBOUND:                -0.047
REMARK SMILES O=C([O-])c1cc(O)c(O)c(O)c1
REMARK SMILES IDX 4 1 5 2 12 3 6 4 10 5 8 6 2 7 1 8 3 9 7 10 11 12 9 14
REMARK H PARENT 7 11 11 13 9 15
REMARK Flexibility Score: inf
ROOT
ATOM      1  C   UNL     1       6.649  -4.991 -17.334  1.00  0.00     0.005 A 
ATOM      2  C   UNL     1       5.419  -5.551 -16.948  1.00  0.00     0.060 A 
ATOM      3  C   UNL     1       7.825  -5.728 -17.130  1.00  0.00     0.060 A 
ATOM      4  C   UNL     1       5.356  -6.823 -16.368  1.00  0.00     0.162 A 
ATOM      5  C   UNL     1       7.775  -7.002 -16.549  1.00  0.00     0.162 A 
ATOM      6  C   UNL     1       6.548  -7.559 -16.165  1.00  0.00     0.200 A 
ENDROOT
BRANCH   1   7
ATOM      7  C   UNL     1       6.707  -3.645 -17.947  1.00  0.00     0.072 C 
ATOM      8  O   UNL     1       6.569  -3.501 -19.192  1.00  0.00    -0.545 OA
ATOM      9  O   UNL     1       6.915  -2.520 -17.158  1.00  0.00    -0.545 OA
ENDBRANCH   1   7
BRANCH   4  10
ATOM     10  O   UNL     1       4.097  -7.312 -16.011  1.00  0.00    -0.504 OA
ATOM     11  H   UNL     1       3.915  -8.272 -15.756  1.00  0.00     0.293 HD
ENDBRANCH   4  10
BRANCH   5  12
ATOM     12  O   UNL     1       8.950  -7.727 -16.349  1.00  0.00    -0.504 OA
ATOM     13  H   UNL     1       9.534  -8.016 -17.125  1.00  0.00     0.293 HD
ENDBRANCH   5  12
BRANCH   6  14
ATOM     14  O   UNL     1       6.554  -8.832 -15.592  1.00  0.00    -0.502 OA
ATOM     15  H   UNL     1       7.391  -9.321 -15.307  1.00  0.00     0.293 HD
ENDBRANCH   6  14
TORSDOF 4
ENDMDL
MODEL 6
REMARK VINA RESULT:    -5.471     11.670     13.415
REMARK INTER + INTRA:          -6.318
REMARK INTER:                  -6.266
REMARK INTRA:                  -0.052
REMARK UNBOUND:                -0.047
REMARK SMILES O=C([O-])c1cc(O)c(O)c(O)c1
REMARK SMILES IDX 4 1 5 2 12 3 6 4 10 5 8 6 2 7 1 8 3 9 7 10 11 12 9 14
REMARK H PARENT 7 11 11 13 9 15
REMARK Flexibility Score: inf
ROOT
ATOM      1  C   UNL     1       4.944  -5.773 -18.874  1.00  0.00     0.005 A 
ATOM      2  C   UNL     1       4.334  -6.214 -17.689  1.00  0.00     0.060 A 
ATOM      3  C   UNL     1       6.329  -5.941 -19.028  1.00  0.00     0.060 A 
ATOM      4  C   UNL     1       5.084  -6.814 -16.670  1.00  0.00     0.162 A 
ATOM      5  C   UNL     1       7.091  -6.539 -18.016  1.00  0.00     0.162 A 
ATOM      6  C   UNL     1       6.480  -6.978 -16.834  1.00  0.00     0.200 A 
ENDROOT
BRANCH   1   7
ATOM      7  C   UNL     1       4.144  -5.140 -19.946  1.00  0.00     0.072 C 
ATOM      8  O   UNL     1       2.894  -5.292 -19.988  1.00  0.00    -0.545 OA
ATOM      9  O   UNL     1       4.762  -4.368 -20.923  1.00  0.00    -0.545 OA
ENDBRANCH   1   7
BRANCH   4  10
ATOM     10  O   UNL     1       4.406  -7.227 -15.521  1.00  0.00    -0.504 OA
ATOM     11  H   UNL     1       4.141  -8.183 -15.333  1.00  0.00     0.293 HD
ENDBRANCH   4  10
BRANCH   5  12
ATOM     12  O   UNL     1       8.467  -6.700 -18.179  1.00  0.00    -0.504 OA
ATOM     13  H   UNL     1       9.096  -6.723 -17.385  1.00  0.00     0.293 HD
ENDBRANCH   5  12
BRANCH   6  14
ATOM     14  O   UNL     1       7.285  -7.568 -15.858  1.00  0.00    -0.502 OA
ATOM     15  H   UNL     1       8.143  -8.064 -16.054  1.00  0.00     0.293 HD
ENDBRANCH   6  14
TORSDOF 4
ENDMDL
MODEL 7
REMARK VINA RESULT:    -5.458     12.280     14.167
REMARK INTER + INTRA:          -6.303
REMARK INTER:                  -6.259
REMARK INTRA:                  -0.045
REMARK UNBOUND:                -0.047
REMARK SMILES O=C([O-])c1cc(O)c(O)c(O)c1
REMARK SMILES IDX 4 1 5 2 12 3 6 4 10 5 8 6 2 7 1 8 3 9 7 10 11 12 9 14
REMARK H PARENT 7 11 11 13 9 15
REMARK Flexibility Score: inf
ROOT
ATOM      1  C   UNL     1       6.715  -4.854 -17.438  1.00  0.00     0.005 A 
ATOM      2  C   UNL     1       7.887  -5.604 -17.242  1.00  0.00     0.060 A 
ATOM      3  C   UNL     1       5.483  -5.406 -17.054  1.00  0.00     0.060 A 
ATOM      4  C   UNL     1       7.840  -6.882 -16.673  1.00  0.00     0.162 A 
ATOM      5  C   UNL     1       5.423  -6.684 -16.483  1.00  0.00     0.162 A 
ATOM      6  C   UNL     1       6.593  -7.430 -16.288  1.00  0.00     0.200 A 
ENDROOT
BRANCH   1   7
ATOM      7  C   UNL     1       6.773  -3.504 -18.041  1.00  0.00     0.072 C 
ATOM      8  O   UNL     1       6.620  -3.350 -19.283  1.00  0.00    -0.545 OA
ATOM      9  O   UNL     1       6.997  -2.387 -17.246  1.00  0.00    -0.545 OA
ENDBRANCH   1   7
BRANCH   4  10
ATOM     10  O   UNL     1       9.046  -7.565 -16.509  1.00  0.00    -0.504 OA
ATOM     11  H   UNL     1       9.866  -7.169 -16.074  1.00  0.00     0.293 HD
ENDBRANCH   4  10
BRANCH   5  12
ATOM     12  O   UNL     1       4.193  -7.224 -16.105  1.00  0.00    -0.504 OA
ATOM     13  H   UNL     1       4.127  -7.958 -15.410  1.00  0.00     0.293 HD
ENDBRANCH   5  12
BRANCH   6  14
ATOM     14  O   UNL     1       6.476  -8.698 -15.715  1.00  0.00    -0.502 OA
ATOM     15  H   UNL     1       5.638  -9.260 -15.748  1.00  0.00     0.293 HD
ENDBRANCH   6  14
TORSDOF 4
ENDMDL
MODEL 8
REMARK VINA RESULT:    -5.441     11.673     13.499
REMARK INTER + INTRA:          -6.284
REMARK INTER:                  -6.232
REMARK INTRA:                  -0.052
REMARK UNBOUND:                -0.047
REMARK SMILES O=C([O-])c1cc(O)c(O)c(O)c1
REMARK SMILES IDX 4 1 5 2 12 3 6 4 10 5 8 6 2 7 1 8 3 9 7 10 11 12 9 14
REMARK H PARENT 7 11 11 13 9 15
REMARK Flexibility Score: inf
ROOT
ATOM      1  C   UNL     1       4.975  -5.770 -18.879  1.00  0.00     0.005 A 
ATOM      2  C   UNL     1       6.360  -5.959 -19.011  1.00  0.00     0.060 A 
ATOM      3  C   UNL     1       4.337  -6.212 -17.710  1.00  0.00     0.060 A 
ATOM      4  C   UNL     1       7.104  -6.578 -18.000  1.00  0.00     0.162 A 
ATOM      5  C   UNL     1       5.070  -6.833 -16.690  1.00  0.00     0.162 A 
ATOM      6  C   UNL     1       6.452  -7.021 -16.824  1.00  0.00     0.200 A 
ENDROOT
BRANCH   1   7
ATOM      7  C   UNL     1       4.195  -5.116 -19.954  1.00  0.00     0.072 C 
ATOM      8  O   UNL     1       2.949  -5.283 -20.034  1.00  0.00    -0.545 OA
ATOM      9  O   UNL     1       4.828  -4.307 -20.890  1.00  0.00    -0.545 OA
ENDBRANCH   1   7
BRANCH   4  10
ATOM     10  O   UNL     1       8.478  -6.730 -18.203  1.00  0.00    -0.504 OA
ATOM     11  H   UNL     1       9.065  -7.345 -17.661  1.00  0.00     0.293 HD
ENDBRANCH   4  10
BRANCH   5  12
ATOM     12  O   UNL     1       4.427  -7.270 -15.533  1.00  0.00    -0.504 OA
ATOM     13  H   UNL     1       4.948  -7.562 -14.714  1.00  0.00     0.293 HD
ENDBRANCH   5  12
BRANCH   6  14
ATOM     14  O   UNL     1       7.135  -7.644 -15.778  1.00  0.00    -0.502 OA
ATOM     15  H   UNL     1       7.566  -8.555 -15.845  1.00  0.00     0.293 HD
ENDBRANCH   6  14
TORSDOF 4
ENDMDL
MODEL 9
REMARK VINA RESULT:    -5.423     10.553     12.487
REMARK INTER + INTRA:          -6.263
REMARK INTER:                  -6.216
REMARK INTRA:                  -0.046
REMARK UNBOUND:                -0.047
REMARK SMILES O=C([O-])c1cc(O)c(O)c(O)c1
REMARK SMILES IDX 4 1 5 2 12 3 6 4 10 5 8 6 2 7 1 8 3 9 7 10 11 12 9 14
REMARK H PARENT 7 11 11 13 9 15
REMARK Flexibility Score: inf
ROOT
ATOM      1  C   UNL     1       7.239  -5.301 -19.429  1.00  0.00     0.005 A 
ATOM      2  C   UNL     1       8.048  -6.129 -18.633  1.00  0.00     0.060 A 
ATOM      3  C   UNL     1       6.866  -4.041 -18.937  1.00  0.00     0.060 A 
ATOM      4  C   UNL     1       8.480  -5.716 -17.368  1.00  0.00     0.162 A 
ATOM      5  C   UNL     1       7.292  -3.616 -17.672  1.00  0.00     0.162 A 
ATOM      6  C   UNL     1       8.098  -4.444 -16.880  1.00  0.00     0.200 A 
ENDROOT
BRANCH   1   7
ATOM      7  C   UNL     1       6.786  -5.746 -20.766  1.00  0.00     0.072 C 
ATOM      8  O   UNL     1       5.557  -5.864 -21.019  1.00  0.00    -0.545 OA
ATOM      9  O   UNL     1       7.710  -6.039 -21.762  1.00  0.00    -0.545 OA
ENDBRANCH   1   7
BRANCH   4  10
ATOM     10  O   UNL     1       9.282  -6.595 -16.636  1.00  0.00    -0.504 OA
ATOM     11  H   UNL     1      10.287  -6.644 -16.716  1.00  0.00     0.293 HD
ENDBRANCH   4  10
BRANCH   5  12
ATOM     12  O   UNL     1       6.915  -2.362 -17.192  1.00  0.00    -0.504 OA
ATOM     13  H   UNL     1       7.322  -1.509 -17.558  1.00  0.00     0.293 HD
ENDBRANCH   5  12
BRANCH   6  14
ATOM     14  O   UNL     1       8.495  -3.971 -15.628  1.00  0.00    -0.502 OA
ATOM     15  H   UNL     1       8.930  -3.073 -15.472  1.00  0.00     0.293 HD
ENDBRANCH   6  14
TORSDOF 4
ENDMDL
