MODEL 1
REMARK VINA RESULT:    -4.795      0.000      0.000
REMARK INTER + INTRA:          -5.567
REMARK INTER:                  -5.495
REMARK INTRA:                  -0.071
REMARK UNBOUND:                -0.071
REMARK SMILES CC(C)[C@@H]([NH3+])C(=O)[O-]
REMARK SMILES IDX 4 1 5 2 6 6 7 7 8 8 2 9 1 10 3 11
REMARK H PARENT 5 3 5 4 5 5
REMARK Flexibility Score: inf
ROOT
ATOM      1  C   UNL     1     -21.428  68.793  -0.684  1.00  0.00     0.230 C 
ENDROOT
BRANCH   1   2
ATOM      2  N   UNL     1     -22.689  68.033  -0.739  1.00  0.00    -0.350 N 
ATOM      3  H   UNL     1     -23.464  68.638  -1.086  1.00  0.00     0.345 HD
ATOM      4  H   UNL     1     -22.943  67.715   0.225  1.00  0.00     0.345 HD
ATOM      5  H   UNL     1     -22.601  67.191  -1.352  1.00  0.00     0.345 HD
ENDBRANCH   1   2
BRANCH   1   6
ATOM      6  C   UNL     1     -21.372  69.658   0.552  1.00  0.00     0.099 C 
ATOM      7  O   UNL     1     -21.446  69.149   1.702  1.00  0.00    -0.544 OA
ATOM      8  O   UNL     1     -21.190  71.029   0.423  1.00  0.00    -0.544 OA
ENDBRANCH   1   6
BRANCH   1   9
ATOM      9  C   UNL     1     -20.164  67.886  -0.785  1.00  0.00     0.047 C 
ATOM     10  C   UNL     1     -18.872  68.713  -0.867  1.00  0.00     0.014 C 
ATOM     11  C   UNL     1     -20.221  66.877  -1.944  1.00  0.00     0.014 C 
ENDBRANCH   1   9
TORSDOF 3
ENDMDL
MODEL 2
REMARK VINA RESULT:    -4.412      0.615      1.710
REMARK INTER + INTRA:          -5.128
REMARK INTER:                  -5.176
REMARK INTRA:                   0.048
REMARK UNBOUND:                -0.071
REMARK SMILES CC(C)[C@@H]([NH3+])C(=O)[O-]
REMARK SMILES IDX 4 1 5 2 6 6 7 7 8 8 2 9 1 10 3 11
REMARK H PARENT 5 3 5 4 5 5
REMARK Flexibility Score: inf
ROOT
ATOM      1  C   UNL     1     -21.597  68.905  -0.753  1.00  0.00     0.230 C 
ENDROOT
BRANCH   1   2
ATOM      2  N   UNL     1     -22.722  67.989  -0.497  1.00  0.00    -0.350 N 
ATOM      3  H   UNL     1     -23.621  68.421  -0.802  1.00  0.00     0.345 HD
ATOM      4  H   UNL     1     -22.792  67.806   0.531  1.00  0.00     0.345 HD
ATOM      5  H   UNL     1     -22.589  67.075  -0.987  1.00  0.00     0.345 HD
ENDBRANCH   1   2
BRANCH   1   6
ATOM      6  C   UNL     1     -21.396  69.850   0.406  1.00  0.00     0.099 C 
ATOM      7  O   UNL     1     -20.969  71.021   0.220  1.00  0.00    -0.544 OA
ATOM      8  O   UNL     1     -21.729  69.442   1.691  1.00  0.00    -0.544 OA
ENDBRANCH   1   6
BRANCH   1   9
ATOM      9  C   UNL     1     -20.272  68.161  -1.100  1.00  0.00     0.047 C 
ATOM     10  C   UNL     1     -20.514  66.968  -2.038  1.00  0.00     0.014 C 
ATOM     11  C   UNL     1     -19.476  67.711   0.136  1.00  0.00     0.014 C 
ENDBRANCH   1   9
TORSDOF 3
ENDMDL
MODEL 3
REMARK VINA RESULT:    -4.243      2.705      3.731
REMARK INTER + INTRA:          -4.935
REMARK INTER:                  -4.864
REMARK INTRA:                  -0.070
REMARK UNBOUND:                -0.071
REMARK SMILES CC(C)[C@@H]([NH3+])C(=O)[O-]
REMARK SMILES IDX 4 1 5 2 6 6 7 7 8 8 2 9 1 10 3 11
REMARK H PARENT 5 3 5 4 5 5
REMARK Flexibility Score: inf
ROOT
ATOM      1  C   UNL     1     -19.896  68.687  -0.871  1.00  0.00     0.230 C 
ENDROOT
BRANCH   1   2
ATOM      2  N   UNL     1     -18.734  69.591  -0.837  1.00  0.00    -0.350 N 
ATOM      3  H   UNL     1     -18.089  69.386  -1.631  1.00  0.00     0.345 HD
ATOM      4  H   UNL     1     -18.201  69.437   0.050  1.00  0.00     0.345 HD
ATOM      5  H   UNL     1     -19.028  70.593  -0.875  1.00  0.00     0.345 HD
ENDBRANCH   1   2
BRANCH   1   6
ATOM      6  C   UNL     1     -19.471  67.254  -0.659  1.00  0.00     0.099 C 
ATOM      7  O   UNL     1     -19.499  66.423  -1.607  1.00  0.00    -0.544 OA
ATOM      8  O   UNL     1     -18.999  66.854   0.584  1.00  0.00    -0.544 OA
ENDBRANCH   1   6
BRANCH   1   9
ATOM      9  C   UNL     1     -21.013  69.090   0.139  1.00  0.00     0.047 C 
ATOM     10  C   UNL     1     -22.366  68.460  -0.223  1.00  0.00     0.014 C 
ATOM     11  C   UNL     1     -21.166  70.610   0.313  1.00  0.00     0.014 C 
ENDBRANCH   1   9
TORSDOF 3
ENDMDL
MODEL 4
REMARK VINA RESULT:    -4.186      1.750      2.105
REMARK INTER + INTRA:          -4.869
REMARK INTER:                  -4.825
REMARK INTRA:                  -0.044
REMARK UNBOUND:                -0.071
REMARK SMILES CC(C)[C@@H]([NH3+])C(=O)[O-]
REMARK SMILES IDX 4 1 5 2 6 6 7 7 8 8 2 9 1 10 3 11
REMARK H PARENT 5 3 5 4 5 5
REMARK Flexibility Score: inf
ROOT
ATOM      1  C   UNL     1     -20.777  68.238  -1.185  1.00  0.00     0.230 C 
ENDROOT
BRANCH   1   2
ATOM      2  N   UNL     1     -20.725  66.995  -1.973  1.00  0.00    -0.350 N 
ATOM      3  H   UNL     1     -21.089  67.158  -2.937  1.00  0.00     0.345 HD
ATOM      4  H   UNL     1     -21.336  66.274  -1.523  1.00  0.00     0.345 HD
ATOM      5  H   UNL     1     -19.753  66.616  -2.026  1.00  0.00     0.345 HD
ENDBRANCH   1   2
BRANCH   1   6
ATOM      6  C   UNL     1     -22.059  68.323  -0.393  1.00  0.00     0.099 C 
ATOM      7  O   UNL     1     -23.132  67.841  -0.844  1.00  0.00    -0.544 OA
ATOM      8  O   UNL     1     -22.049  68.898   0.871  1.00  0.00    -0.544 OA
ENDBRANCH   1   6
BRANCH   1   9
ATOM      9  C   UNL     1     -19.538  68.425  -0.258  1.00  0.00     0.047 C 
ATOM     10  C   UNL     1     -18.361  69.076  -1.000  1.00  0.00     0.014 C 
ATOM     11  C   UNL     1     -19.079  67.126   0.427  1.00  0.00     0.014 C 
ENDBRANCH   1   9
TORSDOF 3
ENDMDL
MODEL 5
REMARK VINA RESULT:    -4.066      1.786      2.557
REMARK INTER + INTRA:          -4.732
REMARK INTER:                  -4.719
REMARK INTRA:                  -0.013
REMARK UNBOUND:                -0.071
REMARK SMILES CC(C)[C@@H]([NH3+])C(=O)[O-]
REMARK SMILES IDX 4 1 5 2 6 6 7 7 8 8 2 9 1 10 3 11
REMARK H PARENT 5 3 5 4 5 5
REMARK Flexibility Score: inf
ROOT
ATOM      1  C   UNL     1     -21.963  69.507   0.966  1.00  0.00     0.230 C 
ENDROOT
BRANCH   1   2
ATOM      2  N   UNL     1     -21.243  68.779   2.024  1.00  0.00    -0.350 N 
ATOM      3  H   UNL     1     -20.481  69.371   2.421  1.00  0.00     0.345 HD
ATOM      4  H   UNL     1     -20.798  67.925   1.615  1.00  0.00     0.345 HD
ATOM      5  H   UNL     1     -21.888  68.480   2.790  1.00  0.00     0.345 HD
ENDBRANCH   1   2
BRANCH   1   6
ATOM      6  C   UNL     1     -21.546  70.957   0.928  1.00  0.00     0.099 C 
ATOM      7  O   UNL     1     -20.841  71.403  -0.016  1.00  0.00    -0.544 OA
ATOM      8  O   UNL     1     -21.983  71.824   1.922  1.00  0.00    -0.544 OA
ENDBRANCH   1   6
BRANCH   1   9
ATOM      9  C   UNL     1     -21.813  68.849  -0.439  1.00  0.00     0.047 C 
ATOM     10  C   UNL     1     -23.008  67.945  -0.777  1.00  0.00     0.014 C 
ATOM     11  C   UNL     1     -20.496  68.076  -0.619  1.00  0.00     0.014 C 
ENDBRANCH   1   9
TORSDOF 3
ENDMDL
MODEL 6
REMARK VINA RESULT:    -3.969      2.262      3.197
REMARK INTER + INTRA:          -4.621
REMARK INTER:                  -4.555
REMARK INTRA:                  -0.065
REMARK UNBOUND:                -0.071
REMARK SMILES CC(C)[C@@H]([NH3+])C(=O)[O-]
REMARK SMILES IDX 4 1 5 2 6 6 7 7 8 8 2 9 1 10 3 11
REMARK H PARENT 5 3 5 4 5 5
REMARK Flexibility Score: inf
ROOT
ATOM      1  C   UNL     1     -20.134  67.747  -0.573  1.00  0.00     0.230 C 
ENDROOT
BRANCH   1   2
ATOM      2  N   UNL     1     -20.463  67.150  -1.879  1.00  0.00    -0.350 N 
ATOM      3  H   UNL     1     -21.493  67.008  -1.966  1.00  0.00     0.345 HD
ATOM      4  H   UNL     1     -20.008  66.211  -1.955  1.00  0.00     0.345 HD
ATOM      5  H   UNL     1     -20.125  67.746  -2.668  1.00  0.00     0.345 HD
ENDBRANCH   1   2
BRANCH   1   6
ATOM      6  C   UNL     1     -18.787  68.425  -0.613  1.00  0.00     0.099 C 
ATOM      7  O   UNL     1     -18.662  69.589  -1.079  1.00  0.00    -0.544 OA
ATOM      8  O   UNL     1     -17.676  67.778  -0.088  1.00  0.00    -0.544 OA
ENDBRANCH   1   6
BRANCH   1   9
ATOM      9  C   UNL     1     -21.233  68.724  -0.055  1.00  0.00     0.047 C 
ATOM     10  C   UNL     1     -21.241  68.814   1.478  1.00  0.00     0.014 C 
ATOM     11  C   UNL     1     -22.643  68.396  -0.573  1.00  0.00     0.014 C 
ENDBRANCH   1   9
TORSDOF 3
ENDMDL
MODEL 7
REMARK VINA RESULT:    -3.880      2.488      3.430
REMARK INTER + INTRA:          -4.518
REMARK INTER:                  -4.465
REMARK INTRA:                  -0.053
REMARK UNBOUND:                -0.071
REMARK SMILES CC(C)[C@@H]([NH3+])C(=O)[O-]
REMARK SMILES IDX 4 1 5 2 6 6 7 7 8 8 2 9 1 10 3 11
REMARK H PARENT 5 3 5 4 5 5
REMARK Flexibility Score: inf
ROOT
ATOM      1  C   UNL     1     -21.034  69.224  -0.532  1.00  0.00     0.230 C 
ENDROOT
BRANCH   1   2
ATOM      2  N   UNL     1     -19.575  69.072  -0.399  1.00  0.00    -0.350 N 
ATOM      3  H   UNL     1     -19.098  69.344  -1.286  1.00  0.00     0.345 HD
ATOM      4  H   UNL     1     -19.347  68.068  -0.213  1.00  0.00     0.345 HD
ATOM      5  H   UNL     1     -19.201  69.648   0.389  1.00  0.00     0.345 HD
ENDBRANCH   1   2
BRANCH   1   6
ATOM      6  C   UNL     1     -21.657  67.975  -1.107  1.00  0.00     0.099 C 
ATOM      7  O   UNL     1     -22.882  67.730  -0.947  1.00  0.00    -0.544 OA
ATOM      8  O   UNL     1     -20.881  67.106  -1.863  1.00  0.00    -0.544 OA
ENDBRANCH   1   6
BRANCH   1   9
ATOM      9  C   UNL     1     -21.729  69.627   0.804  1.00  0.00     0.047 C 
ATOM     10  C   UNL     1     -21.568  71.124   1.104  1.00  0.00     0.014 C 
ATOM     11  C   UNL     1     -21.272  68.793   2.013  1.00  0.00     0.014 C 
ENDBRANCH   1   9
TORSDOF 3
ENDMDL
MODEL 8
REMARK VINA RESULT:    -3.850      1.969      2.286
REMARK INTER + INTRA:          -4.485
REMARK INTER:                  -4.421
REMARK INTRA:                  -0.064
REMARK UNBOUND:                -0.071
REMARK SMILES CC(C)[C@@H]([NH3+])C(=O)[O-]
REMARK SMILES IDX 4 1 5 2 6 6 7 7 8 8 2 9 1 10 3 11
REMARK H PARENT 5 3 5 4 5 5
REMARK Flexibility Score: inf
ROOT
ATOM      1  C   UNL     1     -20.805  69.212   0.430  1.00  0.00     0.230 C 
ENDROOT
BRANCH   1   2
ATOM      2  N   UNL     1     -20.882  70.612  -0.019  1.00  0.00    -0.350 N 
ATOM      3  H   UNL     1     -20.729  71.262   0.783  1.00  0.00     0.345 HD
ATOM      4  H   UNL     1     -21.837  70.801  -0.401  1.00  0.00     0.345 HD
ATOM      5  H   UNL     1     -20.181  70.812  -0.768  1.00  0.00     0.345 HD
ENDBRANCH   1   2
BRANCH   1   6
ATOM      6  C   UNL     1     -22.173  68.575   0.451  1.00  0.00     0.099 C 
ATOM      7  O   UNL     1     -22.831  68.490   1.522  1.00  0.00    -0.544 OA
ATOM      8  O   UNL     1     -22.737  68.120  -0.734  1.00  0.00    -0.544 OA
ENDBRANCH   1   6
BRANCH   1   9
ATOM      9  C   UNL     1     -19.807  68.356  -0.407  1.00  0.00     0.047 C 
ATOM     10  C   UNL     1     -19.245  67.178   0.402  1.00  0.00     0.014 C 
ATOM     11  C   UNL     1     -18.658  69.174  -1.020  1.00  0.00     0.014 C 
ENDBRANCH   1   9
TORSDOF 3
ENDMDL
MODEL 9
REMARK VINA RESULT:    -3.757      2.330      3.351
REMARK INTER + INTRA:          -4.377
REMARK INTER:                  -4.341
REMARK INTRA:                  -0.036
REMARK UNBOUND:                -0.071
REMARK SMILES CC(C)[C@@H]([NH3+])C(=O)[O-]
REMARK SMILES IDX 4 1 5 2 6 6 7 7 8 8 2 9 1 10 3 11
REMARK H PARENT 5 3 5 4 5 5
REMARK Flexibility Score: inf
ROOT
ATOM      1  C   UNL     1     -21.403  68.032  -0.386  1.00  0.00     0.230 C 
ENDROOT
BRANCH   1   2
ATOM      2  N   UNL     1     -22.674  68.419  -1.021  1.00  0.00    -0.350 N 
ATOM      3  H   UNL     1     -23.359  68.738  -0.301  1.00  0.00     0.345 HD
ATOM      4  H   UNL     1     -23.088  67.588  -1.503  1.00  0.00     0.345 HD
ATOM      5  H   UNL     1     -22.534  69.175  -1.729  1.00  0.00     0.345 HD
ENDBRANCH   1   2
BRANCH   1   6
ATOM      6  C   UNL     1     -20.358  67.705  -1.425  1.00  0.00     0.099 C 
ATOM      7  O   UNL     1     -19.275  68.346  -1.479  1.00  0.00    -0.544 OA
ATOM      8  O   UNL     1     -20.571  66.651  -2.305  1.00  0.00    -0.544 OA
ENDBRANCH   1   6
BRANCH   1   9
ATOM      9  C   UNL     1     -20.873  69.100   0.618  1.00  0.00     0.047 C 
ATOM     10  C   UNL     1     -21.260  68.765   2.066  1.00  0.00     0.014 C 
ATOM     11  C   UNL     1     -21.301  70.536   0.273  1.00  0.00     0.014 C 
ENDBRANCH   1   9
TORSDOF 3
ENDMDL
