MODEL 1
REMARK VINA RESULT:    -4.404      0.000      0.000
REMARK INTER + INTRA:          -8.457
REMARK INTER:                  -7.751
REMARK INTRA:                  -0.706
REMARK UNBOUND:                -0.706
REMARK SMILES CCCCCCCCCCCCCCC(=O)[O-]
REMARK SMILES IDX 9 1 10 2 11 3 12 4 13 5 14 6 15 7 16 8 17 9 8 10 7 11 6 12
REMARK SMILES IDX 5 13 4 14 3 15 2 16 1 17
REMARK H PARENT
REMARK Flexibility Score: inf
ROOT
ATOM      1  C   UNL     1     -36.143 -10.453   0.580  1.00  0.00     0.000 C 
ENDROOT
BRANCH   1   2
ATOM      2  C   UNL     1     -35.715  -9.922   1.959  1.00  0.00     0.000 C 
BRANCH   2   3
ATOM      3  C   UNL     1     -35.686 -11.023   3.032  1.00  0.00     0.000 C 
BRANCH   3   4
ATOM      4  C   UNL     1     -34.571 -12.053   2.791  1.00  0.00     0.000 C 
BRANCH   4   5
ATOM      5  C   UNL     1     -33.215 -11.360   2.609  1.00  0.00     0.006 C 
BRANCH   5   6
ATOM      6  C   UNL     1     -32.552 -11.087   3.962  1.00  0.00     0.053 C 
BRANCH   6   7
ATOM      7  C   UNL     1     -31.068 -10.977   3.805  1.00  0.00     0.041 C 
ATOM      8  O   UNL     1     -30.549 -10.994   2.658  1.00  0.00    -0.550 OA
ATOM      9  O   UNL     1     -30.254 -10.902   4.928  1.00  0.00    -0.550 OA
ENDBRANCH   6   7
ENDBRANCH   5   6
ENDBRANCH   4   5
ENDBRANCH   3   4
ENDBRANCH   2   3
ENDBRANCH   1   2
BRANCH   1  10
ATOM     10  C   UNL     1     -36.996  -9.443  -0.205  1.00  0.00     0.000 C 
BRANCH  10  11
ATOM     11  C   UNL     1     -38.026  -8.726   0.682  1.00  0.00    -0.000 C 
BRANCH  11  12
ATOM     12  C   UNL     1     -38.124  -7.220   0.382  1.00  0.00    -0.000 C 
BRANCH  12  13
ATOM     13  C   UNL     1     -37.505  -6.817  -0.974  1.00  0.00    -0.000 C 
BRANCH  13  14
ATOM     14  C   UNL     1     -38.113  -5.513  -1.524  1.00  0.00    -0.000 C 
BRANCH  14  15
ATOM     15  C   UNL     1     -37.109  -4.340  -1.492  1.00  0.00    -0.000 C 
BRANCH  15  16
ATOM     16  C   UNL     1     -37.396  -3.313  -0.385  1.00  0.00    -0.003 C 
ATOM     17  C   UNL     1     -37.001  -1.889  -0.772  1.00  0.00     0.004 C 
ENDBRANCH  15  16
ENDBRANCH  14  15
ENDBRANCH  13  14
ENDBRANCH  12  13
ENDBRANCH  11  12
ENDBRANCH  10  11
ENDBRANCH   1  10
TORSDOF 13
ENDMDL
MODEL 2
REMARK VINA RESULT:    -4.223      3.988      8.261
REMARK INTER + INTRA:          -8.138
REMARK INTER:                  -7.369
REMARK INTRA:                  -0.769
REMARK UNBOUND:                -0.706
REMARK SMILES CCCCCCCCCCCCCCC(=O)[O-]
REMARK SMILES IDX 9 1 10 2 11 3 12 4 13 5 14 6 15 7 16 8 17 9 8 10 7 11 6 12
REMARK SMILES IDX 5 13 4 14 3 15 2 16 1 17
REMARK H PARENT
REMARK Flexibility Score: inf
ROOT
ATOM      1  C   UNL     1     -36.233  -8.667   1.204  1.00  0.00     0.000 C 
ENDROOT
BRANCH   1   2
ATOM      2  C   UNL     1     -36.758  -8.627  -0.243  1.00  0.00     0.000 C 
BRANCH   2   3
ATOM      3  C   UNL     1     -38.044  -7.797  -0.381  1.00  0.00     0.000 C 
BRANCH   3   4
ATOM      4  C   UNL     1     -37.934  -6.715  -1.467  1.00  0.00     0.000 C 
BRANCH   4   5
ATOM      5  C   UNL     1     -37.994  -5.312  -0.851  1.00  0.00     0.006 C 
BRANCH   5   6
ATOM      6  C   UNL     1     -37.459  -4.261  -1.826  1.00  0.00     0.053 C 
BRANCH   6   7
ATOM      7  C   UNL     1     -37.131  -2.993  -1.102  1.00  0.00     0.041 C 
ATOM      8  O   UNL     1     -36.678  -2.001  -1.733  1.00  0.00    -0.550 OA
ATOM      9  O   UNL     1     -37.280  -2.922   0.277  1.00  0.00    -0.550 OA
ENDBRANCH   6   7
ENDBRANCH   5   6
ENDBRANCH   4   5
ENDBRANCH   3   4
ENDBRANCH   2   3
ENDBRANCH   1   2
BRANCH   1  10
ATOM     10  C   UNL     1     -37.132  -9.494   2.137  1.00  0.00     0.000 C 
BRANCH  10  11
ATOM     11  C   UNL     1     -37.311 -10.942   1.654  1.00  0.00    -0.000 C 
BRANCH  11  12
ATOM     12  C   UNL     1     -36.532 -11.956   2.510  1.00  0.00    -0.000 C 
BRANCH  12  13
ATOM     13  C   UNL     1     -35.016 -11.973   2.224  1.00  0.00    -0.000 C 
BRANCH  13  14
ATOM     14  C   UNL     1     -34.181 -11.859   3.513  1.00  0.00    -0.000 C 
BRANCH  14  15
ATOM     15  C   UNL     1     -33.193 -10.673   3.468  1.00  0.00    -0.000 C 
BRANCH  15  16
ATOM     16  C   UNL     1     -31.766 -11.042   3.907  1.00  0.00    -0.003 C 
ATOM     17  C   UNL     1     -30.774 -11.079   2.746  1.00  0.00     0.004 C 
ENDBRANCH  15  16
ENDBRANCH  14  15
ENDBRANCH  13  14
ENDBRANCH  12  13
ENDBRANCH  11  12
ENDBRANCH  10  11
ENDBRANCH   1  10
TORSDOF 13
ENDMDL
MODEL 3
REMARK VINA RESULT:    -4.103      1.401      1.995
REMARK INTER + INTRA:          -7.927
REMARK INTER:                  -7.334
REMARK INTRA:                  -0.593
REMARK UNBOUND:                -0.706
REMARK SMILES CCCCCCCCCCCCCCC(=O)[O-]
REMARK SMILES IDX 9 1 10 2 11 3 12 4 13 5 14 6 15 7 16 8 17 9 8 10 7 11 6 12
REMARK SMILES IDX 5 13 4 14 3 15 2 16 1 17
REMARK H PARENT
REMARK Flexibility Score: inf
ROOT
ATOM      1  C   UNL     1     -36.576 -10.429  -1.739  1.00  0.00     0.000 C 
ENDROOT
BRANCH   1   2
ATOM      2  C   UNL     1     -35.066 -10.680  -1.578  1.00  0.00     0.000 C 
BRANCH   2   3
ATOM      3  C   UNL     1     -34.761 -11.929  -0.736  1.00  0.00     0.000 C 
BRANCH   3   4
ATOM      4  C   UNL     1     -35.046 -11.717   0.759  1.00  0.00     0.000 C 
BRANCH   4   5
ATOM      5  C   UNL     1     -33.768 -11.885   1.590  1.00  0.00     0.006 C 
BRANCH   5   6
ATOM      6  C   UNL     1     -33.930 -11.262   2.979  1.00  0.00     0.053 C 
BRANCH   6   7
ATOM      7  C   UNL     1     -32.643 -11.337   3.740  1.00  0.00     0.041 C 
ATOM      8  O   UNL     1     -32.654 -11.422   4.996  1.00  0.00    -0.550 OA
ATOM      9  O   UNL     1     -31.432 -11.263   3.065  1.00  0.00    -0.550 OA
ENDBRANCH   6   7
ENDBRANCH   5   6
ENDBRANCH   4   5
ENDBRANCH   3   4
ENDBRANCH   2   3
ENDBRANCH   1   2
BRANCH   1  10
ATOM     10  C   UNL     1     -36.945  -8.941  -1.627  1.00  0.00     0.000 C 
BRANCH  10  11
ATOM     11  C   UNL     1     -37.494  -8.572  -0.240  1.00  0.00    -0.000 C 
BRANCH  11  12
ATOM     12  C   UNL     1     -38.100  -7.158  -0.196  1.00  0.00    -0.000 C 
BRANCH  12  13
ATOM     13  C   UNL     1     -37.186  -6.073  -0.803  1.00  0.00    -0.000 C 
BRANCH  13  14
ATOM     14  C   UNL     1     -37.980  -5.029  -1.609  1.00  0.00    -0.000 C 
BRANCH  14  15
ATOM     15  C   UNL     1     -37.170  -3.738  -1.854  1.00  0.00    -0.000 C 
BRANCH  15  16
ATOM     16  C   UNL     1     -37.156  -2.781  -0.651  1.00  0.00    -0.003 C 
ATOM     17  C   UNL     1     -36.724  -1.363  -1.018  1.00  0.00     0.004 C 
ENDBRANCH  15  16
ENDBRANCH  14  15
ENDBRANCH  13  14
ENDBRANCH  12  13
ENDBRANCH  11  12
ENDBRANCH  10  11
ENDBRANCH   1  10
TORSDOF 13
ENDMDL
MODEL 4
REMARK VINA RESULT:    -4.048     15.835     17.751
REMARK INTER + INTRA:          -7.830
REMARK INTER:                  -7.307
REMARK INTRA:                  -0.523
REMARK UNBOUND:                -0.706
REMARK SMILES CCCCCCCCCCCCCCC(=O)[O-]
REMARK SMILES IDX 9 1 10 2 11 3 12 4 13 5 14 6 15 7 16 8 17 9 8 10 7 11 6 12
REMARK SMILES IDX 5 13 4 14 3 15 2 16 1 17
REMARK H PARENT
REMARK Flexibility Score: inf
ROOT
ATOM      1  C   UNL     1     -20.128  -1.968  -2.951  1.00  0.00     0.000 C 
ENDROOT
BRANCH   1   2
ATOM      2  C   UNL     1     -20.293  -2.120  -1.428  1.00  0.00     0.000 C 
BRANCH   2   3
ATOM      3  C   UNL     1     -19.756  -3.464  -0.908  1.00  0.00     0.000 C 
BRANCH   3   4
ATOM      4  C   UNL     1     -19.611  -3.488   0.622  1.00  0.00     0.000 C 
BRANCH   4   5
ATOM      5  C   UNL     1     -19.126  -4.860   1.105  1.00  0.00     0.006 C 
BRANCH   5   6
ATOM      6  C   UNL     1     -20.159  -5.513   2.028  1.00  0.00     0.053 C 
BRANCH   6   7
ATOM      7  C   UNL     1     -20.264  -6.979   1.742  1.00  0.00     0.041 C 
ATOM      8  O   UNL     1     -21.309  -7.611   2.050  1.00  0.00    -0.550 OA
ATOM      9  O   UNL     1     -19.190  -7.656   1.179  1.00  0.00    -0.550 OA
ENDBRANCH   6   7
ENDBRANCH   5   6
ENDBRANCH   4   5
ENDBRANCH   3   4
ENDBRANCH   2   3
ENDBRANCH   1   2
BRANCH   1  10
ATOM     10  C   UNL     1     -19.798  -0.526  -3.370  1.00  0.00     0.000 C 
BRANCH  10  11
ATOM     11  C   UNL     1     -18.620  -0.452  -4.355  1.00  0.00    -0.000 C 
BRANCH  11  12
ATOM     12  C   UNL     1     -17.956   0.935  -4.386  1.00  0.00    -0.000 C 
BRANCH  12  13
ATOM     13  C   UNL     1     -18.816   2.049  -3.752  1.00  0.00    -0.000 C 
BRANCH  13  14
ATOM     14  C   UNL     1     -18.540   3.426  -4.383  1.00  0.00    -0.000 C 
BRANCH  14  15
ATOM     15  C   UNL     1     -19.679   4.433  -4.111  1.00  0.00    -0.000 C 
BRANCH  15  16
ATOM     16  C   UNL     1     -20.735   3.918  -3.121  1.00  0.00    -0.003 C 
ATOM     17  C   UNL     1     -21.825   4.945  -2.820  1.00  0.00     0.004 C 
ENDBRANCH  15  16
ENDBRANCH  14  15
ENDBRANCH  13  14
ENDBRANCH  12  13
ENDBRANCH  11  12
ENDBRANCH  10  11
ENDBRANCH   1  10
TORSDOF 13
ENDMDL
MODEL 5
REMARK VINA RESULT:    -4.005      3.326      6.911
REMARK INTER + INTRA:          -7.754
REMARK INTER:                  -6.531
REMARK INTRA:                  -1.223
REMARK UNBOUND:                -0.706
REMARK SMILES CCCCCCCCCCCCCCC(=O)[O-]
REMARK SMILES IDX 9 1 10 2 11 3 12 4 13 5 14 6 15 7 16 8 17 9 8 10 7 11 6 12
REMARK SMILES IDX 5 13 4 14 3 15 2 16 1 17
REMARK H PARENT
REMARK Flexibility Score: inf
ROOT
ATOM      1  C   UNL     1     -37.199  -8.410   0.612  1.00  0.00     0.000 C 
ENDROOT
BRANCH   1   2
ATOM      2  C   UNL     1     -36.241  -8.254  -0.582  1.00  0.00     0.000 C 
BRANCH   2   3
ATOM      3  C   UNL     1     -36.865  -8.725  -1.905  1.00  0.00     0.000 C 
BRANCH   3   4
ATOM      4  C   UNL     1     -37.691 -10.011  -1.743  1.00  0.00     0.000 C 
BRANCH   4   5
ATOM      5  C   UNL     1     -36.793 -11.251  -1.808  1.00  0.00     0.006 C 
BRANCH   5   6
ATOM      6  C   UNL     1     -35.571 -10.999  -2.696  1.00  0.00     0.053 C 
BRANCH   6   7
ATOM      7  C   UNL     1     -34.336 -11.551  -2.057  1.00  0.00     0.041 C 
ATOM      8  O   UNL     1     -34.298 -11.745  -0.813  1.00  0.00    -0.550 OA
ATOM      9  O   UNL     1     -33.209 -11.808  -2.828  1.00  0.00    -0.550 OA
ENDBRANCH   6   7
ENDBRANCH   5   6
ENDBRANCH   4   5
ENDBRANCH   3   4
ENDBRANCH   2   3
ENDBRANCH   1   2
BRANCH   1  10
ATOM     10  C   UNL     1     -36.558  -9.155   1.794  1.00  0.00     0.000 C 
BRANCH  10  11
ATOM     11  C   UNL     1     -37.190 -10.536   2.033  1.00  0.00    -0.000 C 
BRANCH  11  12
ATOM     12  C   UNL     1     -36.151 -11.670   2.055  1.00  0.00    -0.000 C 
BRANCH  12  13
ATOM     13  C   UNL     1     -35.253 -11.665   3.310  1.00  0.00    -0.000 C 
BRANCH  13  14
ATOM     14  C   UNL     1     -33.782 -11.364   2.970  1.00  0.00    -0.000 C 
BRANCH  14  15
ATOM     15  C   UNL     1     -32.872 -11.406   4.218  1.00  0.00    -0.000 C 
BRANCH  15  16
ATOM     16  C   UNL     1     -31.433 -10.938   3.948  1.00  0.00    -0.003 C 
ATOM     17  C   UNL     1     -30.966 -11.230   2.523  1.00  0.00     0.004 C 
ENDBRANCH  15  16
ENDBRANCH  14  15
ENDBRANCH  13  14
ENDBRANCH  12  13
ENDBRANCH  11  12
ENDBRANCH  10  11
ENDBRANCH   1  10
TORSDOF 13
ENDMDL
MODEL 6
REMARK VINA RESULT:    -3.903      2.550      3.948
REMARK INTER + INTRA:          -7.575
REMARK INTER:                  -6.545
REMARK INTRA:                  -1.030
REMARK UNBOUND:                -0.706
REMARK SMILES CCCCCCCCCCCCCCC(=O)[O-]
REMARK SMILES IDX 9 1 10 2 11 3 12 4 13 5 14 6 15 7 16 8 17 9 8 10 7 11 6 12
REMARK SMILES IDX 5 13 4 14 3 15 2 16 1 17
REMARK H PARENT
REMARK Flexibility Score: inf
ROOT
ATOM      1  C   UNL     1     -35.714 -11.562   1.766  1.00  0.00     0.000 C 
ENDROOT
BRANCH   1   2
ATOM      2  C   UNL     1     -35.528 -11.991   3.233  1.00  0.00     0.000 C 
BRANCH   2   3
ATOM      3  C   UNL     1     -34.062 -11.919   3.688  1.00  0.00     0.000 C 
BRANCH   3   4
ATOM      4  C   UNL     1     -33.140 -11.319   2.615  1.00  0.00     0.000 C 
BRANCH   4   5
ATOM      5  C   UNL     1     -31.758 -11.983   2.647  1.00  0.00     0.006 C 
BRANCH   5   6
ATOM      6  C   UNL     1     -30.647 -10.933   2.737  1.00  0.00     0.053 C 
BRANCH   6   7
ATOM      7  C   UNL     1     -29.998 -10.973   4.086  1.00  0.00     0.041 C 
ATOM      8  O   UNL     1     -28.742 -10.978   4.184  1.00  0.00    -0.550 OA
ATOM      9  O   UNL     1     -30.779 -11.053   5.231  1.00  0.00    -0.550 OA
ENDBRANCH   6   7
ENDBRANCH   5   6
ENDBRANCH   4   5
ENDBRANCH   3   4
ENDBRANCH   2   3
ENDBRANCH   1   2
BRANCH   1  10
ATOM     10  C   UNL     1     -36.817 -10.506   1.593  1.00  0.00     0.000 C 
BRANCH  10  11
ATOM     11  C   UNL     1     -36.253  -9.083   1.442  1.00  0.00    -0.000 C 
BRANCH  11  12
ATOM     12  C   UNL     1     -37.102  -8.202   0.510  1.00  0.00    -0.000 C 
BRANCH  12  13
ATOM     13  C   UNL     1     -36.576  -8.147  -0.940  1.00  0.00    -0.000 C 
BRANCH  13  14
ATOM     14  C   UNL     1     -36.984  -9.390  -1.753  1.00  0.00    -0.000 C 
BRANCH  14  15
ATOM     15  C   UNL     1     -35.960  -9.728  -2.858  1.00  0.00    -0.000 C 
BRANCH  15  16
ATOM     16  C   UNL     1     -35.551 -11.210  -2.888  1.00  0.00    -0.003 C 
ATOM     17  C   UNL     1     -34.299 -11.502  -2.064  1.00  0.00     0.004 C 
ENDBRANCH  15  16
ENDBRANCH  14  15
ENDBRANCH  13  14
ENDBRANCH  12  13
ENDBRANCH  11  12
ENDBRANCH  10  11
ENDBRANCH   1  10
TORSDOF 13
ENDMDL
MODEL 7
REMARK VINA RESULT:    -3.818     19.866     22.371
REMARK INTER + INTRA:          -7.425
REMARK INTER:                  -4.951
REMARK INTRA:                  -2.474
REMARK UNBOUND:                -0.706
REMARK SMILES CCCCCCCCCCCCCCC(=O)[O-]
REMARK SMILES IDX 9 1 10 2 11 3 12 4 13 5 14 6 15 7 16 8 17 9 8 10 7 11 6 12
REMARK SMILES IDX 5 13 4 14 3 15 2 16 1 17
REMARK H PARENT
REMARK Flexibility Score: inf
ROOT
ATOM      1  C   UNL     1     -20.692   2.786   9.145  1.00  0.00     0.000 C 
ENDROOT
BRANCH   1   2
ATOM      2  C   UNL     1     -21.679   1.736   9.683  1.00  0.00     0.000 C 
BRANCH   2   3
ATOM      3  C   UNL     1     -22.446   2.226  10.922  1.00  0.00     0.000 C 
BRANCH   3   4
ATOM      4  C   UNL     1     -22.395   3.754  11.081  1.00  0.00     0.000 C 
BRANCH   4   5
ATOM      5  C   UNL     1     -22.882   4.177  12.471  1.00  0.00     0.006 C 
BRANCH   5   6
ATOM      6  C   UNL     1     -22.797   5.696  12.644  1.00  0.00     0.053 C 
BRANCH   6   7
ATOM      7  C   UNL     1     -24.093   6.341  12.262  1.00  0.00     0.041 C 
ATOM      8  O   UNL     1     -24.131   7.568  11.981  1.00  0.00    -0.550 OA
ATOM      9  O   UNL     1     -25.266   5.597  12.262  1.00  0.00    -0.550 OA
ENDBRANCH   6   7
ENDBRANCH   5   6
ENDBRANCH   4   5
ENDBRANCH   3   4
ENDBRANCH   2   3
ENDBRANCH   1   2
BRANCH   1  10
ATOM     10  C   UNL     1     -19.251   2.257   9.060  1.00  0.00     0.000 C 
BRANCH  10  11
ATOM     11  C   UNL     1     -18.889   1.341  10.241  1.00  0.00    -0.000 C 
BRANCH  11  12
ATOM     12  C   UNL     1     -18.181   2.093  11.382  1.00  0.00    -0.000 C 
BRANCH  12  13
ATOM     13  C   UNL     1     -19.102   2.411  12.579  1.00  0.00    -0.000 C 
BRANCH  13  14
ATOM     14  C   UNL     1     -19.180   3.921  12.867  1.00  0.00    -0.000 C 
BRANCH  14  15
ATOM     15  C   UNL     1     -18.538   4.765  11.744  1.00  0.00    -0.000 C 
BRANCH  15  16
ATOM     16  C   UNL     1     -19.252   6.103  11.494  1.00  0.00    -0.003 C 
ATOM     17  C   UNL     1     -19.769   6.248  10.064  1.00  0.00     0.004 C 
ENDBRANCH  15  16
ENDBRANCH  14  15
ENDBRANCH  13  14
ENDBRANCH  12  13
ENDBRANCH  11  12
ENDBRANCH  10  11
ENDBRANCH   1  10
TORSDOF 13
ENDMDL
MODEL 8
REMARK VINA RESULT:    -3.757     19.959     21.811
REMARK INTER + INTRA:          -7.318
REMARK INTER:                  -5.237
REMARK INTRA:                  -2.081
REMARK UNBOUND:                -0.706
REMARK SMILES CCCCCCCCCCCCCCC(=O)[O-]
REMARK SMILES IDX 9 1 10 2 11 3 12 4 13 5 14 6 15 7 16 8 17 9 8 10 7 11 6 12
REMARK SMILES IDX 5 13 4 14 3 15 2 16 1 17
REMARK H PARENT
REMARK Flexibility Score: inf
ROOT
ATOM      1  C   UNL     1     -22.257   3.224  11.888  1.00  0.00     0.000 C 
ENDROOT
BRANCH   1   2
ATOM      2  C   UNL     1     -21.418   3.723  13.078  1.00  0.00     0.000 C 
BRANCH   2   3
ATOM      3  C   UNL     1     -19.912   3.751  12.767  1.00  0.00     0.000 C 
BRANCH   3   4
ATOM      4  C   UNL     1     -19.422   2.453  12.107  1.00  0.00     0.000 C 
BRANCH   4   5
ATOM      5  C   UNL     1     -18.971   2.709  10.663  1.00  0.00     0.006 C 
BRANCH   5   6
ATOM      6  C   UNL     1     -19.250   1.493   9.777  1.00  0.00     0.053 C 
BRANCH   6   7
ATOM      7  C   UNL     1     -20.529   1.676   9.022  1.00  0.00     0.041 C 
ATOM      8  O   UNL     1     -20.658   2.636   8.217  1.00  0.00    -0.550 OA
ATOM      9  O   UNL     1     -21.596   0.816   9.243  1.00  0.00    -0.550 OA
ENDBRANCH   6   7
ENDBRANCH   5   6
ENDBRANCH   4   5
ENDBRANCH   3   4
ENDBRANCH   2   3
ENDBRANCH   1   2
BRANCH   1  10
ATOM     10  C   UNL     1     -23.471   4.123  11.601  1.00  0.00     0.000 C 
BRANCH  10  11
ATOM     11  C   UNL     1     -23.739   5.131  12.731  1.00  0.00    -0.000 C 
BRANCH  11  12
ATOM     12  C   UNL     1     -24.372   6.439  12.224  1.00  0.00    -0.000 C 
BRANCH  12  13
ATOM     13  C   UNL     1     -23.616   7.708  12.673  1.00  0.00    -0.000 C 
BRANCH  13  14
ATOM     14  C   UNL     1     -22.092   7.494  12.705  1.00  0.00    -0.000 C 
BRANCH  14  15
ATOM     15  C   UNL     1     -21.421   7.859  11.363  1.00  0.00    -0.000 C 
BRANCH  15  16
ATOM     16  C   UNL     1     -20.354   6.848  10.912  1.00  0.00    -0.003 C 
ATOM     17  C   UNL     1     -20.811   5.978   9.742  1.00  0.00     0.004 C 
ENDBRANCH  15  16
ENDBRANCH  14  15
ENDBRANCH  13  14
ENDBRANCH  12  13
ENDBRANCH  11  12
ENDBRANCH  10  11
ENDBRANCH   1  10
TORSDOF 13
ENDMDL
MODEL 9
REMARK VINA RESULT:    -3.748      2.790      4.391
REMARK INTER + INTRA:          -7.303
REMARK INTER:                  -5.967
REMARK INTRA:                  -1.336
REMARK UNBOUND:                -0.706
REMARK SMILES CCCCCCCCCCCCCCC(=O)[O-]
REMARK SMILES IDX 9 1 10 2 11 3 12 4 13 5 14 6 15 7 16 8 17 9 8 10 7 11 6 12
REMARK SMILES IDX 5 13 4 14 3 15 2 16 1 17
REMARK H PARENT
REMARK Flexibility Score: inf
ROOT
ATOM      1  C   UNL     1     -35.905  -9.285   1.829  1.00  0.00     0.000 C 
ENDROOT
BRANCH   1   2
ATOM      2  C   UNL     1     -36.584 -10.643   2.081  1.00  0.00     0.000 C 
BRANCH   2   3
ATOM      3  C   UNL     1     -35.626 -11.829   1.877  1.00  0.00     0.000 C 
BRANCH   3   4
ATOM      4  C   UNL     1     -34.704 -12.056   3.085  1.00  0.00     0.000 C 
BRANCH   4   5
ATOM      5  C   UNL     1     -33.258 -11.671   2.751  1.00  0.00     0.006 C 
BRANCH   5   6
ATOM      6  C   UNL     1     -32.573 -11.014   3.953  1.00  0.00     0.053 C 
BRANCH   6   7
ATOM      7  C   UNL     1     -31.093 -10.952   3.742  1.00  0.00     0.041 C 
ATOM      8  O   UNL     1     -30.615 -11.025   2.579  1.00  0.00    -0.550 OA
ATOM      9  O   UNL     1     -30.239 -10.861   4.833  1.00  0.00    -0.550 OA
ENDBRANCH   6   7
ENDBRANCH   5   6
ENDBRANCH   4   5
ENDBRANCH   3   4
ENDBRANCH   2   3
ENDBRANCH   1   2
BRANCH   1  10
ATOM     10  C   UNL     1     -36.484  -8.550   0.609  1.00  0.00     0.000 C 
BRANCH  10  11
ATOM     11  C   UNL     1     -37.666  -9.301  -0.026  1.00  0.00    -0.000 C 
BRANCH  11  12
ATOM     12  C   UNL     1     -37.423  -9.650  -1.505  1.00  0.00    -0.000 C 
BRANCH  12  13
ATOM     13  C   UNL     1     -35.935  -9.620  -1.913  1.00  0.00    -0.000 C 
BRANCH  13  14
ATOM     14  C   UNL     1     -35.272 -11.005  -1.793  1.00  0.00    -0.000 C 
BRANCH  14  15
ATOM     15  C   UNL     1     -35.927 -12.049  -2.722  1.00  0.00    -0.000 C 
BRANCH  15  16
ATOM     16  C   UNL     1     -35.835 -11.692  -4.215  1.00  0.00    -0.003 C 
ATOM     17  C   UNL     1     -37.202 -11.516  -4.874  1.00  0.00     0.004 C 
ENDBRANCH  15  16
ENDBRANCH  14  15
ENDBRANCH  13  14
ENDBRANCH  12  13
ENDBRANCH  11  12
ENDBRANCH  10  11
ENDBRANCH   1  10
TORSDOF 13
ENDMDL
