MODEL 1
REMARK VINA RESULT:    -4.078      0.000      0.000
REMARK INTER + INTRA:          -5.571
REMARK INTER:                  -5.270
REMARK INTRA:                  -0.300
REMARK UNBOUND:                -0.300
REMARK SMILES CCCCCCC(=O)[O-]
REMARK SMILES IDX 5 1 6 2 7 3 8 4 9 5 4 6 3 7 2 8 1 9
REMARK H PARENT
REMARK Flexibility Score: inf
ROOT
ATOM      1  C   UNL     1       4.248 -34.412  22.175  1.00  0.00     0.006 C 
ENDROOT
BRANCH   1   2
ATOM      2  C   UNL     1       4.223 -34.089  20.678  1.00  0.00     0.053 C 
BRANCH   2   3
ATOM      3  C   UNL     1       5.190 -34.960  19.938  1.00  0.00     0.041 C 
ATOM      4  O   UNL     1       5.861 -34.491  18.982  1.00  0.00    -0.550 OA
ATOM      5  O   UNL     1       5.314 -36.302  20.273  1.00  0.00    -0.550 OA
ENDBRANCH   2   3
ENDBRANCH   1   2
BRANCH   1   6
ATOM      6  C   UNL     1       5.358 -33.624  22.887  1.00  0.00     0.000 C 
BRANCH   6   7
ATOM      7  C   UNL     1       6.109 -34.462  23.937  1.00  0.00    -0.000 C 
BRANCH   7   8
ATOM      8  C   UNL     1       5.834 -35.976  23.874  1.00  0.00    -0.003 C 
ATOM      9  C   UNL     1       5.375 -36.557  25.211  1.00  0.00     0.004 C 
ENDBRANCH   7   8
ENDBRANCH   6   7
ENDBRANCH   1   6
TORSDOF 5
ENDMDL
MODEL 2
REMARK VINA RESULT:    -4.016      0.988      1.454
REMARK INTER + INTRA:          -5.491
REMARK INTER:                  -5.304
REMARK INTRA:                  -0.187
REMARK UNBOUND:                -0.300
REMARK SMILES CCCCCCC(=O)[O-]
REMARK SMILES IDX 5 1 6 2 7 3 8 4 9 5 4 6 3 7 2 8 1 9
REMARK H PARENT
REMARK Flexibility Score: inf
ROOT
ATOM      1  C   UNL     1       4.337 -34.809  21.499  1.00  0.00     0.006 C 
ENDROOT
BRANCH   1   2
ATOM      2  C   UNL     1       5.051 -34.563  20.167  1.00  0.00     0.053 C 
BRANCH   2   3
ATOM      3  C   UNL     1       4.661 -35.605  19.164  1.00  0.00     0.041 C 
ATOM      4  O   UNL     1       4.745 -36.826  19.455  1.00  0.00    -0.550 OA
ATOM      5  O   UNL     1       4.254 -35.226  17.892  1.00  0.00    -0.550 OA
ENDBRANCH   2   3
ENDBRANCH   1   2
BRANCH   1   6
ATOM      6  C   UNL     1       4.728 -33.744  22.535  1.00  0.00     0.000 C 
BRANCH   6   7
ATOM      7  C   UNL     1       5.787 -34.243  23.536  1.00  0.00    -0.000 C 
BRANCH   7   8
ATOM      8  C   UNL     1       5.912 -35.774  23.635  1.00  0.00    -0.003 C 
ATOM      9  C   UNL     1       5.497 -36.320  25.002  1.00  0.00     0.004 C 
ENDBRANCH   7   8
ENDBRANCH   6   7
ENDBRANCH   1   6
TORSDOF 5
ENDMDL
MODEL 3
REMARK VINA RESULT:    -3.846      1.310      1.987
REMARK INTER + INTRA:          -5.271
REMARK INTER:                  -5.163
REMARK INTRA:                  -0.108
REMARK UNBOUND:                -0.300
REMARK SMILES CCCCCCC(=O)[O-]
REMARK SMILES IDX 5 1 6 2 7 3 8 4 9 5 4 6 3 7 2 8 1 9
REMARK H PARENT
REMARK Flexibility Score: inf
ROOT
ATOM      1  C   UNL     1       5.380 -35.937  21.139  1.00  0.00     0.006 C 
ENDROOT
BRANCH   1   2
ATOM      2  C   UNL     1       4.694 -36.240  19.804  1.00  0.00     0.053 C 
BRANCH   2   3
ATOM      3  C   UNL     1       4.978 -35.155  18.812  1.00  0.00     0.041 C 
ATOM      4  O   UNL     1       5.951 -34.377  18.986  1.00  0.00    -0.550 OA
ATOM      5  O   UNL     1       4.137 -34.973  17.722  1.00  0.00    -0.550 OA
ENDBRANCH   2   3
ENDBRANCH   1   2
BRANCH   1   6
ATOM      6  C   UNL     1       4.403 -35.265  22.116  1.00  0.00     0.000 C 
BRANCH   6   7
ATOM      7  C   UNL     1       4.918 -33.912  22.641  1.00  0.00    -0.000 C 
BRANCH   7   8
ATOM      8  C   UNL     1       6.078 -34.008  23.650  1.00  0.00    -0.003 C 
ATOM      9  C   UNL     1       6.076 -35.317  24.439  1.00  0.00     0.004 C 
ENDBRANCH   7   8
ENDBRANCH   6   7
ENDBRANCH   1   6
TORSDOF 5
ENDMDL
MODEL 4
REMARK VINA RESULT:    -3.761      2.087      4.264
REMARK INTER + INTRA:          -5.160
REMARK INTER:                  -4.962
REMARK INTRA:                  -0.199
REMARK UNBOUND:                -0.300
REMARK SMILES CCCCCCC(=O)[O-]
REMARK SMILES IDX 5 1 6 2 7 3 8 4 9 5 4 6 3 7 2 8 1 9
REMARK H PARENT
REMARK Flexibility Score: inf
ROOT
ATOM      1  C   UNL     1       6.027 -34.076  22.801  1.00  0.00     0.006 C 
ENDROOT
BRANCH   1   2
ATOM      2  C   UNL     1       6.035 -34.620  24.232  1.00  0.00     0.053 C 
BRANCH   2   3
ATOM      3  C   UNL     1       5.629 -36.061  24.247  1.00  0.00     0.041 C 
ATOM      4  O   UNL     1       5.638 -36.732  23.182  1.00  0.00    -0.550 OA
ATOM      5  O   UNL     1       5.195 -36.648  25.428  1.00  0.00    -0.550 OA
ENDBRANCH   2   3
ENDBRANCH   1   2
BRANCH   1   6
ATOM      6  C   UNL     1       4.604 -33.691  22.368  1.00  0.00     0.000 C 
BRANCH   6   7
ATOM      7  C   UNL     1       4.146 -34.426  21.095  1.00  0.00    -0.000 C 
BRANCH   7   8
ATOM      8  C   UNL     1       5.287 -34.908  20.180  1.00  0.00    -0.003 C 
ATOM      9  C   UNL     1       5.123 -34.452  18.730  1.00  0.00     0.004 C 
ENDBRANCH   7   8
ENDBRANCH   6   7
ENDBRANCH   1   6
TORSDOF 5
ENDMDL
MODEL 5
REMARK VINA RESULT:    -3.533      1.225      1.665
REMARK INTER + INTRA:          -4.867
REMARK INTER:                  -4.770
REMARK INTRA:                  -0.097
REMARK UNBOUND:                -0.300
REMARK SMILES CCCCCCC(=O)[O-]
REMARK SMILES IDX 5 1 6 2 7 3 8 4 9 5 4 6 3 7 2 8 1 9
REMARK H PARENT
REMARK Flexibility Score: inf
ROOT
ATOM      1  C   UNL     1       4.046 -34.468  20.928  1.00  0.00     0.006 C 
ENDROOT
BRANCH   1   2
ATOM      2  C   UNL     1       5.188 -35.170  20.188  1.00  0.00     0.053 C 
BRANCH   2   3
ATOM      3  C   UNL     1       4.975 -36.652  20.181  1.00  0.00     0.041 C 
ATOM      4  O   UNL     1       4.655 -37.241  19.116  1.00  0.00    -0.550 OA
ATOM      5  O   UNL     1       5.080 -37.374  21.363  1.00  0.00    -0.550 OA
ENDBRANCH   2   3
ENDBRANCH   1   2
BRANCH   1   6
ATOM      6  C   UNL     1       4.222 -34.589  22.449  1.00  0.00     0.000 C 
BRANCH   6   7
ATOM      7  C   UNL     1       5.553 -33.997  22.947  1.00  0.00    -0.000 C 
BRANCH   7   8
ATOM      8  C   UNL     1       6.125 -34.662  24.213  1.00  0.00    -0.003 C 
ATOM      9  C   UNL     1       5.485 -36.017  24.516  1.00  0.00     0.004 C 
ENDBRANCH   7   8
ENDBRANCH   6   7
ENDBRANCH   1   6
TORSDOF 5
ENDMDL
MODEL 6
REMARK VINA RESULT:    -3.499      2.427      3.654
REMARK INTER + INTRA:          -4.823
REMARK INTER:                  -4.488
REMARK INTRA:                  -0.335
REMARK UNBOUND:                -0.300
REMARK SMILES CCCCCCC(=O)[O-]
REMARK SMILES IDX 5 1 6 2 7 3 8 4 9 5 4 6 3 7 2 8 1 9
REMARK H PARENT
REMARK Flexibility Score: inf
ROOT
ATOM      1  C   UNL     1       4.518 -34.096  20.553  1.00  0.00     0.006 C 
ENDROOT
BRANCH   1   2
ATOM      2  C   UNL     1       3.924 -34.353  21.941  1.00  0.00     0.053 C 
BRANCH   2   3
ATOM      3  C   UNL     1       5.010 -34.445  22.967  1.00  0.00     0.041 C 
ATOM      4  O   UNL     1       5.714 -33.437  23.236  1.00  0.00    -0.550 OA
ATOM      5  O   UNL     1       5.277 -35.657  23.590  1.00  0.00    -0.550 OA
ENDBRANCH   2   3
ENDBRANCH   1   2
BRANCH   1   6
ATOM      6  C   UNL     1       5.417 -35.263  20.117  1.00  0.00     0.000 C 
BRANCH   6   7
ATOM      7  C   UNL     1       4.633 -36.406  19.447  1.00  0.00    -0.000 C 
BRANCH   7   8
ATOM      8  C   UNL     1       5.119 -37.822  19.807  1.00  0.00    -0.003 C 
ATOM      9  C   UNL     1       4.841 -38.197  21.263  1.00  0.00     0.004 C 
ENDBRANCH   7   8
ENDBRANCH   6   7
ENDBRANCH   1   6
TORSDOF 5
ENDMDL
MODEL 7
REMARK VINA RESULT:    -3.488      2.414      4.359
REMARK INTER + INTRA:          -4.808
REMARK INTER:                  -4.465
REMARK INTRA:                  -0.343
REMARK UNBOUND:                -0.300
REMARK SMILES CCCCCCC(=O)[O-]
REMARK SMILES IDX 5 1 6 2 7 3 8 4 9 5 4 6 3 7 2 8 1 9
REMARK H PARENT
REMARK Flexibility Score: inf
ROOT
ATOM      1  C   UNL     1       4.442 -36.123  21.913  1.00  0.00     0.006 C 
ENDROOT
BRANCH   1   2
ATOM      2  C   UNL     1       5.658 -35.480  22.585  1.00  0.00     0.053 C 
BRANCH   2   3
ATOM      3  C   UNL     1       5.410 -34.026  22.838  1.00  0.00     0.041 C 
ATOM      4  O   UNL     1       6.125 -33.395  23.659  1.00  0.00    -0.550 OA
ATOM      5  O   UNL     1       4.356 -33.381  22.204  1.00  0.00    -0.550 OA
ENDBRANCH   2   3
ENDBRANCH   1   2
BRANCH   1   6
ATOM      6  C   UNL     1       4.870 -37.270  20.984  1.00  0.00     0.000 C 
BRANCH   6   7
ATOM      7  C   UNL     1       5.069 -36.818  19.526  1.00  0.00    -0.000 C 
BRANCH   7   8
ATOM      8  C   UNL     1       4.368 -35.497  19.157  1.00  0.00    -0.003 C 
ATOM      9  C   UNL     1       5.344 -34.407  18.714  1.00  0.00     0.004 C 
ENDBRANCH   7   8
ENDBRANCH   6   7
ENDBRANCH   1   6
TORSDOF 5
ENDMDL
MODEL 8
REMARK VINA RESULT:    -3.387      2.893      3.831
REMARK INTER + INTRA:          -4.678
REMARK INTER:                  -4.427
REMARK INTRA:                  -0.251
REMARK UNBOUND:                -0.300
REMARK SMILES CCCCCCC(=O)[O-]
REMARK SMILES IDX 5 1 6 2 7 3 8 4 9 5 4 6 3 7 2 8 1 9
REMARK H PARENT
REMARK Flexibility Score: inf
ROOT
ATOM      1  C   UNL     1       5.804 -35.141  20.258  1.00  0.00     0.006 C 
ENDROOT
BRANCH   1   2
ATOM      2  C   UNL     1       5.839 -35.219  21.787  1.00  0.00     0.053 C 
BRANCH   2   3
ATOM      3  C   UNL     1       5.073 -34.082  22.387  1.00  0.00     0.041 C 
ATOM      4  O   UNL     1       5.557 -33.431  23.349  1.00  0.00    -0.550 OA
ATOM      5  O   UNL     1       3.803 -33.774  21.917  1.00  0.00    -0.550 OA
ENDBRANCH   2   3
ENDBRANCH   1   2
BRANCH   1   6
ATOM      6  C   UNL     1       4.915 -36.248  19.672  1.00  0.00     0.000 C 
BRANCH   6   7
ATOM      7  C   UNL     1       4.650 -37.393  20.667  1.00  0.00    -0.000 C 
BRANCH   7   8
ATOM      8  C   UNL     1       5.383 -38.709  20.348  1.00  0.00    -0.003 C 
ATOM      9  C   UNL     1       5.480 -39.646  21.552  1.00  0.00     0.004 C 
ENDBRANCH   7   8
ENDBRANCH   6   7
ENDBRANCH   1   6
TORSDOF 5
ENDMDL
