MODEL 1
REMARK VINA RESULT:    -6.599      0.000      0.000
REMARK INTER + INTRA:          -7.259
REMARK INTER:                  -6.985
REMARK INTRA:                  -0.274
REMARK UNBOUND:                -0.274
REMARK SMILES CC1=CC[C@@H]2[C@H]3[C@H](C(C)C)CC[C@]2(C)[C@@H]13
REMARK SMILES IDX 1 1 2 2 3 3 4 4 5 5 6 6 15 7 13 8 12 9 11 10 7 11 14 12 8 13
REMARK SMILES IDX 9 14 10 15
REMARK H PARENT
REMARK Flexibility Score: inf
ROOT
ATOM      1  C   UNL     1      10.870  29.536  20.872  1.00  0.00     0.039 C 
ATOM      2  C   UNL     1      11.325  30.915  21.235  1.00  0.00    -0.073 C 
ATOM      3  C   UNL     1      12.605  31.319  21.035  1.00  0.00    -0.027 C 
ATOM      4  C   UNL     1      13.001  32.751  21.416  1.00  0.00     0.031 C 
ATOM      5  C   UNL     1      11.784  33.494  22.061  1.00  0.00     0.003 C 
ATOM      6  C   UNL     1      11.131  32.534  23.089  1.00  0.00     0.004 C 
ATOM      7  C   UNL     1      10.371  31.920  21.893  1.00  0.00     0.024 C 
ATOM      8  C   UNL     1      10.497  33.303  21.220  1.00  0.00    -0.022 C 
ATOM      9  C   UNL     1       9.360  34.237  21.739  1.00  0.00     0.008 C 
ATOM     10  C   UNL     1       9.403  34.449  23.276  1.00  0.00     0.005 C 
ATOM     11  C   UNL     1      10.201  33.344  24.041  1.00  0.00    -0.005 C 
ATOM     12  C   UNL     1      10.612  33.375  19.674  1.00  0.00     0.012 C 
ENDROOT
BRANCH  11  13
ATOM     13  C   UNL     1       9.308  32.502  25.012  1.00  0.00    -0.014 C 
ATOM     14  C   UNL     1       7.834  32.934  24.959  1.00  0.00     0.007 C 
ATOM     15  C   UNL     1       9.799  32.401  26.476  1.00  0.00     0.007 C 
ENDBRANCH  11  13
TORSDOF 1
ENDMDL
MODEL 2
REMARK VINA RESULT:    -6.488      1.858      4.533
REMARK INTER + INTRA:          -7.141
REMARK INTER:                  -6.888
REMARK INTRA:                  -0.254
REMARK UNBOUND:                -0.274
REMARK SMILES CC1=CC[C@@H]2[C@H]3[C@H](C(C)C)CC[C@]2(C)[C@@H]13
REMARK SMILES IDX 1 1 2 2 3 3 4 4 5 5 6 6 15 7 13 8 12 9 11 10 7 11 14 12 8 13
REMARK SMILES IDX 9 14 10 15
REMARK H PARENT
REMARK Flexibility Score: inf
ROOT
ATOM      1  C   UNL     1       7.423  31.148  24.764  1.00  0.00     0.039 C 
ATOM      2  C   UNL     1       8.190  32.356  24.325  1.00  0.00    -0.073 C 
ATOM      3  C   UNL     1       8.424  33.395  25.165  1.00  0.00    -0.027 C 
ATOM      4  C   UNL     1       9.231  34.597  24.655  1.00  0.00     0.031 C 
ATOM      5  C   UNL     1       9.596  34.400  23.147  1.00  0.00     0.003 C 
ATOM      6  C   UNL     1       8.323  33.908  22.409  1.00  0.00     0.004 C 
ATOM      7  C   UNL     1       8.707  32.491  22.888  1.00  0.00     0.024 C 
ATOM      8  C   UNL     1      10.169  32.985  22.885  1.00  0.00    -0.022 C 
ATOM      9  C   UNL     1      10.747  32.887  21.439  1.00  0.00     0.008 C 
ATOM     10  C   UNL     1       9.954  33.737  20.410  1.00  0.00     0.005 C 
ATOM     11  C   UNL     1       8.505  34.095  20.874  1.00  0.00    -0.005 C 
ATOM     12  C   UNL     1      11.162  32.392  23.920  1.00  0.00     0.012 C 
ENDROOT
BRANCH  11  13
ATOM     13  C   UNL     1       7.396  33.465  19.967  1.00  0.00    -0.014 C 
ATOM     14  C   UNL     1       7.197  34.257  18.665  1.00  0.00     0.007 C 
ATOM     15  C   UNL     1       6.038  33.179  20.650  1.00  0.00     0.007 C 
ENDBRANCH  11  13
TORSDOF 1
ENDMDL
MODEL 3
REMARK VINA RESULT:    -6.239      1.555      2.618
REMARK INTER + INTRA:          -6.878
REMARK INTER:                  -6.614
REMARK INTRA:                  -0.264
REMARK UNBOUND:                -0.274
REMARK SMILES CC1=CC[C@@H]2[C@H]3[C@H](C(C)C)CC[C@]2(C)[C@@H]13
REMARK SMILES IDX 1 1 2 2 3 3 4 4 5 5 6 6 15 7 13 8 12 9 11 10 7 11 14 12 8 13
REMARK SMILES IDX 9 14 10 15
REMARK H PARENT
REMARK Flexibility Score: inf
ROOT
ATOM      1  C   UNL     1      14.875  30.094  22.762  1.00  0.00     0.039 C 
ATOM      2  C   UNL     1      14.373  31.320  22.067  1.00  0.00    -0.073 C 
ATOM      3  C   UNL     1      15.222  32.264  21.586  1.00  0.00    -0.027 C 
ATOM      4  C   UNL     1      14.642  33.490  20.870  1.00  0.00     0.031 C 
ATOM      5  C   UNL     1      13.079  33.438  20.890  1.00  0.00     0.003 C 
ATOM      6  C   UNL     1      12.634  33.053  22.326  1.00  0.00     0.004 C 
ATOM      7  C   UNL     1      12.872  31.587  21.906  1.00  0.00     0.024 C 
ATOM      8  C   UNL     1      12.556  32.043  20.466  1.00  0.00    -0.022 C 
ATOM      9  C   UNL     1      11.010  32.076  20.261  1.00  0.00     0.008 C 
ATOM     10  C   UNL     1      10.289  33.045  21.237  1.00  0.00     0.005 C 
ATOM     11  C   UNL     1      11.125  33.390  22.512  1.00  0.00    -0.005 C 
ATOM     12  C   UNL     1      13.257  31.324  19.282  1.00  0.00     0.012 C 
ENDROOT
BRANCH  11  13
ATOM     13  C   UNL     1      10.464  32.881  23.836  1.00  0.00    -0.014 C 
ATOM     14  C   UNL     1       9.039  32.352  23.603  1.00  0.00     0.007 C 
ATOM     15  C   UNL     1      10.498  33.859  25.034  1.00  0.00     0.007 C 
ENDBRANCH  11  13
TORSDOF 1
ENDMDL
MODEL 4
REMARK VINA RESULT:    -6.192      1.381      4.367
REMARK INTER + INTRA:          -6.828
REMARK INTER:                  -6.545
REMARK INTRA:                  -0.283
REMARK UNBOUND:                -0.274
REMARK SMILES CC1=CC[C@@H]2[C@H]3[C@H](C(C)C)CC[C@]2(C)[C@@H]13
REMARK SMILES IDX 1 1 2 2 3 3 4 4 5 5 6 6 15 7 13 8 12 9 11 10 7 11 14 12 8 13
REMARK SMILES IDX 9 14 10 15
REMARK H PARENT
REMARK Flexibility Score: inf
ROOT
ATOM      1  C   UNL     1       9.610  34.632  25.006  1.00  0.00     0.039 C 
ATOM      2  C   UNL     1       9.424  33.620  23.919  1.00  0.00    -0.073 C 
ATOM      3  C   UNL     1       8.397  32.735  23.939  1.00  0.00    -0.027 C 
ATOM      4  C   UNL     1       8.256  31.733  22.785  1.00  0.00     0.031 C 
ATOM      5  C   UNL     1       9.441  31.901  21.777  1.00  0.00     0.003 C 
ATOM      6  C   UNL     1      10.752  32.011  22.599  1.00  0.00     0.004 C 
ATOM      7  C   UNL     1      10.417  33.510  22.756  1.00  0.00     0.024 C 
ATOM      8  C   UNL     1       9.665  33.390  21.414  1.00  0.00    -0.022 C 
ATOM      9  C   UNL     1      10.680  33.520  20.237  1.00  0.00     0.008 C 
ATOM     10  C   UNL     1      11.784  32.429  20.264  1.00  0.00     0.005 C 
ATOM     11  C   UNL     1      11.974  31.761  21.665  1.00  0.00    -0.005 C 
ATOM     12  C   UNL     1       8.418  34.283  21.172  1.00  0.00     0.012 C 
ENDROOT
BRANCH  11  13
ATOM     13  C   UNL     1      13.384  32.034  22.288  1.00  0.00    -0.014 C 
ATOM     14  C   UNL     1      14.076  33.244  21.641  1.00  0.00     0.007 C 
ATOM     15  C   UNL     1      14.344  30.822  22.357  1.00  0.00     0.007 C 
ENDBRANCH  11  13
TORSDOF 1
ENDMDL
MODEL 5
REMARK VINA RESULT:    -6.085      1.313      2.671
REMARK INTER + INTRA:          -6.715
REMARK INTER:                  -6.308
REMARK INTRA:                  -0.407
REMARK UNBOUND:                -0.274
REMARK SMILES CC1=CC[C@@H]2[C@H]3[C@H](C(C)C)CC[C@]2(C)[C@@H]13
REMARK SMILES IDX 1 1 2 2 3 3 4 4 5 5 6 6 15 7 13 8 12 9 11 10 7 11 14 12 8 13
REMARK SMILES IDX 9 14 10 15
REMARK H PARENT
REMARK Flexibility Score: inf
ROOT
ATOM      1  C   UNL     1      13.020  33.135  22.009  1.00  0.00     0.039 C 
ATOM      2  C   UNL     1      11.617  33.206  21.490  1.00  0.00    -0.073 C 
ATOM      3  C   UNL     1      11.321  33.829  20.322  1.00  0.00    -0.027 C 
ATOM      4  C   UNL     1       9.864  33.852  19.840  1.00  0.00     0.031 C 
ATOM      5  C   UNL     1       8.937  33.159  20.892  1.00  0.00     0.003 C 
ATOM      6  C   UNL     1       9.334  33.686  22.296  1.00  0.00     0.004 C 
ATOM      7  C   UNL     1      10.445  32.614  22.282  1.00  0.00     0.024 C 
ATOM      8  C   UNL     1       9.522  31.800  21.350  1.00  0.00    -0.022 C 
ATOM      9  C   UNL     1       8.481  31.017  22.209  1.00  0.00     0.008 C 
ATOM     10  C   UNL     1       7.587  31.945  23.074  1.00  0.00     0.005 C 
ATOM     11  C   UNL     1       8.199  33.364  23.313  1.00  0.00    -0.005 C 
ATOM     12  C   UNL     1      10.164  30.878  20.280  1.00  0.00     0.012 C 
ENDROOT
BRANCH  11  13
ATOM     13  C   UNL     1       8.522  33.647  24.818  1.00  0.00    -0.014 C 
ATOM     14  C   UNL     1       9.575  34.754  24.983  1.00  0.00     0.007 C 
ATOM     15  C   UNL     1       8.881  32.414  25.682  1.00  0.00     0.007 C 
ENDBRANCH  11  13
TORSDOF 1
ENDMDL
MODEL 6
REMARK VINA RESULT:    -6.045      1.817      4.126
REMARK INTER + INTRA:          -6.673
REMARK INTER:                  -6.334
REMARK INTRA:                  -0.339
REMARK UNBOUND:                -0.274
REMARK SMILES CC1=CC[C@@H]2[C@H]3[C@H](C(C)C)CC[C@]2(C)[C@@H]13
REMARK SMILES IDX 1 1 2 2 3 3 4 4 5 5 6 6 15 7 13 8 12 9 11 10 7 11 14 12 8 13
REMARK SMILES IDX 9 14 10 15
REMARK H PARENT
REMARK Flexibility Score: inf
ROOT
ATOM      1  C   UNL     1       8.150  29.861  20.756  1.00  0.00     0.039 C 
ATOM      2  C   UNL     1       8.035  31.153  21.503  1.00  0.00    -0.073 C 
ATOM      3  C   UNL     1       6.954  31.962  21.364  1.00  0.00    -0.027 C 
ATOM      4  C   UNL     1       6.893  33.265  22.171  1.00  0.00     0.031 C 
ATOM      5  C   UNL     1       8.204  33.446  23.005  1.00  0.00     0.003 C 
ATOM      6  C   UNL     1       9.405  33.124  22.077  1.00  0.00     0.004 C 
ATOM      7  C   UNL     1       9.157  31.641  22.427  1.00  0.00     0.024 C 
ATOM      8  C   UNL     1       8.574  32.147  23.763  1.00  0.00    -0.022 C 
ATOM      9  C   UNL     1       9.737  32.412  24.769  1.00  0.00     0.008 C 
ATOM     10  C   UNL     1      10.750  33.471  24.259  1.00  0.00     0.005 C 
ATOM     11  C   UNL     1      10.715  33.681  22.710  1.00  0.00    -0.005 C 
ATOM     12  C   UNL     1       7.432  31.339  24.436  1.00  0.00     0.012 C 
ENDROOT
BRANCH  11  13
ATOM     13  C   UNL     1      12.050  33.268  22.004  1.00  0.00    -0.014 C 
ATOM     14  C   UNL     1      11.961  33.407  20.476  1.00  0.00     0.007 C 
ATOM     15  C   UNL     1      12.632  31.890  22.399  1.00  0.00     0.007 C 
ENDBRANCH  11  13
TORSDOF 1
ENDMDL
MODEL 7
REMARK VINA RESULT:    -6.008      1.428      4.917
REMARK INTER + INTRA:          -6.634
REMARK INTER:                  -6.368
REMARK INTRA:                  -0.266
REMARK UNBOUND:                -0.274
REMARK SMILES CC1=CC[C@@H]2[C@H]3[C@H](C(C)C)CC[C@]2(C)[C@@H]13
REMARK SMILES IDX 1 1 2 2 3 3 4 4 5 5 6 6 15 7 13 8 12 9 11 10 7 11 14 12 8 13
REMARK SMILES IDX 9 14 10 15
REMARK H PARENT
REMARK Flexibility Score: inf
ROOT
ATOM      1  C   UNL     1       8.834  34.524  20.072  1.00  0.00     0.039 C 
ATOM      2  C   UNL     1       9.664  33.901  21.150  1.00  0.00    -0.073 C 
ATOM      3  C   UNL     1       9.415  34.133  22.464  1.00  0.00    -0.027 C 
ATOM      4  C   UNL     1      10.296  33.450  23.519  1.00  0.00     0.031 C 
ATOM      5  C   UNL     1      11.420  32.614  22.824  1.00  0.00     0.003 C 
ATOM      6  C   UNL     1      12.035  33.486  21.698  1.00  0.00     0.004 C 
ATOM      7  C   UNL     1      10.863  33.007  20.814  1.00  0.00     0.024 C 
ATOM      8  C   UNL     1      10.846  31.733  21.686  1.00  0.00    -0.022 C 
ATOM      9  C   UNL     1      11.928  30.736  21.166  1.00  0.00     0.008 C 
ATOM     10  C   UNL     1      13.364  31.323  21.207  1.00  0.00     0.005 C 
ATOM     11  C   UNL     1      13.404  32.885  21.262  1.00  0.00    -0.005 C 
ATOM     12  C   UNL     1       9.495  31.009  21.928  1.00  0.00     0.012 C 
ENDROOT
BRANCH  11  13
ATOM     13  C   UNL     1      14.066  33.526  19.997  1.00  0.00    -0.014 C 
ATOM     14  C   UNL     1      13.822  32.689  18.731  1.00  0.00     0.007 C 
ATOM     15  C   UNL     1      15.561  33.904  20.127  1.00  0.00     0.007 C 
ENDBRANCH  11  13
TORSDOF 1
ENDMDL
MODEL 8
REMARK VINA RESULT:    -5.926      1.404      2.896
REMARK INTER + INTRA:          -6.547
REMARK INTER:                  -6.263
REMARK INTRA:                  -0.284
REMARK UNBOUND:                -0.274
REMARK SMILES CC1=CC[C@@H]2[C@H]3[C@H](C(C)C)CC[C@]2(C)[C@@H]13
REMARK SMILES IDX 1 1 2 2 3 3 4 4 5 5 6 6 15 7 13 8 12 9 11 10 7 11 14 12 8 13
REMARK SMILES IDX 9 14 10 15
REMARK H PARENT
REMARK Flexibility Score: inf
ROOT
ATOM      1  C   UNL     1       8.835  34.984  19.186  1.00  0.00     0.039 C 
ATOM      2  C   UNL     1       9.416  33.742  19.787  1.00  0.00    -0.073 C 
ATOM      3  C   UNL     1       9.479  32.578  19.093  1.00  0.00    -0.027 C 
ATOM      4  C   UNL     1      10.101  31.345  19.763  1.00  0.00     0.031 C 
ATOM      5  C   UNL     1      10.513  31.682  21.234  1.00  0.00     0.003 C 
ATOM      6  C   UNL     1       9.339  32.455  21.892  1.00  0.00     0.004 C 
ATOM      7  C   UNL     1       9.927  33.721  21.232  1.00  0.00     0.024 C 
ATOM      8  C   UNL     1      11.297  33.015  21.310  1.00  0.00    -0.022 C 
ATOM      9  C   UNL     1      11.903  33.215  22.733  1.00  0.00     0.008 C 
ATOM     10  C   UNL     1      11.005  32.638  23.861  1.00  0.00     0.005 C 
ATOM     11  C   UNL     1       9.512  32.446  23.440  1.00  0.00    -0.005 C 
ATOM     12  C   UNL     1      12.354  33.309  20.211  1.00  0.00     0.012 C 
ENDROOT
BRANCH  11  13
ATOM     13  C   UNL     1       8.525  33.352  24.248  1.00  0.00    -0.014 C 
ATOM     14  C   UNL     1       9.237  34.555  24.886  1.00  0.00     0.007 C 
ATOM     15  C   UNL     1       7.630  32.630  25.283  1.00  0.00     0.007 C 
ENDBRANCH  11  13
TORSDOF 1
ENDMDL
MODEL 9
REMARK VINA RESULT:    -5.855      2.105      3.686
REMARK INTER + INTRA:          -6.471
REMARK INTER:                  -6.305
REMARK INTRA:                  -0.166
REMARK UNBOUND:                -0.274
REMARK SMILES CC1=CC[C@@H]2[C@H]3[C@H](C(C)C)CC[C@]2(C)[C@@H]13
REMARK SMILES IDX 1 1 2 2 3 3 4 4 5 5 6 6 15 7 13 8 12 9 11 10 7 11 14 12 8 13
REMARK SMILES IDX 9 14 10 15
REMARK H PARENT
REMARK Flexibility Score: inf
ROOT
ATOM      1  C   UNL     1       9.887  30.930  20.085  1.00  0.00     0.039 C 
ATOM      2  C   UNL     1       8.814  31.677  20.815  1.00  0.00    -0.073 C 
ATOM      3  C   UNL     1       7.856  32.373  20.153  1.00  0.00    -0.027 C 
ATOM      4  C   UNL     1       6.776  33.104  20.962  1.00  0.00     0.031 C 
ATOM      5  C   UNL     1       7.048  32.943  22.494  1.00  0.00     0.003 C 
ATOM      6  C   UNL     1       8.558  33.201  22.740  1.00  0.00     0.004 C 
ATOM      7  C   UNL     1       8.779  31.724  22.347  1.00  0.00     0.024 C 
ATOM      8  C   UNL     1       7.346  31.467  22.861  1.00  0.00    -0.022 C 
ATOM      9  C   UNL     1       7.377  31.284  24.410  1.00  0.00     0.008 C 
ATOM     10  C   UNL     1       7.937  32.524  25.157  1.00  0.00     0.005 C 
ATOM     11  C   UNL     1       8.801  33.465  24.255  1.00  0.00    -0.005 C 
ATOM     12  C   UNL     1       6.497  30.357  22.187  1.00  0.00     0.012 C 
ENDROOT
BRANCH  11  13
ATOM     13  C   UNL     1      10.297  33.545  24.708  1.00  0.00    -0.014 C 
ATOM     14  C   UNL     1      11.267  33.314  23.539  1.00  0.00     0.007 C 
ATOM     15  C   UNL     1      10.687  32.675  25.927  1.00  0.00     0.007 C 
ENDBRANCH  11  13
TORSDOF 1
ENDMDL
