MODEL 1
REMARK VINA RESULT:    -5.922      0.000      0.000
REMARK INTER + INTRA:          -6.469
REMARK INTER:                  -6.442
REMARK INTRA:                  -0.027
REMARK UNBOUND:                -0.027
REMARK SMILES O=C([O-])c1ccc(O)cc1
REMARK SMILES IDX 4 1 5 2 10 3 6 4 9 5 7 6 2 7 1 8 3 9 8 10
REMARK H PARENT 8 11
REMARK Flexibility Score: inf
ROOT
ATOM      1  C   UNL     1      12.277   7.589  28.287  1.00  0.00    -0.003 A 
ATOM      2  C   UNL     1      11.183   7.626  27.405  1.00  0.00     0.014 A 
ATOM      3  C   UNL     1      12.217   8.327  29.482  1.00  0.00     0.014 A 
ATOM      4  C   UNL     1      10.051   8.388  27.714  1.00  0.00     0.047 A 
ATOM      5  C   UNL     1      11.083   9.087  29.788  1.00  0.00     0.047 A 
ATOM      6  C   UNL     1       9.997   9.119  28.904  1.00  0.00     0.115 A 
ENDROOT
BRANCH   1   7
ATOM      7  C   UNL     1      13.474   6.783  27.957  1.00  0.00     0.071 C 
ATOM      8  O   UNL     1      14.364   7.240  27.192  1.00  0.00    -0.545 OA
ATOM      9  O   UNL     1      13.634   5.509  28.489  1.00  0.00    -0.545 OA
ENDBRANCH   1   7
BRANCH   6  10
ATOM     10  O   UNL     1       8.863   9.873  29.198  1.00  0.00    -0.508 OA
ATOM     11  H   UNL     1       8.934  10.825  29.537  1.00  0.00     0.293 HD
ENDBRANCH   6  10
TORSDOF 2
ENDMDL
MODEL 2
REMARK VINA RESULT:    -5.917      2.322      3.001
REMARK INTER + INTRA:          -6.463
REMARK INTER:                  -6.427
REMARK INTRA:                  -0.036
REMARK UNBOUND:                -0.027
REMARK SMILES O=C([O-])c1ccc(O)cc1
REMARK SMILES IDX 4 1 5 2 10 3 6 4 9 5 7 6 2 7 1 8 3 9 8 10
REMARK H PARENT 8 11
REMARK Flexibility Score: inf
ROOT
ATOM      1  C   UNL     1      11.353   9.153  28.842  1.00  0.00    -0.003 A 
ATOM      2  C   UNL     1      10.472  10.246  28.770  1.00  0.00     0.014 A 
ATOM      3  C   UNL     1      12.380   9.167  29.804  1.00  0.00     0.014 A 
ATOM      4  C   UNL     1      10.616  11.330  29.641  1.00  0.00     0.047 A 
ATOM      5  C   UNL     1      12.520  10.253  30.674  1.00  0.00     0.047 A 
ATOM      6  C   UNL     1      11.638  11.338  30.595  1.00  0.00     0.115 A 
ENDROOT
BRANCH   1   7
ATOM      7  C   UNL     1      11.200   8.007  27.919  1.00  0.00     0.071 C 
ATOM      8  O   UNL     1      10.236   7.961  27.109  1.00  0.00    -0.545 OA
ATOM      9  O   UNL     1      12.119   6.965  27.931  1.00  0.00    -0.545 OA
ENDBRANCH   1   7
BRANCH   6  10
ATOM     10  O   UNL     1      11.768  12.425  31.456  1.00  0.00    -0.508 OA
ATOM     11  H   UNL     1      10.990  12.754  32.014  1.00  0.00     0.293 HD
ENDBRANCH   6  10
TORSDOF 2
ENDMDL
MODEL 3
REMARK VINA RESULT:    -5.909      0.057      1.533
REMARK INTER + INTRA:          -6.454
REMARK INTER:                  -6.427
REMARK INTRA:                  -0.027
REMARK UNBOUND:                -0.027
REMARK SMILES O=C([O-])c1ccc(O)cc1
REMARK SMILES IDX 4 1 5 2 10 3 6 4 9 5 7 6 2 7 1 8 3 9 8 10
REMARK H PARENT 8 11
REMARK Flexibility Score: inf
ROOT
ATOM      1  C   UNL     1      12.238   7.622  28.274  1.00  0.00    -0.003 A 
ATOM      2  C   UNL     1      12.188   8.370  29.462  1.00  0.00     0.014 A 
ATOM      3  C   UNL     1      11.139   7.658  27.397  1.00  0.00     0.014 A 
ATOM      4  C   UNL     1      11.060   9.140  29.767  1.00  0.00     0.047 A 
ATOM      5  C   UNL     1      10.013   8.429  27.705  1.00  0.00     0.047 A 
ATOM      6  C   UNL     1       9.971   9.172  28.892  1.00  0.00     0.115 A 
ENDROOT
BRANCH   1   7
ATOM      7  C   UNL     1      13.432   6.808  27.954  1.00  0.00     0.071 C 
ATOM      8  O   UNL     1      14.322   7.252  27.181  1.00  0.00    -0.545 OA
ATOM      9  O   UNL     1      13.589   5.541  28.504  1.00  0.00    -0.545 OA
ENDBRANCH   1   7
BRANCH   6  10
ATOM     10  O   UNL     1       8.855   9.943  29.209  1.00  0.00    -0.508 OA
ATOM     11  H   UNL     1       8.943  10.913  29.484  1.00  0.00     0.293 HD
ENDBRANCH   6  10
TORSDOF 2
ENDMDL
MODEL 4
REMARK VINA RESULT:    -5.784      1.254      4.413
REMARK INTER + INTRA:          -6.318
REMARK INTER:                  -6.287
REMARK INTRA:                  -0.031
REMARK UNBOUND:                -0.027
REMARK SMILES O=C([O-])c1ccc(O)cc1
REMARK SMILES IDX 4 1 5 2 10 3 6 4 9 5 7 6 2 7 1 8 3 9 8 10
REMARK H PARENT 8 11
REMARK Flexibility Score: inf
ROOT
ATOM      1  C   UNL     1      11.584   9.069  28.744  1.00  0.00    -0.003 A 
ATOM      2  C   UNL     1      12.698   9.128  29.600  1.00  0.00     0.014 A 
ATOM      3  C   UNL     1      11.426   7.952  27.905  1.00  0.00     0.014 A 
ATOM      4  C   UNL     1      13.634   8.089  29.615  1.00  0.00     0.047 A 
ATOM      5  C   UNL     1      12.364   6.914  27.923  1.00  0.00     0.047 A 
ATOM      6  C   UNL     1      13.471   6.980  28.778  1.00  0.00     0.115 A 
ENDROOT
BRANCH   1   7
ATOM      7  C   UNL     1      10.596  10.171  28.729  1.00  0.00     0.071 C 
ATOM      8  O   UNL     1      10.974  11.372  28.716  1.00  0.00    -0.545 OA
ATOM      9  O   UNL     1       9.233   9.894  28.728  1.00  0.00    -0.545 OA
ENDBRANCH   1   7
BRANCH   6  10
ATOM     10  O   UNL     1      14.412   5.953  28.804  1.00  0.00    -0.508 OA
ATOM     11  H   UNL     1      14.853   5.619  27.957  1.00  0.00     0.293 HD
ENDBRANCH   6  10
TORSDOF 2
ENDMDL
MODEL 5
REMARK VINA RESULT:    -5.784      1.255      4.149
REMARK INTER + INTRA:          -6.318
REMARK INTER:                  -6.287
REMARK INTRA:                  -0.031
REMARK UNBOUND:                -0.027
REMARK SMILES O=C([O-])c1ccc(O)cc1
REMARK SMILES IDX 4 1 5 2 10 3 6 4 9 5 7 6 2 7 1 8 3 9 8 10
REMARK H PARENT 8 11
REMARK Flexibility Score: inf
ROOT
ATOM      1  C   UNL     1      11.587   9.079  28.740  1.00  0.00    -0.003 A 
ATOM      2  C   UNL     1      11.428   7.960  27.906  1.00  0.00     0.014 A 
ATOM      3  C   UNL     1      12.702   9.140  29.596  1.00  0.00     0.014 A 
ATOM      4  C   UNL     1      12.365   6.921  27.927  1.00  0.00     0.047 A 
ATOM      5  C   UNL     1      13.637   8.100  29.615  1.00  0.00     0.047 A 
ATOM      6  C   UNL     1      13.471   6.988  28.780  1.00  0.00     0.115 A 
ENDROOT
BRANCH   1   7
ATOM      7  C   UNL     1      10.594  10.176  28.716  1.00  0.00     0.071 C 
ATOM      8  O   UNL     1      10.967  11.379  28.708  1.00  0.00    -0.545 OA
ATOM      9  O   UNL     1       9.233   9.894  28.702  1.00  0.00    -0.545 OA
ENDBRANCH   1   7
BRANCH   6  10
ATOM     10  O   UNL     1      14.396   5.946  28.790  1.00  0.00    -0.508 OA
ATOM     11  H   UNL     1      14.110   4.983  28.664  1.00  0.00     0.293 HD
ENDBRANCH   6  10
TORSDOF 2
ENDMDL
MODEL 6
REMARK VINA RESULT:    -5.530      2.533      3.932
REMARK INTER + INTRA:          -6.042
REMARK INTER:                  -6.006
REMARK INTRA:                  -0.035
REMARK UNBOUND:                -0.027
REMARK SMILES O=C([O-])c1ccc(O)cc1
REMARK SMILES IDX 4 1 5 2 10 3 6 4 9 5 7 6 2 7 1 8 3 9 8 10
REMARK H PARENT 8 11
REMARK Flexibility Score: inf
ROOT
ATOM      1  C   UNL     1      11.603  10.017  29.856  1.00  0.00    -0.003 A 
ATOM      2  C   UNL     1      10.409  10.206  29.138  1.00  0.00     0.014 A 
ATOM      3  C   UNL     1      12.416   8.911  29.549  1.00  0.00     0.014 A 
ATOM      4  C   UNL     1      10.037   9.306  28.134  1.00  0.00     0.047 A 
ATOM      5  C   UNL     1      12.042   8.014  28.544  1.00  0.00     0.047 A 
ATOM      6  C   UNL     1      10.850   8.209  27.834  1.00  0.00     0.115 A 
ENDROOT
BRANCH   1   7
ATOM      7  C   UNL     1      11.993  10.970  30.919  1.00  0.00     0.071 C 
ATOM      8  O   UNL     1      11.437  12.097  31.006  1.00  0.00    -0.545 OA
ATOM      9  O   UNL     1      12.981  10.634  31.838  1.00  0.00    -0.545 OA
ENDBRANCH   1   7
BRANCH   6  10
ATOM     10  O   UNL     1      10.467   7.321  26.831  1.00  0.00    -0.508 OA
ATOM     11  H   UNL     1       9.679   6.696  26.951  1.00  0.00     0.293 HD
ENDBRANCH   6  10
TORSDOF 2
ENDMDL
MODEL 7
REMARK VINA RESULT:    -5.206      1.391      4.189
REMARK INTER + INTRA:          -5.690
REMARK INTER:                  -5.654
REMARK INTRA:                  -0.036
REMARK UNBOUND:                -0.027
REMARK SMILES O=C([O-])c1ccc(O)cc1
REMARK SMILES IDX 4 1 5 2 10 3 6 4 9 5 7 6 2 7 1 8 3 9 8 10
REMARK H PARENT 8 11
REMARK Flexibility Score: inf
ROOT
ATOM      1  C   UNL     1      12.008   8.561  29.319  1.00  0.00    -0.003 A 
ATOM      2  C   UNL     1      11.531   7.979  28.131  1.00  0.00     0.014 A 
ATOM      3  C   UNL     1      13.326   8.291  29.729  1.00  0.00     0.014 A 
ATOM      4  C   UNL     1      12.356   7.145  27.370  1.00  0.00     0.047 A 
ATOM      5  C   UNL     1      14.149   7.457  28.966  1.00  0.00     0.047 A 
ATOM      6  C   UNL     1      13.666   6.881  27.783  1.00  0.00     0.115 A 
ENDROOT
BRANCH   1   7
ATOM      7  C   UNL     1      11.132   9.442  30.123  1.00  0.00     0.071 C 
ATOM      8  O   UNL     1      11.611  10.149  31.049  1.00  0.00    -0.545 OA
ATOM      9  O   UNL     1       9.767   9.503  29.867  1.00  0.00    -0.545 OA
ENDBRANCH   1   7
BRANCH   6  10
ATOM     10  O   UNL     1      14.476   6.049  27.015  1.00  0.00    -0.508 OA
ATOM     11  H   UNL     1      15.310   5.621  27.399  1.00  0.00     0.293 HD
ENDBRANCH   6  10
TORSDOF 2
ENDMDL
MODEL 8
REMARK VINA RESULT:    -5.023     12.401     13.477
REMARK INTER + INTRA:          -5.491
REMARK INTER:                  -5.463
REMARK INTRA:                  -0.028
REMARK UNBOUND:                -0.027
REMARK SMILES O=C([O-])c1ccc(O)cc1
REMARK SMILES IDX 4 1 5 2 10 3 6 4 9 5 7 6 2 7 1 8 3 9 8 10
REMARK H PARENT 8 11
REMARK Flexibility Score: inf
ROOT
ATOM      1  C   UNL     1      15.299  20.358  26.181  1.00  0.00    -0.003 A 
ATOM      2  C   UNL     1      14.986  19.192  26.902  1.00  0.00     0.014 A 
ATOM      3  C   UNL     1      16.624  20.565  25.759  1.00  0.00     0.014 A 
ATOM      4  C   UNL     1      15.981  18.253  27.193  1.00  0.00     0.047 A 
ATOM      5  C   UNL     1      17.616  19.623  26.052  1.00  0.00     0.047 A 
ATOM      6  C   UNL     1      17.296  18.464  26.770  1.00  0.00     0.115 A 
ENDROOT
BRANCH   1   7
ATOM      7  C   UNL     1      14.245  21.351  25.875  1.00  0.00     0.071 C 
ATOM      8  O   UNL     1      13.312  21.070  25.076  1.00  0.00    -0.545 OA
ATOM      9  O   UNL     1      14.270  22.609  26.465  1.00  0.00    -0.545 OA
ENDBRANCH   1   7
BRANCH   6  10
ATOM     10  O   UNL     1      18.276  17.519  27.068  1.00  0.00    -0.508 OA
ATOM     11  H   UNL     1      18.035  16.567  27.313  1.00  0.00     0.293 HD
ENDBRANCH   6  10
TORSDOF 2
ENDMDL
MODEL 9
REMARK VINA RESULT:    -4.324     12.215     12.668
REMARK INTER + INTRA:          -4.730
REMARK INTER:                  -4.695
REMARK INTRA:                  -0.035
REMARK UNBOUND:                -0.027
REMARK SMILES O=C([O-])c1ccc(O)cc1
REMARK SMILES IDX 4 1 5 2 10 3 6 4 9 5 7 6 2 7 1 8 3 9 8 10
REMARK H PARENT 8 11
REMARK Flexibility Score: inf
ROOT
ATOM      1  C   UNL     1      16.472  19.218  26.492  1.00  0.00    -0.003 A 
ATOM      2  C   UNL     1      15.158  18.898  26.876  1.00  0.00     0.014 A 
ATOM      3  C   UNL     1      16.698  20.382  25.736  1.00  0.00     0.014 A 
ATOM      4  C   UNL     1      14.092  19.726  26.511  1.00  0.00     0.047 A 
ATOM      5  C   UNL     1      15.629  21.209  25.373  1.00  0.00     0.047 A 
ATOM      6  C   UNL     1      14.323  20.882  25.760  1.00  0.00     0.115 A 
ENDROOT
BRANCH   1   7
ATOM      7  C   UNL     1      17.598  18.339  26.878  1.00  0.00     0.071 C 
ATOM      8  O   UNL     1      18.782  18.771  26.867  1.00  0.00    -0.545 OA
ATOM      9  O   UNL     1      17.366  17.023  27.261  1.00  0.00    -0.545 OA
ENDBRANCH   1   7
BRANCH   6  10
ATOM     10  O   UNL     1      13.251  21.698  25.403  1.00  0.00    -0.508 OA
ATOM     11  H   UNL     1      12.896  22.409  26.031  1.00  0.00     0.293 HD
ENDBRANCH   6  10
TORSDOF 2
ENDMDL
