MODEL 1
REMARK VINA RESULT:    -1.371      0.000      0.000
REMARK INTER + INTRA:          -2.762
REMARK INTER:                  -1.892
REMARK INTRA:                  -0.871
REMARK UNBOUND:                -0.871
REMARK SMILES CC[C@H](CC[C@H](C)[C@H]1CC[C@@H]2[C@H]3CC=C4C[C@@H](O)CC[C@@]4(C)[C@H]3CC[C@]21C)C(C)C
REMARK SMILES IDX 5 1 4 2 3 3 2 4 1 5 28 6 29 7 30 8 6 9 7 10 8 11 9 12 26 13
REMARK SMILES IDX 10 14 11 15 25 16 27 17 12 18 24 19 23 20 13 21 21 22 14 23
REMARK SMILES IDX 15 24 20 25 22 26 16 27 19 28 17 29 18 30
REMARK H PARENT 18 31
REMARK Flexibility Score: inf
ROOT
ATOM      1  C   UNL     1       3.838  48.142   7.381  1.00  0.00     0.004 C 
ENDROOT
BRANCH   1   2
ATOM      2  C   UNL     1       5.005  49.101   7.737  1.00  0.00     0.004 C 
BRANCH   2   3
ATOM      3  C   UNL     1       5.804  48.848   9.058  1.00  0.00    -0.009 C 
BRANCH   3   4
ATOM      4  C   UNL     1       6.365  47.394   9.114  1.00  0.00     0.000 C 
ATOM      5  C   UNL     1       7.856  47.337   9.469  1.00  0.00     0.004 C 
ENDBRANCH   3   4
BRANCH   3   6
ATOM      6  C   UNL     1       6.886  49.943   9.361  1.00  0.00    -0.014 C 
ATOM      7  C   UNL     1       6.794  51.125   8.376  1.00  0.00     0.007 C 
ATOM      8  C   UNL     1       6.774  50.508  10.789  1.00  0.00     0.007 C 
ENDBRANCH   3   6
ENDBRANCH   2   3
ENDBRANCH   1   2
BRANCH   1   9
ATOM      9  C   UNL     1       2.423  48.775   7.177  1.00  0.00    -0.011 C 
ATOM     10  C   UNL     1       2.485  50.318   7.278  1.00  0.00     0.008 C 
BRANCH   9  11
ATOM     11  C   UNL     1       1.206  48.192   7.998  1.00  0.00    -0.002 C 
ATOM     12  C   UNL     1       0.129  47.537   7.097  1.00  0.00     0.005 C 
ATOM     13  C   UNL     1       1.390  47.166   9.182  1.00  0.00    -0.026 C 
ATOM     14  C   UNL     1      -0.060  46.087   7.566  1.00  0.00     0.005 C 
ATOM     15  C   UNL     1       1.110  45.817   8.501  1.00  0.00    -0.001 C 
ATOM     16  C   UNL     1       2.787  47.075   9.853  1.00  0.00     0.007 C 
ATOM     17  C   UNL     1       0.304  47.507  10.277  1.00  0.00     0.012 C 
ATOM     18  C   UNL     1       0.958  44.616   9.479  1.00  0.00     0.000 C 
ATOM     19  C   UNL     1       3.103  45.693  10.491  1.00  0.00     0.005 C 
ATOM     20  C   UNL     1       1.871  44.773  10.768  1.00  0.00     0.003 C 
ATOM     21  C   UNL     1       1.144  43.268   8.715  1.00  0.00     0.031 C 
ATOM     22  C   UNL     1       2.248  43.373  11.398  1.00  0.00    -0.008 C 
ATOM     23  C   UNL     1       2.412  42.538   9.060  1.00  0.00    -0.027 C 
ATOM     24  C   UNL     1       2.872  42.490  10.326  1.00  0.00    -0.065 C 
ATOM     25  C   UNL     1       3.266  43.521  12.576  1.00  0.00     0.014 C 
ATOM     26  C   UNL     1       0.966  42.699  11.955  1.00  0.00     0.016 C 
ATOM     27  C   UNL     1       4.130  41.701  10.630  1.00  0.00     0.063 C 
ATOM     28  C   UNL     1       3.743  42.173  13.150  1.00  0.00     0.033 C 
ATOM     29  C   UNL     1       4.070  41.117  12.057  1.00  0.00     0.118 C 
BRANCH  29  30
ATOM     30  O   UNL     1       5.266  40.442  12.357  1.00  0.00    -0.393 OA
ATOM     31  H   UNL     1       5.407  40.502  13.340  1.00  0.00     0.210 HD
ENDBRANCH  29  30
ENDBRANCH   9  11
ENDBRANCH   1   9
TORSDOF 7
ENDMDL
