MODEL 1
REMARK VINA RESULT:    -4.589      0.000      0.000
REMARK INTER + INTRA:          -4.857
REMARK INTER:                  -4.857
REMARK INTRA:                   0.000
REMARK UNBOUND:                 0.000
REMARK SMILES O=c1ccc2cc(O)c(O)cc2o1
REMARK SMILES IDX 4 1 3 2 2 3 1 4 13 5 12 6 11 7 9 8 7 9 6 10 5 11 8 12 10 14
REMARK H PARENT 8 13 10 15
REMARK Flexibility Score: inf
ROOT
ATOM      1  C   UNL     1      14.355  -4.441   7.957  1.00  0.00     0.019 A 
ATOM      2  C   UNL     1      13.676  -3.258   7.664  1.00  0.00     0.094 A 
ATOM      3  C   UNL     1      12.408  -3.049   8.214  1.00  0.00     0.336 A 
ATOM      4  O   UNL     1      11.780  -1.988   7.961  1.00  0.00    -0.246 OA
ATOM      5  O   UNL     1      11.857  -3.967   9.005  1.00  0.00    -0.423 OA
ATOM      6  C   UNL     1      12.469  -5.109   9.310  1.00  0.00     0.142 A 
ATOM      7  C   UNL     1      11.841  -6.037  10.146  1.00  0.00     0.098 A 
ATOM      8  C   UNL     1      12.482  -7.242  10.472  1.00  0.00     0.161 A 
ATOM      9  C   UNL     1      13.757  -7.518   9.956  1.00  0.00     0.158 A 
ATOM     10  C   UNL     1      14.391  -6.592   9.117  1.00  0.00     0.062 A 
ATOM     11  C   UNL     1      13.753  -5.388   8.792  1.00  0.00     0.022 A 
ENDROOT
BRANCH   9  12
ATOM     12  O   UNL     1      14.386  -8.718  10.285  1.00  0.00    -0.504 OA
ATOM     13  H   UNL     1      14.591  -8.963  11.247  1.00  0.00     0.293 HD
ENDBRANCH   9  12
BRANCH   8  14
ATOM     14  O   UNL     1      11.858  -8.168  11.305  1.00  0.00    -0.504 OA
ATOM     15  H   UNL     1      11.107  -8.761  10.971  1.00  0.00     0.293 HD
ENDBRANCH   8  14
TORSDOF 2
ENDMDL
MODEL 2
REMARK VINA RESULT:    -4.212      1.619      2.506
REMARK INTER + INTRA:          -4.458
REMARK INTER:                  -4.458
REMARK INTRA:                   0.000
REMARK UNBOUND:                 0.000
REMARK SMILES O=c1ccc2cc(O)c(O)cc2o1
REMARK SMILES IDX 4 1 3 2 2 3 1 4 13 5 12 6 11 7 9 8 7 9 6 10 5 11 8 12 10 14
REMARK H PARENT 8 13 10 15
REMARK Flexibility Score: inf
ROOT
ATOM      1  C   UNL     1      12.464  -3.979   9.371  1.00  0.00     0.019 A 
ATOM      2  C   UNL     1      13.461  -3.172   8.822  1.00  0.00     0.094 A 
ATOM      3  C   UNL     1      14.687  -3.749   8.476  1.00  0.00     0.336 A 
ATOM      4  O   UNL     1      15.599  -3.037   7.979  1.00  0.00    -0.246 OA
ATOM      5  O   UNL     1      14.898  -5.049   8.667  1.00  0.00    -0.423 OA
ATOM      6  C   UNL     1      13.974  -5.855   9.187  1.00  0.00     0.142 A 
ATOM      7  C   UNL     1      14.253  -7.213   9.366  1.00  0.00     0.098 A 
ATOM      8  C   UNL     1      13.283  -8.067   9.914  1.00  0.00     0.161 A 
ATOM      9  C   UNL     1      12.030  -7.557  10.285  1.00  0.00     0.158 A 
ATOM     10  C   UNL     1      11.745  -6.195  10.108  1.00  0.00     0.062 A 
ATOM     11  C   UNL     1      12.713  -5.342   9.561  1.00  0.00     0.022 A 
ENDROOT
BRANCH   9  12
ATOM     12  O   UNL     1      11.072  -8.412  10.828  1.00  0.00    -0.504 OA
ATOM     13  H   UNL     1      11.105  -9.413  10.670  1.00  0.00     0.293 HD
ENDBRANCH   9  12
BRANCH   8  14
ATOM     14  O   UNL     1      13.558  -9.421  10.092  1.00  0.00    -0.504 OA
ATOM     15  H   UNL     1      14.379  -9.734  10.598  1.00  0.00     0.293 HD
ENDBRANCH   8  14
TORSDOF 2
ENDMDL
MODEL 3
REMARK VINA RESULT:    -4.094      1.532      5.007
REMARK INTER + INTRA:          -4.333
REMARK INTER:                  -4.333
REMARK INTRA:                   0.000
REMARK UNBOUND:                 0.000
REMARK SMILES O=c1ccc2cc(O)c(O)cc2o1
REMARK SMILES IDX 4 1 3 2 2 3 1 4 13 5 12 6 11 7 9 8 7 9 6 10 5 11 8 12 10 14
REMARK H PARENT 8 13 10 15
REMARK Flexibility Score: inf
ROOT
ATOM      1  C   UNL     1      11.910  -7.258   9.948  1.00  0.00     0.019 A 
ATOM      2  C   UNL     1      12.398  -8.559   9.841  1.00  0.00     0.094 A 
ATOM      3  C   UNL     1      13.669  -8.765   9.297  1.00  0.00     0.336 A 
ATOM      4  O   UNL     1      14.128  -9.933   9.193  1.00  0.00    -0.246 OA
ATOM      5  O   UNL     1      14.401  -7.732   8.885  1.00  0.00    -0.423 OA
ATOM      6  C   UNL     1      13.974  -6.474   8.968  1.00  0.00     0.142 A 
ATOM      7  C   UNL     1      14.786  -5.429   8.519  1.00  0.00     0.098 A 
ATOM      8  C   UNL     1      14.341  -4.101   8.605  1.00  0.00     0.161 A 
ATOM      9  C   UNL     1      13.075  -3.820   9.141  1.00  0.00     0.158 A 
ATOM     10  C   UNL     1      12.256  -4.864   9.592  1.00  0.00     0.062 A 
ATOM     11  C   UNL     1      12.700  -6.190   9.508  1.00  0.00     0.022 A 
ENDROOT
BRANCH   9  12
ATOM     12  O   UNL     1      12.641  -2.498   9.222  1.00  0.00    -0.504 OA
ATOM     13  H   UNL     1      12.336  -1.989   8.401  1.00  0.00     0.293 HD
ENDBRANCH   9  12
BRANCH   8  14
ATOM     14  O   UNL     1      15.149  -3.057   8.158  1.00  0.00    -0.504 OA
ATOM     15  H   UNL     1      15.056  -2.118   8.528  1.00  0.00     0.293 HD
ENDBRANCH   8  14
TORSDOF 2
ENDMDL
MODEL 4
REMARK VINA RESULT:    -3.929      1.411      4.500
REMARK INTER + INTRA:          -4.159
REMARK INTER:                  -4.159
REMARK INTRA:                   0.000
REMARK UNBOUND:                 0.000
REMARK SMILES O=c1ccc2cc(O)c(O)cc2o1
REMARK SMILES IDX 4 1 3 2 2 3 1 4 13 5 12 6 11 7 9 8 7 9 6 10 5 11 8 12 10 14
REMARK H PARENT 8 13 10 15
REMARK Flexibility Score: inf
ROOT
ATOM      1  C   UNL     1      15.191  -6.973   8.496  1.00  0.00     0.019 A 
ATOM      2  C   UNL     1      15.706  -8.247   8.735  1.00  0.00     0.094 A 
ATOM      3  C   UNL     1      15.025  -9.102   9.606  1.00  0.00     0.336 A 
ATOM      4  O   UNL     1      15.475 -10.256   9.834  1.00  0.00    -0.246 OA
ATOM      5  O   UNL     1      13.902  -8.704  10.200  1.00  0.00    -0.423 OA
ATOM      6  C   UNL     1      13.376  -7.498  10.000  1.00  0.00     0.142 A 
ATOM      7  C   UNL     1      12.193  -7.135  10.652  1.00  0.00     0.098 A 
ATOM      8  C   UNL     1      11.634  -5.865  10.445  1.00  0.00     0.161 A 
ATOM      9  C   UNL     1      12.263  -4.954   9.583  1.00  0.00     0.158 A 
ATOM     10  C   UNL     1      13.450  -5.313   8.927  1.00  0.00     0.062 A 
ATOM     11  C   UNL     1      14.008  -6.581   9.132  1.00  0.00     0.022 A 
ENDROOT
BRANCH   9  12
ATOM     12  O   UNL     1      11.700  -3.694   9.383  1.00  0.00    -0.504 OA
ATOM     13  H   UNL     1      11.088  -3.272  10.072  1.00  0.00     0.293 HD
ENDBRANCH   9  12
BRANCH   8  14
ATOM     14  O   UNL     1      10.455  -5.501  11.093  1.00  0.00    -0.504 OA
ATOM     15  H   UNL     1       9.983  -6.132  11.730  1.00  0.00     0.293 HD
ENDBRANCH   8  14
TORSDOF 2
ENDMDL
MODEL 5
REMARK VINA RESULT:    -3.915      1.849      2.574
REMARK INTER + INTRA:          -4.144
REMARK INTER:                  -4.144
REMARK INTRA:                   0.000
REMARK UNBOUND:                 0.000
REMARK SMILES O=c1ccc2cc(O)c(O)cc2o1
REMARK SMILES IDX 4 1 3 2 2 3 1 4 13 5 12 6 11 7 9 8 7 9 6 10 5 11 8 12 10 14
REMARK H PARENT 8 13 10 15
REMARK Flexibility Score: inf
ROOT
ATOM      1  C   UNL     1      14.300  -6.660   8.957  1.00  0.00     0.019 A 
ATOM      2  C   UNL     1      14.980  -5.501   8.582  1.00  0.00     0.094 A 
ATOM      3  C   UNL     1      14.311  -4.274   8.639  1.00  0.00     0.336 A 
ATOM      4  O   UNL     1      14.908  -3.217   8.305  1.00  0.00    -0.246 OA
ATOM      5  O   UNL     1      13.045  -4.215   9.044  1.00  0.00    -0.423 OA
ATOM      6  C   UNL     1      12.359  -5.296   9.410  1.00  0.00     0.142 A 
ATOM      7  C   UNL     1      11.030  -5.173   9.826  1.00  0.00     0.098 A 
ATOM      8  C   UNL     1      10.303  -6.309  10.213  1.00  0.00     0.161 A 
ATOM      9  C   UNL     1      10.910  -7.573  10.182  1.00  0.00     0.158 A 
ATOM     10  C   UNL     1      12.243  -7.703   9.765  1.00  0.00     0.062 A 
ATOM     11  C   UNL     1      12.970  -6.569   9.379  1.00  0.00     0.022 A 
ENDROOT
BRANCH   9  12
ATOM     12  O   UNL     1      10.180  -8.697  10.568  1.00  0.00    -0.504 OA
ATOM     13  H   UNL     1       9.392  -8.624  11.201  1.00  0.00     0.293 HD
ENDBRANCH   9  12
BRANCH   8  14
ATOM     14  O   UNL     1       8.979  -6.189  10.629  1.00  0.00    -0.504 OA
ATOM     15  H   UNL     1       8.489  -5.302  10.590  1.00  0.00     0.293 HD
ENDBRANCH   8  14
TORSDOF 2
ENDMDL
MODEL 6
REMARK VINA RESULT:    -3.871     13.308     13.446
REMARK INTER + INTRA:          -4.097
REMARK INTER:                  -4.097
REMARK INTRA:                   0.000
REMARK UNBOUND:                 0.000
REMARK SMILES O=c1ccc2cc(O)c(O)cc2o1
REMARK SMILES IDX 4 1 3 2 2 3 1 4 13 5 12 6 11 7 9 8 7 9 6 10 5 11 8 12 10 14
REMARK H PARENT 8 13 10 15
REMARK Flexibility Score: inf
ROOT
ATOM      1  C   UNL     1      17.906   1.111  19.268  1.00  0.00     0.019 A 
ATOM      2  C   UNL     1      18.898   2.004  18.864  1.00  0.00     0.094 A 
ATOM      3  C   UNL     1      20.239   1.633  18.996  1.00  0.00     0.336 A 
ATOM      4  O   UNL     1      21.149   2.426  18.636  1.00  0.00    -0.246 OA
ATOM      5  O   UNL     1      20.563   0.444  19.499  1.00  0.00    -0.423 OA
ATOM      6  C   UNL     1      19.649  -0.438  19.896  1.00  0.00     0.142 A 
ATOM      7  C   UNL     1      20.049  -1.671  20.419  1.00  0.00     0.098 A 
ATOM      8  C   UNL     1      19.089  -2.605  20.839  1.00  0.00     0.161 A 
ATOM      9  C   UNL     1      17.724  -2.301  20.737  1.00  0.00     0.158 A 
ATOM     10  C   UNL     1      17.317  -1.064  20.214  1.00  0.00     0.062 A 
ATOM     11  C   UNL     1      18.274  -0.132  19.794  1.00  0.00     0.022 A 
ENDROOT
BRANCH   9  12
ATOM     12  O   UNL     1      16.777  -3.234  21.157  1.00  0.00    -0.504 OA
ATOM     13  H   UNL     1      16.542  -3.347  22.136  1.00  0.00     0.293 HD
ENDBRANCH   9  12
BRANCH   8  14
ATOM     14  O   UNL     1      19.485  -3.836  21.360  1.00  0.00    -0.504 OA
ATOM     15  H   UNL     1      20.389  -3.958  21.802  1.00  0.00     0.293 HD
ENDBRANCH   8  14
TORSDOF 2
ENDMDL
MODEL 7
REMARK VINA RESULT:    -3.792      1.766      4.395
REMARK INTER + INTRA:          -4.014
REMARK INTER:                  -4.014
REMARK INTRA:                   0.000
REMARK UNBOUND:                 0.000
REMARK SMILES O=c1ccc2cc(O)c(O)cc2o1
REMARK SMILES IDX 4 1 3 2 2 3 1 4 13 5 12 6 11 7 9 8 7 9 6 10 5 11 8 12 10 14
REMARK H PARENT 8 13 10 15
REMARK Flexibility Score: inf
ROOT
ATOM      1  C   UNL     1      14.433  -7.730   8.358  1.00  0.00     0.019 A 
ATOM      2  C   UNL     1      13.555  -8.783   8.614  1.00  0.00     0.094 A 
ATOM      3  C   UNL     1      12.278  -8.496   9.106  1.00  0.00     0.336 A 
ATOM      4  O   UNL     1      11.470  -9.433   9.343  1.00  0.00    -0.246 OA
ATOM      5  O   UNL     1      11.907  -7.237   9.326  1.00  0.00    -0.423 OA
ATOM      6  C   UNL     1      12.713  -6.203   9.095  1.00  0.00     0.142 A 
ATOM      7  C   UNL     1      12.270  -4.901   9.347  1.00  0.00     0.098 A 
ATOM      8  C   UNL     1      13.116  -3.808   9.105  1.00  0.00     0.161 A 
ATOM      9  C   UNL     1      14.412  -4.020   8.611  1.00  0.00     0.158 A 
ATOM     10  C   UNL     1      14.862  -5.324   8.358  1.00  0.00     0.062 A 
ATOM     11  C   UNL     1      14.018  -6.416   8.598  1.00  0.00     0.022 A 
ENDROOT
BRANCH   9  12
ATOM     12  O   UNL     1      15.245  -2.928   8.375  1.00  0.00    -0.504 OA
ATOM     13  H   UNL     1      15.735  -2.816   7.495  1.00  0.00     0.293 HD
ENDBRANCH   9  12
BRANCH   8  14
ATOM     14  O   UNL     1      12.675  -2.509   9.355  1.00  0.00    -0.504 OA
ATOM     15  H   UNL     1      12.560  -1.836   8.606  1.00  0.00     0.293 HD
ENDBRANCH   8  14
TORSDOF 2
ENDMDL
MODEL 8
REMARK VINA RESULT:    -3.766     13.153     13.507
REMARK INTER + INTRA:          -3.986
REMARK INTER:                  -3.986
REMARK INTRA:                   0.000
REMARK UNBOUND:                 0.000
REMARK SMILES O=c1ccc2cc(O)c(O)cc2o1
REMARK SMILES IDX 4 1 3 2 2 3 1 4 13 5 12 6 11 7 9 8 7 9 6 10 5 11 8 12 10 14
REMARK H PARENT 8 13 10 15
REMARK Flexibility Score: inf
ROOT
ATOM      1  C   UNL     1      18.097   0.839  19.520  1.00  0.00     0.019 A 
ATOM      2  C   UNL     1      17.128   0.372  20.408  1.00  0.00     0.094 A 
ATOM      3  C   UNL     1      17.286  -0.893  20.982  1.00  0.00     0.336 A 
ATOM      4  O   UNL     1      16.423  -1.331  21.786  1.00  0.00    -0.246 OA
ATOM      5  O   UNL     1      18.347  -1.640  20.683  1.00  0.00    -0.423 OA
ATOM      6  C   UNL     1      19.294  -1.234  19.841  1.00  0.00     0.142 A 
ATOM      7  C   UNL     1      20.385  -2.063  19.564  1.00  0.00     0.098 A 
ATOM      8  C   UNL     1      21.387  -1.639  18.678  1.00  0.00     0.161 A 
ATOM      9  C   UNL     1      21.294  -0.381  18.065  1.00  0.00     0.158 A 
ATOM     10  C   UNL     1      20.201   0.454  18.338  1.00  0.00     0.062 A 
ATOM     11  C   UNL     1      19.201   0.033  19.224  1.00  0.00     0.022 A 
ENDROOT
BRANCH   9  12
ATOM     12  O   UNL     1      22.294   0.032  17.186  1.00  0.00    -0.504 OA
ATOM     13  H   UNL     1      22.219  -0.123  16.187  1.00  0.00     0.293 HD
ENDBRANCH   9  12
BRANCH   8  14
ATOM     14  O   UNL     1      22.476  -2.464  18.401  1.00  0.00    -0.504 OA
ATOM     15  H   UNL     1      22.429  -3.467  18.533  1.00  0.00     0.293 HD
ENDBRANCH   8  14
TORSDOF 2
ENDMDL
MODEL 9
REMARK VINA RESULT:    -3.741      1.300      4.432
REMARK INTER + INTRA:          -3.960
REMARK INTER:                  -3.960
REMARK INTRA:                   0.000
REMARK UNBOUND:                 0.000
REMARK SMILES O=c1ccc2cc(O)c(O)cc2o1
REMARK SMILES IDX 4 1 3 2 2 3 1 4 13 5 12 6 11 7 9 8 7 9 6 10 5 11 8 12 10 14
REMARK H PARENT 8 13 10 15
REMARK Flexibility Score: inf
ROOT
ATOM      1  C   UNL     1      14.649  -5.350   8.730  1.00  0.00     0.019 A 
ATOM      2  C   UNL     1      14.920  -6.664   9.109  1.00  0.00     0.094 A 
ATOM      3  C   UNL     1      13.864  -7.485   9.513  1.00  0.00     0.336 A 
ATOM      4  O   UNL     1      14.088  -8.675   9.859  1.00  0.00    -0.246 OA
ATOM      5  O   UNL     1      12.618  -7.018   9.536  1.00  0.00    -0.423 OA
ATOM      6  C   UNL     1      12.315  -5.771   9.183  1.00  0.00     0.142 A 
ATOM      7  C   UNL     1      10.987  -5.335   9.228  1.00  0.00     0.098 A 
ATOM      8  C   UNL     1      10.662  -4.021   8.857  1.00  0.00     0.161 A 
ATOM      9  C   UNL     1      11.672  -3.141   8.440  1.00  0.00     0.158 A 
ATOM     10  C   UNL     1      13.005  -3.573   8.393  1.00  0.00     0.062 A 
ATOM     11  C   UNL     1      13.330  -4.884   8.763  1.00  0.00     0.022 A 
ENDROOT
BRANCH   9  12
ATOM     12  O   UNL     1      11.340  -1.838   8.073  1.00  0.00    -0.504 OA
ATOM     13  H   UNL     1      10.851  -1.639   7.208  1.00  0.00     0.293 HD
ENDBRANCH   9  12
BRANCH   8  14
ATOM     14  O   UNL     1       9.340  -3.584   8.900  1.00  0.00    -0.504 OA
ATOM     15  H   UNL     1       8.970  -2.942   8.209  1.00  0.00     0.293 HD
ENDBRANCH   8  14
TORSDOF 2
ENDMDL
