MODEL 1
REMARK VINA RESULT:    -3.363      0.000      0.000
REMARK INTER + INTRA:          -4.178
REMARK INTER:                  -4.740
REMARK INTRA:                   0.562
REMARK UNBOUND:                 0.562
REMARK SMILES CC1=CCC(=C(C)C)C(=O)CC(C)=CCC1
REMARK SMILES IDX 12 1 14 2 13 3 15 4 16 5 2 6 1 7 3 8 11 10 9 11 10 12 5 13
REMARK SMILES IDX 6 14 7 15 8 16 4 17
REMARK H PARENT
REMARK Flexibility Score: 60.00
ROOT
ATOM      1  C   UNL     1      27.447 -41.053 -22.682  1.00  0.00    -0.070 C 
ATOM      2  C   UNL     1      27.127 -41.840 -23.734  1.00  0.00    -0.027 C 
ATOM      3  C   UNL     1      26.850 -39.669 -22.624  1.00  0.00     0.039 C 
ENDROOT
BRANCH   2   4
ATOM      4  C   UNL     1      27.653 -43.236 -23.976  1.00  0.00     0.032 C 
BRANCH   4   5
ATOM      5  C   UNL     1      26.518 -44.278 -23.968  1.00  0.00     0.034 C 
BRANCH   5   6
ATOM      6  C   UNL     1      25.585 -44.104 -22.780  1.00  0.00    -0.077 C 
ATOM      7  C   UNL     1      24.159 -43.686 -23.036  1.00  0.00     0.039 C 
ATOM      8  C   UNL     1      25.963 -44.304 -21.497  1.00  0.00    -0.023 CG0
ATOM      9  G   UNL     1      27.352 -44.672 -21.031  1.00  0.00     0.000 G0
ENDBRANCH   5   6
ENDBRANCH   4   5
ENDBRANCH   2   4
BRANCH   1  10
ATOM     10  C   UNL     1      28.397 -41.490 -21.583  1.00  0.00     0.111 C 
BRANCH  10  11
ATOM     11  C   UNL     1      27.681 -42.184 -20.455  1.00  0.00     0.163 C 
ATOM     12  O   UNL     1      26.855 -41.533 -19.759  1.00  0.00    -0.294 OA
BRANCH  11  13
ATOM     13  C   UNL     1      27.955 -43.601 -20.108  1.00  0.00    -0.002 C 
ATOM     14  C   UNL     1      28.806 -43.907 -19.091  1.00  0.00    -0.069 C 
ATOM     15  C   UNL     1      29.205 -45.333 -18.797  1.00  0.00     0.039 C 
ATOM     16  C   UNL     1      29.379 -42.823 -18.207  1.00  0.00     0.039 C 
BRANCH  13  17
ATOM     17  C   UNL     1      27.362 -44.670 -21.013  1.00  0.00     0.066 CG0
ATOM     18  G   UNL     1      25.977 -44.295 -21.484  1.00  0.00     0.000 G0
ENDBRANCH  13  17
ENDBRANCH  11  13
ENDBRANCH  10  11
ENDBRANCH   1  10
TORSDOF 0
ENDMDL
MODEL 2
REMARK VINA RESULT:    -3.241      1.913      4.873
REMARK INTER + INTRA:          -4.006
REMARK INTER:                  -4.597
REMARK INTRA:                   0.591
REMARK UNBOUND:                 0.562
REMARK SMILES CC1=CCC(=C(C)C)C(=O)CC(C)=CCC1
REMARK SMILES IDX 12 1 14 2 13 3 15 4 16 5 2 6 1 7 3 8 11 10 9 11 10 12 5 13
REMARK SMILES IDX 6 14 7 15 8 16 4 17
REMARK H PARENT
REMARK Flexibility Score: 60.00
ROOT
ATOM      1  C   UNL     1      25.472 -43.938 -20.962  1.00  0.00    -0.070 C 
ATOM      2  C   UNL     1      25.234 -43.730 -19.647  1.00  0.00    -0.027 C 
ATOM      3  C   UNL     1      24.393 -43.563 -21.946  1.00  0.00     0.039 C 
ENDROOT
BRANCH   2   4
ATOM      4  C   UNL     1      26.180 -44.073 -18.520  1.00  0.00     0.032 C 
BRANCH   4   5
ATOM      5  C   UNL     1      26.799 -42.809 -17.893  1.00  0.00     0.034 C 
BRANCH   5   6
ATOM      6  C   UNL     1      28.242 -42.602 -18.320  1.00  0.00    -0.077 C 
ATOM      7  C   UNL     1      29.341 -43.137 -17.436  1.00  0.00     0.039 C 
ATOM      8  C   UNL     1      28.602 -41.960 -19.455  1.00  0.00    -0.023 CG0
ATOM      9  G   UNL     1      27.660 -41.308 -20.440  1.00  0.00     0.000 G0
ENDBRANCH   5   6
ENDBRANCH   4   5
ENDBRANCH   2   4
BRANCH   1  10
ATOM     10  C   UNL     1      26.756 -44.558 -21.480  1.00  0.00     0.111 C 
BRANCH  10  11
ATOM     11  C   UNL     1      27.831 -43.530 -21.713  1.00  0.00     0.163 C 
ATOM     12  O   UNL     1      29.026 -43.909 -21.840  1.00  0.00    -0.294 OA
BRANCH  11  13
ATOM     13  C   UNL     1      27.529 -42.077 -21.750  1.00  0.00    -0.002 C 
ATOM     14  C   UNL     1      27.289 -41.456 -22.936  1.00  0.00    -0.069 C 
ATOM     15  C   UNL     1      27.107 -39.959 -23.020  1.00  0.00     0.039 C 
ATOM     16  C   UNL     1      27.185 -42.247 -24.220  1.00  0.00     0.039 C 
BRANCH  13  17
ATOM     17  C   UNL     1      27.638 -41.306 -20.443  1.00  0.00     0.066 CG0
ATOM     18  G   UNL     1      28.590 -41.976 -19.479  1.00  0.00     0.000 G0
ENDBRANCH  13  17
ENDBRANCH  11  13
ENDBRANCH  10  11
ENDBRANCH   1  10
TORSDOF 0
ENDMDL
MODEL 3
REMARK VINA RESULT:    -3.202     11.225     13.035
REMARK INTER + INTRA:          -3.951
REMARK INTER:                  -4.296
REMARK INTRA:                   0.345
REMARK UNBOUND:                 0.562
REMARK SMILES CC1=CCC(=C(C)C)C(=O)CC(C)=CCC1
REMARK SMILES IDX 12 1 14 2 13 3 15 4 16 5 2 6 1 7 3 8 11 10 9 11 10 12 5 13
REMARK SMILES IDX 6 14 7 15 8 16 4 17
REMARK H PARENT
REMARK Flexibility Score: 60.00
ROOT
ATOM      1  C   UNL     1      27.995 -31.663 -14.853  1.00  0.00    -0.070 C 
ATOM      2  C   UNL     1      28.753 -32.415 -15.683  1.00  0.00    -0.027 C 
ATOM      3  C   UNL     1      27.992 -30.168 -15.054  1.00  0.00     0.039 C 
ENDROOT
BRANCH   2   4
ATOM      4  C   UNL     1      28.905 -33.917 -15.613  1.00  0.00     0.032 C 
BRANCH   4   5
ATOM      5  C   UNL     1      29.927 -34.333 -14.537  1.00  0.00     0.034 C 
BRANCH   5   6
ATOM      6  C   UNL     1      29.466 -35.546 -13.745  1.00  0.00    -0.077 C 
ATOM      7  C   UNL     1      29.282 -36.856 -14.470  1.00  0.00     0.039 C 
ATOM      8  C   UNL     1      29.210 -35.519 -12.417  1.00  0.00    -0.023 CG0
ATOM      9  G   UNL     1      29.282 -34.300 -11.527  1.00  0.00     0.000 G0
ENDBRANCH   5   6
ENDBRANCH   4   5
ENDBRANCH   2   4
BRANCH   1  10
ATOM     10  C   UNL     1      27.180 -32.254 -13.718  1.00  0.00     0.111 C 
BRANCH  10  11
ATOM     11  C   UNL     1      27.950 -32.294 -12.426  1.00  0.00     0.163 C 
ATOM     12  O   UNL     1      28.623 -31.286 -12.081  1.00  0.00    -0.294 OA
BRANCH  11  13
ATOM     13  C   UNL     1      27.977 -33.505 -11.567  1.00  0.00    -0.002 C 
ATOM     14  C   UNL     1      26.917 -33.804 -10.768  1.00  0.00    -0.069 C 
ATOM     15  C   UNL     1      26.966 -34.953  -9.790  1.00  0.00     0.039 C 
ATOM     16  C   UNL     1      25.642 -32.996 -10.836  1.00  0.00     0.039 C 
BRANCH  13  17
ATOM     17  C   UNL     1      29.273 -34.300 -11.521  1.00  0.00     0.066 CG0
ATOM     18  G   UNL     1      29.208 -35.523 -12.405  1.00  0.00     0.000 G0
ENDBRANCH  13  17
ENDBRANCH  11  13
ENDBRANCH  10  11
ENDBRANCH   1  10
TORSDOF 0
ENDMDL
MODEL 4
REMARK VINA RESULT:    -3.157      1.879      4.372
REMARK INTER + INTRA:          -3.887
REMARK INTER:                  -4.591
REMARK INTRA:                   0.704
REMARK UNBOUND:                 0.562
REMARK SMILES CC1=CCC(=C(C)C)C(=O)CC(C)=CCC1
REMARK SMILES IDX 12 1 14 2 13 3 15 4 16 5 2 6 1 7 3 8 11 10 9 11 10 12 5 13
REMARK SMILES IDX 6 14 7 15 8 16 4 17
REMARK H PARENT
REMARK Flexibility Score: 60.00
ROOT
ATOM      1  C   UNL     1      28.200 -41.790 -21.378  1.00  0.00    -0.070 C 
ATOM      2  C   UNL     1      28.385 -41.286 -20.136  1.00  0.00    -0.027 C 
ATOM      3  C   UNL     1      27.644 -40.874 -22.439  1.00  0.00     0.039 C 
ENDROOT
BRANCH   2   4
ATOM      4  C   UNL     1      28.899 -42.059 -18.944  1.00  0.00     0.032 C 
BRANCH   4   5
ATOM      5  C   UNL     1      27.841 -42.150 -17.828  1.00  0.00     0.034 C 
BRANCH   5   6
ATOM      6  C   UNL     1      27.231 -43.538 -17.724  1.00  0.00    -0.077 C 
ATOM      7  C   UNL     1      27.755 -44.481 -16.670  1.00  0.00     0.039 C 
ATOM      8  C   UNL     1      26.239 -43.981 -18.530  1.00  0.00    -0.023 CG0
ATOM      9  G   UNL     1      25.619 -43.214 -19.674  1.00  0.00     0.000 G0
ENDBRANCH   5   6
ENDBRANCH   4   5
ENDBRANCH   2   4
BRANCH   1  10
ATOM     10  C   UNL     1      28.498 -43.234 -21.735  1.00  0.00     0.111 C 
BRANCH  10  11
ATOM     11  C   UNL     1      27.479 -44.183 -21.162  1.00  0.00     0.163 C 
ATOM     12  O   UNL     1      27.838 -45.345 -20.834  1.00  0.00    -0.294 OA
BRANCH  11  13
ATOM     13  C   UNL     1      26.051 -43.804 -21.017  1.00  0.00    -0.002 C 
ATOM     14  C   UNL     1      25.213 -43.861 -22.088  1.00  0.00    -0.069 C 
ATOM     15  C   UNL     1      23.791 -43.361 -22.005  1.00  0.00     0.039 C 
ATOM     16  C   UNL     1      25.677 -44.439 -23.406  1.00  0.00     0.039 C 
BRANCH  13  17
ATOM     17  C   UNL     1      25.612 -43.228 -19.679  1.00  0.00     0.066 CG0
ATOM     18  G   UNL     1      26.217 -43.987 -18.521  1.00  0.00     0.000 G0
ENDBRANCH  13  17
ENDBRANCH  11  13
ENDBRANCH  10  11
ENDBRANCH   1  10
TORSDOF 0
ENDMDL
MODEL 5
REMARK VINA RESULT:    -3.151     18.124     19.289
REMARK INTER + INTRA:          -3.878
REMARK INTER:                  -4.251
REMARK INTRA:                   0.373
REMARK UNBOUND:                 0.562
REMARK SMILES CC1=CCC(=C(C)C)C(=O)CC(C)=CCC1
REMARK SMILES IDX 12 1 14 2 13 3 15 4 16 5 2 6 1 7 3 8 11 10 9 11 10 12 5 13
REMARK SMILES IDX 6 14 7 15 8 16 4 17
REMARK H PARENT
REMARK Flexibility Score: 60.00
ROOT
ATOM      1  C   UNL     1      14.935 -44.119  -7.583  1.00  0.00    -0.070 C 
ATOM      2  C   UNL     1      15.988 -43.821  -8.377  1.00  0.00    -0.027 C 
ATOM      3  C   UNL     1      15.178 -45.003  -6.385  1.00  0.00     0.039 C 
ENDROOT
BRANCH   2   4
ATOM      4  C   UNL     1      15.930 -42.982  -9.632  1.00  0.00     0.032 C 
BRANCH   4   5
ATOM      5  C   UNL     1      16.009 -41.477  -9.313  1.00  0.00     0.034 C 
BRANCH   5   6
ATOM      6  C   UNL     1      14.997 -40.666 -10.105  1.00  0.00    -0.077 C 
ATOM      7  C   UNL     1      15.208 -40.497 -11.589  1.00  0.00     0.039 C 
ATOM      8  C   UNL     1      13.910 -40.081  -9.552  1.00  0.00    -0.023 CG0
ATOM      9  G   UNL     1      13.552 -40.087  -8.084  1.00  0.00     0.000 G0
ENDBRANCH   5   6
ENDBRANCH   4   5
ENDBRANCH   2   4
BRANCH   1  10
ATOM     10  C   UNL     1      13.526 -43.632  -7.863  1.00  0.00     0.111 C 
BRANCH  10  11
ATOM     11  C   UNL     1      13.181 -42.402  -7.066  1.00  0.00     0.163 C 
ATOM     12  O   UNL     1      13.359 -42.409  -5.818  1.00  0.00    -0.294 OA
BRANCH  11  13
ATOM     13  C   UNL     1      12.592 -41.196  -7.702  1.00  0.00    -0.002 C 
ATOM     14  C   UNL     1      11.276 -41.175  -8.046  1.00  0.00    -0.069 C 
ATOM     15  C   UNL     1      10.678 -40.018  -8.809  1.00  0.00     0.039 C 
ATOM     16  C   UNL     1      10.356 -42.313  -7.665  1.00  0.00     0.039 C 
BRANCH  13  17
ATOM     17  C   UNL     1      13.541 -40.066  -8.070  1.00  0.00     0.066 CG0
ATOM     18  G   UNL     1      13.885 -40.084  -9.541  1.00  0.00     0.000 G0
ENDBRANCH  13  17
ENDBRANCH  11  13
ENDBRANCH  10  11
ENDBRANCH   1  10
TORSDOF 0
ENDMDL
MODEL 6
REMARK VINA RESULT:    -3.129     12.594     14.401
REMARK INTER + INTRA:          -3.848
REMARK INTER:                  -4.514
REMARK INTRA:                   0.666
REMARK UNBOUND:                 0.562
REMARK SMILES CC1=CCC(=C(C)C)C(=O)CC(C)=CCC1
REMARK SMILES IDX 12 1 14 2 13 3 15 4 16 5 2 6 1 7 3 8 11 10 9 11 10 12 5 13
REMARK SMILES IDX 6 14 7 15 8 16 4 17
REMARK H PARENT
REMARK Flexibility Score: 60.00
ROOT
ATOM      1  C   UNL     1      28.057 -32.657 -15.322  1.00  0.00    -0.070 C 
ATOM      2  C   UNL     1      27.986 -31.348 -15.654  1.00  0.00    -0.027 C 
ATOM      3  C   UNL     1      27.454 -33.663 -16.270  1.00  0.00     0.039 C 
ENDROOT
BRANCH   2   4
ATOM      4  C   UNL     1      28.503 -30.201 -14.816  1.00  0.00     0.032 C 
BRANCH   4   5
ATOM      5  C   UNL     1      27.370 -29.238 -14.412  1.00  0.00     0.034 C 
BRANCH   5   6
ATOM      6  C   UNL     1      26.169 -29.970 -13.837  1.00  0.00    -0.077 C 
ATOM      7  C   UNL     1      24.851 -29.881 -14.565  1.00  0.00     0.039 C 
ATOM      8  C   UNL     1      26.214 -30.702 -12.700  1.00  0.00    -0.023 CG0
ATOM      9  G   UNL     1      27.417 -30.869 -11.802  1.00  0.00     0.000 G0
ENDBRANCH   5   6
ENDBRANCH   4   5
ENDBRANCH   2   4
BRANCH   1  10
ATOM     10  C   UNL     1      28.686 -33.148 -14.031  1.00  0.00     0.111 C 
BRANCH  10  11
ATOM     11  C   UNL     1      27.701 -33.172 -12.893  1.00  0.00     0.163 C 
ATOM     12  O   UNL     1      26.679 -33.905 -12.980  1.00  0.00    -0.294 OA
BRANCH  11  13
ATOM     13  C   UNL     1      27.875 -32.321 -11.689  1.00  0.00    -0.002 C 
ATOM     14  C   UNL     1      28.310 -32.865 -10.520  1.00  0.00    -0.069 C 
ATOM     15  C   UNL     1      28.373 -32.055  -9.248  1.00  0.00     0.039 C 
ATOM     16  C   UNL     1      28.757 -34.308 -10.455  1.00  0.00     0.039 C 
BRANCH  13  17
ATOM     17  C   UNL     1      27.419 -30.873 -11.785  1.00  0.00     0.066 CG0
ATOM     18  G   UNL     1      26.229 -30.723 -12.704  1.00  0.00     0.000 G0
ENDBRANCH  13  17
ENDBRANCH  11  13
ENDBRANCH  10  11
ENDBRANCH   1  10
TORSDOF 0
ENDMDL
MODEL 7
REMARK VINA RESULT:    -3.112     10.983     12.987
REMARK INTER + INTRA:          -3.824
REMARK INTER:                  -4.155
REMARK INTRA:                   0.331
REMARK UNBOUND:                 0.562
REMARK SMILES CC1=CCC(=C(C)C)C(=O)CC(C)=CCC1
REMARK SMILES IDX 12 1 14 2 13 3 15 4 16 5 2 6 1 7 3 8 11 10 9 11 10 12 5 13
REMARK SMILES IDX 6 14 7 15 8 16 4 17
REMARK H PARENT
REMARK Flexibility Score: 60.00
ROOT
ATOM      1  C   UNL     1      28.541 -33.942 -15.978  1.00  0.00    -0.070 C 
ATOM      2  C   UNL     1      27.646 -34.444 -16.861  1.00  0.00    -0.027 C 
ATOM      3  C   UNL     1      29.327 -34.914 -15.135  1.00  0.00     0.039 C 
ENDROOT
BRANCH   2   4
ATOM      4  C   UNL     1      26.750 -33.626 -17.762  1.00  0.00     0.032 C 
BRANCH   4   5
ATOM      5  C   UNL     1      25.303 -33.582 -17.234  1.00  0.00     0.034 C 
BRANCH   5   6
ATOM      6  C   UNL     1      24.711 -32.184 -17.292  1.00  0.00    -0.077 C 
ATOM      7  C   UNL     1      24.044 -31.734 -18.568  1.00  0.00     0.039 C 
ATOM      8  C   UNL     1      24.748 -31.312 -16.258  1.00  0.00    -0.023 CG0
ATOM      9  G   UNL     1      25.413 -31.551 -14.923  1.00  0.00     0.000 G0
ENDBRANCH   5   6
ENDBRANCH   4   5
ENDBRANCH   2   4
BRANCH   1  10
ATOM     10  C   UNL     1      28.760 -32.454 -15.782  1.00  0.00     0.111 C 
BRANCH  10  11
ATOM     11  C   UNL     1      27.941 -31.903 -14.646  1.00  0.00     0.163 C 
ATOM     12  O   UNL     1      28.185 -32.288 -13.471  1.00  0.00    -0.294 OA
BRANCH  11  13
ATOM     13  C   UNL     1      26.823 -30.954 -14.874  1.00  0.00    -0.002 C 
ATOM     14  C   UNL     1      27.058 -29.614 -14.920  1.00  0.00    -0.069 C 
ATOM     15  C   UNL     1      25.928 -28.618 -15.021  1.00  0.00     0.039 C 
ATOM     16  C   UNL     1      28.468 -29.072 -14.879  1.00  0.00     0.039 C 
BRANCH  13  17
ATOM     17  C   UNL     1      25.415 -31.528 -14.914  1.00  0.00     0.066 CG0
ATOM     18  G   UNL     1      24.751 -31.285 -16.249  1.00  0.00     0.000 G0
ENDBRANCH  13  17
ENDBRANCH  11  13
ENDBRANCH  10  11
ENDBRANCH   1  10
TORSDOF 0
ENDMDL
MODEL 8
REMARK VINA RESULT:    -3.086     11.636     13.795
REMARK INTER + INTRA:          -3.787
REMARK INTER:                  -4.508
REMARK INTRA:                   0.721
REMARK UNBOUND:                 0.562
REMARK SMILES CC1=CCC(=C(C)C)C(=O)CC(C)=CCC1
REMARK SMILES IDX 12 1 14 2 13 3 15 4 16 5 2 6 1 7 3 8 11 10 9 11 10 12 5 13
REMARK SMILES IDX 6 14 7 15 8 16 4 17
REMARK H PARENT
REMARK Flexibility Score: 60.00
ROOT
ATOM      1  C   UNL     1      27.031 -32.244 -12.119  1.00  0.00    -0.070 C 
ATOM      2  C   UNL     1      28.226 -32.818 -11.847  1.00  0.00    -0.027 C 
ATOM      3  C   UNL     1      26.662 -30.988 -11.372  1.00  0.00     0.039 C 
ENDROOT
BRANCH   2   4
ATOM      4  C   UNL     1      28.748 -34.092 -12.470  1.00  0.00     0.032 C 
BRANCH   4   5
ATOM      5  C   UNL     1      29.840 -33.804 -13.519  1.00  0.00     0.034 C 
BRANCH   5   6
ATOM      6  C   UNL     1      29.332 -33.973 -14.941  1.00  0.00    -0.077 C 
ATOM      7  C   UNL     1      29.436 -35.331 -15.589  1.00  0.00     0.039 C 
ATOM      8  C   UNL     1      28.788 -32.968 -15.665  1.00  0.00    -0.023 CG0
ATOM      9  G   UNL     1      28.645 -31.532 -15.218  1.00  0.00     0.000 G0
ENDBRANCH   5   6
ENDBRANCH   4   5
ENDBRANCH   2   4
BRANCH   1  10
ATOM     10  C   UNL     1      26.044 -32.826 -13.112  1.00  0.00     0.111 C 
BRANCH  10  11
ATOM     11  C   UNL     1      26.296 -32.343 -14.516  1.00  0.00     0.163 C 
ATOM     12  O   UNL     1      25.754 -32.947 -15.480  1.00  0.00    -0.294 OA
BRANCH  11  13
ATOM     13  C   UNL     1      27.204 -31.203 -14.799  1.00  0.00    -0.002 C 
ATOM     14  C   UNL     1      26.724 -29.930 -14.809  1.00  0.00    -0.069 C 
ATOM     15  C   UNL     1      27.591 -28.764 -15.220  1.00  0.00     0.039 C 
ATOM     16  C   UNL     1      25.300 -29.634 -14.398  1.00  0.00     0.039 C 
BRANCH  13  17
ATOM     17  C   UNL     1      28.632 -31.531 -15.207  1.00  0.00     0.066 CG0
ATOM     18  G   UNL     1      28.767 -32.966 -15.660  1.00  0.00     0.000 G0
ENDBRANCH  13  17
ENDBRANCH  11  13
ENDBRANCH  10  11
ENDBRANCH   1  10
TORSDOF 0
ENDMDL
MODEL 9
REMARK VINA RESULT:    -3.022     12.879     15.272
REMARK INTER + INTRA:          -3.697
REMARK INTER:                  -4.220
REMARK INTRA:                   0.523
REMARK UNBOUND:                 0.562
REMARK SMILES CC1=CCC(=C(C)C)C(=O)CC(C)=CCC1
REMARK SMILES IDX 12 1 14 2 13 3 15 4 16 5 2 6 1 7 3 8 11 10 9 11 10 12 5 13
REMARK SMILES IDX 6 14 7 15 8 16 4 17
REMARK H PARENT
REMARK Flexibility Score: 60.00
ROOT
ATOM      1  C   UNL     1      27.129 -27.325 -15.605  1.00  0.00    -0.070 C 
ATOM      2  C   UNL     1      27.855 -27.920 -14.632  1.00  0.00    -0.027 C 
ATOM      3  C   UNL     1      26.664 -25.908 -15.378  1.00  0.00     0.039 C 
ENDROOT
BRANCH   2   4
ATOM      4  C   UNL     1      28.376 -29.338 -14.669  1.00  0.00     0.032 C 
BRANCH   4   5
ATOM      5  C   UNL     1      27.378 -30.326 -14.035  1.00  0.00     0.034 C 
BRANCH   5   6
ATOM      6  C   UNL     1      26.909 -31.383 -15.020  1.00  0.00    -0.077 C 
ATOM      7  C   UNL     1      27.804 -32.568 -15.290  1.00  0.00     0.039 C 
ATOM      8  C   UNL     1      25.727 -31.324 -15.675  1.00  0.00    -0.023 CG0
ATOM      9  G   UNL     1      24.721 -30.201 -15.585  1.00  0.00     0.000 G0
ENDBRANCH   5   6
ENDBRANCH   4   5
ENDBRANCH   2   4
BRANCH   1  10
ATOM     10  C   UNL     1      26.739 -28.029 -16.891  1.00  0.00     0.111 C 
BRANCH  10  11
ATOM     11  C   UNL     1      25.247 -28.153 -17.042  1.00  0.00     0.163 C 
ATOM     12  O   UNL     1      24.563 -27.114 -17.249  1.00  0.00    -0.294 OA
BRANCH  11  13
ATOM     13  C   UNL     1      24.551 -29.457 -16.908  1.00  0.00    -0.002 C 
ATOM     14  C   UNL     1      23.719 -29.896 -17.892  1.00  0.00    -0.069 C 
ATOM     15  C   UNL     1      22.900 -31.153 -17.728  1.00  0.00     0.039 C 
ATOM     16  C   UNL     1      23.593 -29.141 -19.195  1.00  0.00     0.039 C 
BRANCH  13  17
ATOM     17  C   UNL     1      24.699 -30.196 -15.587  1.00  0.00     0.066 CG0
ATOM     18  G   UNL     1      25.708 -31.316 -15.686  1.00  0.00     0.000 G0
ENDBRANCH  13  17
ENDBRANCH  11  13
ENDBRANCH  10  11
ENDBRANCH   1  10
TORSDOF 0
ENDMDL
