MODEL 1
REMARK VINA RESULT:    -3.321      0.000      0.000
REMARK INTER + INTRA:          -3.923
REMARK INTER:                  -3.903
REMARK INTRA:                  -0.020
REMARK UNBOUND:                -0.020
REMARK SMILES CCCCC(=O)[O-]
REMARK SMILES IDX 4 1 5 2 6 3 7 4 3 5 2 6 1 7
REMARK H PARENT
REMARK Flexibility Score: inf
ROOT
ATOM      1  C   UNL     1       3.810  -6.590  -5.024  1.00  0.00     0.053 C 
ENDROOT
BRANCH   1   2
ATOM      2  C   UNL     1       5.048  -6.974  -4.276  1.00  0.00     0.041 C 
ATOM      3  O   UNL     1       5.012  -7.902  -3.426  1.00  0.00    -0.550 OA
ATOM      4  O   UNL     1       6.252  -6.339  -4.552  1.00  0.00    -0.550 OA
ENDBRANCH   1   2
BRANCH   1   5
ATOM      5  C   UNL     1       4.140  -5.575  -6.123  1.00  0.00     0.006 C 
BRANCH   5   6
ATOM      6  C   UNL     1       2.869  -5.115  -6.844  1.00  0.00    -0.003 C 
ATOM      7  C   UNL     1       2.951  -3.637  -7.218  1.00  0.00     0.004 C 
ENDBRANCH   5   6
ENDBRANCH   1   5
TORSDOF 3
ENDMDL
MODEL 2
REMARK VINA RESULT:    -3.264      1.069      1.472
REMARK INTER + INTRA:          -3.856
REMARK INTER:                  -3.822
REMARK INTRA:                  -0.034
REMARK UNBOUND:                -0.020
REMARK SMILES CCCCC(=O)[O-]
REMARK SMILES IDX 4 1 5 2 6 3 7 4 3 5 2 6 1 7
REMARK H PARENT
REMARK Flexibility Score: inf
ROOT
ATOM      1  C   UNL     1       4.408  -5.810  -6.582  1.00  0.00     0.053 C 
ENDROOT
BRANCH   1   2
ATOM      2  C   UNL     1       4.651  -6.234  -5.168  1.00  0.00     0.041 C 
ATOM      3  O   UNL     1       3.696  -6.641  -4.456  1.00  0.00    -0.550 OA
ATOM      4  O   UNL     1       5.941  -6.226  -4.652  1.00  0.00    -0.550 OA
ENDBRANCH   1   2
BRANCH   1   5
ATOM      5  C   UNL     1       2.966  -5.320  -6.754  1.00  0.00     0.006 C 
BRANCH   5   6
ATOM      6  C   UNL     1       2.934  -3.843  -7.162  1.00  0.00    -0.003 C 
ATOM      7  C   UNL     1       1.622  -3.493  -7.860  1.00  0.00     0.004 C 
ENDBRANCH   5   6
ENDBRANCH   1   5
TORSDOF 3
ENDMDL
MODEL 3
REMARK VINA RESULT:    -3.246      3.172      4.177
REMARK INTER + INTRA:          -3.835
REMARK INTER:                  -3.783
REMARK INTRA:                  -0.051
REMARK UNBOUND:                -0.020
REMARK SMILES CCCCC(=O)[O-]
REMARK SMILES IDX 4 1 5 2 6 3 7 4 3 5 2 6 1 7
REMARK H PARENT
REMARK Flexibility Score: inf
ROOT
ATOM      1  C   UNL     1       3.868  -5.179  -6.809  1.00  0.00     0.053 C 
ENDROOT
BRANCH   1   2
ATOM      2  C   UNL     1       3.005  -4.027  -7.215  1.00  0.00     0.041 C 
ATOM      3  O   UNL     1       1.751  -4.122  -7.153  1.00  0.00    -0.550 OA
ATOM      4  O   UNL     1       3.586  -2.831  -7.616  1.00  0.00    -0.550 OA
ENDBRANCH   1   2
BRANCH   1   5
ATOM      5  C   UNL     1       3.065  -6.184  -5.975  1.00  0.00     0.006 C 
BRANCH   5   6
ATOM      6  C   UNL     1       3.874  -6.664  -4.766  1.00  0.00    -0.003 C 
ATOM      7  C   UNL     1       5.365  -6.400  -4.960  1.00  0.00     0.004 C 
ENDBRANCH   5   6
ENDBRANCH   1   5
TORSDOF 3
ENDMDL
MODEL 4
REMARK VINA RESULT:    -3.227     13.390     14.263
REMARK INTER + INTRA:          -3.813
REMARK INTER:                  -3.795
REMARK INTRA:                  -0.018
REMARK UNBOUND:                -0.020
REMARK SMILES CCCCC(=O)[O-]
REMARK SMILES IDX 4 1 5 2 6 3 7 4 3 5 2 6 1 7
REMARK H PARENT
REMARK Flexibility Score: inf
ROOT
ATOM      1  C   UNL     1       6.975   7.756  -6.630  1.00  0.00     0.053 C 
ENDROOT
BRANCH   1   2
ATOM      2  C   UNL     1       6.192   7.414  -7.858  1.00  0.00     0.041 C 
ATOM      3  O   UNL     1       6.082   8.250  -8.792  1.00  0.00    -0.550 OA
ATOM      4  O   UNL     1       5.625   6.153  -7.992  1.00  0.00    -0.550 OA
ENDBRANCH   1   2
BRANCH   1   5
ATOM      5  C   UNL     1       6.043   8.256  -5.521  1.00  0.00     0.006 C 
BRANCH   5   6
ATOM      6  C   UNL     1       6.616   7.936  -4.137  1.00  0.00    -0.003 C 
ATOM      7  C   UNL     1       5.625   7.125  -3.305  1.00  0.00     0.004 C 
ENDBRANCH   5   6
ENDBRANCH   1   5
TORSDOF 3
ENDMDL
MODEL 5
REMARK VINA RESULT:    -3.162      2.303      3.189
REMARK INTER + INTRA:          -3.736
REMARK INTER:                  -3.716
REMARK INTRA:                  -0.020
REMARK UNBOUND:                -0.020
REMARK SMILES CCCCC(=O)[O-]
REMARK SMILES IDX 4 1 5 2 6 3 7 4 3 5 2 6 1 7
REMARK H PARENT
REMARK Flexibility Score: inf
ROOT
ATOM      1  C   UNL     1       3.382  -4.192  -7.055  1.00  0.00     0.053 C 
ENDROOT
BRANCH   1   2
ATOM      2  C   UNL     1       3.580  -5.568  -6.502  1.00  0.00     0.041 C 
ATOM      3  O   UNL     1       2.990  -6.551  -7.023  1.00  0.00    -0.550 OA
ATOM      4  O   UNL     1       4.453  -5.773  -5.442  1.00  0.00    -0.550 OA
ENDBRANCH   1   2
BRANCH   1   5
ATOM      5  C   UNL     1       1.910  -3.966  -7.417  1.00  0.00     0.006 C 
BRANCH   5   6
ATOM      6  C   UNL     1       1.721  -2.623  -8.131  1.00  0.00    -0.003 C 
ATOM      7  C   UNL     1       0.426  -2.606  -8.939  1.00  0.00     0.004 C 
ENDBRANCH   5   6
ENDBRANCH   1   5
TORSDOF 3
ENDMDL
MODEL 6
REMARK VINA RESULT:    -3.086     14.271     14.846
REMARK INTER + INTRA:          -3.647
REMARK INTER:                  -3.619
REMARK INTRA:                  -0.028
REMARK UNBOUND:                -0.020
REMARK SMILES CCCCC(=O)[O-]
REMARK SMILES IDX 4 1 5 2 6 3 7 4 3 5 2 6 1 7
REMARK H PARENT
REMARK Flexibility Score: inf
ROOT
ATOM      1  C   UNL     1       6.288   7.694  -6.880  1.00  0.00     0.053 C 
ENDROOT
BRANCH   1   2
ATOM      2  C   UNL     1       7.020   8.296  -8.038  1.00  0.00     0.041 C 
ATOM      3  O   UNL     1       6.480   8.338  -9.175  1.00  0.00    -0.550 OA
ATOM      4  O   UNL     1       8.278   8.854  -7.852  1.00  0.00    -0.550 OA
ENDBRANCH   1   2
BRANCH   1   5
ATOM      5  C   UNL     1       7.004   8.021  -5.565  1.00  0.00     0.006 C 
BRANCH   5   6
ATOM      6  C   UNL     1       6.004   8.467  -4.493  1.00  0.00    -0.003 C 
ATOM      7  C   UNL     1       5.621   7.306  -3.579  1.00  0.00     0.004 C 
ENDBRANCH   5   6
ENDBRANCH   1   5
TORSDOF 3
ENDMDL
MODEL 7
REMARK VINA RESULT:    -3.063     13.677     14.252
REMARK INTER + INTRA:          -3.620
REMARK INTER:                  -3.572
REMARK INTRA:                  -0.048
REMARK UNBOUND:                -0.020
REMARK SMILES CCCCC(=O)[O-]
REMARK SMILES IDX 4 1 5 2 6 3 7 4 3 5 2 6 1 7
REMARK H PARENT
REMARK Flexibility Score: inf
ROOT
ATOM      1  C   UNL     1       6.149   7.428  -5.884  1.00  0.00     0.053 C 
ENDROOT
BRANCH   1   2
ATOM      2  C   UNL     1       5.961   7.890  -4.473  1.00  0.00     0.041 C 
ATOM      3  O   UNL     1       5.150   7.295  -3.716  1.00  0.00    -0.550 OA
ATOM      4  O   UNL     1       6.716   8.946  -3.980  1.00  0.00    -0.550 OA
ENDBRANCH   1   2
BRANCH   1   5
ATOM      5  C   UNL     1       7.317   8.172  -6.540  1.00  0.00     0.006 C 
BRANCH   5   6
ATOM      6  C   UNL     1       7.143   8.234  -8.061  1.00  0.00    -0.003 C 
ATOM      7  C   UNL     1       5.856   7.539  -8.497  1.00  0.00     0.004 C 
ENDBRANCH   5   6
ENDBRANCH   1   5
TORSDOF 3
ENDMDL
MODEL 8
REMARK VINA RESULT:    -2.963     12.538     13.920
REMARK INTER + INTRA:          -3.503
REMARK INTER:                  -3.479
REMARK INTRA:                  -0.023
REMARK UNBOUND:                -0.020
REMARK SMILES CCCCC(=O)[O-]
REMARK SMILES IDX 4 1 5 2 6 3 7 4 3 5 2 6 1 7
REMARK H PARENT
REMARK Flexibility Score: inf
ROOT
ATOM      1  C   UNL     1      -0.885   6.442  -8.625  1.00  0.00     0.053 C 
ENDROOT
BRANCH   1   2
ATOM      2  C   UNL     1      -0.301   5.160  -9.130  1.00  0.00     0.041 C 
ATOM      3  O   UNL     1       0.758   4.705  -8.625  1.00  0.00    -0.550 OA
ATOM      4  O   UNL     1      -0.954   4.443 -10.125  1.00  0.00    -0.550 OA
ENDBRANCH   1   2
BRANCH   1   5
ATOM      5  C   UNL     1      -2.416   6.380  -8.648  1.00  0.00     0.006 C 
BRANCH   5   6
ATOM      6  C   UNL     1      -3.001   6.763  -7.284  1.00  0.00    -0.003 C 
ATOM      7  C   UNL     1      -3.342   8.250  -7.229  1.00  0.00     0.004 C 
ENDBRANCH   5   6
ENDBRANCH   1   5
TORSDOF 3
ENDMDL
MODEL 9
REMARK VINA RESULT:    -2.890     13.105     14.487
REMARK INTER + INTRA:          -3.417
REMARK INTER:                  -3.379
REMARK INTRA:                  -0.038
REMARK UNBOUND:                -0.020
REMARK SMILES CCCCC(=O)[O-]
REMARK SMILES IDX 4 1 5 2 6 3 7 4 3 5 2 6 1 7
REMARK H PARENT
REMARK Flexibility Score: inf
ROOT
ATOM      1  C   UNL     1      -2.631   7.284  -8.112  1.00  0.00     0.053 C 
ENDROOT
BRANCH   1   2
ATOM      2  C   UNL     1      -2.970   6.847  -6.721  1.00  0.00     0.041 C 
ATOM      3  O   UNL     1      -2.075   6.801  -5.837  1.00  0.00    -0.550 OA
ATOM      4  O   UNL     1      -4.283   6.538  -6.390  1.00  0.00    -0.550 OA
ENDBRANCH   1   2
BRANCH   1   5
ATOM      5  C   UNL     1      -1.961   6.143  -8.884  1.00  0.00     0.006 C 
BRANCH   5   6
ATOM      6  C   UNL     1      -0.436   6.282  -8.855  1.00  0.00    -0.003 C 
ATOM      7  C   UNL     1       0.245   4.953  -9.172  1.00  0.00     0.004 C 
ENDBRANCH   5   6
ENDBRANCH   1   5
TORSDOF 3
ENDMDL
