MODEL 1
REMARK VINA RESULT:    -6.773      0.000      0.000
REMARK INTER + INTRA:         -10.816
REMARK INTER:                 -10.534
REMARK INTRA:                  -0.282
REMARK UNBOUND:                -0.282
REMARK SMILES C[C@@]12C[C@@H](O)[C@H]3C[C@]1(O[C@H]1O[C@@H](CO)[C@@H](O)[C@H](O)[C@@H]1O)[C@@]3(COC(=O)c1ccccc1)C(=O)O2
REMARK SMILES IDX 1 1 2 2 3 3 4 4 6 5 7 6 8 7 21 8 32 9 33 10 34 11 9 12 10 13
REMARK SMILES IDX 19 14 11 15 17 16 12 17 15 18 20 19 18 21 13 23 14 24 16 26
REMARK SMILES IDX 5 28 22 30 23 31 24 32 25 33 26 34 27 35 31 36 28 37 30 38
REMARK SMILES IDX 29 39
REMARK H PARENT 20 20 18 22 14 25 16 27 5 29
REMARK Flexibility Score: inf
ROOT
ATOM      1  C   UNL     1     175.105 165.482 166.933  1.00  0.00     0.060 C 
ATOM      2  C   UNL     1     175.325 165.818 168.410  1.00  0.00     0.142 C 
ATOM      3  C   UNL     1     176.614 165.110 168.968  1.00  0.00     0.083 C 
ATOM      4  C   UNL     1     177.005 165.695 170.378  1.00  0.00     0.123 C 
ATOM      5  C   UNL     1     176.533 167.184 170.508  1.00  0.00     0.045 C 
ATOM      6  C   UNL     1     176.764 167.850 169.146  1.00  0.00     0.049 C 
ATOM      7  C   UNL     1     175.360 167.374 168.763  1.00  0.00     0.131 C 
ATOM      8  C   UNL     1     174.993 167.318 170.265  1.00  0.00     0.140 C 
ATOM      9  C   UNL     1     174.150 166.086 170.350  1.00  0.00     0.319 C 
ATOM     10  O   UNL     1     173.435 165.762 171.334  1.00  0.00    -0.251 OA
ATOM     11  O   UNL     1     174.258 165.320 169.207  1.00  0.00    -0.456 OA
ENDROOT
BRANCH   7  12
ATOM     12  O   UNL     1     174.742 168.290 167.855  1.00  0.00    -0.338 OA
BRANCH  12  13
ATOM     13  C   UNL     1     173.392 168.012 167.522  1.00  0.00     0.282 C 
ATOM     14  C   UNL     1     173.182 168.060 165.992  1.00  0.00     0.202 C 
ATOM     15  O   UNL     1     172.513 168.907 168.198  1.00  0.00    -0.341 OA
ATOM     16  C   UNL     1     173.294 169.490 165.459  1.00  0.00     0.179 C 
ATOM     17  C   UNL     1     172.582 170.264 167.760  1.00  0.00     0.178 C 
ATOM     18  C   UNL     1     172.340 170.401 166.240  1.00  0.00     0.177 C 
BRANCH  14  19
ATOM     19  O   UNL     1     171.915 167.531 165.685  1.00  0.00    -0.385 OA
ATOM     20  H   UNL     1     171.279 168.289 165.625  1.00  0.00     0.211 HD
ENDBRANCH  14  19
BRANCH  16  21
ATOM     21  O   UNL     1     172.971 169.503 164.091  1.00  0.00    -0.387 OA
ATOM     22  H   UNL     1     172.861 170.454 163.827  1.00  0.00     0.211 HD
ENDBRANCH  16  21
BRANCH  17  23
ATOM     23  C   UNL     1     173.844 170.995 168.279  1.00  0.00     0.191 C 
BRANCH  23  24
ATOM     24  O   UNL     1     173.623 171.496 169.573  1.00  0.00    -0.394 OA
ATOM     25  H   UNL     1     173.550 170.716 170.185  1.00  0.00     0.210 HD
ENDBRANCH  23  24
ENDBRANCH  17  23
BRANCH  18  26
ATOM     26  O   UNL     1     172.496 171.739 165.837  1.00  0.00    -0.387 OA
ATOM     27  H   UNL     1     173.031 171.732 165.001  1.00  0.00     0.211 HD
ENDBRANCH  18  26
ENDBRANCH  12  13
ENDBRANCH   7  12
BRANCH   4  28
ATOM     28  O   UNL     1     178.385 165.573 170.613  1.00  0.00    -0.393 OA
ATOM     29  H   UNL     1     178.812 165.272 169.771  1.00  0.00     0.210 HD
ENDBRANCH   4  28
BRANCH   8  30
ATOM     30  C   UNL     1     174.376 168.553 170.946  1.00  0.00     0.255 C 
BRANCH  30  31
ATOM     31  O   UNL     1     175.164 168.907 172.079  1.00  0.00    -0.461 OA
BRANCH  31  32
ATOM     32  C   UNL     1     175.057 170.146 172.718  1.00  0.00     0.338 C 
ATOM     33  O   UNL     1     173.966 170.491 173.252  1.00  0.00    -0.246 OA
BRANCH  32  34
ATOM     34  C   UNL     1     176.224 171.051 172.762  1.00  0.00     0.060 A 
ATOM     35  C   UNL     1     176.219 172.173 173.607  1.00  0.00     0.015 A 
ATOM     36  C   UNL     1     177.358 170.803 171.964  1.00  0.00     0.015 A 
ATOM     37  C   UNL     1     177.323 173.031 173.651  1.00  0.00     0.001 A 
ATOM     38  C   UNL     1     178.461 171.660 172.016  1.00  0.00     0.001 A 
ATOM     39  C   UNL     1     178.442 172.774 172.858  1.00  0.00     0.000 A 
ENDBRANCH  32  34
ENDBRANCH  31  32
ENDBRANCH  30  31
ENDBRANCH   8  30
TORSDOF 12
ENDMDL
MODEL 2
REMARK VINA RESULT:    -6.742      3.004      4.933
REMARK INTER + INTRA:         -10.768
REMARK INTER:                 -10.418
REMARK INTRA:                  -0.350
REMARK UNBOUND:                -0.282
REMARK SMILES C[C@@]12C[C@@H](O)[C@H]3C[C@]1(O[C@H]1O[C@@H](CO)[C@@H](O)[C@H](O)[C@@H]1O)[C@@]3(COC(=O)c1ccccc1)C(=O)O2
REMARK SMILES IDX 1 1 2 2 3 3 4 4 6 5 7 6 8 7 21 8 32 9 33 10 34 11 9 12 10 13
REMARK SMILES IDX 19 14 11 15 17 16 12 17 15 18 20 19 18 21 13 23 14 24 16 26
REMARK SMILES IDX 5 28 22 30 23 31 24 32 25 33 26 34 27 35 31 36 28 37 30 38
REMARK SMILES IDX 29 39
REMARK H PARENT 20 20 18 22 14 25 16 27 5 29
REMARK Flexibility Score: inf
ROOT
ATOM      1  C   UNL     1     174.334 163.507 172.840  1.00  0.00     0.060 C 
ATOM      2  C   UNL     1     173.951 164.975 173.041  1.00  0.00     0.142 C 
ATOM      3  C   UNL     1     173.612 165.273 174.548  1.00  0.00     0.083 C 
ATOM      4  C   UNL     1     173.522 166.825 174.803  1.00  0.00     0.123 C 
ATOM      5  C   UNL     1     174.442 167.604 173.802  1.00  0.00     0.045 C 
ATOM      6  C   UNL     1     175.724 166.778 173.633  1.00  0.00     0.049 C 
ATOM      7  C   UNL     1     175.007 166.042 172.498  1.00  0.00     0.131 C 
ATOM      8  C   UNL     1     174.082 167.268 172.317  1.00  0.00     0.140 C 
ATOM      9  C   UNL     1     172.756 166.639 172.031  1.00  0.00     0.319 C 
ATOM     10  O   UNL     1     171.744 167.245 171.589  1.00  0.00    -0.251 OA
ATOM     11  O   UNL     1     172.762 165.291 172.327  1.00  0.00    -0.456 OA
ENDROOT
BRANCH   7  12
ATOM     12  O   UNL     1     175.937 165.625 171.494  1.00  0.00    -0.338 OA
BRANCH  12  13
ATOM     13  C   UNL     1     175.370 165.032 170.337  1.00  0.00     0.282 C 
ATOM     14  C   UNL     1     176.114 163.728 169.969  1.00  0.00     0.202 C 
ATOM     15  O   UNL     1     175.364 165.954 169.251  1.00  0.00    -0.341 OA
ATOM     16  C   UNL     1     177.524 164.019 169.451  1.00  0.00     0.179 C 
ATOM     17  C   UNL     1     176.652 166.283 168.732  1.00  0.00     0.178 C 
ATOM     18  C   UNL     1     177.446 165.029 168.300  1.00  0.00     0.177 C 
BRANCH  14  19
ATOM     19  O   UNL     1     175.375 163.038 168.990  1.00  0.00    -0.385 OA
ATOM     20  H   UNL     1     174.797 163.699 168.528  1.00  0.00     0.211 HD
ENDBRANCH  14  19
BRANCH  16  21
ATOM     21  O   UNL     1     178.113 162.821 169.009  1.00  0.00    -0.387 OA
ATOM     22  H   UNL     1     177.753 162.093 169.580  1.00  0.00     0.211 HD
ENDBRANCH  16  21
BRANCH  17  23
ATOM     23  C   UNL     1     177.434 167.255 169.648  1.00  0.00     0.191 C 
BRANCH  23  24
ATOM     24  O   UNL     1     177.292 168.577 169.195  1.00  0.00    -0.394 OA
ATOM     25  H   UNL     1     177.023 169.132 169.975  1.00  0.00     0.210 HD
ENDBRANCH  23  24
ENDBRANCH  17  23
BRANCH  18  26
ATOM     26  O   UNL     1     178.736 165.388 167.872  1.00  0.00    -0.387 OA
ATOM     27  H   UNL     1     179.204 165.782 168.654  1.00  0.00     0.211 HD
ENDBRANCH  18  26
ENDBRANCH  12  13
ENDBRANCH   7  12
BRANCH   4  28
ATOM     28  O   UNL     1     173.835 167.140 176.136  1.00  0.00    -0.393 OA
ATOM     29  H   UNL     1     173.089 167.678 176.506  1.00  0.00     0.210 HD
ENDBRANCH   4  28
BRANCH   8  30
ATOM     30  C   UNL     1     174.477 168.382 171.330  1.00  0.00     0.255 C 
BRANCH  30  31
ATOM     31  O   UNL     1     174.450 169.638 172.002  1.00  0.00    -0.461 OA
BRANCH  31  32
ATOM     32  C   UNL     1     175.043 170.790 171.479  1.00  0.00     0.338 C 
ATOM     33  O   UNL     1     174.588 171.312 170.423  1.00  0.00    -0.246 OA
BRANCH  32  34
ATOM     34  C   UNL     1     176.206 171.391 172.164  1.00  0.00     0.060 A 
ATOM     35  C   UNL     1     176.635 172.687 171.828  1.00  0.00     0.015 A 
ATOM     36  C   UNL     1     176.899 170.681 173.164  1.00  0.00     0.015 A 
ATOM     37  C   UNL     1     177.734 173.259 172.475  1.00  0.00     0.001 A 
ATOM     38  C   UNL     1     177.994 171.260 173.812  1.00  0.00     0.001 A 
ATOM     39  C   UNL     1     178.412 172.547 173.466  1.00  0.00     0.000 A 
ENDBRANCH  32  34
ENDBRANCH  31  32
ENDBRANCH  30  31
ENDBRANCH   8  30
TORSDOF 12
ENDMDL
MODEL 3
REMARK VINA RESULT:    -6.651      3.460      6.956
REMARK INTER + INTRA:         -10.626
REMARK INTER:                 -10.469
REMARK INTRA:                  -0.156
REMARK UNBOUND:                -0.282
REMARK SMILES C[C@@]12C[C@@H](O)[C@H]3C[C@]1(O[C@H]1O[C@@H](CO)[C@@H](O)[C@H](O)[C@@H]1O)[C@@]3(COC(=O)c1ccccc1)C(=O)O2
REMARK SMILES IDX 1 1 2 2 3 3 4 4 6 5 7 6 8 7 21 8 32 9 33 10 34 11 9 12 10 13
REMARK SMILES IDX 19 14 11 15 17 16 12 17 15 18 20 19 18 21 13 23 14 24 16 26
REMARK SMILES IDX 5 28 22 30 23 31 24 32 25 33 26 34 27 35 31 36 28 37 30 38
REMARK SMILES IDX 29 39
REMARK H PARENT 20 20 18 22 14 25 16 27 5 29
REMARK Flexibility Score: inf
ROOT
ATOM      1  C   UNL     1     169.311 167.622 173.604  1.00  0.00     0.060 C 
ATOM      2  C   UNL     1     170.161 168.471 172.655  1.00  0.00     0.142 C 
ATOM      3  C   UNL     1     169.544 169.905 172.468  1.00  0.00     0.083 C 
ATOM      4  C   UNL     1     170.568 170.864 171.751  1.00  0.00     0.123 C 
ATOM      5  C   UNL     1     172.042 170.431 172.063  1.00  0.00     0.045 C 
ATOM      6  C   UNL     1     172.079 169.988 173.531  1.00  0.00     0.049 C 
ATOM      7  C   UNL     1     171.707 168.587 173.036  1.00  0.00     0.131 C 
ATOM      8  C   UNL     1     172.299 168.943 171.652  1.00  0.00     0.140 C 
ATOM      9  C   UNL     1     171.340 168.290 170.708  1.00  0.00     0.319 C 
ATOM     10  O   UNL     1     171.539 168.115 169.477  1.00  0.00    -0.251 OA
ATOM     11  O   UNL     1     170.182 167.906 171.351  1.00  0.00    -0.456 OA
ENDROOT
BRANCH   7  12
ATOM     12  O   UNL     1     172.276 167.581 173.879  1.00  0.00    -0.338 OA
BRANCH  12  13
ATOM     13  C   UNL     1     172.084 166.241 173.456  1.00  0.00     0.282 C 
ATOM     14  C   UNL     1     171.570 165.366 174.621  1.00  0.00     0.202 C 
ATOM     15  O   UNL     1     173.284 165.714 172.896  1.00  0.00    -0.341 OA
ATOM     16  C   UNL     1     172.655 165.154 175.679  1.00  0.00     0.179 C 
ATOM     17  C   UNL     1     174.345 165.510 173.830  1.00  0.00     0.178 C 
ATOM     18  C   UNL     1     173.920 164.605 175.009  1.00  0.00     0.177 C 
BRANCH  14  19
ATOM     19  O   UNL     1     171.147 164.124 174.112  1.00  0.00    -0.385 OA
ATOM     20  H   UNL     1     170.815 163.584 174.873  1.00  0.00     0.211 HD
ENDBRANCH  14  19
BRANCH  16  21
ATOM     21  O   UNL     1     172.187 164.251 176.651  1.00  0.00    -0.387 OA
ATOM     22  H   UNL     1     172.523 164.569 177.529  1.00  0.00     0.211 HD
ENDBRANCH  16  21
BRANCH  17  23
ATOM     23  C   UNL     1     175.034 166.831 174.248  1.00  0.00     0.191 C 
BRANCH  23  24
ATOM     24  O   UNL     1     176.177 167.058 173.464  1.00  0.00    -0.394 OA
ATOM     25  H   UNL     1     175.902 167.623 172.694  1.00  0.00     0.210 HD
ENDBRANCH  23  24
ENDBRANCH  17  23
BRANCH  18  26
ATOM     26  O   UNL     1     174.964 164.496 175.944  1.00  0.00    -0.387 OA
ATOM     27  H   UNL     1     175.465 165.353 175.924  1.00  0.00     0.211 HD
ENDBRANCH  18  26
ENDBRANCH  12  13
ENDBRANCH   7  12
BRANCH   4  28
ATOM     28  O   UNL     1     170.343 172.204 172.105  1.00  0.00    -0.393 OA
ATOM     29  H   UNL     1     169.368 172.324 172.240  1.00  0.00     0.210 HD
ENDBRANCH   4  28
BRANCH   8  30
ATOM     30  C   UNL     1     173.780 168.643 171.356  1.00  0.00     0.255 C 
BRANCH  30  31
ATOM     31  O   UNL     1     174.537 169.843 171.482  1.00  0.00    -0.461 OA
BRANCH  31  32
ATOM     32  C   UNL     1     175.935 169.858 171.501  1.00  0.00     0.338 C 
ATOM     33  O   UNL     1     176.585 168.936 170.934  1.00  0.00    -0.246 OA
BRANCH  32  34
ATOM     34  C   UNL     1     176.647 170.953 172.191  1.00  0.00     0.060 A 
ATOM     35  C   UNL     1     177.987 171.235 171.877  1.00  0.00     0.015 A 
ATOM     36  C   UNL     1     175.996 171.732 173.168  1.00  0.00     0.015 A 
ATOM     37  C   UNL     1     178.663 172.271 172.528  1.00  0.00     0.001 A 
ATOM     38  C   UNL     1     176.675 172.771 173.811  1.00  0.00     0.001 A 
ATOM     39  C   UNL     1     178.008 173.039 173.492  1.00  0.00     0.000 A 
ENDBRANCH  32  34
ENDBRANCH  31  32
ENDBRANCH  30  31
ENDBRANCH   8  30
TORSDOF 12
ENDMDL
MODEL 4
REMARK VINA RESULT:    -6.612      2.402      4.546
REMARK INTER + INTRA:         -10.566
REMARK INTER:                  -9.772
REMARK INTRA:                  -0.794
REMARK UNBOUND:                -0.282
REMARK SMILES C[C@@]12C[C@@H](O)[C@H]3C[C@]1(O[C@H]1O[C@@H](CO)[C@@H](O)[C@H](O)[C@@H]1O)[C@@]3(COC(=O)c1ccccc1)C(=O)O2
REMARK SMILES IDX 1 1 2 2 3 3 4 4 6 5 7 6 8 7 21 8 32 9 33 10 34 11 9 12 10 13
REMARK SMILES IDX 19 14 11 15 17 16 12 17 15 18 20 19 18 21 13 23 14 24 16 26
REMARK SMILES IDX 5 28 22 30 23 31 24 32 25 33 26 34 27 35 31 36 28 37 30 38
REMARK SMILES IDX 29 39
REMARK H PARENT 20 20 18 22 14 25 16 27 5 29
REMARK Flexibility Score: inf
ROOT
ATOM      1  C   UNL     1     172.457 166.995 167.213  1.00  0.00     0.060 C 
ATOM      2  C   UNL     1     173.381 168.199 167.407  1.00  0.00     0.142 C 
ATOM      3  C   UNL     1     173.853 168.782 166.023  1.00  0.00     0.083 C 
ATOM      4  C   UNL     1     174.541 170.186 166.215  1.00  0.00     0.123 C 
ATOM      5  C   UNL     1     173.961 170.918 167.475  1.00  0.00     0.045 C 
ATOM      6  C   UNL     1     172.456 170.624 167.513  1.00  0.00     0.049 C 
ATOM      7  C   UNL     1     172.801 169.370 168.323  1.00  0.00     0.131 C 
ATOM      8  C   UNL     1     174.121 170.046 168.764  1.00  0.00     0.140 C 
ATOM      9  C   UNL     1     175.094 168.911 168.740  1.00  0.00     0.319 C 
ATOM     10  O   UNL     1     176.247 168.931 169.245  1.00  0.00    -0.251 OA
ATOM     11  O   UNL     1     174.578 167.818 168.073  1.00  0.00    -0.456 OA
ENDROOT
BRANCH   7  12
ATOM     12  O   UNL     1     171.753 169.055 169.244  1.00  0.00    -0.338 OA
BRANCH  12  13
ATOM     13  C   UNL     1     171.924 167.859 169.986  1.00  0.00     0.282 C 
ATOM     14  C   UNL     1     170.632 167.011 169.966  1.00  0.00     0.202 C 
ATOM     15  O   UNL     1     172.338 168.149 171.319  1.00  0.00    -0.341 OA
ATOM     16  C   UNL     1     169.520 167.671 170.785  1.00  0.00     0.179 C 
ATOM     17  C   UNL     1     171.351 168.784 172.131  1.00  0.00     0.178 C 
ATOM     18  C   UNL     1     170.037 167.972 172.196  1.00  0.00     0.177 C 
BRANCH  14  19
ATOM     19  O   UNL     1     170.914 165.732 170.481  1.00  0.00    -0.385 OA
ATOM     20  H   UNL     1     170.085 165.389 170.903  1.00  0.00     0.211 HD
ENDBRANCH  14  19
BRANCH  16  21
ATOM     21  O   UNL     1     168.412 166.807 170.845  1.00  0.00    -0.387 OA
ATOM     22  H   UNL     1     167.645 167.342 171.179  1.00  0.00     0.211 HD
ENDBRANCH  16  21
BRANCH  17  23
ATOM     23  C   UNL     1     171.166 170.281 171.785  1.00  0.00     0.191 C 
BRANCH  23  24
ATOM     24  O   UNL     1     171.106 171.052 172.958  1.00  0.00    -0.394 OA
ATOM     25  H   UNL     1     172.039 171.192 173.270  1.00  0.00     0.210 HD
ENDBRANCH  23  24
ENDBRANCH  17  23
BRANCH  18  26
ATOM     26  O   UNL     1     169.067 168.669 172.938  1.00  0.00    -0.387 OA
ATOM     27  H   UNL     1     169.357 169.618 172.980  1.00  0.00     0.211 HD
ENDBRANCH  18  26
ENDBRANCH  12  13
ENDBRANCH   7  12
BRANCH   4  28
ATOM     28  O   UNL     1     174.412 170.977 165.061  1.00  0.00    -0.393 OA
ATOM     29  H   UNL     1     173.617 171.557 165.176  1.00  0.00     0.210 HD
ENDBRANCH   4  28
BRANCH   8  30
ATOM     30  C   UNL     1     174.155 170.878 170.059  1.00  0.00     0.255 C 
BRANCH  30  31
ATOM     31  O   UNL     1     174.713 170.092 171.109  1.00  0.00    -0.461 OA
BRANCH  31  32
ATOM     32  C   UNL     1     175.001 170.613 172.373  1.00  0.00     0.338 C 
ATOM     33  O   UNL     1     174.177 170.467 173.320  1.00  0.00    -0.246 OA
BRANCH  32  34
ATOM     34  C   UNL     1     176.269 171.336 172.596  1.00  0.00     0.060 A 
ATOM     35  C   UNL     1     177.421 170.988 171.870  1.00  0.00     0.015 A 
ATOM     36  C   UNL     1     176.345 172.385 173.533  1.00  0.00     0.015 A 
ATOM     37  C   UNL     1     178.623 171.671 172.078  1.00  0.00     0.001 A 
ATOM     38  C   UNL     1     177.548 173.069 173.733  1.00  0.00     0.001 A 
ATOM     39  C   UNL     1     178.686 172.711 173.006  1.00  0.00     0.000 A 
ENDBRANCH  32  34
ENDBRANCH  31  32
ENDBRANCH  30  31
ENDBRANCH   8  30
TORSDOF 12
ENDMDL
MODEL 5
REMARK VINA RESULT:    -6.584      2.775      4.806
REMARK INTER + INTRA:         -10.522
REMARK INTER:                 -10.299
REMARK INTRA:                  -0.223
REMARK UNBOUND:                -0.282
REMARK SMILES C[C@@]12C[C@@H](O)[C@H]3C[C@]1(O[C@H]1O[C@@H](CO)[C@@H](O)[C@H](O)[C@@H]1O)[C@@]3(COC(=O)c1ccccc1)C(=O)O2
REMARK SMILES IDX 1 1 2 2 3 3 4 4 6 5 7 6 8 7 21 8 32 9 33 10 34 11 9 12 10 13
REMARK SMILES IDX 19 14 11 15 17 16 12 17 15 18 20 19 18 21 13 23 14 24 16 26
REMARK SMILES IDX 5 28 22 30 23 31 24 32 25 33 26 34 27 35 31 36 28 37 30 38
REMARK SMILES IDX 29 39
REMARK H PARENT 20 20 18 22 14 25 16 27 5 29
REMARK Flexibility Score: inf
ROOT
ATOM      1  C   UNL     1     170.429 169.721 167.401  1.00  0.00     0.060 C 
ATOM      2  C   UNL     1     171.884 169.314 167.646  1.00  0.00     0.142 C 
ATOM      3  C   UNL     1     172.808 169.763 166.455  1.00  0.00     0.083 C 
ATOM      4  C   UNL     1     174.328 169.622 166.845  1.00  0.00     0.123 C 
ATOM      5  C   UNL     1     174.520 169.790 168.391  1.00  0.00     0.045 C 
ATOM      6  C   UNL     1     173.558 170.895 168.847  1.00  0.00     0.049 C 
ATOM      7  C   UNL     1     172.508 169.796 169.034  1.00  0.00     0.131 C 
ATOM      8  C   UNL     1     173.649 168.763 169.189  1.00  0.00     0.140 C 
ATOM      9  C   UNL     1     173.112 167.570 168.463  1.00  0.00     0.319 C 
ATOM     10  O   UNL     1     173.593 166.408 168.519  1.00  0.00    -0.251 OA
ATOM     11  O   UNL     1     172.012 167.899 167.697  1.00  0.00    -0.456 OA
ENDROOT
BRANCH   7  12
ATOM     12  O   UNL     1     171.615 170.122 170.103  1.00  0.00    -0.338 OA
BRANCH  12  13
ATOM     13  C   UNL     1     170.738 169.085 170.511  1.00  0.00     0.282 C 
ATOM     14  C   UNL     1     169.283 169.598 170.595  1.00  0.00     0.202 C 
ATOM     15  O   UNL     1     171.166 168.523 171.749  1.00  0.00    -0.341 OA
ATOM     16  C   UNL     1     169.102 170.570 171.763  1.00  0.00     0.179 C 
ATOM     17  C   UNL     1     171.041 169.387 172.878  1.00  0.00     0.178 C 
ATOM     18  C   UNL     1     169.597 169.911 173.056  1.00  0.00     0.177 C 
BRANCH  14  19
ATOM     19  O   UNL     1     168.416 168.499 170.745  1.00  0.00    -0.385 OA
ATOM     20  H   UNL     1     167.495 168.815 170.559  1.00  0.00     0.211 HD
ENDBRANCH  14  19
BRANCH  16  21
ATOM     21  O   UNL     1     167.742 170.908 171.879  1.00  0.00    -0.387 OA
ATOM     22  H   UNL     1     167.337 170.796 170.979  1.00  0.00     0.211 HD
ENDBRANCH  16  21
BRANCH  17  23
ATOM     23  C   UNL     1     172.133 170.484 172.914  1.00  0.00     0.191 C 
BRANCH  23  24
ATOM     24  O   UNL     1     172.796 170.474 174.153  1.00  0.00    -0.394 OA
ATOM     25  H   UNL     1     173.073 169.537 174.335  1.00  0.00     0.210 HD
ENDBRANCH  23  24
ENDBRANCH  17  23
BRANCH  18  26
ATOM     26  O   UNL     1     169.534 170.819 174.127  1.00  0.00    -0.387 OA
ATOM     27  H   UNL     1     170.441 171.211 174.232  1.00  0.00     0.211 HD
ENDBRANCH  18  26
ENDBRANCH  12  13
ENDBRANCH   7  12
BRANCH   4  28
ATOM     28  O   UNL     1     175.123 170.533 166.129  1.00  0.00    -0.393 OA
ATOM     29  H   UNL     1     175.232 170.184 165.208  1.00  0.00     0.210 HD
ENDBRANCH   4  28
BRANCH   8  30
ATOM     30  C   UNL     1     174.209 168.450 170.589  1.00  0.00     0.255 C 
BRANCH  30  31
ATOM     31  O   UNL     1     175.270 169.354 170.883  1.00  0.00    -0.461 OA
BRANCH  31  32
ATOM     32  C   UNL     1     175.671 169.652 172.189  1.00  0.00     0.338 C 
ATOM     33  O   UNL     1     175.321 168.903 173.144  1.00  0.00    -0.246 OA
BRANCH  32  34
ATOM     34  C   UNL     1     176.501 170.846 172.447  1.00  0.00     0.060 A 
ATOM     35  C   UNL     1     177.462 170.833 173.473  1.00  0.00     0.015 A 
ATOM     36  C   UNL     1     176.348 172.010 171.670  1.00  0.00     0.015 A 
ATOM     37  C   UNL     1     178.249 171.962 173.719  1.00  0.00     0.001 A 
ATOM     38  C   UNL     1     177.142 173.134 171.916  1.00  0.00     0.001 A 
ATOM     39  C   UNL     1     178.091 173.110 172.940  1.00  0.00     0.000 A 
ENDBRANCH  32  34
ENDBRANCH  31  32
ENDBRANCH  30  31
ENDBRANCH   8  30
TORSDOF 12
ENDMDL
MODEL 6
REMARK VINA RESULT:    -6.549      2.163      3.253
REMARK INTER + INTRA:         -10.468
REMARK INTER:                 -10.921
REMARK INTRA:                   0.454
REMARK UNBOUND:                -0.282
REMARK SMILES C[C@@]12C[C@@H](O)[C@H]3C[C@]1(O[C@H]1O[C@@H](CO)[C@@H](O)[C@H](O)[C@@H]1O)[C@@]3(COC(=O)c1ccccc1)C(=O)O2
REMARK SMILES IDX 1 1 2 2 3 3 4 4 6 5 7 6 8 7 21 8 32 9 33 10 34 11 9 12 10 13
REMARK SMILES IDX 19 14 11 15 17 16 12 17 15 18 20 19 18 21 13 23 14 24 16 26
REMARK SMILES IDX 5 28 22 30 23 31 24 32 25 33 26 34 27 35 31 36 28 37 30 38
REMARK SMILES IDX 29 39
REMARK H PARENT 20 20 18 22 14 25 16 27 5 29
REMARK Flexibility Score: inf
ROOT
ATOM      1  C   UNL     1     170.284 167.570 168.159  1.00  0.00     0.060 C 
ATOM      2  C   UNL     1     171.157 168.034 169.327  1.00  0.00     0.142 C 
ATOM      3  C   UNL     1     171.235 166.934 170.450  1.00  0.00     0.083 C 
ATOM      4  C   UNL     1     172.366 167.281 171.492  1.00  0.00     0.123 C 
ATOM      5  C   UNL     1     173.507 168.113 170.812  1.00  0.00     0.045 C 
ATOM      6  C   UNL     1     173.706 167.539 169.404  1.00  0.00     0.049 C 
ATOM      7  C   UNL     1     172.627 168.520 168.936  1.00  0.00     0.131 C 
ATOM      8  C   UNL     1     172.946 169.418 170.154  1.00  0.00     0.140 C 
ATOM      9  C   UNL     1     171.593 169.900 170.570  1.00  0.00     0.319 C 
ATOM     10  O   UNL     1     171.373 170.840 171.378  1.00  0.00    -0.251 OA
ATOM     11  O   UNL     1     170.590 169.171 169.965  1.00  0.00    -0.456 OA
ENDROOT
BRANCH   7  12
ATOM     12  O   UNL     1     172.867 168.937 167.589  1.00  0.00    -0.338 OA
BRANCH  12  13
ATOM     13  C   UNL     1     171.714 169.249 166.825  1.00  0.00     0.282 C 
ATOM     14  C   UNL     1     171.774 168.569 165.439  1.00  0.00     0.202 C 
ATOM     15  O   UNL     1     171.555 170.661 166.709  1.00  0.00    -0.341 OA
ATOM     16  C   UNL     1     172.853 169.200 164.555  1.00  0.00     0.179 C 
ATOM     17  C   UNL     1     172.542 171.314 165.911  1.00  0.00     0.178 C 
ATOM     18  C   UNL     1     172.634 170.716 164.488  1.00  0.00     0.177 C 
BRANCH  14  19
ATOM     19  O   UNL     1     170.516 168.682 164.817  1.00  0.00    -0.385 OA
ATOM     20  H   UNL     1     169.970 169.311 165.354  1.00  0.00     0.211 HD
ENDBRANCH  14  19
BRANCH  16  21
ATOM     21  O   UNL     1     172.784 168.640 163.267  1.00  0.00    -0.387 OA
ATOM     22  H   UNL     1     173.543 169.013 162.748  1.00  0.00     0.211 HD
ENDBRANCH  16  21
BRANCH  17  23
ATOM     23  C   UNL     1     173.901 171.453 166.639  1.00  0.00     0.191 C 
BRANCH  23  24
ATOM     24  O   UNL     1     174.852 170.589 166.072  1.00  0.00    -0.394 OA
ATOM     25  H   UNL     1     175.341 171.100 165.374  1.00  0.00     0.210 HD
ENDBRANCH  23  24
ENDBRANCH  17  23
BRANCH  18  26
ATOM     26  O   UNL     1     173.670 171.331 163.764  1.00  0.00    -0.387 OA
ATOM     27  H   UNL     1     173.259 172.055 163.223  1.00  0.00     0.211 HD
ENDBRANCH  18  26
ENDBRANCH  12  13
ENDBRANCH   7  12
BRANCH   4  28
ATOM     28  O   UNL     1     172.872 166.118 172.097  1.00  0.00    -0.393 OA
ATOM     29  H   UNL     1     173.721 166.355 172.549  1.00  0.00     0.210 HD
ENDBRANCH   4  28
BRANCH   8  30
ATOM     30  C   UNL     1     174.000 170.533 170.024  1.00  0.00     0.255 C 
BRANCH  30  31
ATOM     31  O   UNL     1     174.691 170.674 171.262  1.00  0.00    -0.461 OA
BRANCH  31  32
ATOM     32  C   UNL     1     176.069 170.479 171.386  1.00  0.00     0.338 C 
ATOM     33  O   UNL     1     176.623 169.496 170.819  1.00  0.00    -0.246 OA
BRANCH  32  34
ATOM     34  C   UNL     1     176.874 171.426 172.186  1.00  0.00     0.060 A 
ATOM     35  C   UNL     1     177.571 170.979 173.322  1.00  0.00     0.015 A 
ATOM     36  C   UNL     1     176.959 172.784 171.823  1.00  0.00     0.015 A 
ATOM     37  C   UNL     1     178.334 171.872 174.080  1.00  0.00     0.001 A 
ATOM     38  C   UNL     1     177.728 173.671 172.582  1.00  0.00     0.001 A 
ATOM     39  C   UNL     1     178.414 173.215 173.710  1.00  0.00     0.000 A 
ENDBRANCH  32  34
ENDBRANCH  31  32
ENDBRANCH  30  31
ENDBRANCH   8  30
TORSDOF 12
ENDMDL
MODEL 7
REMARK VINA RESULT:    -6.500      2.927      4.985
REMARK INTER + INTRA:         -10.392
REMARK INTER:                  -9.643
REMARK INTRA:                  -0.749
REMARK UNBOUND:                -0.282
REMARK SMILES C[C@@]12C[C@@H](O)[C@H]3C[C@]1(O[C@H]1O[C@@H](CO)[C@@H](O)[C@H](O)[C@@H]1O)[C@@]3(COC(=O)c1ccccc1)C(=O)O2
REMARK SMILES IDX 1 1 2 2 3 3 4 4 6 5 7 6 8 7 21 8 32 9 33 10 34 11 9 12 10 13
REMARK SMILES IDX 19 14 11 15 17 16 12 17 15 18 20 19 18 21 13 23 14 24 16 26
REMARK SMILES IDX 5 28 22 30 23 31 24 32 25 33 26 34 27 35 31 36 28 37 30 38
REMARK SMILES IDX 29 39
REMARK H PARENT 20 20 18 22 14 25 16 27 5 29
REMARK Flexibility Score: inf
ROOT
ATOM      1  C   UNL     1     171.360 165.304 172.914  1.00  0.00     0.060 C 
ATOM      2  C   UNL     1     172.373 166.139 173.701  1.00  0.00     0.142 C 
ATOM      3  C   UNL     1     172.253 165.871 175.246  1.00  0.00     0.083 C 
ATOM      4  C   UNL     1     173.482 166.486 176.016  1.00  0.00     0.123 C 
ATOM      5  C   UNL     1     174.748 166.526 175.093  1.00  0.00     0.045 C 
ATOM      6  C   UNL     1     174.742 165.236 174.263  1.00  0.00     0.049 C 
ATOM      7  C   UNL     1     173.893 165.992 173.237  1.00  0.00     0.131 C 
ATOM      8  C   UNL     1     174.468 167.323 173.776  1.00  0.00     0.140 C 
ATOM      9  C   UNL     1     173.283 168.234 173.733  1.00  0.00     0.319 C 
ATOM     10  O   UNL     1     173.323 169.486 173.861  1.00  0.00    -0.251 OA
ATOM     11  O   UNL     1     172.111 167.529 173.548  1.00  0.00    -0.456 OA
ENDROOT
BRANCH   7  12
ATOM     12  O   UNL     1     174.156 165.521 171.912  1.00  0.00    -0.338 OA
BRANCH  12  13
ATOM     13  C   UNL     1     173.365 166.097 170.886  1.00  0.00     0.282 C 
ATOM     14  C   UNL     1     172.799 165.005 169.951  1.00  0.00     0.202 C 
ATOM     15  O   UNL     1     174.115 167.069 170.160  1.00  0.00    -0.341 OA
ATOM     16  C   UNL     1     173.904 164.367 169.105  1.00  0.00     0.179 C 
ATOM     17  C   UNL     1     175.175 166.540 169.364  1.00  0.00     0.178 C 
ATOM     18  C   UNL     1     174.680 165.466 168.369  1.00  0.00     0.177 C 
BRANCH  14  19
ATOM     19  O   UNL     1     171.823 165.577 169.113  1.00  0.00    -0.385 OA
ATOM     20  H   UNL     1     172.174 165.559 168.186  1.00  0.00     0.211 HD
ENDBRANCH  14  19
BRANCH  16  21
ATOM     21  O   UNL     1     173.328 163.475 168.184  1.00  0.00    -0.387 OA
ATOM     22  H   UNL     1     173.716 162.580 168.365  1.00  0.00     0.211 HD
ENDBRANCH  16  21
BRANCH  17  23
ATOM     23  C   UNL     1     176.402 166.118 170.208  1.00  0.00     0.191 C 
BRANCH  23  24
ATOM     24  O   UNL     1     177.588 166.585 169.618  1.00  0.00    -0.394 OA
ATOM     25  H   UNL     1     178.294 165.908 169.792  1.00  0.00     0.210 HD
ENDBRANCH  23  24
ENDBRANCH  17  23
BRANCH  18  26
ATOM     26  O   UNL     1     175.764 164.914 167.663  1.00  0.00    -0.387 OA
ATOM     27  H   UNL     1     175.838 165.410 166.806  1.00  0.00     0.211 HD
ENDBRANCH  18  26
ENDBRANCH  12  13
ENDBRANCH   7  12
BRANCH   4  28
ATOM     28  O   UNL     1     173.739 165.784 177.206  1.00  0.00    -0.393 OA
ATOM     29  H   UNL     1     174.402 166.303 177.729  1.00  0.00     0.210 HD
ENDBRANCH   4  28
BRANCH   8  30
ATOM     30  C   UNL     1     175.741 167.915 173.142  1.00  0.00     0.255 C 
BRANCH  30  31
ATOM     31  O   UNL     1     175.378 168.975 172.262  1.00  0.00    -0.461 OA
BRANCH  31  32
ATOM     32  C   UNL     1     176.322 169.754 171.586  1.00  0.00     0.338 C 
ATOM     33  O   UNL     1     176.682 169.439 170.417  1.00  0.00    -0.246 OA
BRANCH  32  34
ATOM     34  C   UNL     1     176.898 170.944 172.246  1.00  0.00     0.060 A 
ATOM     35  C   UNL     1     178.212 171.349 171.953  1.00  0.00     0.015 A 
ATOM     36  C   UNL     1     176.143 171.690 173.171  1.00  0.00     0.015 A 
ATOM     37  C   UNL     1     178.760 172.475 172.576  1.00  0.00     0.001 A 
ATOM     38  C   UNL     1     176.694 172.818 173.786  1.00  0.00     0.001 A 
ATOM     39  C   UNL     1     178.002 173.209 173.489  1.00  0.00     0.000 A 
ENDBRANCH  32  34
ENDBRANCH  31  32
ENDBRANCH  30  31
ENDBRANCH   8  30
TORSDOF 12
ENDMDL
MODEL 8
REMARK VINA RESULT:    -6.495      3.075      5.298
REMARK INTER + INTRA:         -10.383
REMARK INTER:                  -9.812
REMARK INTRA:                  -0.572
REMARK UNBOUND:                -0.282
REMARK SMILES C[C@@]12C[C@@H](O)[C@H]3C[C@]1(O[C@H]1O[C@@H](CO)[C@@H](O)[C@H](O)[C@@H]1O)[C@@]3(COC(=O)c1ccccc1)C(=O)O2
REMARK SMILES IDX 1 1 2 2 3 3 4 4 6 5 7 6 8 7 21 8 32 9 33 10 34 11 9 12 10 13
REMARK SMILES IDX 19 14 11 15 17 16 12 17 15 18 20 19 18 21 13 23 14 24 16 26
REMARK SMILES IDX 5 28 22 30 23 31 24 32 25 33 26 34 27 35 31 36 28 37 30 38
REMARK SMILES IDX 29 39
REMARK H PARENT 20 20 18 22 14 25 16 27 5 29
REMARK Flexibility Score: inf
ROOT
ATOM      1  C   UNL     1     171.412 165.584 172.353  1.00  0.00     0.060 C 
ATOM      2  C   UNL     1     172.358 166.309 173.312  1.00  0.00     0.142 C 
ATOM      3  C   UNL     1     172.132 165.840 174.797  1.00  0.00     0.083 C 
ATOM      4  C   UNL     1     173.298 166.349 175.726  1.00  0.00     0.123 C 
ATOM      5  C   UNL     1     174.626 166.509 174.909  1.00  0.00     0.045 C 
ATOM      6  C   UNL     1     174.690 165.339 173.920  1.00  0.00     0.049 C 
ATOM      7  C   UNL     1     173.909 166.223 172.943  1.00  0.00     0.131 C 
ATOM      8  C   UNL     1     174.433 167.472 173.691  1.00  0.00     0.140 C 
ATOM      9  C   UNL     1     173.245 168.381 173.683  1.00  0.00     0.319 C 
ATOM     10  O   UNL     1     173.265 169.605 173.976  1.00  0.00    -0.251 OA
ATOM     11  O   UNL     1     172.096 167.706 173.324  1.00  0.00    -0.456 OA
ENDROOT
BRANCH   7  12
ATOM     12  O   UNL     1     174.270 165.930 171.590  1.00  0.00    -0.338 OA
BRANCH  12  13
ATOM     13  C   UNL     1     175.363 165.041 171.424  1.00  0.00     0.282 C 
ATOM     14  C   UNL     1     176.605 165.794 170.897  1.00  0.00     0.202 C 
ATOM     15  O   UNL     1     175.004 163.959 170.567  1.00  0.00    -0.341 OA
ATOM     16  C   UNL     1     176.410 166.245 169.447  1.00  0.00     0.179 C 
ATOM     17  C   UNL     1     174.789 164.318 169.202  1.00  0.00     0.178 C 
ATOM     18  C   UNL     1     176.009 165.041 168.588  1.00  0.00     0.177 C 
BRANCH  14  19
ATOM     19  O   UNL     1     177.727 164.949 170.989  1.00  0.00    -0.385 OA
ATOM     20  H   UNL     1     177.400 164.035 171.192  1.00  0.00     0.211 HD
ENDBRANCH  14  19
BRANCH  16  21
ATOM     21  O   UNL     1     177.607 166.808 168.971  1.00  0.00    -0.387 OA
ATOM     22  H   UNL     1     177.573 167.779 169.175  1.00  0.00     0.211 HD
ENDBRANCH  16  21
BRANCH  17  23
ATOM     23  C   UNL     1     173.436 165.037 168.980  1.00  0.00     0.191 C 
BRANCH  23  24
ATOM     24  O   UNL     1     172.966 164.806 167.677  1.00  0.00    -0.394 OA
ATOM     25  H   UNL     1     173.714 164.408 167.157  1.00  0.00     0.210 HD
ENDBRANCH  23  24
ENDBRANCH  17  23
BRANCH  18  26
ATOM     26  O   UNL     1     175.727 165.447 167.272  1.00  0.00    -0.387 OA
ATOM     27  H   UNL     1     175.691 166.439 167.273  1.00  0.00     0.211 HD
ENDBRANCH  18  26
ENDBRANCH  12  13
ENDBRANCH   7  12
BRANCH   4  28
ATOM     28  O   UNL     1     173.476 165.497 176.829  1.00  0.00    -0.393 OA
ATOM     29  H   UNL     1     173.355 164.564 176.517  1.00  0.00     0.210 HD
ENDBRANCH   4  28
BRANCH   8  30
ATOM     30  C   UNL     1     175.742 168.141 173.233  1.00  0.00     0.255 C 
BRANCH  30  31
ATOM     31  O   UNL     1     175.470 168.997 172.126  1.00  0.00    -0.461 OA
BRANCH  31  32
ATOM     32  C   UNL     1     176.454 169.778 171.514  1.00  0.00     0.338 C 
ATOM     33  O   UNL     1     176.894 169.461 170.373  1.00  0.00    -0.246 OA
BRANCH  32  34
ATOM     34  C   UNL     1     176.979 170.972 172.208  1.00  0.00     0.060 A 
ATOM     35  C   UNL     1     178.319 171.361 172.034  1.00  0.00     0.015 A 
ATOM     36  C   UNL     1     176.150 171.739 173.048  1.00  0.00     0.015 A 
ATOM     37  C   UNL     1     178.818 172.491 172.689  1.00  0.00     0.001 A 
ATOM     38  C   UNL     1     176.653 172.871 173.696  1.00  0.00     0.001 A 
ATOM     39  C   UNL     1     177.986 173.245 173.517  1.00  0.00     0.000 A 
ENDBRANCH  32  34
ENDBRANCH  31  32
ENDBRANCH  30  31
ENDBRANCH   8  30
TORSDOF 12
ENDMDL
MODEL 9
REMARK VINA RESULT:    -6.477      1.701      2.276
REMARK INTER + INTRA:         -10.356
REMARK INTER:                  -9.836
REMARK INTRA:                  -0.520
REMARK UNBOUND:                -0.282
REMARK SMILES C[C@@]12C[C@@H](O)[C@H]3C[C@]1(O[C@H]1O[C@@H](CO)[C@@H](O)[C@H](O)[C@@H]1O)[C@@]3(COC(=O)c1ccccc1)C(=O)O2
REMARK SMILES IDX 1 1 2 2 3 3 4 4 6 5 7 6 8 7 21 8 32 9 33 10 34 11 9 12 10 13
REMARK SMILES IDX 19 14 11 15 17 16 12 17 15 18 20 19 18 21 13 23 14 24 16 26
REMARK SMILES IDX 5 28 22 30 23 31 24 32 25 33 26 34 27 35 31 36 28 37 30 38
REMARK SMILES IDX 29 39
REMARK H PARENT 20 20 18 22 14 25 16 27 5 29
REMARK Flexibility Score: inf
ROOT
ATOM      1  C   UNL     1     174.288 164.125 169.724  1.00  0.00     0.060 C 
ATOM      2  C   UNL     1     175.495 164.965 170.148  1.00  0.00     0.142 C 
ATOM      3  C   UNL     1     176.796 164.086 170.240  1.00  0.00     0.083 C 
ATOM      4  C   UNL     1     178.075 164.996 170.371  1.00  0.00     0.123 C 
ATOM      5  C   UNL     1     177.840 166.383 169.679  1.00  0.00     0.045 C 
ATOM      6  C   UNL     1     177.034 166.117 168.402  1.00  0.00     0.049 C 
ATOM      7  C   UNL     1     175.774 166.262 169.260  1.00  0.00     0.131 C 
ATOM      8  C   UNL     1     176.586 167.109 170.269  1.00  0.00     0.140 C 
ATOM      9  C   UNL     1     176.052 166.648 171.588  1.00  0.00     0.319 C 
ATOM     10  O   UNL     1     176.250 167.221 172.692  1.00  0.00    -0.251 OA
ATOM     11  O   UNL     1     175.312 165.491 171.456  1.00  0.00    -0.456 OA
ENDROOT
BRANCH   7  12
ATOM     12  O   UNL     1     174.695 166.806 168.494  1.00  0.00    -0.338 OA
BRANCH  12  13
ATOM     13  C   UNL     1     173.513 167.103 169.218  1.00  0.00     0.282 C 
ATOM     14  C   UNL     1     172.271 166.526 168.502  1.00  0.00     0.202 C 
ATOM     15  O   UNL     1     173.391 168.508 169.426  1.00  0.00    -0.341 OA
ATOM     16  C   UNL     1     171.978 167.278 167.202  1.00  0.00     0.179 C 
ATOM     17  C   UNL     1     173.136 169.271 168.247  1.00  0.00     0.178 C 
ATOM     18  C   UNL     1     171.878 168.780 167.494  1.00  0.00     0.177 C 
BRANCH  14  19
ATOM     19  O   UNL     1     171.163 166.610 169.366  1.00  0.00    -0.385 OA
ATOM     20  H   UNL     1     170.536 167.278 168.987  1.00  0.00     0.211 HD
ENDBRANCH  14  19
BRANCH  16  21
ATOM     21  O   UNL     1     170.772 166.806 166.654  1.00  0.00    -0.387 OA
ATOM     22  H   UNL     1     170.078 166.898 167.358  1.00  0.00     0.211 HD
ENDBRANCH  16  21
BRANCH  17  23
ATOM     23  C   UNL     1     174.393 169.438 167.360  1.00  0.00     0.191 C 
BRANCH  23  24
ATOM     24  O   UNL     1     174.335 170.649 166.651  1.00  0.00    -0.394 OA
ATOM     25  H   UNL     1     175.238 171.063 166.695  1.00  0.00     0.210 HD
ENDBRANCH  23  24
ENDBRANCH  17  23
BRANCH  18  26
ATOM     26  O   UNL     1     171.709 169.503 166.300  1.00  0.00    -0.387 OA
ATOM     27  H   UNL     1     171.966 168.901 165.554  1.00  0.00     0.211 HD
ENDBRANCH  18  26
ENDBRANCH  12  13
ENDBRANCH   7  12
BRANCH   4  28
ATOM     28  O   UNL     1     179.212 164.352 169.853  1.00  0.00    -0.393 OA
ATOM     29  H   UNL     1     179.136 164.350 168.864  1.00  0.00     0.210 HD
ENDBRANCH   4  28
BRANCH   8  30
ATOM     30  C   UNL     1     176.640 168.639 170.110  1.00  0.00     0.255 C 
BRANCH  30  31
ATOM     31  O   UNL     1     175.915 169.249 171.175  1.00  0.00    -0.461 OA
BRANCH  31  32
ATOM     32  C   UNL     1     175.736 170.631 171.275  1.00  0.00     0.338 C 
ATOM     33  O   UNL     1     174.781 171.191 170.668  1.00  0.00    -0.246 OA
BRANCH  32  34
ATOM     34  C   UNL     1     176.671 171.433 172.091  1.00  0.00     0.060 A 
ATOM     35  C   UNL     1     177.328 170.854 173.190  1.00  0.00     0.015 A 
ATOM     36  C   UNL     1     176.922 172.783 171.781  1.00  0.00     0.015 A 
ATOM     37  C   UNL     1     178.214 171.610 173.964  1.00  0.00     0.001 A 
ATOM     38  C   UNL     1     177.812 173.533 172.554  1.00  0.00     0.001 A 
ATOM     39  C   UNL     1     178.457 172.947 173.645  1.00  0.00     0.000 A 
ENDBRANCH  32  34
ENDBRANCH  31  32
ENDBRANCH  30  31
ENDBRANCH   8  30
TORSDOF 12
ENDMDL
