MODEL 1
REMARK VINA RESULT:    -4.147      0.000      0.000
REMARK INTER + INTRA:          -6.509
REMARK INTER:                  -6.329
REMARK INTRA:                  -0.179
REMARK UNBOUND:                -0.179
REMARK SMILES CC1=CCC[C@@H](C)C(=O)C[C@H](C(C)C)C(=O)C1
REMARK SMILES IDX 8 1 9 2 6 3 7 4 5 5 4 6 3 7 2 8 1 9 10 11 11 12 15 13 16 14
REMARK SMILES IDX 17 15 12 17 13 18 14 19
REMARK H PARENT
REMARK Flexibility Score: 70.00
ROOT
ATOM      1  C   UNL     1      -0.658  28.170  31.535  1.00  0.00     0.136 C 
ATOM      2  O   UNL     1      -0.550  27.608  32.613  1.00  0.00    -0.299 OA
ENDROOT
BRANCH   1   3
ATOM      3  C   UNL     1      -1.402  27.440  30.422  1.00  0.00     0.053 C 
ATOM      4  C   UNL     1      -2.548  26.551  30.933  1.00  0.00     0.016 C 
BRANCH   3   5
ATOM      5  C   UNL     1      -0.458  26.701  29.450  1.00  0.00     0.015 C 
BRANCH   5   6
ATOM      6  C   UNL     1      -0.300  27.383  28.076  1.00  0.00     0.028 C 
BRANCH   6   7
ATOM      7  C   UNL     1       1.133  27.445  27.626  1.00  0.00    -0.028 C 
ATOM      8  C   UNL     1       1.984  28.457  27.914  1.00  0.00    -0.070 CG0
ATOM      9  C   UNL     1       3.414  28.322  27.452  1.00  0.00     0.039 C 
ATOM     10  G   UNL     1       1.561  29.721  28.653  1.00  0.00     0.000 G0
ENDBRANCH   6   7
ENDBRANCH   5   6
ENDBRANCH   3   5
ENDBRANCH   1   3
BRANCH   1  11
ATOM     11  C   UNL     1       0.055  29.490  31.329  1.00  0.00     0.087 C 
BRANCH  11  12
ATOM     12  C   UNL     1       1.617  29.477  31.317  1.00  0.00     0.066 C 
BRANCH  12  13
ATOM     13  C   UNL     1       2.249  29.901  29.989  1.00  0.00     0.140 C 
ATOM     14  O   UNL     1       3.327  30.477  30.016  1.00  0.00    -0.299 OA
BRANCH  13  15
ATOM     15  C   UNL     1       1.568  29.723  28.649  1.00  0.00     0.106 CG0
ATOM     16  G   UNL     1       1.973  28.442  27.930  1.00  0.00     0.000 G0
ENDBRANCH  13  15
ENDBRANCH  12  13
BRANCH  12  17
ATOM     17  C   UNL     1       2.371  30.003  32.593  1.00  0.00    -0.006 C 
ATOM     18  C   UNL     1       1.601  30.995  33.481  1.00  0.00     0.008 C 
ATOM     19  C   UNL     1       2.960  28.868  33.447  1.00  0.00     0.008 C 
ENDBRANCH  12  17
ENDBRANCH  11  12
ENDBRANCH   1  11
TORSDOF 1
ENDMDL
MODEL 2
REMARK VINA RESULT:    -4.055      1.365      1.837
REMARK INTER + INTRA:          -6.367
REMARK INTER:                  -6.266
REMARK INTRA:                  -0.102
REMARK UNBOUND:                -0.179
REMARK SMILES CC1=CCC[C@@H](C)C(=O)C[C@H](C(C)C)C(=O)C1
REMARK SMILES IDX 8 1 9 2 6 3 7 4 5 5 4 6 3 7 2 8 1 9 10 11 11 12 15 13 16 14
REMARK SMILES IDX 17 15 12 17 13 18 14 19
REMARK H PARENT
REMARK Flexibility Score: 70.00
ROOT
ATOM      1  C   UNL     1      -0.511  27.879  30.547  1.00  0.00     0.136 C 
ATOM      2  O   UNL     1      -1.032  27.056  31.284  1.00  0.00    -0.299 OA
ENDROOT
BRANCH   1   3
ATOM      3  C   UNL     1      -0.152  27.441  29.132  1.00  0.00     0.053 C 
ATOM      4  C   UNL     1      -1.357  26.931  28.324  1.00  0.00     0.016 C 
BRANCH   3   5
ATOM      5  C   UNL     1       1.052  26.475  29.087  1.00  0.00     0.015 C 
BRANCH   5   6
ATOM      6  C   UNL     1       2.320  27.068  28.441  1.00  0.00     0.028 C 
BRANCH   6   7
ATOM      7  C   UNL     1       2.117  28.479  27.963  1.00  0.00    -0.028 C 
ATOM      8  C   UNL     1       2.530  29.581  28.630  1.00  0.00    -0.070 CG0
ATOM      9  C   UNL     1       2.317  30.921  27.967  1.00  0.00     0.039 C 
ATOM     10  G   UNL     1       3.168  29.533  30.013  1.00  0.00     0.000 G0
ENDBRANCH   6   7
ENDBRANCH   5   6
ENDBRANCH   3   5
ENDBRANCH   1   3
BRANCH   1  11
ATOM     11  C   UNL     1      -0.142  29.233  31.116  1.00  0.00     0.087 C 
BRANCH  11  12
ATOM     12  C   UNL     1       1.220  29.356  31.869  1.00  0.00     0.066 C 
BRANCH  12  13
ATOM     13  C   UNL     1       2.296  30.145  31.118  1.00  0.00     0.140 C 
ATOM     14  O   UNL     1       2.413  31.338  31.353  1.00  0.00    -0.299 OA
BRANCH  13  15
ATOM     15  C   UNL     1       3.165  29.542  30.034  1.00  0.00     0.106 CG0
ATOM     16  G   UNL     1       2.525  29.585  28.652  1.00  0.00     0.000 G0
ENDBRANCH  13  15
ENDBRANCH  12  13
BRANCH  12  17
ATOM     17  C   UNL     1       1.188  29.617  33.420  1.00  0.00    -0.006 C 
ATOM     18  C   UNL     1       0.180  28.785  34.232  1.00  0.00     0.008 C 
ATOM     19  C   UNL     1       2.581  29.545  34.065  1.00  0.00     0.008 C 
ENDBRANCH  12  17
ENDBRANCH  11  12
ENDBRANCH   1  11
TORSDOF 1
ENDMDL
MODEL 3
REMARK VINA RESULT:    -3.855      2.407      4.297
REMARK INTER + INTRA:          -6.062
REMARK INTER:                  -6.036
REMARK INTRA:                  -0.027
REMARK UNBOUND:                -0.179
REMARK SMILES CC1=CCC[C@@H](C)C(=O)C[C@H](C(C)C)C(=O)C1
REMARK SMILES IDX 8 1 9 2 6 3 7 4 5 5 4 6 3 7 2 8 1 9 10 11 11 12 15 13 16 14
REMARK SMILES IDX 17 15 12 17 13 18 14 19
REMARK H PARENT
REMARK Flexibility Score: 70.00
ROOT
ATOM      1  C   UNL     1       3.281  28.394  32.315  1.00  0.00     0.136 C 
ATOM      2  O   UNL     1       3.617  27.388  32.921  1.00  0.00    -0.299 OA
ENDROOT
BRANCH   1   3
ATOM      3  C   UNL     1       2.619  29.515  33.108  1.00  0.00     0.053 C 
ATOM      4  C   UNL     1       1.770  29.013  34.287  1.00  0.00     0.016 C 
BRANCH   3   5
ATOM      5  C   UNL     1       1.866  30.522  32.212  1.00  0.00     0.015 C 
BRANCH   5   6
ATOM      6  C   UNL     1       0.488  30.030  31.723  1.00  0.00     0.028 C 
BRANCH   6   7
ATOM      7  C   UNL     1       0.252  30.333  30.270  1.00  0.00    -0.028 C 
ATOM      8  C   UNL     1       0.177  29.398  29.294  1.00  0.00    -0.070 CG0
ATOM      9  C   UNL     1      -0.148  29.869  27.897  1.00  0.00     0.039 C 
ATOM     10  G   UNL     1       0.429  27.915  29.535  1.00  0.00     0.000 G0
ENDBRANCH   6   7
ENDBRANCH   5   6
ENDBRANCH   3   5
ENDBRANCH   1   3
BRANCH   1  11
ATOM     11  C   UNL     1       3.425  28.416  30.808  1.00  0.00     0.087 C 
BRANCH  11  12
ATOM     12  C   UNL     1       2.939  27.162  30.014  1.00  0.00     0.066 C 
BRANCH  12  13
ATOM     13  C   UNL     1       1.770  27.424  29.061  1.00  0.00     0.140 C 
ATOM     14  O   UNL     1       1.961  27.302  27.859  1.00  0.00    -0.299 OA
BRANCH  13  15
ATOM     15  C   UNL     1       0.413  27.912  29.522  1.00  0.00     0.106 CG0
ATOM     16  G   UNL     1       0.197  29.404  29.297  1.00  0.00     0.000 G0
ENDBRANCH  13  15
ENDBRANCH  12  13
BRANCH  12  17
ATOM     17  C   UNL     1       4.026  26.173  29.453  1.00  0.00    -0.006 C 
ATOM     18  C   UNL     1       5.431  26.758  29.231  1.00  0.00     0.008 C 
ATOM     19  C   UNL     1       4.113  24.866  30.257  1.00  0.00     0.008 C 
ENDBRANCH  12  17
ENDBRANCH  11  12
ENDBRANCH   1  11
TORSDOF 1
ENDMDL
MODEL 4
REMARK VINA RESULT:    -3.853      1.861      4.182
REMARK INTER + INTRA:          -6.060
REMARK INTER:                  -6.339
REMARK INTRA:                   0.279
REMARK UNBOUND:                -0.179
REMARK SMILES CC1=CCC[C@@H](C)C(=O)C[C@H](C(C)C)C(=O)C1
REMARK SMILES IDX 8 1 9 2 6 3 7 4 5 5 4 6 3 7 2 8 1 9 10 11 11 12 15 13 16 14
REMARK SMILES IDX 17 15 12 17 13 18 14 19
REMARK H PARENT
REMARK Flexibility Score: 70.00
ROOT
ATOM      1  C   UNL     1      -0.335  28.177  32.142  1.00  0.00     0.136 C 
ATOM      2  O   UNL     1      -0.968  27.163  32.388  1.00  0.00    -0.299 OA
ENDROOT
BRANCH   1   3
ATOM      3  C   UNL     1       0.595  28.716  33.223  1.00  0.00     0.053 C 
ATOM      4  C   UNL     1       0.202  28.278  34.643  1.00  0.00     0.016 C 
BRANCH   3   5
ATOM      5  C   UNL     1       0.833  30.237  33.109  1.00  0.00     0.015 C 
BRANCH   5   6
ATOM      6  C   UNL     1       2.258  30.627  32.666  1.00  0.00     0.028 C 
BRANCH   6   7
ATOM      7  C   UNL     1       2.313  31.074  31.232  1.00  0.00    -0.028 C 
ATOM      8  C   UNL     1       2.485  30.246  30.176  1.00  0.00    -0.070 CG0
ATOM      9  C   UNL     1       2.435  30.852  28.795  1.00  0.00     0.039 C 
ATOM     10  G   UNL     1       2.750  28.752  30.320  1.00  0.00     0.000 G0
ENDBRANCH   6   7
ENDBRANCH   5   6
ENDBRANCH   3   5
ENDBRANCH   1   3
BRANCH   1  11
ATOM     11  C   UNL     1      -0.603  28.903  30.840  1.00  0.00     0.087 C 
BRANCH  11  12
ATOM     12  C   UNL     1       0.172  28.427  29.571  1.00  0.00     0.066 C 
BRANCH  12  13
ATOM     13  C   UNL     1       1.574  27.877  29.848  1.00  0.00     0.140 C 
ATOM     14  O   UNL     1       1.751  26.670  29.768  1.00  0.00    -0.299 OA
BRANCH  13  15
ATOM     15  C   UNL     1       2.732  28.740  30.301  1.00  0.00     0.106 CG0
ATOM     16  G   UNL     1       2.465  30.233  30.161  1.00  0.00     0.000 G0
ENDBRANCH  13  15
ENDBRANCH  12  13
BRANCH  12  17
ATOM     17  C   UNL     1      -0.627  27.642  28.467  1.00  0.00    -0.006 C 
ATOM     18  C   UNL     1      -1.882  26.888  28.938  1.00  0.00     0.008 C 
ATOM     19  C   UNL     1      -0.955  28.509  27.240  1.00  0.00     0.008 C 
ENDBRANCH  12  17
ENDBRANCH  11  12
ENDBRANCH   1  11
TORSDOF 1
ENDMDL
MODEL 5
REMARK VINA RESULT:    -3.825      1.854      3.333
REMARK INTER + INTRA:          -6.016
REMARK INTER:                  -6.430
REMARK INTRA:                   0.414
REMARK UNBOUND:                -0.179
REMARK SMILES CC1=CCC[C@@H](C)C(=O)C[C@H](C(C)C)C(=O)C1
REMARK SMILES IDX 8 1 9 2 6 3 7 4 5 5 4 6 3 7 2 8 1 9 10 11 11 12 15 13 16 14
REMARK SMILES IDX 17 15 12 17 13 18 14 19
REMARK H PARENT
REMARK Flexibility Score: 70.00
ROOT
ATOM      1  C   UNL     1       1.917  29.633  33.187  1.00  0.00     0.136 C 
ATOM      2  O   UNL     1       2.164  30.790  33.491  1.00  0.00    -0.299 OA
ENDROOT
BRANCH   1   3
ATOM      3  C   UNL     1       0.601  29.035  33.669  1.00  0.00     0.053 C 
ATOM      4  C   UNL     1       0.746  28.179  34.939  1.00  0.00     0.016 C 
BRANCH   3   5
ATOM      5  C   UNL     1      -0.181  28.316  32.548  1.00  0.00     0.015 C 
BRANCH   5   6
ATOM      6  C   UNL     1      -0.674  29.246  31.421  1.00  0.00     0.028 C 
BRANCH   6   7
ATOM      7  C   UNL     1      -0.563  28.613  30.062  1.00  0.00    -0.028 C 
ATOM      8  C   UNL     1       0.367  28.943  29.137  1.00  0.00    -0.070 CG0
ATOM      9  C   UNL     1       0.388  28.150  27.852  1.00  0.00     0.039 C 
ATOM     10  G   UNL     1       1.364  30.081  29.321  1.00  0.00     0.000 G0
ENDBRANCH   6   7
ENDBRANCH   5   6
ENDBRANCH   3   5
ENDBRANCH   1   3
BRANCH   1  11
ATOM     11  C   UNL     1       2.979  28.830  32.465  1.00  0.00     0.087 C 
BRANCH  11  12
ATOM     12  C   UNL     1       2.729  28.483  30.963  1.00  0.00     0.066 C 
BRANCH  12  13
ATOM     13  C   UNL     1       2.640  29.697  30.034  1.00  0.00     0.140 C 
ATOM     14  O   UNL     1       3.618  30.422  29.929  1.00  0.00    -0.299 OA
BRANCH  13  15
ATOM     15  C   UNL     1       1.375  30.096  29.304  1.00  0.00     0.106 CG0
ATOM     16  G   UNL     1       0.389  28.947  29.131  1.00  0.00     0.000 G0
ENDBRANCH  13  15
ENDBRANCH  12  13
BRANCH  12  17
ATOM     17  C   UNL     1       3.491  27.251  30.351  1.00  0.00    -0.006 C 
ATOM     18  C   UNL     1       4.020  27.419  28.916  1.00  0.00     0.008 C 
ATOM     19  C   UNL     1       4.604  26.722  31.270  1.00  0.00     0.008 C 
ENDBRANCH  12  17
ENDBRANCH  11  12
ENDBRANCH   1  11
TORSDOF 1
ENDMDL
MODEL 6
REMARK VINA RESULT:    -3.823      2.003      4.081
REMARK INTER + INTRA:          -6.014
REMARK INTER:                  -6.557
REMARK INTRA:                   0.543
REMARK UNBOUND:                -0.179
REMARK SMILES CC1=CCC[C@@H](C)C(=O)C[C@H](C(C)C)C(=O)C1
REMARK SMILES IDX 8 1 9 2 6 3 7 4 5 5 4 6 3 7 2 8 1 9 10 11 11 12 15 13 16 14
REMARK SMILES IDX 17 15 12 17 13 18 14 19
REMARK H PARENT
REMARK Flexibility Score: 70.00
ROOT
ATOM      1  C   UNL     1      -0.485  28.270  32.144  1.00  0.00     0.136 C 
ATOM      2  O   UNL     1      -1.075  27.237  32.416  1.00  0.00    -0.299 OA
ENDROOT
BRANCH   1   3
ATOM      3  C   UNL     1       0.403  28.887  33.219  1.00  0.00     0.053 C 
ATOM      4  C   UNL     1      -0.193  28.795  34.633  1.00  0.00     0.016 C 
BRANCH   3   5
ATOM      5  C   UNL     1       0.881  30.311  32.861  1.00  0.00     0.015 C 
BRANCH   5   6
ATOM      6  C   UNL     1       2.410  30.452  32.717  1.00  0.00     0.028 C 
BRANCH   6   7
ATOM      7  C   UNL     1       3.119  29.128  32.784  1.00  0.00    -0.028 C 
ATOM      8  C   UNL     1       3.436  28.373  31.707  1.00  0.00    -0.070 CG0
ATOM      9  C   UNL     1       4.222  27.107  31.947  1.00  0.00     0.039 C 
ATOM     10  G   UNL     1       3.018  28.727  30.285  1.00  0.00     0.000 G0
ENDBRANCH   6   7
ENDBRANCH   5   6
ENDBRANCH   3   5
ENDBRANCH   1   3
BRANCH   1  11
ATOM     11  C   UNL     1      -0.765  28.939  30.815  1.00  0.00     0.087 C 
BRANCH  11  12
ATOM     12  C   UNL     1       0.459  29.340  29.932  1.00  0.00     0.066 C 
BRANCH  12  13
ATOM     13  C   UNL     1       1.611  28.331  29.942  1.00  0.00     0.140 C 
ATOM     14  O   UNL     1       1.354  27.153  29.736  1.00  0.00    -0.299 OA
BRANCH  13  15
ATOM     15  C   UNL     1       3.039  28.702  30.280  1.00  0.00     0.106 CG0
ATOM     16  G   UNL     1       3.428  28.367  31.714  1.00  0.00     0.000 G0
ENDBRANCH  13  15
ENDBRANCH  12  13
BRANCH  12  17
ATOM     17  C   UNL     1       0.178  29.991  28.528  1.00  0.00    -0.006 C 
ATOM     18  C   UNL     1       0.537  31.479  28.382  1.00  0.00     0.008 C 
ATOM     19  C   UNL     1       0.774  29.181  27.366  1.00  0.00     0.008 C 
ENDBRANCH  12  17
ENDBRANCH  11  12
ENDBRANCH   1  11
TORSDOF 1
ENDMDL
MODEL 7
REMARK VINA RESULT:    -3.774      2.004      4.862
REMARK INTER + INTRA:          -5.939
REMARK INTER:                  -6.597
REMARK INTRA:                   0.657
REMARK UNBOUND:                -0.179
REMARK SMILES CC1=CCC[C@@H](C)C(=O)C[C@H](C(C)C)C(=O)C1
REMARK SMILES IDX 8 1 9 2 6 3 7 4 5 5 4 6 3 7 2 8 1 9 10 11 11 12 15 13 16 14
REMARK SMILES IDX 17 15 12 17 13 18 14 19
REMARK H PARENT
REMARK Flexibility Score: 70.00
ROOT
ATOM      1  C   UNL     1       2.789  29.701  31.974  1.00  0.00     0.136 C 
ATOM      2  O   UNL     1       2.511  30.890  31.981  1.00  0.00    -0.299 OA
ENDROOT
BRANCH   1   3
ATOM      3  C   UNL     1       3.127  29.041  33.306  1.00  0.00     0.053 C 
ATOM      4  C   UNL     1       3.772  27.653  33.155  1.00  0.00     0.016 C 
BRANCH   3   5
ATOM      5  C   UNL     1       1.945  29.047  34.299  1.00  0.00     0.015 C 
BRANCH   5   6
ATOM      6  C   UNL     1       0.611  29.533  33.696  1.00  0.00     0.028 C 
BRANCH   6   7
ATOM      7  C   UNL     1      -0.192  28.412  33.097  1.00  0.00    -0.028 C 
ATOM      8  C   UNL     1      -0.720  28.428  31.851  1.00  0.00    -0.070 CG0
ATOM      9  C   UNL     1      -1.430  27.184  31.376  1.00  0.00     0.039 C 
ATOM     10  G   UNL     1      -0.651  29.639  30.928  1.00  0.00     0.000 G0
ENDBRANCH   6   7
ENDBRANCH   5   6
ENDBRANCH   3   5
ENDBRANCH   1   3
BRANCH   1  11
ATOM     11  C   UNL     1       2.904  28.990  30.642  1.00  0.00     0.087 C 
BRANCH  11  12
ATOM     12  C   UNL     1       1.583  28.536  29.946  1.00  0.00     0.066 C 
BRANCH  12  13
ATOM     13  C   UNL     1       0.480  29.597  29.916  1.00  0.00     0.140 C 
ATOM     14  O   UNL     1       0.561  30.497  29.093  1.00  0.00    -0.299 OA
BRANCH  13  15
ATOM     15  C   UNL     1      -0.662  29.640  30.909  1.00  0.00     0.106 CG0
ATOM     16  G   UNL     1      -0.706  28.429  31.833  1.00  0.00     0.000 G0
ENDBRANCH  13  15
ENDBRANCH  12  13
BRANCH  12  17
ATOM     17  C   UNL     1       1.695  27.678  28.633  1.00  0.00    -0.006 C 
ATOM     18  C   UNL     1       2.819  26.629  28.596  1.00  0.00     0.008 C 
ATOM     19  C   UNL     1       0.358  27.040  28.221  1.00  0.00     0.008 C 
ENDBRANCH  12  17
ENDBRANCH  11  12
ENDBRANCH   1  11
TORSDOF 1
ENDMDL
MODEL 8
REMARK VINA RESULT:    -3.651      2.107      3.789
REMARK INTER + INTRA:          -5.751
REMARK INTER:                  -5.490
REMARK INTRA:                  -0.261
REMARK UNBOUND:                -0.179
REMARK SMILES CC1=CCC[C@@H](C)C(=O)C[C@H](C(C)C)C(=O)C1
REMARK SMILES IDX 8 1 9 2 6 3 7 4 5 5 4 6 3 7 2 8 1 9 10 11 11 12 15 13 16 14
REMARK SMILES IDX 17 15 12 17 13 18 14 19
REMARK H PARENT
REMARK Flexibility Score: 70.00
ROOT
ATOM      1  C   UNL     1       2.456  28.852  32.093  1.00  0.00     0.136 C 
ATOM      2  O   UNL     1       2.581  27.992  32.950  1.00  0.00    -0.299 OA
ENDROOT
BRANCH   1   3
ATOM      3  C   UNL     1       1.348  29.883  32.273  1.00  0.00     0.053 C 
ATOM      4  C   UNL     1       1.542  30.782  33.506  1.00  0.00     0.016 C 
BRANCH   3   5
ATOM      5  C   UNL     1      -0.066  29.267  32.199  1.00  0.00     0.015 C 
BRANCH   5   6
ATOM      6  C   UNL     1      -0.426  28.668  30.824  1.00  0.00     0.028 C 
BRANCH   6   7
ATOM      7  C   UNL     1      -0.307  29.670  29.710  1.00  0.00    -0.028 C 
ATOM      8  C   UNL     1       0.262  29.417  28.508  1.00  0.00    -0.070 CG0
ATOM      9  C   UNL     1       0.225  30.514  27.472  1.00  0.00     0.039 C 
ATOM     10  G   UNL     1       0.952  28.101  28.170  1.00  0.00     0.000 G0
ENDBRANCH   6   7
ENDBRANCH   5   6
ENDBRANCH   3   5
ENDBRANCH   1   3
BRANCH   1  11
ATOM     11  C   UNL     1       3.319  28.771  30.851  1.00  0.00     0.087 C 
BRANCH  11  12
ATOM     12  C   UNL     1       3.006  27.637  29.824  1.00  0.00     0.066 C 
BRANCH  12  13
ATOM     13  C   UNL     1       2.439  28.125  28.488  1.00  0.00     0.140 C 
ATOM     14  O   UNL     1       3.207  28.623  27.677  1.00  0.00    -0.299 OA
BRANCH  13  15
ATOM     15  C   UNL     1       0.963  28.104  28.152  1.00  0.00     0.106 CG0
ATOM     16  G   UNL     1       0.245  29.404  28.496  1.00  0.00     0.000 G0
ENDBRANCH  13  15
ENDBRANCH  12  13
BRANCH  12  17
ATOM     17  C   UNL     1       4.026  26.447  29.700  1.00  0.00    -0.006 C 
ATOM     18  C   UNL     1       4.966  26.226  30.898  1.00  0.00     0.008 C 
ATOM     19  C   UNL     1       3.354  25.124  29.299  1.00  0.00     0.008 C 
ENDBRANCH  12  17
ENDBRANCH  11  12
ENDBRANCH   1  11
TORSDOF 1
ENDMDL
MODEL 9
REMARK VINA RESULT:    -3.570      2.296      2.813
REMARK INTER + INTRA:          -5.628
REMARK INTER:                  -5.421
REMARK INTRA:                  -0.207
REMARK UNBOUND:                -0.179
REMARK SMILES CC1=CCC[C@@H](C)C(=O)C[C@H](C(C)C)C(=O)C1
REMARK SMILES IDX 8 1 9 2 6 3 7 4 5 5 4 6 3 7 2 8 1 9 10 11 11 12 15 13 16 14
REMARK SMILES IDX 17 15 12 17 13 18 14 19
REMARK H PARENT
REMARK Flexibility Score: 70.00
ROOT
ATOM      1  C   UNL     1       0.422  30.364  29.832  1.00  0.00     0.136 C 
ATOM      2  O   UNL     1      -0.527  30.738  30.503  1.00  0.00    -0.299 OA
ENDROOT
BRANCH   1   3
ATOM      3  C   UNL     1       0.158  29.963  28.385  1.00  0.00     0.053 C 
ATOM      4  C   UNL     1      -1.211  30.427  27.861  1.00  0.00     0.016 C 
BRANCH   3   5
ATOM      5  C   UNL     1       0.428  28.467  28.115  1.00  0.00     0.015 C 
BRANCH   5   6
ATOM      6  C   UNL     1       1.821  28.169  27.525  1.00  0.00     0.028 C 
BRANCH   6   7
ATOM      7  C   UNL     1       2.389  26.868  28.019  1.00  0.00    -0.028 C 
ATOM      8  C   UNL     1       3.188  26.742  29.103  1.00  0.00    -0.070 CG0
ATOM      9  C   UNL     1       3.605  25.349  29.508  1.00  0.00     0.039 C 
ATOM     10  G   UNL     1       3.700  27.931  29.907  1.00  0.00     0.000 G0
ENDBRANCH   6   7
ENDBRANCH   5   6
ENDBRANCH   3   5
ENDBRANCH   1   3
BRANCH   1  11
ATOM     11  C   UNL     1       1.768  30.202  30.505  1.00  0.00     0.087 C 
BRANCH  11  12
ATOM     12  C   UNL     1       1.922  29.054  31.552  1.00  0.00     0.066 C 
BRANCH  12  13
ATOM     13  C   UNL     1       3.065  28.077  31.264  1.00  0.00     0.140 C 
ATOM     14  O   UNL     1       3.523  27.427  32.193  1.00  0.00    -0.299 OA
BRANCH  13  15
ATOM     15  C   UNL     1       3.717  27.935  29.905  1.00  0.00     0.106 CG0
ATOM     16  G   UNL     1       3.186  26.757  29.098  1.00  0.00     0.000 G0
ENDBRANCH  13  15
ENDBRANCH  12  13
BRANCH  12  17
ATOM     17  C   UNL     1       1.739  29.408  33.073  1.00  0.00    -0.006 C 
ATOM     18  C   UNL     1       1.866  30.895  33.448  1.00  0.00     0.008 C 
ATOM     19  C   UNL     1       0.453  28.816  33.672  1.00  0.00     0.008 C 
ENDBRANCH  12  17
ENDBRANCH  11  12
ENDBRANCH   1  11
TORSDOF 1
ENDMDL
