MODEL 1
REMARK VINA RESULT:    -3.824      0.000      0.000
REMARK INTER + INTRA:          -4.532
REMARK INTER:                  -4.494
REMARK INTRA:                  -0.038
REMARK UNBOUND:                -0.038
REMARK SMILES O=C([O-])CCC(=O)[O-]
REMARK SMILES IDX 4 1 2 2 1 3 3 4 5 5 6 6 7 7 8 8
REMARK H PARENT
REMARK Flexibility Score: inf
ROOT
ATOM      1  C   UNL     1       0.754  11.638  -8.140  1.00  0.00     0.059 C 
ENDROOT
BRANCH   1   2
ATOM      2  C   UNL     1      -0.651  12.049  -8.459  1.00  0.00     0.042 C 
ATOM      3  O   UNL     1      -1.398  11.286  -9.126  1.00  0.00    -0.550 OA
ATOM      4  O   UNL     1      -1.149  13.255  -7.983  1.00  0.00    -0.550 OA
ENDBRANCH   1   2
BRANCH   1   5
ATOM      5  C   UNL     1       1.014  10.175  -8.517  1.00  0.00     0.059 C 
BRANCH   5   6
ATOM      6  C   UNL     1       2.469   9.921  -8.768  1.00  0.00     0.042 C 
ATOM      7  O   UNL     1       3.335  10.340  -7.957  1.00  0.00    -0.550 OA
ATOM      8  O   UNL     1       2.869   9.255  -9.921  1.00  0.00    -0.550 OA
ENDBRANCH   5   6
ENDBRANCH   1   5
TORSDOF 3
ENDMDL
MODEL 2
REMARK VINA RESULT:    -3.804      0.092      4.247
REMARK INTER + INTRA:          -4.509
REMARK INTER:                  -4.473
REMARK INTRA:                  -0.037
REMARK UNBOUND:                -0.038
REMARK SMILES O=C([O-])CCC(=O)[O-]
REMARK SMILES IDX 4 1 2 2 1 3 3 4 5 5 6 6 7 7 8 8
REMARK H PARENT
REMARK Flexibility Score: inf
ROOT
ATOM      1  C   UNL     1       1.052  10.203  -8.420  1.00  0.00     0.059 C 
ENDROOT
BRANCH   1   2
ATOM      2  C   UNL     1       2.501   9.992  -8.737  1.00  0.00     0.042 C 
ATOM      3  O   UNL     1       3.389  10.405  -7.945  1.00  0.00    -0.550 OA
ATOM      4  O   UNL     1       2.870   9.303  -9.886  1.00  0.00    -0.550 OA
ENDBRANCH   1   2
BRANCH   1   5
ATOM      5  C   UNL     1       0.763  11.660  -8.041  1.00  0.00     0.059 C 
BRANCH   5   6
ATOM      6  C   UNL     1      -0.633  12.059  -8.411  1.00  0.00     0.042 C 
ATOM      7  O   UNL     1      -1.094  13.170  -8.040  1.00  0.00    -0.550 OA
ATOM      8  O   UNL     1      -1.437  11.185  -9.132  1.00  0.00    -0.550 OA
ENDBRANCH   5   6
ENDBRANCH   1   5
TORSDOF 3
ENDMDL
MODEL 3
REMARK VINA RESULT:    -3.737      0.276      1.178
REMARK INTER + INTRA:          -4.431
REMARK INTER:                  -4.388
REMARK INTRA:                  -0.043
REMARK UNBOUND:                -0.038
REMARK SMILES O=C([O-])CCC(=O)[O-]
REMARK SMILES IDX 4 1 2 2 1 3 3 4 5 5 6 6 7 7 8 8
REMARK H PARENT
REMARK Flexibility Score: inf
ROOT
ATOM      1  C   UNL     1       0.551  11.283  -7.733  1.00  0.00     0.059 C 
ENDROOT
BRANCH   1   2
ATOM      2  C   UNL     1      -0.666  11.882  -8.368  1.00  0.00     0.042 C 
ATOM      3  O   UNL     1      -1.392  11.187  -9.126  1.00  0.00    -0.550 OA
ATOM      4  O   UNL     1      -1.023  13.195  -8.088  1.00  0.00    -0.550 OA
ENDBRANCH   1   2
BRANCH   1   5
ATOM      5  C   UNL     1       0.994  10.005  -8.456  1.00  0.00     0.059 C 
BRANCH   5   6
ATOM      6  C   UNL     1       2.470  10.000  -8.711  1.00  0.00     0.042 C 
ATOM      7  O   UNL     1       2.933   9.444  -9.741  1.00  0.00    -0.550 OA
ATOM      8  O   UNL     1       3.337  10.576  -7.790  1.00  0.00    -0.550 OA
ENDBRANCH   5   6
ENDBRANCH   1   5
TORSDOF 3
ENDMDL
MODEL 4
REMARK VINA RESULT:    -3.668      1.399      4.200
REMARK INTER + INTRA:          -4.350
REMARK INTER:                  -4.232
REMARK INTRA:                  -0.117
REMARK UNBOUND:                -0.038
REMARK SMILES O=C([O-])CCC(=O)[O-]
REMARK SMILES IDX 4 1 2 2 1 3 3 4 5 5 6 6 7 7 8 8
REMARK H PARENT
REMARK Flexibility Score: inf
ROOT
ATOM      1  C   UNL     1       1.078  10.226  -8.236  1.00  0.00     0.059 C 
ENDROOT
BRANCH   1   2
ATOM      2  C   UNL     1       2.519  10.053  -8.608  1.00  0.00     0.042 C 
ATOM      3  O   UNL     1       3.426  10.470  -7.840  1.00  0.00    -0.550 OA
ATOM      4  O   UNL     1       2.861   9.395  -9.782  1.00  0.00    -0.550 OA
ENDBRANCH   1   2
BRANCH   1   5
ATOM      5  C   UNL     1       0.643  11.693  -8.330  1.00  0.00     0.059 C 
BRANCH   5   6
ATOM      6  C   UNL     1       0.404  12.285  -6.975  1.00  0.00     0.042 C 
ATOM      7  O   UNL     1      -0.367  13.271  -6.840  1.00  0.00    -0.550 OA
ATOM      8  O   UNL     1       1.066  11.771  -5.866  1.00  0.00    -0.550 OA
ENDBRANCH   5   6
ENDBRANCH   1   5
TORSDOF 3
ENDMDL
MODEL 5
REMARK VINA RESULT:    -3.560     13.429     14.600
REMARK INTER + INTRA:          -4.222
REMARK INTER:                  -4.101
REMARK INTRA:                  -0.121
REMARK UNBOUND:                -0.038
REMARK SMILES O=C([O-])CCC(=O)[O-]
REMARK SMILES IDX 4 1 2 2 1 3 3 4 5 5 6 6 7 7 8 8
REMARK H PARENT
REMARK Flexibility Score: inf
ROOT
ATOM      1  C   UNL     1       6.723  12.260 -21.485  1.00  0.00     0.059 C 
ENDROOT
BRANCH   1   2
ATOM      2  C   UNL     1       6.782  12.954 -20.159  1.00  0.00     0.042 C 
ATOM      3  O   UNL     1       7.531  12.516 -19.247  1.00  0.00    -0.550 OA
ATOM      4  O   UNL     1       6.041  14.110 -19.945  1.00  0.00    -0.550 OA
ENDBRANCH   1   2
BRANCH   1   5
ATOM      5  C   UNL     1       7.704  11.082 -21.549  1.00  0.00     0.059 C 
BRANCH   5   6
ATOM      6  C   UNL     1       8.919  11.421 -22.357  1.00  0.00     0.042 C 
ATOM      7  O   UNL     1       9.042  10.986 -23.531  1.00  0.00    -0.550 OA
ATOM      8  O   UNL     1       9.935  12.186 -21.795  1.00  0.00    -0.550 OA
ENDBRANCH   5   6
ENDBRANCH   1   5
TORSDOF 3
ENDMDL
MODEL 6
REMARK VINA RESULT:    -3.556     13.031     14.248
REMARK INTER + INTRA:          -4.218
REMARK INTER:                  -4.182
REMARK INTRA:                  -0.036
REMARK UNBOUND:                -0.038
REMARK SMILES O=C([O-])CCC(=O)[O-]
REMARK SMILES IDX 4 1 2 2 1 3 3 4 5 5 6 6 7 7 8 8
REMARK H PARENT
REMARK Flexibility Score: inf
ROOT
ATOM      1  C   UNL     1       6.655  12.611 -21.065  1.00  0.00     0.059 C 
ENDROOT
BRANCH   1   2
ATOM      2  C   UNL     1       6.965  12.894 -19.628  1.00  0.00     0.042 C 
ATOM      3  O   UNL     1       7.976  12.376 -19.084  1.00  0.00    -0.550 OA
ATOM      4  O   UNL     1       6.162  13.762 -18.899  1.00  0.00    -0.550 OA
ENDBRANCH   1   2
BRANCH   1   5
ATOM      5  C   UNL     1       7.249  11.273 -21.519  1.00  0.00     0.059 C 
BRANCH   5   6
ATOM      6  C   UNL     1       6.738  10.872 -22.869  1.00  0.00     0.042 C 
ATOM      7  O   UNL     1       6.362  11.749 -23.690  1.00  0.00    -0.550 OA
ATOM      8  O   UNL     1       6.642   9.527 -23.205  1.00  0.00    -0.550 OA
ENDBRANCH   5   6
ENDBRANCH   1   5
TORSDOF 3
ENDMDL
MODEL 7
REMARK VINA RESULT:    -3.546     13.406     14.942
REMARK INTER + INTRA:          -4.206
REMARK INTER:                  -4.085
REMARK INTRA:                  -0.121
REMARK UNBOUND:                -0.038
REMARK SMILES O=C([O-])CCC(=O)[O-]
REMARK SMILES IDX 4 1 2 2 1 3 3 4 5 5 6 6 7 7 8 8
REMARK H PARENT
REMARK Flexibility Score: inf
ROOT
ATOM      1  C   UNL     1       7.684  11.080 -21.520  1.00  0.00     0.059 C 
ENDROOT
BRANCH   1   2
ATOM      2  C   UNL     1       8.903  11.380 -22.336  1.00  0.00     0.042 C 
ATOM      3  O   UNL     1       9.004  10.938 -23.510  1.00  0.00    -0.550 OA
ATOM      4  O   UNL     1       9.910  12.183 -21.815  1.00  0.00    -0.550 OA
ENDBRANCH   1   2
BRANCH   1   5
ATOM      5  C   UNL     1       6.740  12.286 -21.450  1.00  0.00     0.059 C 
BRANCH   5   6
ATOM      6  C   UNL     1       6.830  12.980 -20.125  1.00  0.00     0.042 C 
ATOM      7  O   UNL     1       7.564  12.515 -19.214  1.00  0.00    -0.550 OA
ATOM      8  O   UNL     1       6.072  14.120 -19.885  1.00  0.00    -0.550 OA
ENDBRANCH   5   6
ENDBRANCH   1   5
TORSDOF 3
ENDMDL
MODEL 8
REMARK VINA RESULT:    -3.482     13.060     14.464
REMARK INTER + INTRA:          -4.131
REMARK INTER:                  -4.097
REMARK INTRA:                  -0.034
REMARK UNBOUND:                -0.038
REMARK SMILES O=C([O-])CCC(=O)[O-]
REMARK SMILES IDX 4 1 2 2 1 3 3 4 5 5 6 6 7 7 8 8
REMARK H PARENT
REMARK Flexibility Score: inf
ROOT
ATOM      1  C   UNL     1       7.325  11.044 -21.516  1.00  0.00     0.059 C 
ENDROOT
BRANCH   1   2
ATOM      2  C   UNL     1       6.836  10.576 -22.852  1.00  0.00     0.042 C 
ATOM      3  O   UNL     1       6.989   9.375 -23.198  1.00  0.00    -0.550 OA
ATOM      4  O   UNL     1       6.174  11.456 -23.699  1.00  0.00    -0.550 OA
ENDBRANCH   1   2
BRANCH   1   5
ATOM      5  C   UNL     1       6.719  12.400 -21.136  1.00  0.00     0.059 C 
BRANCH   5   6
ATOM      6  C   UNL     1       7.044  12.772 -19.722  1.00  0.00     0.042 C 
ATOM      7  O   UNL     1       8.118  12.380 -19.194  1.00  0.00    -0.550 OA
ATOM      8  O   UNL     1       6.142  13.521 -18.975  1.00  0.00    -0.550 OA
ENDBRANCH   5   6
ENDBRANCH   1   5
TORSDOF 3
ENDMDL
MODEL 9
REMARK VINA RESULT:    -3.328     13.032     13.779
REMARK INTER + INTRA:          -3.949
REMARK INTER:                  -3.915
REMARK INTRA:                  -0.034
REMARK UNBOUND:                -0.038
REMARK SMILES O=C([O-])CCC(=O)[O-]
REMARK SMILES IDX 4 1 2 2 1 3 3 4 5 5 6 6 7 7 8 8
REMARK H PARENT
REMARK Flexibility Score: inf
ROOT
ATOM      1  C   UNL     1       7.830  12.292 -19.618  1.00  0.00     0.059 C 
ENDROOT
BRANCH   1   2
ATOM      2  C   UNL     1       6.710  13.011 -20.304  1.00  0.00     0.042 C 
ATOM      3  O   UNL     1       6.277  12.599 -21.412  1.00  0.00    -0.550 OA
ATOM      4  O   UNL     1       6.115  14.112 -19.700  1.00  0.00    -0.550 OA
ENDBRANCH   1   2
BRANCH   1   5
ATOM      5  C   UNL     1       8.903  11.836 -20.614  1.00  0.00     0.059 C 
BRANCH   5   6
ATOM      6  C   UNL     1       9.968  11.023 -19.944  1.00  0.00     0.042 C 
ATOM      7  O   UNL     1      10.751  10.316 -20.630  1.00  0.00    -0.550 OA
ATOM      8  O   UNL     1      10.068  11.017 -18.558  1.00  0.00    -0.550 OA
ENDBRANCH   5   6
ENDBRANCH   1   5
TORSDOF 3
ENDMDL
