MODEL 1
REMARK VINA RESULT:    -3.430      0.000      0.000
REMARK INTER + INTRA:          -5.123
REMARK INTER:                  -4.633
REMARK INTRA:                  -0.491
REMARK UNBOUND:                -0.491
REMARK SMILES C[C@H](O)[C@H](O)[C@@H](O)[C@@H](O)C=O
REMARK SMILES IDX 4 1 2 2 1 3 3 4 6 6 8 7 10 8 11 9 9 10 7 12 5 14
REMARK H PARENT 3 5 9 11 7 13 5 15
REMARK Flexibility Score: inf
ROOT
ATOM      1  C   UNL     1      58.566  17.596  49.833  1.00  0.00     0.174 C 
ENDROOT
BRANCH   1   2
ATOM      2  C   UNL     1      60.006  18.125  49.588  1.00  0.00     0.142 C 
ATOM      3  C   UNL     1      60.926  17.890  50.790  1.00  0.00     0.041 C 
BRANCH   2   4
ATOM      4  O   UNL     1      60.002  19.495  49.275  1.00  0.00    -0.391 OA
ATOM      5  H   UNL     1      60.271  19.578  48.323  1.00  0.00     0.211 HD
ENDBRANCH   2   4
ENDBRANCH   1   2
BRANCH   1   6
ATOM      6  C   UNL     1      57.535  18.686  50.254  1.00  0.00     0.181 C 
BRANCH   6   7
ATOM      7  C   UNL     1      57.687  19.064  51.745  1.00  0.00     0.209 C 
BRANCH   7   8
ATOM      8  C   UNL     1      56.342  19.122  52.422  1.00  0.00     0.258 C 
ATOM      9  O   UNL     1      55.581  20.055  52.215  1.00  0.00    -0.300 OA
ENDBRANCH   7   8
BRANCH   7  10
ATOM     10  O   UNL     1      58.309  20.318  51.854  1.00  0.00    -0.383 OA
ATOM     11  H   UNL     1      59.268  20.148  52.050  1.00  0.00     0.211 HD
ENDBRANCH   7  10
ENDBRANCH   6   7
BRANCH   6  12
ATOM     12  O   UNL     1      56.225  18.227  50.024  1.00  0.00    -0.387 OA
ATOM     13  H   UNL     1      55.852  17.943  50.900  1.00  0.00     0.211 HD
ENDBRANCH   6  12
ENDBRANCH   1   6
BRANCH   1  14
ATOM     14  O   UNL     1      58.117  16.875  48.710  1.00  0.00    -0.388 OA
ATOM     15  H   UNL     1      58.786  16.991  47.986  1.00  0.00     0.211 HD
ENDBRANCH   1  14
TORSDOF 8
ENDMDL
MODEL 2
REMARK VINA RESULT:    -3.386     21.121     22.190
REMARK INTER + INTRA:          -5.065
REMARK INTER:                  -4.583
REMARK INTRA:                  -0.482
REMARK UNBOUND:                -0.491
REMARK SMILES C[C@H](O)[C@H](O)[C@@H](O)[C@@H](O)C=O
REMARK SMILES IDX 4 1 2 2 1 3 3 4 6 6 8 7 10 8 11 9 9 10 7 12 5 14
REMARK H PARENT 3 5 9 11 7 13 5 15
REMARK Flexibility Score: inf
ROOT
ATOM      1  C   UNL     1      70.988  34.498  59.022  1.00  0.00     0.174 C 
ENDROOT
BRANCH   1   2
ATOM      2  C   UNL     1      71.236  32.968  58.921  1.00  0.00     0.142 C 
ATOM      3  C   UNL     1      72.042  32.428  60.106  1.00  0.00     0.041 C 
BRANCH   2   4
ATOM      4  O   UNL     1      71.898  32.635  57.727  1.00  0.00    -0.391 OA
ATOM      5  H   UNL     1      71.627  33.304  57.046  1.00  0.00     0.211 HD
ENDBRANCH   2   4
ENDBRANCH   1   2
BRANCH   1   6
ATOM      6  C   UNL     1      70.046  35.078  57.925  1.00  0.00     0.181 C 
BRANCH   6   7
ATOM      7  C   UNL     1      70.735  36.206  57.124  1.00  0.00     0.209 C 
BRANCH   7   8
ATOM      8  C   UNL     1      71.427  35.652  55.905  1.00  0.00     0.258 C 
ATOM      9  O   UNL     1      72.512  35.101  56.004  1.00  0.00    -0.300 OA
ENDBRANCH   7   8
BRANCH   7  10
ATOM     10  O   UNL     1      71.683  36.850  57.937  1.00  0.00    -0.383 OA
ATOM     11  H   UNL     1      71.179  37.310  58.658  1.00  0.00     0.211 HD
ENDBRANCH   7  10
ENDBRANCH   6   7
BRANCH   6  12
ATOM     12  O   UNL     1      68.869  35.580  58.513  1.00  0.00    -0.387 OA
ATOM     13  H   UNL     1      68.772  35.142  59.399  1.00  0.00     0.211 HD
ENDBRANCH   6  12
ENDBRANCH   1   6
BRANCH   1  14
ATOM     14  O   UNL     1      70.534  34.832  60.312  1.00  0.00    -0.388 OA
ATOM     15  H   UNL     1      71.153  34.418  60.970  1.00  0.00     0.211 HD
ENDBRANCH   1  14
TORSDOF 8
ENDMDL
MODEL 3
REMARK VINA RESULT:    -3.312      8.045      9.343
REMARK INTER + INTRA:          -4.964
REMARK INTER:                  -4.283
REMARK INTRA:                  -0.681
REMARK UNBOUND:                -0.491
REMARK SMILES C[C@H](O)[C@H](O)[C@@H](O)[C@@H](O)C=O
REMARK SMILES IDX 4 1 2 2 1 3 3 4 6 6 8 7 10 8 11 9 9 10 7 12 5 14
REMARK H PARENT 3 5 9 11 7 13 5 15
REMARK Flexibility Score: inf
ROOT
ATOM      1  C   UNL     1      57.134  26.237  49.962  1.00  0.00     0.174 C 
ENDROOT
BRANCH   1   2
ATOM      2  C   UNL     1      55.603  26.500  50.011  1.00  0.00     0.142 C 
ATOM      3  C   UNL     1      54.835  25.668  48.980  1.00  0.00     0.041 C 
BRANCH   2   4
ATOM      4  O   UNL     1      55.311  27.860  49.813  1.00  0.00    -0.391 OA
ATOM      5  H   UNL     1      55.895  28.180  49.077  1.00  0.00     0.211 HD
ENDBRANCH   2   4
ENDBRANCH   1   2
BRANCH   1   6
ATOM      6  C   UNL     1      58.016  27.521  50.015  1.00  0.00     0.181 C 
BRANCH   6   7
ATOM      7  C   UNL     1      59.505  27.196  49.761  1.00  0.00     0.209 C 
BRANCH   7   8
ATOM      8  C   UNL     1      60.204  28.362  49.112  1.00  0.00     0.258 C 
ATOM      9  O   UNL     1      59.617  29.418  48.934  1.00  0.00    -0.300 OA
ENDBRANCH   7   8
BRANCH   7  10
ATOM     10  O   UNL     1      59.607  26.075  48.920  1.00  0.00    -0.383 OA
ATOM     11  H   UNL     1      60.558  26.009  48.642  1.00  0.00     0.211 HD
ENDBRANCH   7  10
ENDBRANCH   6   7
BRANCH   6  12
ATOM     12  O   UNL     1      57.886  28.145  51.270  1.00  0.00    -0.387 OA
ATOM     13  H   UNL     1      57.253  28.903  51.159  1.00  0.00     0.211 HD
ENDBRANCH   6  12
ENDBRANCH   1   6
BRANCH   1  14
ATOM     14  O   UNL     1      57.501  25.323  50.967  1.00  0.00    -0.388 OA
ATOM     15  H   UNL     1      56.777  25.308  51.646  1.00  0.00     0.211 HD
ENDBRANCH   1  14
TORSDOF 8
ENDMDL
MODEL 4
REMARK VINA RESULT:    -3.258      0.936      3.677
REMARK INTER + INTRA:          -4.892
REMARK INTER:                  -4.272
REMARK INTRA:                  -0.619
REMARK UNBOUND:                -0.491
REMARK SMILES C[C@H](O)[C@H](O)[C@@H](O)[C@@H](O)C=O
REMARK SMILES IDX 4 1 2 2 1 3 3 4 6 6 8 7 10 8 11 9 9 10 7 12 5 14
REMARK H PARENT 3 5 9 11 7 13 5 15
REMARK Flexibility Score: inf
ROOT
ATOM      1  C   UNL     1      57.589  18.686  50.241  1.00  0.00     0.174 C 
ENDROOT
BRANCH   1   2
ATOM      2  C   UNL     1      57.564  18.945  51.773  1.00  0.00     0.142 C 
ATOM      3  C   UNL     1      56.191  19.411  52.263  1.00  0.00     0.041 C 
BRANCH   2   4
ATOM      4  O   UNL     1      58.531  19.893  52.147  1.00  0.00    -0.391 OA
ATOM      5  H   UNL     1      59.006  19.528  52.939  1.00  0.00     0.211 HD
ENDBRANCH   2   4
ENDBRANCH   1   2
BRANCH   1   6
ATOM      6  C   UNL     1      58.613  17.607  49.780  1.00  0.00     0.181 C 
BRANCH   6   7
ATOM      7  C   UNL     1      59.958  18.243  49.362  1.00  0.00     0.209 C 
BRANCH   7   8
ATOM      8  C   UNL     1      61.039  17.914  50.359  1.00  0.00     0.258 C 
ATOM      9  O   UNL     1      60.961  18.308  51.512  1.00  0.00    -0.300 OA
ENDBRANCH   7   8
BRANCH   7  10
ATOM     10  O   UNL     1      59.816  19.638  49.283  1.00  0.00    -0.383 OA
ATOM     11  H   UNL     1      59.724  19.972  50.213  1.00  0.00     0.211 HD
ENDBRANCH   7  10
ENDBRANCH   6   7
BRANCH   6  12
ATOM     12  O   UNL     1      58.091  16.875  48.697  1.00  0.00    -0.387 OA
ATOM     13  H   UNL     1      57.321  17.389  48.336  1.00  0.00     0.211 HD
ENDBRANCH   6  12
ENDBRANCH   1   6
BRANCH   1  14
ATOM     14  O   UNL     1      56.293  18.391  49.778  1.00  0.00    -0.388 OA
ATOM     15  H   UNL     1      56.378  17.957  48.889  1.00  0.00     0.211 HD
ENDBRANCH   1  14
TORSDOF 8
ENDMDL
MODEL 5
REMARK VINA RESULT:    -3.258     16.569     17.941
REMARK INTER + INTRA:          -4.892
REMARK INTER:                  -4.329
REMARK INTRA:                  -0.563
REMARK UNBOUND:                -0.491
REMARK SMILES C[C@H](O)[C@H](O)[C@@H](O)[C@@H](O)C=O
REMARK SMILES IDX 4 1 2 2 1 3 3 4 6 6 8 7 10 8 11 9 9 10 7 12 5 14
REMARK H PARENT 3 5 9 11 7 13 5 15
REMARK Flexibility Score: inf
ROOT
ATOM      1  C   UNL     1      64.359  32.811  60.423  1.00  0.00     0.174 C 
ENDROOT
BRANCH   1   2
ATOM      2  C   UNL     1      64.175  34.353  60.384  1.00  0.00     0.142 C 
ATOM      3  C   UNL     1      65.014  35.068  61.446  1.00  0.00     0.041 C 
BRANCH   2   4
ATOM      4  O   UNL     1      62.826  34.713  60.546  1.00  0.00    -0.391 OA
ATOM      5  H   UNL     1      62.699  35.584  60.087  1.00  0.00     0.211 HD
ENDBRANCH   2   4
ENDBRANCH   1   2
BRANCH   1   6
ATOM      6  C   UNL     1      63.035  31.996  60.324  1.00  0.00     0.181 C 
BRANCH   6   7
ATOM      7  C   UNL     1      63.237  30.530  60.769  1.00  0.00     0.209 C 
BRANCH   7   8
ATOM      8  C   UNL     1      62.029  30.025  61.515  1.00  0.00     0.258 C 
ATOM      9  O   UNL     1      61.071  30.757  61.715  1.00  0.00    -0.300 OA
ENDBRANCH   7   8
BRANCH   7  10
ATOM     10  O   UNL     1      64.362  30.441  61.606  1.00  0.00    -0.383 OA
ATOM     11  H   UNL     1      64.043  30.585  62.535  1.00  0.00     0.211 HD
ENDBRANCH   7  10
ENDBRANCH   6   7
BRANCH   6  12
ATOM     12  O   UNL     1      62.552  32.016  59.002  1.00  0.00    -0.387 OA
ATOM     13  H   UNL     1      63.093  32.681  58.499  1.00  0.00     0.211 HD
ENDBRANCH   6  12
ENDBRANCH   1   6
BRANCH   1  14
ATOM     14  O   UNL     1      65.282  32.407  59.441  1.00  0.00    -0.388 OA
ATOM     15  H   UNL     1      64.793  32.312  58.582  1.00  0.00     0.211 HD
ENDBRANCH   1  14
TORSDOF 8
ENDMDL
MODEL 6
REMARK VINA RESULT:    -3.211      1.634      4.668
REMARK INTER + INTRA:          -4.828
REMARK INTER:                  -4.107
REMARK INTRA:                  -0.721
REMARK UNBOUND:                -0.491
REMARK SMILES C[C@H](O)[C@H](O)[C@@H](O)[C@@H](O)C=O
REMARK SMILES IDX 4 1 2 2 1 3 3 4 6 6 8 7 10 8 11 9 9 10 7 12 5 14
REMARK H PARENT 3 5 9 11 7 13 5 15
REMARK Flexibility Score: inf
ROOT
ATOM      1  C   UNL     1      56.057  19.781  52.396  1.00  0.00     0.174 C 
ENDROOT
BRANCH   1   2
ATOM      2  C   UNL     1      54.702  20.388  51.940  1.00  0.00     0.142 C 
ATOM      3  C   UNL     1      54.338  21.654  52.722  1.00  0.00     0.041 C 
BRANCH   2   4
ATOM      4  O   UNL     1      53.657  19.457  52.063  1.00  0.00    -0.391 OA
ATOM      5  H   UNL     1      54.070  18.554  52.079  1.00  0.00     0.211 HD
ENDBRANCH   2   4
ENDBRANCH   1   2
BRANCH   1   6
ATOM      6  C   UNL     1      56.648  18.711  51.430  1.00  0.00     0.181 C 
BRANCH   6   7
ATOM      7  C   UNL     1      58.103  19.048  51.033  1.00  0.00     0.209 C 
BRANCH   7   8
ATOM      8  C   UNL     1      58.522  18.261  49.817  1.00  0.00     0.258 C 
ATOM      9  O   UNL     1      58.475  17.040  49.820  1.00  0.00    -0.300 OA
ENDBRANCH   7   8
BRANCH   7  10
ATOM     10  O   UNL     1      58.967  18.741  52.097  1.00  0.00    -0.383 OA
ATOM     11  H   UNL     1      58.409  18.697  52.917  1.00  0.00     0.211 HD
ENDBRANCH   7  10
ENDBRANCH   6   7
BRANCH   6  12
ATOM     12  O   UNL     1      55.860  18.621  50.267  1.00  0.00    -0.387 OA
ATOM     13  H   UNL     1      56.109  19.383  49.681  1.00  0.00     0.211 HD
ENDBRANCH   6  12
ENDBRANCH   1   6
BRANCH   1  14
ATOM     14  O   UNL     1      56.987  20.807  52.652  1.00  0.00    -0.388 OA
ATOM     15  H   UNL     1      57.819  20.386  52.993  1.00  0.00     0.211 HD
ENDBRANCH   1  14
TORSDOF 8
ENDMDL
MODEL 7
REMARK VINA RESULT:    -3.207     20.619     21.776
REMARK INTER + INTRA:          -4.822
REMARK INTER:                  -4.067
REMARK INTRA:                  -0.754
REMARK UNBOUND:                -0.491
REMARK SMILES C[C@H](O)[C@H](O)[C@@H](O)[C@@H](O)C=O
REMARK SMILES IDX 4 1 2 2 1 3 3 4 6 6 8 7 10 8 11 9 9 10 7 12 5 14
REMARK H PARENT 3 5 9 11 7 13 5 15
REMARK Flexibility Score: inf
ROOT
ATOM      1  C   UNL     1      71.328  33.421  58.017  1.00  0.00     0.174 C 
ENDROOT
BRANCH   1   2
ATOM      2  C   UNL     1      72.070  32.607  59.113  1.00  0.00     0.142 C 
ATOM      3  C   UNL     1      71.314  31.334  59.506  1.00  0.00     0.041 C 
BRANCH   2   4
ATOM      4  O   UNL     1      72.293  33.382  60.263  1.00  0.00    -0.391 OA
ATOM      5  H   UNL     1      71.557  33.181  60.898  1.00  0.00     0.211 HD
ENDBRANCH   2   4
ENDBRANCH   1   2
BRANCH   1   6
ATOM      6  C   UNL     1      70.480  34.612  58.554  1.00  0.00     0.181 C 
BRANCH   6   7
ATOM      7  C   UNL     1      69.428  35.071  57.520  1.00  0.00     0.209 C 
BRANCH   7   8
ATOM      8  C   UNL     1      69.853  36.357  56.858  1.00  0.00     0.258 C 
ATOM      9  O   UNL     1      70.834  36.387  56.131  1.00  0.00    -0.300 OA
ENDBRANCH   7   8
BRANCH   7  10
ATOM     10  O   UNL     1      68.193  35.270  58.158  1.00  0.00    -0.383 OA
ATOM     11  H   UNL     1      67.780  34.375  58.272  1.00  0.00     0.211 HD
ENDBRANCH   7  10
ENDBRANCH   6   7
BRANCH   6  12
ATOM     12  O   UNL     1      71.318  35.697  58.875  1.00  0.00    -0.387 OA
ATOM     13  H   UNL     1      70.746  36.406  59.269  1.00  0.00     0.211 HD
ENDBRANCH   6  12
ENDBRANCH   1   6
BRANCH   1  14
ATOM     14  O   UNL     1      72.237  33.845  57.029  1.00  0.00    -0.388 OA
ATOM     15  H   UNL     1      72.833  34.527  57.436  1.00  0.00     0.211 HD
ENDBRANCH   1  14
TORSDOF 8
ENDMDL
MODEL 8
REMARK VINA RESULT:    -3.150      1.574      3.977
REMARK INTER + INTRA:          -4.745
REMARK INTER:                  -4.197
REMARK INTRA:                  -0.548
REMARK UNBOUND:                -0.491
REMARK SMILES C[C@H](O)[C@H](O)[C@@H](O)[C@@H](O)C=O
REMARK SMILES IDX 4 1 2 2 1 3 3 4 6 6 8 7 10 8 11 9 9 10 7 12 5 14
REMARK H PARENT 3 5 9 11 7 13 5 15
REMARK Flexibility Score: inf
ROOT
ATOM      1  C   UNL     1      58.685  17.876  50.831  1.00  0.00     0.174 C 
ENDROOT
BRANCH   1   2
ATOM      2  C   UNL     1      57.444  18.793  50.650  1.00  0.00     0.142 C 
ATOM      3  C   UNL     1      56.738  19.088  51.977  1.00  0.00     0.041 C 
BRANCH   2   4
ATOM      4  O   UNL     1      56.520  18.232  49.754  1.00  0.00    -0.391 OA
ATOM      5  H   UNL     1      56.869  18.388  48.838  1.00  0.00     0.211 HD
ENDBRANCH   2   4
ENDBRANCH   1   2
BRANCH   1   6
ATOM      6  C   UNL     1      59.834  18.127  49.809  1.00  0.00     0.181 C 
BRANCH   6   7
ATOM      7  C   UNL     1      60.937  19.029  50.406  1.00  0.00     0.209 C 
BRANCH   7   8
ATOM      8  C   UNL     1      60.630  20.484  50.161  1.00  0.00     0.258 C 
ATOM      9  O   UNL     1      60.953  21.019  49.112  1.00  0.00    -0.300 OA
ENDBRANCH   7   8
BRANCH   7  10
ATOM     10  O   UNL     1      62.173  18.716  49.818  1.00  0.00    -0.383 OA
ATOM     11  H   UNL     1      62.853  19.300  50.246  1.00  0.00     0.211 HD
ENDBRANCH   7  10
ENDBRANCH   6   7
BRANCH   6  12
ATOM     12  O   UNL     1      59.322  18.730  48.645  1.00  0.00    -0.387 OA
ATOM     13  H   UNL     1      58.537  19.276  48.915  1.00  0.00     0.211 HD
ENDBRANCH   6  12
ENDBRANCH   1   6
BRANCH   1  14
ATOM     14  O   UNL     1      59.155  17.951  52.157  1.00  0.00    -0.388 OA
ATOM     15  H   UNL     1      59.034  18.886  52.471  1.00  0.00     0.211 HD
ENDBRANCH   1  14
TORSDOF 8
ENDMDL
MODEL 9
REMARK VINA RESULT:    -3.118     20.220     21.478
REMARK INTER + INTRA:          -4.702
REMARK INTER:                  -4.042
REMARK INTRA:                  -0.660
REMARK UNBOUND:                -0.491
REMARK SMILES C[C@H](O)[C@H](O)[C@@H](O)[C@@H](O)C=O
REMARK SMILES IDX 4 1 2 2 1 3 3 4 6 6 8 7 10 8 11 9 9 10 7 12 5 14
REMARK H PARENT 3 5 9 11 7 13 5 15
REMARK Flexibility Score: inf
ROOT
ATOM      1  C   UNL     1      71.017  33.112  58.218  1.00  0.00     0.174 C 
ENDROOT
BRANCH   1   2
ATOM      2  C   UNL     1      70.520  34.580  58.327  1.00  0.00     0.142 C 
ATOM      3  C   UNL     1      70.625  35.332  56.997  1.00  0.00     0.041 C 
BRANCH   2   4
ATOM      4  O   UNL     1      71.229  35.288  59.312  1.00  0.00    -0.391 OA
ATOM      5  H   UNL     1      72.004  34.726  59.575  1.00  0.00     0.211 HD
ENDBRANCH   2   4
ENDBRANCH   1   2
BRANCH   1   6
ATOM      6  C   UNL     1      71.879  32.626  59.421  1.00  0.00     0.181 C 
BRANCH   6   7
ATOM      7  C   UNL     1      72.157  31.108  59.343  1.00  0.00     0.209 C 
BRANCH   7   8
ATOM      8  C   UNL     1      73.125  30.685  60.417  1.00  0.00     0.258 C 
ATOM      9  O   UNL     1      72.743  30.511  61.565  1.00  0.00    -0.300 OA
ENDBRANCH   7   8
BRANCH   7  10
ATOM     10  O   UNL     1      72.699  30.791  58.086  1.00  0.00    -0.383 OA
ATOM     11  H   UNL     1      73.572  31.260  58.023  1.00  0.00     0.211 HD
ENDBRANCH   7  10
ENDBRANCH   6   7
BRANCH   6  12
ATOM     12  O   UNL     1      71.223  32.914  60.633  1.00  0.00    -0.387 OA
ATOM     13  H   UNL     1      70.417  32.336  60.679  1.00  0.00     0.211 HD
ENDBRANCH   6  12
ENDBRANCH   1   6
BRANCH   1  14
ATOM     14  O   UNL     1      69.930  32.248  57.986  1.00  0.00    -0.388 OA
ATOM     15  H   UNL     1      70.004  31.487  58.619  1.00  0.00     0.211 HD
ENDBRANCH   1  14
TORSDOF 8
ENDMDL
