MODEL 1
REMARK VINA RESULT:    -3.741      0.000      0.000
REMARK INTER + INTRA:          -4.084
REMARK INTER:                  -4.069
REMARK INTRA:                  -0.015
REMARK UNBOUND:                -0.015
REMARK SMILES OCc1ccco1
REMARK SMILES IDX 2 1 3 2 5 3 6 4 4 5 7 6 1 7
REMARK H PARENT 1 8
REMARK Flexibility Score: inf
ROOT
ATOM      1  C   UNL     1     -13.567  16.430 -20.129  1.00  0.00     0.231 C 
ENDROOT
BRANCH   1   2
ATOM      2  C   UNL     1     -12.299  15.681 -19.867  1.00  0.00     0.129 A 
ATOM      3  C   UNL     1     -10.374  14.658 -20.126  1.00  0.00     0.042 A 
ATOM      4  C   UNL     1     -10.813  14.569 -18.819  1.00  0.00     0.195 A 
ATOM      5  C   UNL     1     -11.335  15.374 -20.805  1.00  0.00     0.048 A 
ATOM      6  O   UNL     1     -11.966  15.186 -18.698  1.00  0.00    -0.467 OA
ENDBRANCH   1   2
BRANCH   1   7
ATOM      7  O   UNL     1     -13.572  17.632 -19.410  1.00  0.00    -0.388 OA
ATOM      8  H   UNL     1     -13.535  18.365 -20.080  1.00  0.00     0.211 HD
ENDBRANCH   1   7
TORSDOF 2
ENDMDL
MODEL 2
REMARK VINA RESULT:    -3.618     10.361     11.138
REMARK INTER + INTRA:          -3.951
REMARK INTER:                  -3.936
REMARK INTRA:                  -0.014
REMARK UNBOUND:                -0.015
REMARK SMILES OCc1ccco1
REMARK SMILES IDX 2 1 3 2 5 3 6 4 4 5 7 6 1 7
REMARK H PARENT 1 8
REMARK Flexibility Score: inf
ROOT
ATOM      1  C   UNL     1     -19.229  15.994 -29.714  1.00  0.00     0.231 C 
ENDROOT
BRANCH   1   2
ATOM      2  C   UNL     1     -18.679  14.899 -28.857  1.00  0.00     0.129 A 
ATOM      3  C   UNL     1     -17.474  13.770 -27.410  1.00  0.00     0.042 A 
ATOM      4  C   UNL     1     -18.377  12.947 -28.054  1.00  0.00     0.195 A 
ATOM      5  C   UNL     1     -17.665  15.031 -27.931  1.00  0.00     0.048 A 
ATOM      6  O   UNL     1     -19.079  13.650 -28.914  1.00  0.00    -0.467 OA
ENDBRANCH   1   2
BRANCH   1   7
ATOM      7  O   UNL     1     -19.262  17.196 -28.995  1.00  0.00    -0.388 OA
ATOM      8  H   UNL     1     -19.182  17.928 -29.661  1.00  0.00     0.211 HD
ENDBRANCH   1   7
TORSDOF 2
ENDMDL
MODEL 3
REMARK VINA RESULT:    -3.572     10.407     11.309
REMARK INTER + INTRA:          -3.900
REMARK INTER:                  -3.886
REMARK INTRA:                  -0.014
REMARK UNBOUND:                -0.015
REMARK SMILES OCc1ccco1
REMARK SMILES IDX 2 1 3 2 5 3 6 4 4 5 7 6 1 7
REMARK H PARENT 1 8
REMARK Flexibility Score: inf
ROOT
ATOM      1  C   UNL     1     -17.428  15.141 -27.477  1.00  0.00     0.231 C 
ENDROOT
BRANCH   1   2
ATOM      2  C   UNL     1     -18.241  14.257 -28.368  1.00  0.00     0.129 A 
ATOM      3  C   UNL     1     -19.436  13.496 -30.046  1.00  0.00     0.042 A 
ATOM      4  C   UNL     1     -19.341  12.558 -29.036  1.00  0.00     0.195 A 
ATOM      5  C   UNL     1     -18.727  14.596 -29.614  1.00  0.00     0.048 A 
ATOM      6  O   UNL     1     -18.626  13.043 -28.048  1.00  0.00    -0.467 OA
ENDBRANCH   1   2
BRANCH   1   7
ATOM      7  O   UNL     1     -18.149  16.301 -27.164  1.00  0.00    -0.388 OA
ATOM      8  H   UNL     1     -17.931  16.525 -26.221  1.00  0.00     0.211 HD
ENDBRANCH   1   7
TORSDOF 2
ENDMDL
MODEL 4
REMARK VINA RESULT:    -3.545      1.562      1.909
REMARK INTER + INTRA:          -3.871
REMARK INTER:                  -3.854
REMARK INTRA:                  -0.017
REMARK UNBOUND:                -0.015
REMARK SMILES OCc1ccco1
REMARK SMILES IDX 2 1 3 2 5 3 6 4 4 5 7 6 1 7
REMARK H PARENT 1 8
REMARK Flexibility Score: inf
ROOT
ATOM      1  C   UNL     1     -13.142  17.868 -19.364  1.00  0.00     0.231 C 
ENDROOT
BRANCH   1   2
ATOM      2  C   UNL     1     -12.970  16.468 -19.861  1.00  0.00     0.129 A 
ATOM      3  C   UNL     1     -12.098  14.608 -20.636  1.00  0.00     0.042 A 
ATOM      4  C   UNL     1     -13.470  14.504 -20.523  1.00  0.00     0.195 A 
ATOM      5  C   UNL     1     -11.773  15.878 -20.212  1.00  0.00     0.048 A 
ATOM      6  O   UNL     1     -13.962  15.632 -20.062  1.00  0.00    -0.467 OA
ENDBRANCH   1   2
BRANCH   1   7
ATOM      7  O   UNL     1     -14.011  17.884 -18.265  1.00  0.00    -0.388 OA
ATOM      8  H   UNL     1     -13.582  17.338 -17.556  1.00  0.00     0.211 HD
ENDBRANCH   1   7
TORSDOF 2
ENDMDL
MODEL 5
REMARK VINA RESULT:    -3.503      1.690      3.177
REMARK INTER + INTRA:          -3.825
REMARK INTER:                  -3.810
REMARK INTRA:                  -0.014
REMARK UNBOUND:                -0.015
REMARK SMILES OCc1ccco1
REMARK SMILES IDX 2 1 3 2 5 3 6 4 4 5 7 6 1 7
REMARK H PARENT 1 8
REMARK Flexibility Score: inf
ROOT
ATOM      1  C   UNL     1     -10.384  14.740 -20.216  1.00  0.00     0.231 C 
ENDROOT
BRANCH   1   2
ATOM      2  C   UNL     1     -11.808  15.194 -20.259  1.00  0.00     0.129 A 
ATOM      3  C   UNL     1     -13.623  16.426 -20.152  1.00  0.00     0.042 A 
ATOM      4  C   UNL     1     -13.932  15.107 -20.420  1.00  0.00     0.195 A 
ATOM      5  C   UNL     1     -12.250  16.483 -20.044  1.00  0.00     0.048 A 
ATOM      6  O   UNL     1     -12.828  14.396 -20.474  1.00  0.00    -0.467 OA
ENDBRANCH   1   2
BRANCH   1   7
ATOM      7  O   UNL     1     -10.052  14.322 -18.920  1.00  0.00    -0.388 OA
ATOM      8  H   UNL     1     -10.299  15.065 -18.310  1.00  0.00     0.211 HD
ENDBRANCH   1   7
TORSDOF 2
ENDMDL
MODEL 6
REMARK VINA RESULT:    -3.391     10.752     11.591
REMARK INTER + INTRA:          -3.703
REMARK INTER:                  -3.688
REMARK INTRA:                  -0.015
REMARK UNBOUND:                -0.015
REMARK SMILES OCc1ccco1
REMARK SMILES IDX 2 1 3 2 5 3 6 4 4 5 7 6 1 7
REMARK H PARENT 1 8
REMARK Flexibility Score: inf
ROOT
ATOM      1  C   UNL     1     -19.282  15.865 -30.051  1.00  0.00     0.231 C 
ENDROOT
BRANCH   1   2
ATOM      2  C   UNL     1     -18.746  14.830 -29.114  1.00  0.00     0.129 A 
ATOM      3  C   UNL     1     -18.438  12.960 -28.006  1.00  0.00     0.042 A 
ATOM      4  C   UNL     1     -17.580  13.947 -27.563  1.00  0.00     0.195 A 
ATOM      5  C   UNL     1     -19.195  13.530 -29.006  1.00  0.00     0.048 A 
ATOM      6  O   UNL     1     -17.791  15.052 -28.241  1.00  0.00    -0.467 OA
ENDBRANCH   1   2
BRANCH   1   7
ATOM      7  O   UNL     1     -20.661  15.685 -30.227  1.00  0.00    -0.388 OA
ATOM      8  H   UNL     1     -20.779  15.241 -31.107  1.00  0.00     0.211 HD
ENDBRANCH   1   7
TORSDOF 2
ENDMDL
MODEL 7
REMARK VINA RESULT:    -3.330     10.542     11.648
REMARK INTER + INTRA:          -3.637
REMARK INTER:                  -3.621
REMARK INTRA:                  -0.016
REMARK UNBOUND:                -0.015
REMARK SMILES OCc1ccco1
REMARK SMILES IDX 2 1 3 2 5 3 6 4 4 5 7 6 1 7
REMARK H PARENT 1 8
REMARK Flexibility Score: inf
ROOT
ATOM      1  C   UNL     1     -17.277  14.850 -27.497  1.00  0.00     0.231 C 
ENDROOT
BRANCH   1   2
ATOM      2  C   UNL     1     -18.314  14.765 -28.571  1.00  0.00     0.129 A 
ATOM      3  C   UNL     1     -19.717  14.004 -30.078  1.00  0.00     0.042 A 
ATOM      4  C   UNL     1     -19.696  15.384 -30.070  1.00  0.00     0.195 A 
ATOM      5  C   UNL     1     -18.821  13.601 -29.112  1.00  0.00     0.048 A 
ATOM      6  O   UNL     1     -18.846  15.808 -29.163  1.00  0.00    -0.467 OA
ENDBRANCH   1   2
BRANCH   1   7
ATOM      7  O   UNL     1     -16.718  13.586 -27.268  1.00  0.00    -0.388 OA
ATOM      8  H   UNL     1     -16.189  13.357 -28.077  1.00  0.00     0.211 HD
ENDBRANCH   1   7
TORSDOF 2
ENDMDL
MODEL 8
REMARK VINA RESULT:    -3.245     10.261     10.970
REMARK INTER + INTRA:          -3.544
REMARK INTER:                  -3.529
REMARK INTRA:                  -0.015
REMARK UNBOUND:                -0.015
REMARK SMILES OCc1ccco1
REMARK SMILES IDX 2 1 3 2 5 3 6 4 4 5 7 6 1 7
REMARK H PARENT 1 8
REMARK Flexibility Score: inf
ROOT
ATOM      1  C   UNL     1     -19.472  11.783 -27.352  1.00  0.00     0.231 C 
ENDROOT
BRANCH   1   2
ATOM      2  C   UNL     1     -18.713  13.012 -27.735  1.00  0.00     0.129 A 
ATOM      3  C   UNL     1     -17.209  14.609 -27.820  1.00  0.00     0.042 A 
ATOM      4  C   UNL     1     -18.243  14.853 -28.702  1.00  0.00     0.195 A 
ATOM      5  C   UNL     1     -17.513  13.421 -27.192  1.00  0.00     0.048 A 
ATOM      6  O   UNL     1     -19.127  13.885 -28.625  1.00  0.00    -0.467 OA
ENDBRANCH   1   2
BRANCH   1   7
ATOM      7  O   UNL     1     -20.576  12.126 -26.560  1.00  0.00    -0.388 OA
ATOM      8  H   UNL     1     -21.323  12.324 -27.184  1.00  0.00     0.211 HD
ENDBRANCH   1   7
TORSDOF 2
ENDMDL
MODEL 9
REMARK VINA RESULT:    -3.140      1.222      2.904
REMARK INTER + INTRA:          -3.431
REMARK INTER:                  -3.410
REMARK INTRA:                  -0.021
REMARK UNBOUND:                -0.015
REMARK SMILES OCc1ccco1
REMARK SMILES IDX 2 1 3 2 5 3 6 4 4 5 7 6 1 7
REMARK H PARENT 1 8
REMARK Flexibility Score: inf
ROOT
ATOM      1  C   UNL     1     -10.654  14.001 -17.450  1.00  0.00     0.231 C 
ENDROOT
BRANCH   1   2
ATOM      2  C   UNL     1     -11.042  14.620 -18.755  1.00  0.00     0.129 A 
ATOM      3  C   UNL     1     -11.038  15.278 -20.849  1.00  0.00     0.042 A 
ATOM      4  C   UNL     1     -12.144  15.762 -20.178  1.00  0.00     0.195 A 
ATOM      5  C   UNL     1     -10.323  14.542 -19.930  1.00  0.00     0.048 A 
ATOM      6  O   UNL     1     -12.115  15.356 -18.929  1.00  0.00    -0.467 OA
ENDBRANCH   1   2
BRANCH   1   7
ATOM      7  O   UNL     1     -11.745  14.008 -16.571  1.00  0.00    -0.388 OA
ATOM      8  H   UNL     1     -12.349  14.737 -16.873  1.00  0.00     0.211 HD
ENDBRANCH   1   7
TORSDOF 2
ENDMDL
