MODEL 1
REMARK VINA RESULT:    -3.126      0.000      0.000
REMARK INTER + INTRA:          -7.466
REMARK INTER:                  -6.781
REMARK INTRA:                  -0.686
REMARK UNBOUND:                -0.686
REMARK SMILES CCCCCCCCCCCCCCCCCCCCCC(=O)[O-]
REMARK SMILES IDX 12 1 11 2 10 3 9 4 8 5 7 6 6 7 5 8 4 9 3 10 2 11 1 12 13 13
REMARK SMILES IDX 14 14 15 15 16 16 17 17 18 18 19 19 20 20 21 21 22 22 23 23
REMARK SMILES IDX 24 24
REMARK H PARENT
REMARK Flexibility Score: inf
ROOT
ATOM      1  C   UNL     1     121.223  69.319  -0.807  1.00  0.00     0.000 C 
ENDROOT
BRANCH   1   2
ATOM      2  C   UNL     1     120.612  70.599  -0.199  1.00  0.00     0.000 C 
BRANCH   2   3
ATOM      3  C   UNL     1     120.399  70.559   1.325  1.00  0.00     0.000 C 
BRANCH   3   4
ATOM      4  C   UNL     1     121.430  71.403   2.092  1.00  0.00    -0.000 C 
BRANCH   4   5
ATOM      5  C   UNL     1     121.236  72.912   1.874  1.00  0.00    -0.000 C 
BRANCH   5   6
ATOM      6  C   UNL     1     119.949  73.442   2.532  1.00  0.00    -0.000 C 
BRANCH   6   7
ATOM      7  C   UNL     1     120.053  73.478   4.071  1.00  0.00    -0.000 C 
BRANCH   7   8
ATOM      8  C   UNL     1     119.875  72.098   4.736  1.00  0.00    -0.000 C 
BRANCH   8   9
ATOM      9  C   UNL     1     120.756  71.857   5.975  1.00  0.00    -0.000 C 
BRANCH   9  10
ATOM     10  C   UNL     1     120.146  70.832   6.950  1.00  0.00    -0.000 C 
BRANCH  10  11
ATOM     11  C   UNL     1     120.526  71.116   8.411  1.00  0.00    -0.003 C 
ATOM     12  C   UNL     1     120.466  72.603   8.762  1.00  0.00     0.004 C 
ENDBRANCH  10  11
ENDBRANCH   9  10
ENDBRANCH   8   9
ENDBRANCH   7   8
ENDBRANCH   6   7
ENDBRANCH   5   6
ENDBRANCH   4   5
ENDBRANCH   3   4
ENDBRANCH   2   3
ENDBRANCH   1   2
BRANCH   1  13
ATOM     13  C   UNL     1     120.209  68.329  -1.409  1.00  0.00     0.000 C 
BRANCH  13  14
ATOM     14  C   UNL     1     120.020  68.515  -2.924  1.00  0.00     0.000 C 
BRANCH  14  15
ATOM     15  C   UNL     1     120.157  67.193  -3.699  1.00  0.00     0.000 C 
BRANCH  15  16
ATOM     16  C   UNL     1     120.005  67.382  -5.219  1.00  0.00     0.000 C 
BRANCH  16  17
ATOM     17  C   UNL     1     120.555  68.738  -5.706  1.00  0.00     0.000 C 
BRANCH  17  18
ATOM     18  C   UNL     1     120.224  69.068  -7.174  1.00  0.00     0.000 C 
BRANCH  18  19
ATOM     19  C   UNL     1     119.880  67.813  -8.000  1.00  0.00     0.000 C 
BRANCH  19  20
ATOM     20  C   UNL     1     120.989  67.434  -8.994  1.00  0.00     0.006 C 
BRANCH  20  21
ATOM     21  C   UNL     1     121.797  66.209  -8.549  1.00  0.00     0.053 C 
BRANCH  21  22
ATOM     22  C   UNL     1     120.903  65.200  -7.899  1.00  0.00     0.041 C 
ATOM     23  O   UNL     1     119.876  64.783  -8.498  1.00  0.00    -0.550 OA
ATOM     24  O   UNL     1     121.225  64.689  -6.648  1.00  0.00    -0.550 OA
ENDBRANCH  21  22
ENDBRANCH  20  21
ENDBRANCH  19  20
ENDBRANCH  18  19
ENDBRANCH  17  18
ENDBRANCH  16  17
ENDBRANCH  15  16
ENDBRANCH  14  15
ENDBRANCH  13  14
ENDBRANCH   1  13
TORSDOF 20
ENDMDL
MODEL 2
REMARK VINA RESULT:    -3.036      1.251      2.327
REMARK INTER + INTRA:          -7.272
REMARK INTER:                  -6.564
REMARK INTRA:                  -0.709
REMARK UNBOUND:                -0.686
REMARK SMILES CCCCCCCCCCCCCCCCCCCCCC(=O)[O-]
REMARK SMILES IDX 12 1 11 2 10 3 9 4 8 5 7 6 6 7 5 8 4 9 3 10 2 11 1 12 13 13
REMARK SMILES IDX 14 14 15 15 16 16 17 17 18 18 19 19 20 20 21 21 22 22 23 23
REMARK SMILES IDX 24 24
REMARK H PARENT
REMARK Flexibility Score: inf
ROOT
ATOM      1  C   UNL     1     120.469  70.924   0.759  1.00  0.00     0.000 C 
ENDROOT
BRANCH   1   2
ATOM      2  C   UNL     1     120.636  72.421   1.095  1.00  0.00     0.000 C 
BRANCH   2   3
ATOM      3  C   UNL     1     119.980  72.868   2.414  1.00  0.00     0.000 C 
BRANCH   3   4
ATOM      4  C   UNL     1     120.016  71.777   3.496  1.00  0.00    -0.000 C 
BRANCH   4   5
ATOM      5  C   UNL     1     120.729  72.240   4.777  1.00  0.00    -0.000 C 
BRANCH   5   6
ATOM      6  C   UNL     1     119.882  73.228   5.599  1.00  0.00    -0.000 C 
BRANCH   6   7
ATOM      7  C   UNL     1     120.072  73.035   7.118  1.00  0.00    -0.000 C 
BRANCH   7   8
ATOM      8  C   UNL     1     120.424  71.588   7.520  1.00  0.00    -0.000 C 
BRANCH   8   9
ATOM      9  C   UNL     1     119.922  71.161   8.910  1.00  0.00    -0.000 C 
BRANCH   9  10
ATOM     10  C   UNL     1     120.675  71.861  10.057  1.00  0.00    -0.000 C 
BRANCH  10  11
ATOM     11  C   UNL     1     119.885  73.042  10.640  1.00  0.00    -0.003 C 
ATOM     12  C   UNL     1     120.465  74.399  10.240  1.00  0.00     0.004 C 
ENDBRANCH  10  11
ENDBRANCH   9  10
ENDBRANCH   8   9
ENDBRANCH   7   8
ENDBRANCH   6   7
ENDBRANCH   5   6
ENDBRANCH   4   5
ENDBRANCH   3   4
ENDBRANCH   2   3
ENDBRANCH   1   2
BRANCH   1  13
ATOM     13  C   UNL     1     119.885  70.625  -0.635  1.00  0.00     0.000 C 
BRANCH  13  14
ATOM     14  C   UNL     1     120.721  69.605  -1.426  1.00  0.00     0.000 C 
BRANCH  14  15
ATOM     15  C   UNL     1     119.928  68.963  -2.578  1.00  0.00     0.000 C 
BRANCH  15  16
ATOM     16  C   UNL     1     120.108  69.714  -3.908  1.00  0.00     0.000 C 
BRANCH  16  17
ATOM     17  C   UNL     1     120.023  68.781  -5.133  1.00  0.00     0.000 C 
BRANCH  17  18
ATOM     18  C   UNL     1     120.785  69.287  -6.372  1.00  0.00     0.000 C 
BRANCH  18  19
ATOM     19  C   UNL     1     120.374  68.549  -7.661  1.00  0.00     0.000 C 
BRANCH  19  20
ATOM     20  C   UNL     1     120.295  67.026  -7.475  1.00  0.00     0.006 C 
BRANCH  20  21
ATOM     21  C   UNL     1     120.823  66.247  -8.686  1.00  0.00     0.053 C 
BRANCH  21  22
ATOM     22  C   UNL     1     120.973  64.797  -8.350  1.00  0.00     0.041 C 
ATOM     23  O   UNL     1     120.330  64.298  -7.389  1.00  0.00    -0.550 OA
ATOM     24  O   UNL     1     121.793  63.985  -9.125  1.00  0.00    -0.550 OA
ENDBRANCH  21  22
ENDBRANCH  20  21
ENDBRANCH  19  20
ENDBRANCH  18  19
ENDBRANCH  17  18
ENDBRANCH  16  17
ENDBRANCH  15  16
ENDBRANCH  14  15
ENDBRANCH  13  14
ENDBRANCH   1  13
TORSDOF 20
ENDMDL
MODEL 3
REMARK VINA RESULT:    -2.856      5.698     13.012
REMARK INTER + INTRA:          -6.881
REMARK INTER:                  -5.771
REMARK INTRA:                  -1.111
REMARK UNBOUND:                -0.686
REMARK SMILES CCCCCCCCCCCCCCCCCCCCCC(=O)[O-]
REMARK SMILES IDX 12 1 11 2 10 3 9 4 8 5 7 6 6 7 5 8 4 9 3 10 2 11 1 12 13 13
REMARK SMILES IDX 14 14 15 15 16 16 17 17 18 18 19 19 20 20 21 21 22 22 23 23
REMARK SMILES IDX 24 24
REMARK H PARENT
REMARK Flexibility Score: inf
ROOT
ATOM      1  C   UNL     1     121.074  69.398   0.180  1.00  0.00     0.000 C 
ENDROOT
BRANCH   1   2
ATOM      2  C   UNL     1     120.873  69.678  -1.325  1.00  0.00     0.000 C 
BRANCH   2   3
ATOM      3  C   UNL     1     120.305  68.500  -2.136  1.00  0.00     0.000 C 
BRANCH   3   4
ATOM      4  C   UNL     1     119.882  68.908  -3.557  1.00  0.00    -0.000 C 
BRANCH   4   5
ATOM      5  C   UNL     1     120.777  70.010  -4.145  1.00  0.00    -0.000 C 
BRANCH   5   6
ATOM      6  C   UNL     1     120.633  70.137  -5.672  1.00  0.00    -0.000 C 
BRANCH   6   7
ATOM      7  C   UNL     1     120.206  68.807  -6.330  1.00  0.00    -0.000 C 
BRANCH   7   8
ATOM      8  C   UNL     1     120.975  68.482  -7.626  1.00  0.00    -0.000 C 
BRANCH   8   9
ATOM      9  C   UNL     1     121.534  67.050  -7.705  1.00  0.00    -0.000 C 
BRANCH   9  10
ATOM     10  C   UNL     1     120.746  66.053  -6.836  1.00  0.00    -0.000 C 
BRANCH  10  11
ATOM     11  C   UNL     1     121.114  64.593  -7.140  1.00  0.00    -0.003 C 
ATOM     12  C   UNL     1     121.760  64.417  -8.514  1.00  0.00     0.004 C 
ENDBRANCH  10  11
ENDBRANCH   9  10
ENDBRANCH   8   9
ENDBRANCH   7   8
ENDBRANCH   6   7
ENDBRANCH   5   6
ENDBRANCH   4   5
ENDBRANCH   3   4
ENDBRANCH   2   3
ENDBRANCH   1   2
BRANCH   1  13
ATOM     13  C   UNL     1     120.515  70.474   1.129  1.00  0.00     0.000 C 
BRANCH  13  14
ATOM     14  C   UNL     1     121.567  71.001   2.120  1.00  0.00     0.000 C 
BRANCH  14  15
ATOM     15  C   UNL     1     121.338  72.475   2.493  1.00  0.00     0.000 C 
BRANCH  15  16
ATOM     16  C   UNL     1     119.910  72.740   3.001  1.00  0.00     0.000 C 
BRANCH  16  17
ATOM     17  C   UNL     1     119.875  73.717   4.193  1.00  0.00     0.000 C 
BRANCH  17  18
ATOM     18  C   UNL     1     120.603  73.209   5.452  1.00  0.00     0.000 C 
BRANCH  18  19
ATOM     19  C   UNL     1     119.885  72.014   6.108  1.00  0.00     0.000 C 
BRANCH  19  20
ATOM     20  C   UNL     1     120.292  71.809   7.576  1.00  0.00     0.006 C 
BRANCH  20  21
ATOM     21  C   UNL     1     120.813  73.092   8.236  1.00  0.00     0.053 C 
BRANCH  21  22
ATOM     22  C   UNL     1     120.345  73.177   9.655  1.00  0.00     0.041 C 
ATOM     23  O   UNL     1     120.108  74.297  10.180  1.00  0.00    -0.550 OA
ATOM     24  O   UNL     1     120.130  72.015  10.387  1.00  0.00    -0.550 OA
ENDBRANCH  21  22
ENDBRANCH  20  21
ENDBRANCH  19  20
ENDBRANCH  18  19
ENDBRANCH  17  18
ENDBRANCH  16  17
ENDBRANCH  15  16
ENDBRANCH  14  15
ENDBRANCH  13  14
ENDBRANCH   1  13
TORSDOF 20
ENDMDL
MODEL 4
REMARK VINA RESULT:    -2.838      1.218      2.163
REMARK INTER + INTRA:          -6.841
REMARK INTER:                  -7.287
REMARK INTRA:                   0.446
REMARK UNBOUND:                -0.686
REMARK SMILES CCCCCCCCCCCCCCCCCCCCCC(=O)[O-]
REMARK SMILES IDX 12 1 11 2 10 3 9 4 8 5 7 6 6 7 5 8 4 9 3 10 2 11 1 12 13 13
REMARK SMILES IDX 14 14 15 15 16 16 17 17 18 18 19 19 20 20 21 21 22 22 23 23
REMARK SMILES IDX 24 24
REMARK H PARENT
REMARK Flexibility Score: inf
ROOT
ATOM      1  C   UNL     1     120.413  70.333   0.204  1.00  0.00     0.000 C 
ENDROOT
BRANCH   1   2
ATOM      2  C   UNL     1     120.247  71.330   1.370  1.00  0.00     0.000 C 
BRANCH   2   3
ATOM      3  C   UNL     1     120.974  72.674   1.185  1.00  0.00     0.000 C 
BRANCH   3   4
ATOM      4  C   UNL     1     120.822  73.603   2.401  1.00  0.00    -0.000 C 
BRANCH   4   5
ATOM      5  C   UNL     1     120.327  72.860   3.652  1.00  0.00    -0.000 C 
BRANCH   5   6
ATOM      6  C   UNL     1     120.903  71.437   3.759  1.00  0.00    -0.000 C 
BRANCH   6   7
ATOM      7  C   UNL     1     120.601  70.787   5.126  1.00  0.00    -0.000 C 
BRANCH   7   8
ATOM      8  C   UNL     1     119.915  71.739   6.126  1.00  0.00    -0.000 C 
BRANCH   8   9
ATOM      9  C   UNL     1     120.670  71.938   7.453  1.00  0.00    -0.000 C 
BRANCH   9  10
ATOM     10  C   UNL     1     120.395  73.312   8.093  1.00  0.00    -0.000 C 
BRANCH  10  11
ATOM     11  C   UNL     1     119.875  73.192   9.534  1.00  0.00    -0.003 C 
ATOM     12  C   UNL     1     120.461  74.252  10.467  1.00  0.00     0.004 C 
ENDBRANCH  10  11
ENDBRANCH   9  10
ENDBRANCH   8   9
ENDBRANCH   7   8
ENDBRANCH   6   7
ENDBRANCH   5   6
ENDBRANCH   4   5
ENDBRANCH   3   4
ENDBRANCH   2   3
ENDBRANCH   1   2
BRANCH   1  13
ATOM     13  C   UNL     1     120.070  68.869   0.538  1.00  0.00     0.000 C 
BRANCH  13  14
ATOM     14  C   UNL     1     120.537  67.883  -0.547  1.00  0.00     0.000 C 
BRANCH  14  15
ATOM     15  C   UNL     1     119.875  68.153  -1.909  1.00  0.00     0.000 C 
BRANCH  15  16
ATOM     16  C   UNL     1     120.788  68.945  -2.861  1.00  0.00     0.000 C 
BRANCH  16  17
ATOM     17  C   UNL     1     120.034  69.487  -4.093  1.00  0.00     0.000 C 
BRANCH  17  18
ATOM     18  C   UNL     1     120.830  69.411  -5.409  1.00  0.00     0.000 C 
BRANCH  18  19
ATOM     19  C   UNL     1     119.922  69.214  -6.639  1.00  0.00     0.000 C 
BRANCH  19  20
ATOM     20  C   UNL     1     120.514  68.233  -7.663  1.00  0.00     0.006 C 
BRANCH  20  21
ATOM     21  C   UNL     1     119.944  66.815  -7.531  1.00  0.00     0.053 C 
BRANCH  21  22
ATOM     22  C   UNL     1     121.051  65.811  -7.457  1.00  0.00     0.041 C 
ATOM     23  O   UNL     1     121.349  65.274  -6.357  1.00  0.00    -0.550 OA
ATOM     24  O   UNL     1     121.729  65.437  -8.611  1.00  0.00    -0.550 OA
ENDBRANCH  21  22
ENDBRANCH  20  21
ENDBRANCH  19  20
ENDBRANCH  18  19
ENDBRANCH  17  18
ENDBRANCH  16  17
ENDBRANCH  15  16
ENDBRANCH  14  15
ENDBRANCH  13  14
ENDBRANCH   1  13
TORSDOF 20
ENDMDL
MODEL 5
REMARK VINA RESULT:    -2.640      1.201      3.671
REMARK INTER + INTRA:          -6.413
REMARK INTER:                  -5.398
REMARK INTRA:                  -1.015
REMARK UNBOUND:                -0.686
REMARK SMILES CCCCCCCCCCCCCCCCCCCCCC(=O)[O-]
REMARK SMILES IDX 12 1 11 2 10 3 9 4 8 5 7 6 6 7 5 8 4 9 3 10 2 11 1 12 13 13
REMARK SMILES IDX 14 14 15 15 16 16 17 17 18 18 19 19 20 20 21 21 22 22 23 23
REMARK SMILES IDX 24 24
REMARK H PARENT
REMARK Flexibility Score: inf
ROOT
ATOM      1  C   UNL     1     121.399  72.817   1.214  1.00  0.00     0.000 C 
ENDROOT
BRANCH   1   2
ATOM      2  C   UNL     1     120.916  73.735   2.356  1.00  0.00     0.000 C 
BRANCH   2   3
ATOM      3  C   UNL     1     119.876  73.107   3.301  1.00  0.00     0.000 C 
BRANCH   3   4
ATOM      4  C   UNL     1     119.886  73.741   4.702  1.00  0.00    -0.000 C 
BRANCH   4   5
ATOM      5  C   UNL     1     120.007  72.695   5.821  1.00  0.00    -0.000 C 
BRANCH   5   6
ATOM      6  C   UNL     1     120.985  71.560   5.465  1.00  0.00    -0.000 C 
BRANCH   6   7
ATOM      7  C   UNL     1     120.876  70.369   6.440  1.00  0.00    -0.000 C 
BRANCH   7   8
ATOM      8  C   UNL     1     120.050  70.678   7.705  1.00  0.00    -0.000 C 
BRANCH   8   9
ATOM      9  C   UNL     1     120.807  71.445   8.803  1.00  0.00    -0.000 C 
BRANCH   9  10
ATOM     10  C   UNL     1     119.875  72.289   9.692  1.00  0.00    -0.000 C 
BRANCH  10  11
ATOM     11  C   UNL     1     120.154  73.795   9.570  1.00  0.00    -0.003 C 
ATOM     12  C   UNL     1     119.922  74.549  10.879  1.00  0.00     0.004 C 
ENDBRANCH  10  11
ENDBRANCH   9  10
ENDBRANCH   8   9
ENDBRANCH   7   8
ENDBRANCH   6   7
ENDBRANCH   5   6
ENDBRANCH   4   5
ENDBRANCH   3   4
ENDBRANCH   2   3
ENDBRANCH   1   2
BRANCH   1  13
ATOM     13  C   UNL     1     121.464  71.317   1.559  1.00  0.00     0.000 C 
BRANCH  13  14
ATOM     14  C   UNL     1     120.431  70.480   0.784  1.00  0.00     0.000 C 
BRANCH  14  15
ATOM     15  C   UNL     1     121.091  69.456  -0.155  1.00  0.00     0.000 C 
BRANCH  15  16
ATOM     16  C   UNL     1     120.063  68.557  -0.862  1.00  0.00     0.000 C 
BRANCH  16  17
ATOM     17  C   UNL     1     120.688  67.258  -1.411  1.00  0.00     0.000 C 
BRANCH  17  18
ATOM     18  C   UNL     1     119.883  66.594  -2.544  1.00  0.00     0.000 C 
BRANCH  18  19
ATOM     19  C   UNL     1     119.907  67.416  -3.847  1.00  0.00     0.000 C 
BRANCH  19  20
ATOM     20  C   UNL     1     119.882  66.534  -5.106  1.00  0.00     0.006 C 
BRANCH  20  21
ATOM     21  C   UNL     1     120.626  67.162  -6.291  1.00  0.00     0.053 C 
BRANCH  21  22
ATOM     22  C   UNL     1     120.835  66.149  -7.372  1.00  0.00     0.041 C 
ATOM     23  O   UNL     1     119.907  65.358  -7.690  1.00  0.00    -0.550 OA
ATOM     24  O   UNL     1     122.042  66.105  -8.060  1.00  0.00    -0.550 OA
ENDBRANCH  21  22
ENDBRANCH  20  21
ENDBRANCH  19  20
ENDBRANCH  18  19
ENDBRANCH  17  18
ENDBRANCH  16  17
ENDBRANCH  15  16
ENDBRANCH  14  15
ENDBRANCH  13  14
ENDBRANCH   1  13
TORSDOF 20
ENDMDL
MODEL 6
REMARK VINA RESULT:    -1.598      1.611      3.756
REMARK INTER + INTRA:          -4.152
REMARK INTER:                  -3.293
REMARK INTRA:                  -0.859
REMARK UNBOUND:                -0.686
REMARK SMILES CCCCCCCCCCCCCCCCCCCCCC(=O)[O-]
REMARK SMILES IDX 12 1 11 2 10 3 9 4 8 5 7 6 6 7 5 8 4 9 3 10 2 11 1 12 13 13
REMARK SMILES IDX 14 14 15 15 16 16 17 17 18 18 19 19 20 20 21 21 22 22 23 23
REMARK SMILES IDX 24 24
REMARK H PARENT
REMARK Flexibility Score: inf
ROOT
ATOM      1  C   UNL     1     120.778  70.764   2.594  1.00  0.00     0.000 C 
ENDROOT
BRANCH   1   2
ATOM      2  C   UNL     1     120.496  72.194   3.102  1.00  0.00     0.000 C 
BRANCH   2   3
ATOM      3  C   UNL     1     120.997  72.489   4.527  1.00  0.00     0.000 C 
BRANCH   3   4
ATOM      4  C   UNL     1     119.911  72.273   5.595  1.00  0.00    -0.000 C 
BRANCH   4   5
ATOM      5  C   UNL     1     119.951  70.859   6.197  1.00  0.00    -0.000 C 
BRANCH   5   6
ATOM      6  C   UNL     1     121.222  70.606   7.027  1.00  0.00    -0.000 C 
BRANCH   6   7
ATOM      7  C   UNL     1     120.900  70.272   8.499  1.00  0.00    -0.000 C 
BRANCH   7   8
ATOM      8  C   UNL     1     119.876  71.228   9.142  1.00  0.00    -0.000 C 
BRANCH   8   9
ATOM      9  C   UNL     1     120.002  71.383  10.668  1.00  0.00    -0.000 C 
BRANCH   9  10
ATOM     10  C   UNL     1     119.965  72.853  11.124  1.00  0.00    -0.000 C 
BRANCH  10  11
ATOM     11  C   UNL     1     119.878  73.830   9.941  1.00  0.00    -0.003 C 
ATOM     12  C   UNL     1     120.000  75.292  10.369  1.00  0.00     0.004 C 
ENDBRANCH  10  11
ENDBRANCH   9  10
ENDBRANCH   8   9
ENDBRANCH   7   8
ENDBRANCH   6   7
ENDBRANCH   5   6
ENDBRANCH   4   5
ENDBRANCH   3   4
ENDBRANCH   2   3
ENDBRANCH   1   2
BRANCH   1  13
ATOM     13  C   UNL     1     120.049  70.373   1.295  1.00  0.00     0.000 C 
BRANCH  13  14
ATOM     14  C   UNL     1     120.980  69.718   0.261  1.00  0.00     0.000 C 
BRANCH  14  15
ATOM     15  C   UNL     1     120.220  68.818  -0.727  1.00  0.00     0.000 C 
BRANCH  15  16
ATOM     16  C   UNL     1     119.877  69.541  -2.042  1.00  0.00     0.000 C 
BRANCH  16  17
ATOM     17  C   UNL     1     120.755  69.076  -3.221  1.00  0.00     0.000 C 
BRANCH  17  18
ATOM     18  C   UNL     1     120.504  69.835  -4.538  1.00  0.00     0.000 C 
BRANCH  18  19
ATOM     19  C   UNL     1     121.015  69.065  -5.771  1.00  0.00     0.000 C 
BRANCH  19  20
ATOM     20  C   UNL     1     119.878  68.605  -6.697  1.00  0.00     0.006 C 
BRANCH  20  21
ATOM     21  C   UNL     1     120.367  68.224  -8.100  1.00  0.00     0.053 C 
BRANCH  21  22
ATOM     22  C   UNL     1     121.625  67.418  -8.015  1.00  0.00     0.041 C 
ATOM     23  O   UNL     1     122.682  67.831  -8.563  1.00  0.00    -0.550 OA
ATOM     24  O   UNL     1     121.642  66.231  -7.293  1.00  0.00    -0.550 OA
ENDBRANCH  21  22
ENDBRANCH  20  21
ENDBRANCH  19  20
ENDBRANCH  18  19
ENDBRANCH  17  18
ENDBRANCH  16  17
ENDBRANCH  15  16
ENDBRANCH  14  15
ENDBRANCH  13  14
ENDBRANCH   1  13
TORSDOF 20
ENDMDL
