MODEL 1
REMARK VINA RESULT:    -3.766      0.000      0.000
REMARK INTER + INTRA:          -4.600
REMARK INTER:                  -4.537
REMARK INTRA:                  -0.063
REMARK UNBOUND:                -0.063
REMARK SMILES CC[C@@H](C)[C@H]([NH3+])C(=O)[O-]
REMARK SMILES IDX 3 1 4 2 5 3 6 4 7 8 8 9 9 10 2 11 1 12
REMARK H PARENT 6 5 6 6 6 7
REMARK Flexibility Score: inf
ROOT
ATOM      1  C   UNL     1      92.562  80.595  68.449  1.00  0.00     0.050 C 
ATOM      2  C   UNL     1      94.088  80.731  68.292  1.00  0.00     0.014 C 
ENDROOT
BRANCH   1   3
ATOM      3  C   UNL     1      92.133  80.191  69.897  1.00  0.00     0.230 C 
BRANCH   3   4
ATOM      4  N   UNL     1      92.610  81.132  70.924  1.00  0.00    -0.350 N 
ATOM      5  H   UNL     1      92.011  81.050  71.778  1.00  0.00     0.345 HD
ATOM      6  H   UNL     1      92.530  82.115  70.582  1.00  0.00     0.345 HD
ATOM      7  H   UNL     1      93.600  80.934  71.192  1.00  0.00     0.345 HD
ENDBRANCH   3   4
BRANCH   3   8
ATOM      8  C   UNL     1      92.562  78.779  70.216  1.00  0.00     0.099 C 
ATOM      9  O   UNL     1      91.885  77.792  69.822  1.00  0.00    -0.544 OA
ATOM     10  O   UNL     1      93.693  78.564  70.994  1.00  0.00    -0.544 OA
ENDBRANCH   3   8
ENDBRANCH   1   3
BRANCH   1  11
ATOM     11  C   UNL     1      91.878  81.885  67.932  1.00  0.00     0.006 C 
ATOM     12  C   UNL     1      91.875  82.005  66.407  1.00  0.00     0.004 C 
ENDBRANCH   1  11
TORSDOF 4
ENDMDL
MODEL 2
REMARK VINA RESULT:    -3.322     13.813     14.661
REMARK INTER + INTRA:          -4.064
REMARK INTER:                  -4.099
REMARK INTRA:                   0.035
REMARK UNBOUND:                -0.063
REMARK SMILES CC[C@@H](C)[C@H]([NH3+])C(=O)[O-]
REMARK SMILES IDX 3 1 4 2 5 3 6 4 7 8 8 9 9 10 2 11 1 12
REMARK H PARENT 6 5 6 6 6 7
REMARK Flexibility Score: inf
ROOT
ATOM      1  C   UNL     1     100.925  69.036  74.226  1.00  0.00     0.050 C 
ATOM      2  C   UNL     1     101.999  67.943  74.085  1.00  0.00     0.014 C 
ENDROOT
BRANCH   1   3
ATOM      3  C   UNL     1     101.300  70.125  75.284  1.00  0.00     0.230 C 
BRANCH   3   4
ATOM      4  N   UNL     1     100.130  70.852  75.802  1.00  0.00    -0.350 N 
ATOM      5  H   UNL     1     100.280  71.079  76.813  1.00  0.00     0.345 HD
ATOM      6  H   UNL     1      99.275  70.256  75.742  1.00  0.00     0.345 HD
ATOM      7  H   UNL     1      99.973  71.744  75.282  1.00  0.00     0.345 HD
ENDBRANCH   3   4
BRANCH   3   8
ATOM      8  C   UNL     1     102.331  71.082  74.733  1.00  0.00     0.099 C 
ATOM      9  O   UNL     1     103.516  70.707  74.525  1.00  0.00    -0.544 OA
ATOM     10  O   UNL     1     101.983  72.406  74.497  1.00  0.00    -0.544 OA
ENDBRANCH   3   8
ENDBRANCH   1   3
BRANCH   1  11
ATOM     11  C   UNL     1     100.595  69.614  72.826  1.00  0.00     0.006 C 
ATOM     12  C   UNL     1     100.630  68.567  71.711  1.00  0.00     0.004 C 
ENDBRANCH   1  11
TORSDOF 4
ENDMDL
MODEL 3
REMARK VINA RESULT:    -3.281     11.864     13.271
REMARK INTER + INTRA:          -4.015
REMARK INTER:                  -3.962
REMARK INTRA:                  -0.053
REMARK UNBOUND:                -0.063
REMARK SMILES CC[C@@H](C)[C@H]([NH3+])C(=O)[O-]
REMARK SMILES IDX 3 1 4 2 5 3 6 4 7 8 8 9 9 10 2 11 1 12
REMARK H PARENT 6 5 6 6 6 7
REMARK Flexibility Score: inf
ROOT
ATOM      1  C   UNL     1     100.114  69.186  70.076  1.00  0.00     0.050 C 
ATOM      2  C   UNL     1     100.508  67.916  69.300  1.00  0.00     0.014 C 
ENDROOT
BRANCH   1   3
ATOM      3  C   UNL     1      98.719  69.750  69.651  1.00  0.00     0.230 C 
BRANCH   3   4
ATOM      4  N   UNL     1      97.839  68.729  69.061  1.00  0.00    -0.350 N 
ATOM      5  H   UNL     1      97.118  69.193  68.462  1.00  0.00     0.345 HD
ATOM      6  H   UNL     1      97.332  68.208  69.810  1.00  0.00     0.345 HD
ATOM      7  H   UNL     1      98.377  68.056  68.470  1.00  0.00     0.345 HD
ENDBRANCH   3   4
BRANCH   3   8
ATOM      8  C   UNL     1      98.873  70.933  68.724  1.00  0.00     0.099 C 
ATOM      9  O   UNL     1      99.441  70.809  67.606  1.00  0.00    -0.544 OA
ATOM     10  O   UNL     1      98.424  72.184  69.126  1.00  0.00    -0.544 OA
ENDBRANCH   3   8
ENDBRANCH   1   3
BRANCH   1  11
ATOM     11  C   UNL     1     100.240  68.918  71.597  1.00  0.00     0.006 C 
ATOM     12  C   UNL     1     101.305  67.876  71.945  1.00  0.00     0.004 C 
ENDBRANCH   1  11
TORSDOF 4
ENDMDL
MODEL 4
REMARK VINA RESULT:    -2.839     14.172     14.746
REMARK INTER + INTRA:          -3.483
REMARK INTER:                  -3.407
REMARK INTRA:                  -0.076
REMARK UNBOUND:                -0.063
REMARK SMILES CC[C@@H](C)[C@H]([NH3+])C(=O)[O-]
REMARK SMILES IDX 3 1 4 2 5 3 6 4 7 8 8 9 9 10 2 11 1 12
REMARK H PARENT 6 5 6 6 6 7
REMARK Flexibility Score: inf
ROOT
ATOM      1  C   UNL     1     101.208  69.202  73.637  1.00  0.00     0.050 C 
ATOM      2  C   UNL     1     101.982  67.875  73.736  1.00  0.00     0.014 C 
ENDROOT
BRANCH   1   3
ATOM      3  C   UNL     1     102.093  70.449  73.967  1.00  0.00     0.230 C 
BRANCH   3   4
ATOM      4  N   UNL     1     103.503  70.107  74.211  1.00  0.00    -0.350 N 
ATOM      5  H   UNL     1     103.560  69.351  74.931  1.00  0.00     0.345 HD
ATOM      6  H   UNL     1     104.018  70.934  74.588  1.00  0.00     0.345 HD
ATOM      7  H   UNL     1     103.971  69.771  73.340  1.00  0.00     0.345 HD
ENDBRANCH   3   4
BRANCH   3   8
ATOM      8  C   UNL     1     101.517  71.229  75.124  1.00  0.00     0.099 C 
ATOM      9  O   UNL     1     101.982  72.358  75.439  1.00  0.00    -0.544 OA
ATOM     10  O   UNL     1     100.494  70.678  75.884  1.00  0.00    -0.544 OA
ENDBRANCH   3   8
ENDBRANCH   1   3
BRANCH   1  11
ATOM     11  C   UNL     1     100.506  69.283  72.258  1.00  0.00     0.006 C 
ATOM     12  C   UNL     1     100.711  68.036  71.395  1.00  0.00     0.004 C 
ENDBRANCH   1  11
TORSDOF 4
ENDMDL
MODEL 5
REMARK VINA RESULT:    -2.632     11.598     12.704
REMARK INTER + INTRA:          -3.234
REMARK INTER:                  -3.127
REMARK INTRA:                  -0.107
REMARK UNBOUND:                -0.063
REMARK SMILES CC[C@@H](C)[C@H]([NH3+])C(=O)[O-]
REMARK SMILES IDX 3 1 4 2 5 3 6 4 7 8 8 9 9 10 2 11 1 12
REMARK H PARENT 6 5 6 6 6 7
REMARK Flexibility Score: inf
ROOT
ATOM      1  C   UNL     1      98.236  69.863  69.510  1.00  0.00     0.050 C 
ATOM      2  C   UNL     1      97.496  68.556  69.176  1.00  0.00     0.014 C 
ENDROOT
BRANCH   1   3
ATOM      3  C   UNL     1      99.771  69.785  69.219  1.00  0.00     0.230 C 
BRANCH   3   4
ATOM      4  N   UNL     1     100.077  69.562  67.797  1.00  0.00    -0.350 N 
ATOM      5  H   UNL     1     100.141  68.534  67.611  1.00  0.00     0.345 HD
ATOM      6  H   UNL     1     101.003  69.979  67.553  1.00  0.00     0.345 HD
ATOM      7  H   UNL     1      99.338  69.965  67.178  1.00  0.00     0.345 HD
ENDBRANCH   3   4
BRANCH   3   8
ATOM      8  C   UNL     1     100.434  68.742  70.085  1.00  0.00     0.099 C 
ATOM      9  O   UNL     1     101.203  67.878  69.584  1.00  0.00    -0.544 OA
ATOM     10  O   UNL     1     100.158  68.702  71.446  1.00  0.00    -0.544 OA
ENDBRANCH   3   8
ENDBRANCH   1   3
BRANCH   1  11
ATOM     11  C   UNL     1      97.527  71.048  68.807  1.00  0.00     0.006 C 
ATOM     12  C   UNL     1      98.223  72.392  69.026  1.00  0.00     0.004 C 
ENDBRANCH   1  11
TORSDOF 4
ENDMDL
MODEL 6
REMARK VINA RESULT:    -2.606     17.229     18.231
REMARK INTER + INTRA:          -3.202
REMARK INTER:                  -3.116
REMARK INTRA:                  -0.087
REMARK UNBOUND:                -0.063
REMARK SMILES CC[C@@H](C)[C@H]([NH3+])C(=O)[O-]
REMARK SMILES IDX 3 1 4 2 5 3 6 4 7 8 8 9 9 10 2 11 1 12
REMARK H PARENT 6 5 6 6 6 7
REMARK Flexibility Score: inf
ROOT
ATOM      1  C   UNL     1      95.989  70.433  83.517  1.00  0.00     0.050 C 
ATOM      2  C   UNL     1      97.396  71.029  83.706  1.00  0.00     0.014 C 
ENDROOT
BRANCH   1   3
ATOM      3  C   UNL     1      95.855  68.990  84.103  1.00  0.00     0.230 C 
BRANCH   3   4
ATOM      4  N   UNL     1      97.130  68.255  84.125  1.00  0.00    -0.350 N 
ATOM      5  H   UNL     1      96.985  67.291  83.745  1.00  0.00     0.345 HD
ATOM      6  H   UNL     1      97.476  68.154  85.105  1.00  0.00     0.345 HD
ATOM      7  H   UNL     1      97.857  68.733  83.546  1.00  0.00     0.345 HD
ENDBRANCH   3   4
BRANCH   3   8
ATOM      8  C   UNL     1      94.792  68.205  83.372  1.00  0.00     0.099 C 
ATOM      9  O   UNL     1      94.945  67.876  82.165  1.00  0.00    -0.544 OA
ATOM     10  O   UNL     1      93.607  67.883  84.021  1.00  0.00    -0.544 OA
ENDBRANCH   3   8
ENDBRANCH   1   3
BRANCH   1  11
ATOM     11  C   UNL     1      94.935  71.428  84.063  1.00  0.00     0.006 C 
ATOM     12  C   UNL     1      93.713  71.581  83.155  1.00  0.00     0.004 C 
ENDBRANCH   1  11
TORSDOF 4
ENDMDL
MODEL 7
REMARK VINA RESULT:    -2.565     16.733     17.660
REMARK INTER + INTRA:          -3.153
REMARK INTER:                  -3.056
REMARK INTRA:                  -0.097
REMARK UNBOUND:                -0.063
REMARK SMILES CC[C@@H](C)[C@H]([NH3+])C(=O)[O-]
REMARK SMILES IDX 3 1 4 2 5 3 6 4 7 8 8 9 9 10 2 11 1 12
REMARK H PARENT 6 5 6 6 6 7
REMARK Flexibility Score: inf
ROOT
ATOM      1  C   UNL     1      95.135  69.353  83.023  1.00  0.00     0.050 C 
ATOM      2  C   UNL     1      95.508  67.910  82.636  1.00  0.00     0.014 C 
ENDROOT
BRANCH   1   3
ATOM      3  C   UNL     1      93.623  69.513  83.391  1.00  0.00     0.230 C 
BRANCH   3   4
ATOM      4  N   UNL     1      92.825  68.316  83.084  1.00  0.00    -0.350 N 
ATOM      5  H   UNL     1      93.443  67.580  82.670  1.00  0.00     0.345 HD
ATOM      6  H   UNL     1      92.091  68.539  82.374  1.00  0.00     0.345 HD
ATOM      7  H   UNL     1      92.374  67.926  83.942  1.00  0.00     0.345 HD
ENDBRANCH   3   4
BRANCH   3   8
ATOM      8  C   UNL     1      93.033  70.739  82.736  1.00  0.00     0.099 C 
ATOM      9  O   UNL     1      92.115  70.637  81.880  1.00  0.00    -0.544 OA
ATOM     10  O   UNL     1      93.541  71.995  83.045  1.00  0.00    -0.544 OA
ENDBRANCH   3   8
ENDBRANCH   1   3
BRANCH   1  11
ATOM     11  C   UNL     1      96.101  69.854  84.125  1.00  0.00     0.006 C 
ATOM     12  C   UNL     1      97.102  70.900  83.629  1.00  0.00     0.004 C 
ENDBRANCH   1  11
TORSDOF 4
ENDMDL
MODEL 8
REMARK VINA RESULT:    -2.286     14.267     14.919
REMARK INTER + INTRA:          -2.817
REMARK INTER:                  -2.983
REMARK INTRA:                   0.165
REMARK UNBOUND:                -0.063
REMARK SMILES CC[C@@H](C)[C@H]([NH3+])C(=O)[O-]
REMARK SMILES IDX 3 1 4 2 5 3 6 4 7 8 8 9 9 10 2 11 1 12
REMARK H PARENT 6 5 6 6 6 7
REMARK Flexibility Score: inf
ROOT
ATOM      1  C   UNL     1     101.498  70.266  75.269  1.00  0.00     0.050 C 
ATOM      2  C   UNL     1     100.249  70.841  75.961  1.00  0.00     0.014 C 
ENDROOT
BRANCH   1   3
ATOM      3  C   UNL     1     101.257  68.846  74.660  1.00  0.00     0.230 C 
BRANCH   3   4
ATOM      4  N   UNL     1     102.309  67.880  75.014  1.00  0.00    -0.350 N 
ATOM      5  H   UNL     1     102.993  68.331  75.664  1.00  0.00     0.345 HD
ATOM      6  H   UNL     1     102.837  67.588  74.162  1.00  0.00     0.345 HD
ATOM      7  H   UNL     1     101.911  67.037  75.485  1.00  0.00     0.345 HD
ENDBRANCH   3   4
BRANCH   3   8
ATOM      8  C   UNL     1     101.076  68.924  73.162  1.00  0.00     0.099 C 
ATOM      9  O   UNL     1     100.134  69.592  72.658  1.00  0.00    -0.544 OA
ATOM     10  O   UNL     1     101.930  68.212  72.329  1.00  0.00    -0.544 OA
ENDBRANCH   3   8
ENDBRANCH   1   3
BRANCH   1  11
ATOM     11  C   UNL     1     102.040  71.299  74.249  1.00  0.00     0.006 C 
ATOM     12  C   UNL     1     103.345  71.964  74.690  1.00  0.00     0.004 C 
ENDBRANCH   1  11
TORSDOF 4
ENDMDL
MODEL 9
REMARK VINA RESULT:    -2.082     16.929     17.661
REMARK INTER + INTRA:          -2.571
REMARK INTER:                  -2.615
REMARK INTRA:                   0.044
REMARK UNBOUND:                -0.063
REMARK SMILES CC[C@@H](C)[C@H]([NH3+])C(=O)[O-]
REMARK SMILES IDX 3 1 4 2 5 3 6 4 7 8 8 9 9 10 2 11 1 12
REMARK H PARENT 6 5 6 6 6 7
REMARK Flexibility Score: inf
ROOT
ATOM      1  C   UNL     1      93.800  68.849  83.243  1.00  0.00     0.050 C 
ATOM      2  C   UNL     1      94.497  68.157  82.057  1.00  0.00     0.014 C 
ENDROOT
BRANCH   1   3
ATOM      3  C   UNL     1      94.498  70.185  83.663  1.00  0.00     0.230 C 
BRANCH   3   4
ATOM      4  N   UNL     1      93.930  71.367  82.995  1.00  0.00    -0.350 N 
ATOM      5  H   UNL     1      93.636  71.112  82.024  1.00  0.00     0.345 HD
ATOM      6  H   UNL     1      94.650  72.120  82.914  1.00  0.00     0.345 HD
ATOM      7  H   UNL     1      93.098  71.733  83.508  1.00  0.00     0.345 HD
ENDBRANCH   3   4
BRANCH   3   8
ATOM      8  C   UNL     1      95.991  70.106  83.448  1.00  0.00     0.099 C 
ATOM      9  O   UNL     1      96.567  70.871  82.629  1.00  0.00    -0.544 OA
ATOM     10  O   UNL     1      96.733  69.148  84.125  1.00  0.00    -0.544 OA
ENDBRANCH   3   8
ENDBRANCH   1   3
BRANCH   1  11
ATOM     11  C   UNL     1      92.291  69.006  82.930  1.00  0.00     0.006 C 
ATOM     12  C   UNL     1      91.928  68.652  81.486  1.00  0.00     0.004 C 
ENDBRANCH   1  11
TORSDOF 4
ENDMDL
