MODEL 1
REMARK VINA RESULT:    -6.891      0.000      0.000
REMARK INTER + INTRA:          -8.785
REMARK INTER:                  -8.502
REMARK INTRA:                  -0.283
REMARK UNBOUND:                -0.283
REMARK SMILES O=c1c(O)c(-c2cc(O)c(O)c(O)c2)oc2cc(O)cc(O)c12
REMARK SMILES IDX 5 1 3 2 2 3 1 4 23 5 21 6 20 7 18 8 17 9 16 10 15 11 6 12
REMARK SMILES IDX 7 13 8 14 14 15 10 16 12 17 9 18 11 20 13 22 4 24 22 26
REMARK SMILES IDX 19 28
REMARK H PARENT 9 19 11 21 13 23 4 25 22 27 19 29
REMARK Flexibility Score: inf
ROOT
ATOM      1  C   UNL     1      18.842  25.246  40.586  1.00  0.00     0.180 A 
ATOM      2  C   UNL     1      19.823  26.240  40.748  1.00  0.00     0.208 A 
ATOM      3  C   UNL     1      19.829  27.004  41.927  1.00  0.00     0.238 A 
ATOM      4  O   UNL     1      20.676  27.928  42.042  1.00  0.00    -0.285 OA
ATOM      5  C   UNL     1      18.866  26.755  42.934  1.00  0.00     0.111 A 
ATOM      6  C   UNL     1      18.804  27.441  44.184  1.00  0.00     0.134 A 
ATOM      7  C   UNL     1      17.730  27.202  45.050  1.00  0.00     0.093 A 
ATOM      8  C   UNL     1      16.752  26.256  44.742  1.00  0.00     0.123 A 
ATOM      9  C   UNL     1      16.835  25.537  43.550  1.00  0.00     0.094 A 
ATOM     10  C   UNL     1      17.875  25.779  42.648  1.00  0.00     0.146 A 
ATOM     11  O   UNL     1      17.912  25.080  41.520  1.00  0.00    -0.452 OA
ENDROOT
BRANCH   1  12
ATOM     12  C   UNL     1      18.786  24.384  39.383  1.00  0.00     0.029 A 
ATOM     13  C   UNL     1      19.751  23.390  39.151  1.00  0.00     0.062 A 
ATOM     14  C   UNL     1      19.671  22.568  38.022  1.00  0.00     0.162 A 
ATOM     15  C   UNL     1      17.716  24.520  38.485  1.00  0.00     0.062 A 
ATOM     16  C   UNL     1      18.609  22.725  37.114  1.00  0.00     0.200 A 
ATOM     17  C   UNL     1      17.628  23.703  37.350  1.00  0.00     0.162 A 
BRANCH  14  18
ATOM     18  O   UNL     1      20.651  21.597  37.822  1.00  0.00    -0.504 OA
ATOM     19  H   UNL     1      20.811  20.848  38.485  1.00  0.00     0.293 HD
ENDBRANCH  14  18
BRANCH  16  20
ATOM     20  O   UNL     1      18.539  21.904  35.987  1.00  0.00    -0.502 OA
ATOM     21  H   UNL     1      17.659  21.668  35.545  1.00  0.00     0.293 HD
ENDBRANCH  16  20
BRANCH  17  22
ATOM     22  O   UNL     1      16.568  23.858  36.458  1.00  0.00    -0.504 OA
ATOM     23  H   UNL     1      15.605  23.862  36.773  1.00  0.00     0.293 HD
ENDBRANCH  17  22
ENDBRANCH   1  12
BRANCH   2  24
ATOM     24  O   UNL     1      20.751  26.484  39.733  1.00  0.00    -0.502 OA
ATOM     25  H   UNL     1      20.711  27.309  39.147  1.00  0.00     0.293 HD
ENDBRANCH   2  24
BRANCH   6  26
ATOM     26  O   UNL     1      19.779  28.337  44.631  1.00  0.00    -0.507 OA
ATOM     27  H   UNL     1      20.662  28.503  44.172  1.00  0.00     0.293 HD
ENDBRANCH   6  26
BRANCH   8  28
ATOM     28  O   UNL     1      15.707  26.033  45.634  1.00  0.00    -0.508 OA
ATOM     29  H   UNL     1      15.001  26.739  45.812  1.00  0.00     0.293 HD
ENDBRANCH   8  28
TORSDOF 7
ENDMDL
MODEL 2
REMARK VINA RESULT:    -6.880      1.606      3.587
REMARK INTER + INTRA:          -8.772
REMARK INTER:                  -8.404
REMARK INTRA:                  -0.368
REMARK UNBOUND:                -0.283
REMARK SMILES O=c1c(O)c(-c2cc(O)c(O)c(O)c2)oc2cc(O)cc(O)c12
REMARK SMILES IDX 5 1 3 2 2 3 1 4 23 5 21 6 20 7 18 8 17 9 16 10 15 11 6 12
REMARK SMILES IDX 7 13 8 14 14 15 10 16 12 17 9 18 11 20 13 22 4 24 22 26
REMARK SMILES IDX 19 28
REMARK H PARENT 9 19 11 21 13 23 4 25 22 27 19 29
REMARK Flexibility Score: inf
ROOT
ATOM      1  C   UNL     1      17.888  24.508  41.814  1.00  0.00     0.180 A 
ATOM      2  C   UNL     1      16.821  23.879  42.480  1.00  0.00     0.208 A 
ATOM      3  C   UNL     1      16.309  24.465  43.649  1.00  0.00     0.238 A 
ATOM      4  O   UNL     1      15.391  23.870  44.271  1.00  0.00    -0.285 OA
ATOM      5  C   UNL     1      16.859  25.678  44.129  1.00  0.00     0.111 A 
ATOM      6  C   UNL     1      16.392  26.381  45.280  1.00  0.00     0.134 A 
ATOM      7  C   UNL     1      17.095  27.503  45.737  1.00  0.00     0.093 A 
ATOM      8  C   UNL     1      18.207  27.986  45.048  1.00  0.00     0.123 A 
ATOM      9  C   UNL     1      18.637  27.342  43.887  1.00  0.00     0.094 A 
ATOM     10  C   UNL     1      17.978  26.198  43.427  1.00  0.00     0.146 A 
ATOM     11  O   UNL     1      18.425  25.610  42.325  1.00  0.00    -0.452 OA
ENDROOT
BRANCH   1  12
ATOM     12  C   UNL     1      18.464  23.964  40.563  1.00  0.00     0.029 A 
ATOM     13  C   UNL     1      17.936  24.304  39.306  1.00  0.00     0.062 A 
ATOM     14  C   UNL     1      18.507  23.800  38.134  1.00  0.00     0.162 A 
ATOM     15  C   UNL     1      19.598  23.138  40.627  1.00  0.00     0.062 A 
ATOM     16  C   UNL     1      19.628  22.955  38.205  1.00  0.00     0.200 A 
ATOM     17  C   UNL     1      20.176  22.627  39.457  1.00  0.00     0.162 A 
BRANCH  14  18
ATOM     18  O   UNL     1      17.951  24.156  36.905  1.00  0.00    -0.504 OA
ATOM     19  H   UNL     1      18.180  25.026  36.441  1.00  0.00     0.293 HD
ENDBRANCH  14  18
BRANCH  16  20
ATOM     20  O   UNL     1      20.189  22.453  37.029  1.00  0.00    -0.502 OA
ATOM     21  H   UNL     1      20.344  21.463  36.885  1.00  0.00     0.293 HD
ENDBRANCH  16  20
BRANCH  17  22
ATOM     22  O   UNL     1      21.292  21.797  39.534  1.00  0.00    -0.504 OA
ATOM     23  H   UNL     1      21.522  21.293  40.383  1.00  0.00     0.293 HD
ENDBRANCH  17  22
ENDBRANCH   1  12
BRANCH   2  24
ATOM     24  O   UNL     1      16.308  22.671  42.002  1.00  0.00    -0.502 OA
ATOM     25  H   UNL     1      16.870  21.833  41.927  1.00  0.00     0.293 HD
ENDBRANCH   2  24
BRANCH   6  26
ATOM     26  O   UNL     1      15.237  26.037  45.989  1.00  0.00    -0.507 OA
ATOM     27  H   UNL     1      14.912  25.094  46.136  1.00  0.00     0.293 HD
ENDBRANCH   6  26
BRANCH   8  28
ATOM     28  O   UNL     1      18.872  29.114  45.522  1.00  0.00    -0.508 OA
ATOM     29  H   UNL     1      19.883  29.187  45.488  1.00  0.00     0.293 HD
ENDBRANCH   8  28
TORSDOF 7
ENDMDL
MODEL 3
REMARK VINA RESULT:    -6.757      3.956      7.269
REMARK INTER + INTRA:          -8.619
REMARK INTER:                  -8.285
REMARK INTRA:                  -0.335
REMARK UNBOUND:                -0.283
REMARK SMILES O=c1c(O)c(-c2cc(O)c(O)c(O)c2)oc2cc(O)cc(O)c12
REMARK SMILES IDX 5 1 3 2 2 3 1 4 23 5 21 6 20 7 18 8 17 9 16 10 15 11 6 12
REMARK SMILES IDX 7 13 8 14 14 15 10 16 12 17 9 18 11 20 13 22 4 24 22 26
REMARK SMILES IDX 19 28
REMARK H PARENT 9 19 11 21 13 23 4 25 22 27 19 29
REMARK Flexibility Score: inf
ROOT
ATOM      1  C   UNL     1      16.518  25.159  43.396  1.00  0.00     0.180 A 
ATOM      2  C   UNL     1      15.682  25.288  42.274  1.00  0.00     0.208 A 
ATOM      3  C   UNL     1      14.884  24.197  41.892  1.00  0.00     0.238 A 
ATOM      4  O   UNL     1      14.178  24.299  40.854  1.00  0.00    -0.285 OA
ATOM      5  C   UNL     1      14.920  22.999  42.645  1.00  0.00     0.111 A 
ATOM      6  C   UNL     1      14.124  21.846  42.372  1.00  0.00     0.134 A 
ATOM      7  C   UNL     1      14.337  20.671  43.104  1.00  0.00     0.093 A 
ATOM      8  C   UNL     1      15.270  20.627  44.141  1.00  0.00     0.123 A 
ATOM      9  C   UNL     1      16.010  21.766  44.455  1.00  0.00     0.094 A 
ATOM     10  C   UNL     1      15.847  22.943  43.719  1.00  0.00     0.146 A 
ATOM     11  O   UNL     1      16.579  24.001  44.043  1.00  0.00    -0.452 OA
ENDROOT
BRANCH   1  12
ATOM     12  C   UNL     1      17.369  26.273  43.875  1.00  0.00     0.029 A 
ATOM     13  C   UNL     1      16.979  27.079  44.957  1.00  0.00     0.062 A 
ATOM     14  C   UNL     1      17.806  28.111  45.412  1.00  0.00     0.162 A 
ATOM     15  C   UNL     1      18.620  26.493  43.275  1.00  0.00     0.062 A 
ATOM     16  C   UNL     1      19.046  28.342  44.792  1.00  0.00     0.200 A 
ATOM     17  C   UNL     1      19.454  27.526  43.722  1.00  0.00     0.162 A 
BRANCH  14  18
ATOM     18  O   UNL     1      17.380  28.894  46.485  1.00  0.00    -0.504 OA
ATOM     19  H   UNL     1      17.907  28.958  47.347  1.00  0.00     0.293 HD
ENDBRANCH  14  18
BRANCH  16  20
ATOM     20  O   UNL     1      19.863  29.378  45.249  1.00  0.00    -0.502 OA
ATOM     21  H   UNL     1      19.607  30.352  45.147  1.00  0.00     0.293 HD
ENDBRANCH  16  20
BRANCH  17  22
ATOM     22  O   UNL     1      20.686  27.744  43.109  1.00  0.00    -0.504 OA
ATOM     23  H   UNL     1      20.785  27.748  42.101  1.00  0.00     0.293 HD
ENDBRANCH  17  22
ENDBRANCH   1  12
BRANCH   2  24
ATOM     24  O   UNL     1      15.678  26.471  41.531  1.00  0.00    -0.502 OA
ATOM     25  H   UNL     1      16.349  26.655  40.797  1.00  0.00     0.293 HD
ENDBRANCH   2  24
BRANCH   6  26
ATOM     26  O   UNL     1      13.101  21.811  41.420  1.00  0.00    -0.507 OA
ATOM     27  H   UNL     1      12.583  20.984  41.163  1.00  0.00     0.293 HD
ENDBRANCH   6  26
BRANCH   8  28
ATOM     28  O   UNL     1      15.444  19.446  44.858  1.00  0.00    -0.508 OA
ATOM     29  H   UNL     1      16.055  19.401  45.665  1.00  0.00     0.293 HD
ENDBRANCH   8  28
TORSDOF 7
ENDMDL
MODEL 4
REMARK VINA RESULT:    -6.746     12.999     14.565
REMARK INTER + INTRA:          -8.607
REMARK INTER:                  -8.441
REMARK INTRA:                  -0.165
REMARK UNBOUND:                -0.283
REMARK SMILES O=c1c(O)c(-c2cc(O)c(O)c(O)c2)oc2cc(O)cc(O)c12
REMARK SMILES IDX 5 1 3 2 2 3 1 4 23 5 21 6 20 7 18 8 17 9 16 10 15 11 6 12
REMARK SMILES IDX 7 13 8 14 14 15 10 16 12 17 9 18 11 20 13 22 4 24 22 26
REMARK SMILES IDX 19 28
REMARK H PARENT 9 19 11 21 13 23 4 25 22 27 19 29
REMARK Flexibility Score: inf
ROOT
ATOM      1  C   UNL     1      29.760  23.321  49.301  1.00  0.00     0.180 A 
ATOM      2  C   UNL     1      30.772  22.350  49.390  1.00  0.00     0.208 A 
ATOM      3  C   UNL     1      31.176  21.902  50.659  1.00  0.00     0.238 A 
ATOM      4  O   UNL     1      32.120  21.073  50.734  1.00  0.00    -0.285 OA
ATOM      5  C   UNL     1      30.554  22.420  51.820  1.00  0.00     0.111 A 
ATOM      6  C   UNL     1      30.857  22.009  53.153  1.00  0.00     0.134 A 
ATOM      7  C   UNL     1      30.271  22.682  54.233  1.00  0.00     0.093 A 
ATOM      8  C   UNL     1      29.345  23.706  54.027  1.00  0.00     0.123 A 
ATOM      9  C   UNL     1      28.997  24.075  52.728  1.00  0.00     0.094 A 
ATOM     10  C   UNL     1      29.592  23.447  51.630  1.00  0.00     0.146 A 
ATOM     11  O   UNL     1      29.242  23.835  50.410  1.00  0.00    -0.452 OA
ENDROOT
BRANCH   1  12
ATOM     12  C   UNL     1      29.264  23.823  47.999  1.00  0.00     0.029 A 
ATOM     13  C   UNL     1      30.110  24.502  47.106  1.00  0.00     0.062 A 
ATOM     14  C   UNL     1      29.631  24.948  45.871  1.00  0.00     0.162 A 
ATOM     15  C   UNL     1      27.937  23.564  47.620  1.00  0.00     0.062 A 
ATOM     16  C   UNL     1      28.295  24.707  45.506  1.00  0.00     0.200 A 
ATOM     17  C   UNL     1      27.448  24.009  46.384  1.00  0.00     0.162 A 
BRANCH  14  18
ATOM     18  O   UNL     1      30.500  25.625  45.015  1.00  0.00    -0.504 OA
ATOM     19  H   UNL     1      31.424  25.919  45.307  1.00  0.00     0.293 HD
ENDBRANCH  14  18
BRANCH  16  20
ATOM     20  O   UNL     1      27.824  25.160  44.272  1.00  0.00    -0.502 OA
ATOM     21  H   UNL     1      27.098  24.674  43.761  1.00  0.00     0.293 HD
ENDBRANCH  16  20
BRANCH  17  22
ATOM     22  O   UNL     1      26.125  23.759  46.026  1.00  0.00    -0.504 OA
ATOM     23  H   UNL     1      25.770  23.997  45.107  1.00  0.00     0.293 HD
ENDBRANCH  17  22
ENDBRANCH   1  12
BRANCH   2  24
ATOM     24  O   UNL     1      31.389  21.868  48.232  1.00  0.00    -0.502 OA
ATOM     25  H   UNL     1      31.333  20.897  47.951  1.00  0.00     0.293 HD
ENDBRANCH   2  24
BRANCH   6  26
ATOM     26  O   UNL     1      31.696  20.937  53.468  1.00  0.00    -0.507 OA
ATOM     27  H   UNL     1      32.305  20.901  54.272  1.00  0.00     0.293 HD
ENDBRANCH   6  26
BRANCH   8  28
ATOM     28  O   UNL     1      28.771  24.343  55.124  1.00  0.00    -0.508 OA
ATOM     29  H   UNL     1      29.097  25.248  55.443  1.00  0.00     0.293 HD
ENDBRANCH   8  28
TORSDOF 7
ENDMDL
MODEL 5
REMARK VINA RESULT:    -6.527      3.492      5.909
REMARK INTER + INTRA:          -8.336
REMARK INTER:                  -8.071
REMARK INTRA:                  -0.265
REMARK UNBOUND:                -0.283
REMARK SMILES O=c1c(O)c(-c2cc(O)c(O)c(O)c2)oc2cc(O)cc(O)c12
REMARK SMILES IDX 5 1 3 2 2 3 1 4 23 5 21 6 20 7 18 8 17 9 16 10 15 11 6 12
REMARK SMILES IDX 7 13 8 14 14 15 10 16 12 17 9 18 11 20 13 22 4 24 22 26
REMARK SMILES IDX 19 28
REMARK H PARENT 9 19 11 21 13 23 4 25 22 27 19 29
REMARK Flexibility Score: inf
ROOT
ATOM      1  C   UNL     1      17.062  24.312  41.849  1.00  0.00     0.180 A 
ATOM      2  C   UNL     1      15.671  24.446  41.694  1.00  0.00     0.208 A 
ATOM      3  C   UNL     1      14.833  23.422  42.165  1.00  0.00     0.238 A 
ATOM      4  O   UNL     1      13.592  23.522  41.975  1.00  0.00    -0.285 OA
ATOM      5  C   UNL     1      15.393  22.286  42.797  1.00  0.00     0.111 A 
ATOM      6  C   UNL     1      14.636  21.209  43.347  1.00  0.00     0.134 A 
ATOM      7  C   UNL     1      15.300  20.075  43.833  1.00  0.00     0.093 A 
ATOM      8  C   UNL     1      16.694  20.009  43.849  1.00  0.00     0.123 A 
ATOM      9  C   UNL     1      17.445  21.081  43.369  1.00  0.00     0.094 A 
ATOM     10  C   UNL     1      16.810  22.211  42.844  1.00  0.00     0.146 A 
ATOM     11  O   UNL     1      17.561  23.205  42.387  1.00  0.00    -0.452 OA
ENDROOT
BRANCH   1  12
ATOM     12  C   UNL     1      18.008  25.360  41.401  1.00  0.00     0.029 A 
ATOM     13  C   UNL     1      18.713  26.152  42.323  1.00  0.00     0.062 A 
ATOM     14  C   UNL     1      19.620  27.120  41.883  1.00  0.00     0.162 A 
ATOM     15  C   UNL     1      18.252  25.529  40.029  1.00  0.00     0.062 A 
ATOM     16  C   UNL     1      19.843  27.301  40.507  1.00  0.00     0.200 A 
ATOM     17  C   UNL     1      19.157  26.498  39.578  1.00  0.00     0.162 A 
BRANCH  14  18
ATOM     18  O   UNL     1      20.296  27.891  42.829  1.00  0.00    -0.504 OA
ATOM     19  H   UNL     1      20.881  27.476  43.543  1.00  0.00     0.293 HD
ENDBRANCH  14  18
BRANCH  16  20
ATOM     20  O   UNL     1      20.747  28.274  40.077  1.00  0.00    -0.502 OA
ATOM     21  H   UNL     1      20.443  29.161  39.695  1.00  0.00     0.293 HD
ENDBRANCH  16  20
BRANCH  17  22
ATOM     22  O   UNL     1      19.380  26.666  38.213  1.00  0.00    -0.504 OA
ATOM     23  H   UNL     1      19.075  27.499  37.724  1.00  0.00     0.293 HD
ENDBRANCH  17  22
ENDBRANCH   1  12
BRANCH   2  24
ATOM     24  O   UNL     1      15.139  25.564  41.048  1.00  0.00    -0.502 OA
ATOM     25  H   UNL     1      15.600  26.010  40.264  1.00  0.00     0.293 HD
ENDBRANCH   2  24
BRANCH   6  26
ATOM     26  O   UNL     1      13.243  21.213  43.465  1.00  0.00    -0.507 OA
ATOM     27  H   UNL     1      12.607  20.850  42.772  1.00  0.00     0.293 HD
ENDBRANCH   6  26
BRANCH   8  28
ATOM     28  O   UNL     1      17.321  18.873  44.354  1.00  0.00    -0.508 OA
ATOM     29  H   UNL     1      16.812  18.010  44.508  1.00  0.00     0.293 HD
ENDBRANCH   8  28
TORSDOF 7
ENDMDL
MODEL 6
REMARK VINA RESULT:    -6.436      4.009      6.458
REMARK INTER + INTRA:          -8.224
REMARK INTER:                  -7.874
REMARK INTRA:                  -0.349
REMARK UNBOUND:                -0.283
REMARK SMILES O=c1c(O)c(-c2cc(O)c(O)c(O)c2)oc2cc(O)cc(O)c12
REMARK SMILES IDX 5 1 3 2 2 3 1 4 23 5 21 6 20 7 18 8 17 9 16 10 15 11 6 12
REMARK SMILES IDX 7 13 8 14 14 15 10 16 12 17 9 18 11 20 13 22 4 24 22 26
REMARK SMILES IDX 19 28
REMARK H PARENT 9 19 11 21 13 23 4 25 22 27 19 29
REMARK Flexibility Score: inf
ROOT
ATOM      1  C   UNL     1      16.706  23.600  42.294  1.00  0.00     0.180 A 
ATOM      2  C   UNL     1      15.324  23.649  42.041  1.00  0.00     0.208 A 
ATOM      3  C   UNL     1      14.520  22.568  42.439  1.00  0.00     0.238 A 
ATOM      4  O   UNL     1      13.293  22.594  42.161  1.00  0.00    -0.285 OA
ATOM      5  C   UNL     1      15.106  21.459  43.096  1.00  0.00     0.111 A 
ATOM      6  C   UNL     1      14.381  20.327  43.577  1.00  0.00     0.134 A 
ATOM      7  C   UNL     1      15.079  19.230  44.096  1.00  0.00     0.093 A 
ATOM      8  C   UNL     1      16.469  19.250  44.212  1.00  0.00     0.123 A 
ATOM      9  C   UNL     1      17.183  20.375  43.799  1.00  0.00     0.094 A 
ATOM     10  C   UNL     1      16.517  21.471  43.243  1.00  0.00     0.146 A 
ATOM     11  O   UNL     1      17.234  22.517  42.854  1.00  0.00    -0.452 OA
ENDROOT
BRANCH   1  12
ATOM     12  C   UNL     1      17.613  24.711  41.928  1.00  0.00     0.029 A 
ATOM     13  C   UNL     1      18.159  24.816  40.637  1.00  0.00     0.062 A 
ATOM     14  C   UNL     1      18.994  25.885  40.301  1.00  0.00     0.162 A 
ATOM     15  C   UNL     1      17.889  25.716  42.869  1.00  0.00     0.062 A 
ATOM     16  C   UNL     1      19.285  26.876  41.254  1.00  0.00     0.200 A 
ATOM     17  C   UNL     1      18.726  26.791  42.541  1.00  0.00     0.162 A 
BRANCH  14  18
ATOM     18  O   UNL     1      19.521  25.950  39.011  1.00  0.00    -0.504 OA
ATOM     19  H   UNL     1      18.965  26.238  38.215  1.00  0.00     0.293 HD
ENDBRANCH  14  18
BRANCH  16  20
ATOM     20  O   UNL     1      20.124  27.938  40.911  1.00  0.00    -0.502 OA
ATOM     21  H   UNL     1      21.080  27.999  41.241  1.00  0.00     0.293 HD
ENDBRANCH  16  20
BRANCH  17  22
ATOM     22  O   UNL     1      19.004  27.774  43.488  1.00  0.00    -0.504 OA
ATOM     23  H   UNL     1      19.127  27.548  44.469  1.00  0.00     0.293 HD
ENDBRANCH  17  22
ENDBRANCH   1  12
BRANCH   2  24
ATOM     24  O   UNL     1      14.770  24.743  41.371  1.00  0.00    -0.502 OA
ATOM     25  H   UNL     1      15.291  25.287  40.695  1.00  0.00     0.293 HD
ENDBRANCH   2  24
BRANCH   6  26
ATOM     26  O   UNL     1      12.986  20.244  43.595  1.00  0.00    -0.507 OA
ATOM     27  H   UNL     1      12.371  20.956  43.960  1.00  0.00     0.293 HD
ENDBRANCH   6  26
BRANCH   8  28
ATOM     28  O   UNL     1      17.129  18.147  44.747  1.00  0.00    -0.508 OA
ATOM     29  H   UNL     1      18.133  18.145  44.885  1.00  0.00     0.293 HD
ENDBRANCH   8  28
TORSDOF 7
ENDMDL
MODEL 7
REMARK VINA RESULT:    -6.287     13.200     15.899
REMARK INTER + INTRA:          -8.040
REMARK INTER:                  -7.769
REMARK INTRA:                  -0.271
REMARK UNBOUND:                -0.283
REMARK SMILES O=c1c(O)c(-c2cc(O)c(O)c(O)c2)oc2cc(O)cc(O)c12
REMARK SMILES IDX 5 1 3 2 2 3 1 4 23 5 21 6 20 7 18 8 17 9 16 10 15 11 6 12
REMARK SMILES IDX 7 13 8 14 14 15 10 16 12 17 9 18 11 20 13 22 4 24 22 26
REMARK SMILES IDX 19 28
REMARK H PARENT 9 19 11 21 13 23 4 25 22 27 19 29
REMARK Flexibility Score: inf
ROOT
ATOM      1  C   UNL     1      29.401  23.168  50.365  1.00  0.00     0.180 A 
ATOM      2  C   UNL     1      28.000  23.180  50.244  1.00  0.00     0.208 A 
ATOM      3  C   UNL     1      27.425  23.608  49.036  1.00  0.00     0.238 A 
ATOM      4  O   UNL     1      26.170  23.668  48.953  1.00  0.00    -0.285 OA
ATOM      5  C   UNL     1      28.256  24.004  47.961  1.00  0.00     0.111 A 
ATOM      6  C   UNL     1      27.782  24.417  46.679  1.00  0.00     0.134 A 
ATOM      7  C   UNL     1      28.689  24.910  45.734  1.00  0.00     0.093 A 
ATOM      8  C   UNL     1      30.059  24.945  45.999  1.00  0.00     0.123 A 
ATOM      9  C   UNL     1      30.539  24.488  47.226  1.00  0.00     0.094 A 
ATOM     10  C   UNL     1      29.655  24.023  48.204  1.00  0.00     0.146 A 
ATOM     11  O   UNL     1      30.152  23.607  49.362  1.00  0.00    -0.452 OA
ENDROOT
BRANCH   1  12
ATOM     12  C   UNL     1      30.080  22.707  51.597  1.00  0.00     0.029 A 
ATOM     13  C   UNL     1      30.782  21.490  51.634  1.00  0.00     0.062 A 
ATOM     14  C   UNL     1      31.438  21.081  52.799  1.00  0.00     0.162 A 
ATOM     15  C   UNL     1      30.075  23.527  52.737  1.00  0.00     0.062 A 
ATOM     16  C   UNL     1      31.409  21.895  53.944  1.00  0.00     0.200 A 
ATOM     17  C   UNL     1      30.728  23.124  53.909  1.00  0.00     0.162 A 
BRANCH  14  18
ATOM     18  O   UNL     1      32.118  19.863  52.798  1.00  0.00    -0.504 OA
ATOM     19  H   UNL     1      32.948  19.709  53.358  1.00  0.00     0.293 HD
ENDBRANCH  14  18
BRANCH  16  20
ATOM     20  O   UNL     1      32.063  21.476  55.105  1.00  0.00    -0.502 OA
ATOM     21  H   UNL     1      31.590  20.955  55.832  1.00  0.00     0.293 HD
ENDBRANCH  16  20
BRANCH  17  22
ATOM     22  O   UNL     1      30.703  23.940  55.039  1.00  0.00    -0.504 OA
ATOM     23  H   UNL     1      29.938  23.905  55.702  1.00  0.00     0.293 HD
ENDBRANCH  17  22
ENDBRANCH   1  12
BRANCH   2  24
ATOM     24  O   UNL     1      27.197  22.806  51.325  1.00  0.00    -0.502 OA
ATOM     25  H   UNL     1      27.299  23.215  52.245  1.00  0.00     0.293 HD
ENDBRANCH   2  24
BRANCH   6  26
ATOM     26  O   UNL     1      26.446  24.336  46.278  1.00  0.00    -0.507 OA
ATOM     27  H   UNL     1      26.136  24.029  45.369  1.00  0.00     0.293 HD
ENDBRANCH   6  26
BRANCH   8  28
ATOM     28  O   UNL     1      30.934  25.428  45.029  1.00  0.00    -0.508 OA
ATOM     29  H   UNL     1      31.763  24.912  44.758  1.00  0.00     0.293 HD
ENDBRANCH   8  28
TORSDOF 7
ENDMDL
MODEL 8
REMARK VINA RESULT:    -6.259      1.308      7.372
REMARK INTER + INTRA:          -8.006
REMARK INTER:                  -7.874
REMARK INTRA:                  -0.131
REMARK UNBOUND:                -0.283
REMARK SMILES O=c1c(O)c(-c2cc(O)c(O)c(O)c2)oc2cc(O)cc(O)c12
REMARK SMILES IDX 5 1 3 2 2 3 1 4 23 5 21 6 20 7 18 8 17 9 16 10 15 11 6 12
REMARK SMILES IDX 7 13 8 14 14 15 10 16 12 17 9 18 11 20 13 22 4 24 22 26
REMARK SMILES IDX 19 28
REMARK H PARENT 9 19 11 21 13 23 4 25 22 27 19 29
REMARK Flexibility Score: inf
ROOT
ATOM      1  C   UNL     1      17.612  25.137  40.419  1.00  0.00     0.180 A 
ATOM      2  C   UNL     1      16.459  25.298  39.632  1.00  0.00     0.208 A 
ATOM      3  C   UNL     1      16.382  24.639  38.394  1.00  0.00     0.238 A 
ATOM      4  O   UNL     1      15.370  24.831  37.670  1.00  0.00    -0.285 OA
ATOM      5  C   UNL     1      17.451  23.816  37.966  1.00  0.00     0.111 A 
ATOM      6  C   UNL     1      17.463  23.070  36.749  1.00  0.00     0.134 A 
ATOM      7  C   UNL     1      18.627  22.392  36.366  1.00  0.00     0.093 A 
ATOM      8  C   UNL     1      19.756  22.379  37.185  1.00  0.00     0.123 A 
ATOM      9  C   UNL     1      19.735  23.056  38.405  1.00  0.00     0.094 A 
ATOM     10  C   UNL     1      18.601  23.772  38.798  1.00  0.00     0.146 A 
ATOM     11  O   UNL     1      18.625  24.411  39.961  1.00  0.00    -0.452 OA
ENDROOT
BRANCH   1  12
ATOM     12  C   UNL     1      17.756  25.779  41.745  1.00  0.00     0.029 A 
ATOM     13  C   UNL     1      16.817  25.563  42.768  1.00  0.00     0.062 A 
ATOM     14  C   UNL     1      16.980  26.158  44.023  1.00  0.00     0.162 A 
ATOM     15  C   UNL     1      18.883  26.573  42.010  1.00  0.00     0.062 A 
ATOM     16  C   UNL     1      18.099  26.972  44.274  1.00  0.00     0.200 A 
ATOM     17  C   UNL     1      19.054  27.176  43.264  1.00  0.00     0.162 A 
BRANCH  14  18
ATOM     18  O   UNL     1      16.023  25.925  45.010  1.00  0.00    -0.504 OA
ATOM     19  H   UNL     1      15.171  25.411  44.824  1.00  0.00     0.293 HD
ENDBRANCH  14  18
BRANCH  16  20
ATOM     20  O   UNL     1      18.251  27.566  45.529  1.00  0.00    -0.502 OA
ATOM     21  H   UNL     1      18.858  28.363  45.678  1.00  0.00     0.293 HD
ENDBRANCH  16  20
BRANCH  17  22
ATOM     22  O   UNL     1      20.169  27.974  43.509  1.00  0.00    -0.504 OA
ATOM     23  H   UNL     1      21.012  27.893  42.953  1.00  0.00     0.293 HD
ENDBRANCH  17  22
ENDBRANCH   1  12
BRANCH   2  24
ATOM     24  O   UNL     1      15.424  26.133  40.063  1.00  0.00    -0.502 OA
ATOM     25  H   UNL     1      14.902  25.957  40.912  1.00  0.00     0.293 HD
ENDBRANCH   2  24
BRANCH   6  26
ATOM     26  O   UNL     1      16.358  22.940  35.903  1.00  0.00    -0.507 OA
ATOM     27  H   UNL     1      16.412  22.775  34.909  1.00  0.00     0.293 HD
ENDBRANCH   6  26
BRANCH   8  28
ATOM     28  O   UNL     1      20.891  21.682  36.779  1.00  0.00    -0.508 OA
ATOM     29  H   UNL     1      21.491  22.029  36.040  1.00  0.00     0.293 HD
ENDBRANCH   8  28
TORSDOF 7
ENDMDL
MODEL 9
REMARK VINA RESULT:    -6.212      3.728      6.196
REMARK INTER + INTRA:          -7.947
REMARK INTER:                  -7.593
REMARK INTRA:                  -0.355
REMARK UNBOUND:                -0.283
REMARK SMILES O=c1c(O)c(-c2cc(O)c(O)c(O)c2)oc2cc(O)cc(O)c12
REMARK SMILES IDX 5 1 3 2 2 3 1 4 23 5 21 6 20 7 18 8 17 9 16 10 15 11 6 12
REMARK SMILES IDX 7 13 8 14 14 15 10 16 12 17 9 18 11 20 13 22 4 24 22 26
REMARK SMILES IDX 19 28
REMARK H PARENT 9 19 11 21 13 23 4 25 22 27 19 29
REMARK Flexibility Score: inf
ROOT
ATOM      1  C   UNL     1      17.172  23.385  42.309  1.00  0.00     0.180 A 
ATOM      2  C   UNL     1      17.343  24.583  43.024  1.00  0.00     0.208 A 
ATOM      3  C   UNL     1      17.976  25.667  42.395  1.00  0.00     0.238 A 
ATOM      4  O   UNL     1      18.174  26.718  43.059  1.00  0.00    -0.285 OA
ATOM      5  C   UNL     1      18.416  25.545  41.055  1.00  0.00     0.111 A 
ATOM      6  C   UNL     1      19.033  26.593  40.307  1.00  0.00     0.134 A 
ATOM      7  C   UNL     1      19.546  26.321  39.032  1.00  0.00     0.093 A 
ATOM      8  C   UNL     1      19.406  25.059  38.453  1.00  0.00     0.123 A 
ATOM      9  C   UNL     1      18.751  24.045  39.152  1.00  0.00     0.094 A 
ATOM     10  C   UNL     1      18.261  24.275  40.441  1.00  0.00     0.146 A 
ATOM     11  O   UNL     1      17.654  23.280  41.076  1.00  0.00    -0.452 OA
ENDROOT
BRANCH   1  12
ATOM     12  C   UNL     1      16.492  22.208  42.896  1.00  0.00     0.029 A 
ATOM     13  C   UNL     1      15.091  22.104  42.910  1.00  0.00     0.062 A 
ATOM     14  C   UNL     1      14.465  20.974  43.447  1.00  0.00     0.162 A 
ATOM     15  C   UNL     1      17.260  21.144  43.396  1.00  0.00     0.062 A 
ATOM     16  C   UNL     1      15.240  19.923  43.968  1.00  0.00     0.200 A 
ATOM     17  C   UNL     1      16.642  20.010  43.938  1.00  0.00     0.162 A 
BRANCH  14  18
ATOM     18  O   UNL     1      13.072  20.911  43.449  1.00  0.00    -0.504 OA
ATOM     19  H   UNL     1      12.496  21.716  43.235  1.00  0.00     0.293 HD
ENDBRANCH  14  18
BRANCH  16  20
ATOM     20  O   UNL     1      14.607  18.801  44.506  1.00  0.00    -0.502 OA
ATOM     21  H   UNL     1      14.097  18.837  45.380  1.00  0.00     0.293 HD
ENDBRANCH  16  20
BRANCH  17  22
ATOM     22  O   UNL     1      17.416  18.967  44.444  1.00  0.00    -0.504 OA
ATOM     23  H   UNL     1      18.315  19.136  44.880  1.00  0.00     0.293 HD
ENDBRANCH  17  22
ENDBRANCH   1  12
BRANCH   2  24
ATOM     24  O   UNL     1      16.920  24.674  44.353  1.00  0.00    -0.502 OA
ATOM     25  H   UNL     1      16.645  23.864  44.894  1.00  0.00     0.293 HD
ENDBRANCH   2  24
BRANCH   6  26
ATOM     26  O   UNL     1      19.142  27.912  40.754  1.00  0.00    -0.507 OA
ATOM     27  H   UNL     1      18.520  28.347  41.419  1.00  0.00     0.293 HD
ENDBRANCH   6  26
BRANCH   8  28
ATOM     28  O   UNL     1      19.914  24.829  37.178  1.00  0.00    -0.508 OA
ATOM     29  H   UNL     1      19.319  24.523  36.416  1.00  0.00     0.293 HD
ENDBRANCH   8  28
TORSDOF 7
ENDMDL
