MODEL 1
REMARK VINA RESULT:    -4.180      0.000      0.000
REMARK INTER + INTRA:          -6.176
REMARK INTER:                  -5.646
REMARK INTRA:                  -0.531
REMARK UNBOUND:                -0.531
REMARK SMILES [NH3+]CCCC[C@@H]([NH3+])C(=O)[O-]
REMARK SMILES IDX 4 1 3 2 2 3 1 4 5 8 6 9 7 10 8 14 9 15 10 16
REMARK H PARENT 1 5 1 6 1 7 7 11 7 12 7 13
REMARK Flexibility Score: inf
ROOT
ATOM      1  C   UNL     1       7.776 -11.841 -30.434  1.00  0.00     0.012 C 
ENDROOT
BRANCH   1   2
ATOM      2  C   UNL     1       6.280 -11.950 -30.774  1.00  0.00     0.061 C 
BRANCH   2   3
ATOM      3  C   UNL     1       5.508 -10.657 -30.463  1.00  0.00     0.258 C 
BRANCH   3   4
ATOM      4  N   UNL     1       4.797 -10.730 -29.184  1.00  0.00    -0.358 N 
ATOM      5  H   UNL     1       5.170 -11.514 -28.603  1.00  0.00     0.344 HD
ATOM      6  H   UNL     1       4.883  -9.826 -28.665  1.00  0.00     0.344 HD
ATOM      7  H   UNL     1       3.785 -10.913 -29.371  1.00  0.00     0.344 HD
ENDBRANCH   3   4
ENDBRANCH   2   3
ENDBRANCH   1   2
BRANCH   1   8
ATOM      8  C   UNL     1       8.194 -12.762 -29.272  1.00  0.00     0.072 C 
BRANCH   8   9
ATOM      9  C   UNL     1       7.054 -13.652 -28.721  1.00  0.00     0.227 C 
BRANCH   9  10
ATOM     10  N   UNL     1       7.406 -15.071 -28.858  1.00  0.00    -0.350 N 
ATOM     11  H   UNL     1       6.568 -15.616 -29.163  1.00  0.00     0.345 HD
ATOM     12  H   UNL     1       8.171 -15.196 -29.562  1.00  0.00     0.345 HD
ATOM     13  H   UNL     1       7.724 -15.448 -27.936  1.00  0.00     0.345 HD
ENDBRANCH   9  10
BRANCH   9  14
ATOM     14  C   UNL     1       6.764 -13.335 -27.277  1.00  0.00     0.099 C 
ATOM     15  O   UNL     1       7.225 -14.069 -26.363  1.00  0.00    -0.544 OA
ATOM     16  O   UNL     1       5.982 -12.237 -26.943  1.00  0.00    -0.544 OA
ENDBRANCH   9  14
ENDBRANCH   8   9
ENDBRANCH   1   8
TORSDOF 7
ENDMDL
MODEL 2
REMARK VINA RESULT:    -4.094      2.421      4.126
REMARK INTER + INTRA:          -6.061
REMARK INTER:                  -5.528
REMARK INTRA:                  -0.533
REMARK UNBOUND:                -0.531
REMARK SMILES [NH3+]CCCC[C@@H]([NH3+])C(=O)[O-]
REMARK SMILES IDX 4 1 3 2 2 3 1 4 5 8 6 9 7 10 8 14 9 15 10 16
REMARK H PARENT 1 5 1 6 1 7 7 11 7 12 7 13
REMARK Flexibility Score: inf
ROOT
ATOM      1  C   UNL     1       7.356 -13.432 -28.184  1.00  0.00     0.012 C 
ENDROOT
BRANCH   1   2
ATOM      2  C   UNL     1       6.614 -14.767 -28.355  1.00  0.00     0.061 C 
BRANCH   2   3
ATOM      3  C   UNL     1       6.841 -15.394 -29.742  1.00  0.00     0.258 C 
BRANCH   3   4
ATOM      4  N   UNL     1       5.650 -15.308 -30.590  1.00  0.00    -0.358 N 
ATOM      5  H   UNL     1       5.222 -16.252 -30.717  1.00  0.00     0.344 HD
ATOM      6  H   UNL     1       4.951 -14.650 -30.175  1.00  0.00     0.344 HD
ATOM      7  H   UNL     1       5.931 -14.947 -31.531  1.00  0.00     0.344 HD
ENDBRANCH   3   4
ENDBRANCH   2   3
ENDBRANCH   1   2
BRANCH   1   8
ATOM      8  C   UNL     1       6.400 -12.228 -28.068  1.00  0.00     0.072 C 
BRANCH   8   9
ATOM      9  C   UNL     1       5.635 -11.892 -29.370  1.00  0.00     0.227 C 
BRANCH   9  10
ATOM     10  N   UNL     1       4.797 -10.703 -29.173  1.00  0.00    -0.350 N 
ATOM     11  H   UNL     1       5.091 -10.202 -28.304  1.00  0.00     0.345 HD
ATOM     12  H   UNL     1       4.882 -10.051 -29.988  1.00  0.00     0.345 HD
ATOM     13  H   UNL     1       3.797 -10.988 -29.064  1.00  0.00     0.345 HD
ENDBRANCH   9  10
BRANCH   9  14
ATOM     14  C   UNL     1       6.586 -11.664 -30.516  1.00  0.00     0.099 C 
ATOM     15  O   UNL     1       7.436 -10.736 -30.458  1.00  0.00    -0.544 OA
ATOM     16  O   UNL     1       6.528 -12.468 -31.648  1.00  0.00    -0.544 OA
ENDBRANCH   9  14
ENDBRANCH   8   9
ENDBRANCH   1   8
TORSDOF 7
ENDMDL
MODEL 3
REMARK VINA RESULT:    -4.068      1.553      1.951
REMARK INTER + INTRA:          -6.026
REMARK INTER:                  -5.583
REMARK INTRA:                  -0.442
REMARK UNBOUND:                -0.531
REMARK SMILES [NH3+]CCCC[C@@H]([NH3+])C(=O)[O-]
REMARK SMILES IDX 4 1 3 2 2 3 1 4 5 8 6 9 7 10 8 14 9 15 10 16
REMARK H PARENT 1 5 1 6 1 7 7 11 7 12 7 13
REMARK Flexibility Score: inf
ROOT
ATOM      1  C   UNL     1       8.541 -10.683 -29.595  1.00  0.00     0.012 C 
ENDROOT
BRANCH   1   2
ATOM      2  C   UNL     1       7.314 -10.066 -28.904  1.00  0.00     0.061 C 
BRANCH   2   3
ATOM      3  C   UNL     1       6.061 -10.089 -29.796  1.00  0.00     0.258 C 
BRANCH   3   4
ATOM      4  N   UNL     1       4.959 -10.834 -29.183  1.00  0.00    -0.358 N 
ATOM      5  H   UNL     1       5.278 -11.306 -28.307  1.00  0.00     0.344 HD
ATOM      6  H   UNL     1       4.156 -10.196 -28.976  1.00  0.00     0.344 HD
ATOM      7  H   UNL     1       4.636 -11.571 -29.852  1.00  0.00     0.344 HD
ENDBRANCH   3   4
ENDBRANCH   2   3
ENDBRANCH   1   2
BRANCH   1   8
ATOM      8  C   UNL     1       8.817 -12.131 -29.143  1.00  0.00     0.072 C 
BRANCH   8   9
ATOM      9  C   UNL     1       7.834 -13.178 -29.720  1.00  0.00     0.227 C 
BRANCH   9  10
ATOM     10  N   UNL     1       8.556 -14.146 -30.554  1.00  0.00    -0.350 N 
ATOM     11  H   UNL     1       9.324 -14.588 -29.999  1.00  0.00     0.345 HD
ATOM     12  H   UNL     1       7.909 -14.894 -30.898  1.00  0.00     0.345 HD
ATOM     13  H   UNL     1       8.985 -13.659 -31.374  1.00  0.00     0.345 HD
ENDBRANCH   9  10
BRANCH   9  14
ATOM     14  C   UNL     1       7.099 -13.898 -28.620  1.00  0.00     0.099 C 
ATOM     15  O   UNL     1       6.486 -13.243 -27.735  1.00  0.00    -0.544 OA
ATOM     16  O   UNL     1       7.097 -15.286 -28.568  1.00  0.00    -0.544 OA
ENDBRANCH   9  14
ENDBRANCH   8   9
ENDBRANCH   1   8
TORSDOF 7
ENDMDL
MODEL 4
REMARK VINA RESULT:    -4.046     15.784     16.808
REMARK INTER + INTRA:          -5.996
REMARK INTER:                  -5.461
REMARK INTRA:                  -0.536
REMARK UNBOUND:                -0.531
REMARK SMILES [NH3+]CCCC[C@@H]([NH3+])C(=O)[O-]
REMARK SMILES IDX 4 1 3 2 2 3 1 4 5 8 6 9 7 10 8 14 9 15 10 16
REMARK H PARENT 1 5 1 6 1 7 7 11 7 12 7 13
REMARK Flexibility Score: inf
ROOT
ATOM      1  C   UNL     1       0.787 -14.845 -12.382  1.00  0.00     0.012 C 
ENDROOT
BRANCH   1   2
ATOM      2  C   UNL     1       0.601 -16.334 -12.714  1.00  0.00     0.061 C 
BRANCH   2   3
ATOM      3  C   UNL     1       1.417 -16.771 -13.943  1.00  0.00     0.258 C 
BRANCH   3   4
ATOM      4  N   UNL     1       0.666 -16.616 -15.191  1.00  0.00    -0.358 N 
ATOM      5  H   UNL     1       1.180 -17.061 -15.984  1.00  0.00     0.344 HD
ATOM      6  H   UNL     1      -0.287 -17.036 -15.100  1.00  0.00     0.344 HD
ATOM      7  H   UNL     1       0.563 -15.596 -15.399  1.00  0.00     0.344 HD
ENDBRANCH   3   4
ENDBRANCH   2   3
ENDBRANCH   1   2
BRANCH   1   8
ATOM      8  C   UNL     1      -0.478 -14.008 -12.653  1.00  0.00     0.072 C 
BRANCH   8   9
ATOM      9  C   UNL     1      -0.369 -13.061 -13.872  1.00  0.00     0.227 C 
BRANCH   9  10
ATOM     10  N   UNL     1       1.028 -12.957 -14.310  1.00  0.00    -0.350 N 
ATOM     11  H   UNL     1       1.093 -12.328 -15.142  1.00  0.00     0.345 HD
ATOM     12  H   UNL     1       1.629 -12.573 -13.544  1.00  0.00     0.345 HD
ATOM     13  H   UNL     1       1.385 -13.901 -14.585  1.00  0.00     0.345 HD
ENDBRANCH   9  10
BRANCH   9  14
ATOM     14  C   UNL     1      -1.228 -13.541 -15.013  1.00  0.00     0.099 C 
ATOM     15  O   UNL     1      -2.480 -13.411 -14.960  1.00  0.00    -0.544 OA
ATOM     16  O   UNL     1      -0.648 -14.136 -16.127  1.00  0.00    -0.544 OA
ENDBRANCH   9  14
ENDBRANCH   8   9
ENDBRANCH   1   8
TORSDOF 7
ENDMDL
MODEL 5
REMARK VINA RESULT:    -4.026      2.294      3.990
REMARK INTER + INTRA:          -5.968
REMARK INTER:                  -5.509
REMARK INTRA:                  -0.460
REMARK UNBOUND:                -0.531
REMARK SMILES [NH3+]CCCC[C@@H]([NH3+])C(=O)[O-]
REMARK SMILES IDX 4 1 3 2 2 3 1 4 5 8 6 9 7 10 8 14 9 15 10 16
REMARK H PARENT 1 5 1 6 1 7 7 11 7 12 7 13
REMARK Flexibility Score: inf
ROOT
ATOM      1  C   UNL     1       6.820 -13.667 -27.988  1.00  0.00     0.012 C 
ENDROOT
BRANCH   1   2
ATOM      2  C   UNL     1       6.266 -14.385 -29.230  1.00  0.00     0.061 C 
BRANCH   2   3
ATOM      3  C   UNL     1       7.362 -14.716 -30.257  1.00  0.00     0.258 C 
BRANCH   3   4
ATOM      4  N   UNL     1       8.495 -13.791 -30.176  1.00  0.00    -0.358 N 
ATOM      5  H   UNL     1       8.159 -12.812 -30.032  1.00  0.00     0.344 HD
ATOM      6  H   UNL     1       9.139 -14.068 -29.399  1.00  0.00     0.344 HD
ATOM      7  H   UNL     1       9.025 -13.825 -31.077  1.00  0.00     0.344 HD
ENDBRANCH   3   4
ENDBRANCH   2   3
ENDBRANCH   1   2
BRANCH   1   8
ATOM      8  C   UNL     1       6.213 -12.264 -27.790  1.00  0.00     0.072 C 
BRANCH   8   9
ATOM      9  C   UNL     1       6.064 -11.443 -29.093  1.00  0.00     0.227 C 
BRANCH   9  10
ATOM     10  N   UNL     1       4.777 -10.736 -29.102  1.00  0.00    -0.350 N 
ATOM     11  H   UNL     1       4.193 -11.074 -29.900  1.00  0.00     0.345 HD
ATOM     12  H   UNL     1       4.259 -10.897 -28.206  1.00  0.00     0.345 HD
ATOM     13  H   UNL     1       4.937  -9.710 -29.226  1.00  0.00     0.345 HD
ENDBRANCH   9  10
BRANCH   9  14
ATOM     14  C   UNL     1       7.191 -10.455 -29.246  1.00  0.00     0.099 C 
ATOM     15  O   UNL     1       6.941  -9.238 -29.453  1.00  0.00    -0.544 OA
ATOM     16  O   UNL     1       8.512 -10.879 -29.169  1.00  0.00    -0.544 OA
ENDBRANCH   9  14
ENDBRANCH   8   9
ENDBRANCH   1   8
TORSDOF 7
ENDMDL
MODEL 6
REMARK VINA RESULT:    -3.964      2.181      4.204
REMARK INTER + INTRA:          -5.885
REMARK INTER:                  -5.620
REMARK INTRA:                  -0.265
REMARK UNBOUND:                -0.531
REMARK SMILES [NH3+]CCCC[C@@H]([NH3+])C(=O)[O-]
REMARK SMILES IDX 4 1 3 2 2 3 1 4 5 8 6 9 7 10 8 14 9 15 10 16
REMARK H PARENT 1 5 1 6 1 7 7 11 7 12 7 13
REMARK Flexibility Score: inf
ROOT
ATOM      1  C   UNL     1       5.944 -13.223 -29.554  1.00  0.00     0.012 C 
ENDROOT
BRANCH   1   2
ATOM      2  C   UNL     1       7.105 -13.564 -28.606  1.00  0.00     0.061 C 
BRANCH   2   3
ATOM      3  C   UNL     1       6.719 -13.416 -27.124  1.00  0.00     0.258 C 
BRANCH   3   4
ATOM      4  N   UNL     1       7.451 -14.349 -26.265  1.00  0.00    -0.358 N 
ATOM      5  H   UNL     1       7.562 -13.952 -25.305  1.00  0.00     0.344 HD
ATOM      6  H   UNL     1       6.956 -15.269 -26.218  1.00  0.00     0.344 HD
ATOM      7  H   UNL     1       8.404 -14.503 -26.667  1.00  0.00     0.344 HD
ENDBRANCH   3   4
ENDBRANCH   2   3
ENDBRANCH   1   2
BRANCH   1   8
ATOM      8  C   UNL     1       6.302 -12.112 -30.561  1.00  0.00     0.072 C 
BRANCH   8   9
ATOM      9  C   UNL     1       5.788 -10.705 -30.169  1.00  0.00     0.227 C 
BRANCH   9  10
ATOM     10  N   UNL     1       4.769 -10.812 -29.118  1.00  0.00    -0.350 N 
ATOM     11  H   UNL     1       5.150 -11.352 -28.308  1.00  0.00     0.345 HD
ATOM     12  H   UNL     1       4.476  -9.863 -28.788  1.00  0.00     0.345 HD
ATOM     13  H   UNL     1       3.932 -11.321 -29.485  1.00  0.00     0.345 HD
ENDBRANCH   9  10
BRANCH   9  14
ATOM     14  C   UNL     1       6.917  -9.825 -29.699  1.00  0.00     0.099 C 
ATOM     15  O   UNL     1       7.408  -8.960 -30.471  1.00  0.00    -0.544 OA
ATOM     16  O   UNL     1       7.429  -9.966 -28.415  1.00  0.00    -0.544 OA
ENDBRANCH   9  14
ENDBRANCH   8   9
ENDBRANCH   1   8
TORSDOF 7
ENDMDL
MODEL 7
REMARK VINA RESULT:    -3.905      2.026      2.670
REMARK INTER + INTRA:          -5.805
REMARK INTER:                  -5.374
REMARK INTRA:                  -0.431
REMARK UNBOUND:                -0.531
REMARK SMILES [NH3+]CCCC[C@@H]([NH3+])C(=O)[O-]
REMARK SMILES IDX 4 1 3 2 2 3 1 4 5 8 6 9 7 10 8 14 9 15 10 16
REMARK H PARENT 1 5 1 6 1 7 7 11 7 12 7 13
REMARK Flexibility Score: inf
ROOT
ATOM      1  C   UNL     1       8.354 -11.672 -29.877  1.00  0.00     0.012 C 
ENDROOT
BRANCH   1   2
ATOM      2  C   UNL     1       8.030 -11.241 -31.317  1.00  0.00     0.061 C 
BRANCH   2   3
ATOM      3  C   UNL     1       7.341 -12.354 -32.125  1.00  0.00     0.258 C 
BRANCH   3   4
ATOM      4  N   UNL     1       5.880 -12.258 -32.067  1.00  0.00    -0.358 N 
ATOM      5  H   UNL     1       5.494 -11.991 -33.000  1.00  0.00     0.344 HD
ATOM      6  H   UNL     1       5.466 -13.165 -31.752  1.00  0.00     0.344 HD
ATOM      7  H   UNL     1       5.618 -11.514 -31.380  1.00  0.00     0.344 HD
ENDBRANCH   3   4
ENDBRANCH   2   3
ENDBRANCH   1   2
BRANCH   1   8
ATOM      8  C   UNL     1       7.563 -10.874 -28.822  1.00  0.00     0.072 C 
BRANCH   8   9
ATOM      9  C   UNL     1       6.361 -11.635 -28.213  1.00  0.00     0.227 C 
BRANCH   9  10
ATOM     10  N   UNL     1       5.110 -11.189 -28.837  1.00  0.00    -0.350 N 
ATOM     11  H   UNL     1       5.321 -10.547 -29.635  1.00  0.00     0.345 HD
ATOM     12  H   UNL     1       4.561 -12.006 -29.192  1.00  0.00     0.345 HD
ATOM     13  H   UNL     1       4.533 -10.664 -28.140  1.00  0.00     0.345 HD
ENDBRANCH   9  10
BRANCH   9  14
ATOM     14  C   UNL     1       6.516 -13.124 -28.385  1.00  0.00     0.099 C 
ATOM     15  O   UNL     1       5.906 -13.720 -29.311  1.00  0.00    -0.544 OA
ATOM     16  O   UNL     1       7.325 -13.850 -27.520  1.00  0.00    -0.544 OA
ENDBRANCH   9  14
ENDBRANCH   8   9
ENDBRANCH   1   8
TORSDOF 7
ENDMDL
MODEL 8
REMARK VINA RESULT:    -3.790      3.097      3.916
REMARK INTER + INTRA:          -5.650
REMARK INTER:                  -5.159
REMARK INTRA:                  -0.492
REMARK UNBOUND:                -0.531
REMARK SMILES [NH3+]CCCC[C@@H]([NH3+])C(=O)[O-]
REMARK SMILES IDX 4 1 3 2 2 3 1 4 5 8 6 9 7 10 8 14 9 15 10 16
REMARK H PARENT 1 5 1 6 1 7 7 11 7 12 7 13
REMARK Flexibility Score: inf
ROOT
ATOM      1  C   UNL     1       8.230 -12.205 -29.504  1.00  0.00     0.012 C 
ENDROOT
BRANCH   1   2
ATOM      2  C   UNL     1       7.066 -12.831 -28.719  1.00  0.00     0.061 C 
BRANCH   2   3
ATOM      3  C   UNL     1       6.227 -11.781 -27.971  1.00  0.00     0.258 C 
BRANCH   3   4
ATOM      4  N   UNL     1       5.114 -11.282 -28.781  1.00  0.00    -0.358 N 
ATOM      5  H   UNL     1       4.553 -12.077 -29.163  1.00  0.00     0.344 HD
ATOM      6  H   UNL     1       4.502 -10.651 -28.215  1.00  0.00     0.344 HD
ATOM      7  H   UNL     1       5.499 -10.738 -29.587  1.00  0.00     0.344 HD
ENDBRANCH   3   4
ENDBRANCH   2   3
ENDBRANCH   1   2
BRANCH   1   8
ATOM      8  C   UNL     1       8.260 -12.644 -30.981  1.00  0.00     0.072 C 
BRANCH   8   9
ATOM      9  C   UNL     1       7.495 -11.704 -31.942  1.00  0.00     0.227 C 
BRANCH   9  10
ATOM     10  N   UNL     1       6.086 -12.109 -32.033  1.00  0.00    -0.350 N 
ATOM     11  H   UNL     1       5.815 -12.642 -31.176  1.00  0.00     0.345 HD
ATOM     12  H   UNL     1       5.465 -11.271 -32.126  1.00  0.00     0.345 HD
ATOM     13  H   UNL     1       5.949 -12.731 -32.863  1.00  0.00     0.345 HD
ENDBRANCH   9  10
BRANCH   9  14
ATOM     14  C   UNL     1       7.586 -10.270 -31.490  1.00  0.00     0.099 C 
ATOM     15  O   UNL     1       8.651  -9.619 -31.663  1.00  0.00    -0.544 OA
ATOM     16  O   UNL     1       6.503  -9.658 -30.872  1.00  0.00    -0.544 OA
ENDBRANCH   9  14
ENDBRANCH   8   9
ENDBRANCH   1   8
TORSDOF 7
ENDMDL
MODEL 9
REMARK VINA RESULT:    -3.766      2.837      4.113
REMARK INTER + INTRA:          -5.617
REMARK INTER:                  -5.113
REMARK INTRA:                  -0.504
REMARK UNBOUND:                -0.531
REMARK SMILES [NH3+]CCCC[C@@H]([NH3+])C(=O)[O-]
REMARK SMILES IDX 4 1 3 2 2 3 1 4 5 8 6 9 7 10 8 14 9 15 10 16
REMARK H PARENT 1 5 1 6 1 7 7 11 7 12 7 13
REMARK Flexibility Score: inf
ROOT
ATOM      1  C   UNL     1       8.886 -12.219 -29.339  1.00  0.00     0.012 C 
ENDROOT
BRANCH   1   2
ATOM      2  C   UNL     1       7.702 -12.938 -28.671  1.00  0.00     0.061 C 
BRANCH   2   3
ATOM      3  C   UNL     1       6.858 -13.743 -29.675  1.00  0.00     0.258 C 
BRANCH   3   4
ATOM      4  N   UNL     1       5.502 -13.208 -29.813  1.00  0.00    -0.358 N 
ATOM      5  H   UNL     1       5.449 -12.239 -29.425  1.00  0.00     0.344 HD
ATOM      6  H   UNL     1       5.207 -13.210 -30.816  1.00  0.00     0.344 HD
ATOM      7  H   UNL     1       4.844 -13.813 -29.270  1.00  0.00     0.344 HD
ENDBRANCH   3   4
ENDBRANCH   2   3
ENDBRANCH   1   2
BRANCH   1   8
ATOM      8  C   UNL     1       8.795 -10.685 -29.226  1.00  0.00     0.072 C 
BRANCH   8   9
ATOM      9  C   UNL     1       7.373 -10.150 -28.928  1.00  0.00     0.227 C 
BRANCH   9  10
ATOM     10  N   UNL     1       7.445  -8.993 -28.028  1.00  0.00    -0.350 N 
ATOM     11  H   UNL     1       6.480  -8.665 -27.795  1.00  0.00     0.345 HD
ATOM     12  H   UNL     1       7.944  -9.243 -27.142  1.00  0.00     0.345 HD
ATOM     13  H   UNL     1       7.952  -8.208 -28.498  1.00  0.00     0.345 HD
ENDBRANCH   9  10
BRANCH   9  14
ATOM     14  C   UNL     1       6.659  -9.766 -30.198  1.00  0.00     0.099 C 
ATOM     15  O   UNL     1       7.209  -8.988 -31.022  1.00  0.00    -0.544 OA
ATOM     16  O   UNL     1       5.389 -10.261 -30.467  1.00  0.00    -0.544 OA
ENDBRANCH   9  14
ENDBRANCH   8   9
ENDBRANCH   1   8
TORSDOF 7
ENDMDL
