MODEL 1
REMARK VINA RESULT:    -3.331      0.000      0.000
REMARK INTER + INTRA:          -6.127
REMARK INTER:                  -5.668
REMARK INTRA:                  -0.459
REMARK UNBOUND:                -0.459
REMARK SMILES CCCCCCCCCCCCCC(=O)[O-]
REMARK SMILES IDX 8 1 9 2 10 3 11 4 12 5 13 6 14 7 15 8 16 9 7 10 6 11 5 12
REMARK SMILES IDX 4 13 3 14 2 15 1 16
REMARK H PARENT
REMARK Flexibility Score: inf
ROOT
ATOM      1  C   UNL     1       6.873   7.146  33.604  1.00  0.00     0.000 C 
ENDROOT
BRANCH   1   2
ATOM      2  C   UNL     1       5.940   6.574  34.685  1.00  0.00     0.000 C 
BRANCH   2   3
ATOM      3  C   UNL     1       6.589   5.438  35.497  1.00  0.00     0.000 C 
BRANCH   3   4
ATOM      4  C   UNL     1       7.880   5.821  36.245  1.00  0.00     0.000 C 
BRANCH   4   5
ATOM      5  C   UNL     1       8.505   4.644  37.008  1.00  0.00     0.006 C 
BRANCH   5   6
ATOM      6  C   UNL     1       8.957   3.543  36.045  1.00  0.00     0.053 C 
BRANCH   6   7
ATOM      7  C   UNL     1      10.441   3.585  35.860  1.00  0.00     0.041 C 
ATOM      8  O   UNL     1      10.940   4.218  34.892  1.00  0.00    -0.550 OA
ATOM      9  O   UNL     1      11.270   2.883  36.725  1.00  0.00    -0.550 OA
ENDBRANCH   6   7
ENDBRANCH   5   6
ENDBRANCH   4   5
ENDBRANCH   3   4
ENDBRANCH   2   3
ENDBRANCH   1   2
BRANCH   1  10
ATOM     10  C   UNL     1       6.799   8.681  33.502  1.00  0.00     0.000 C 
BRANCH  10  11
ATOM     11  C   UNL     1       6.228   9.391  34.745  1.00  0.00    -0.000 C 
BRANCH  11  12
ATOM     12  C   UNL     1       5.905  10.885  34.555  1.00  0.00    -0.000 C 
BRANCH  12  13
ATOM     13  C   UNL     1       6.741  11.822  35.454  1.00  0.00    -0.000 C 
BRANCH  13  14
ATOM     14  C   UNL     1       5.876  12.880  36.160  1.00  0.00    -0.000 C 
BRANCH  14  15
ATOM     15  C   UNL     1       5.983  14.264  35.503  1.00  0.00    -0.003 C 
ATOM     16  C   UNL     1       5.921  14.203  33.977  1.00  0.00     0.004 C 
ENDBRANCH  14  15
ENDBRANCH  13  14
ENDBRANCH  12  13
ENDBRANCH  11  12
ENDBRANCH  10  11
ENDBRANCH   1  10
TORSDOF 12
ENDMDL
MODEL 2
REMARK VINA RESULT:    -3.063      1.733      2.539
REMARK INTER + INTRA:          -5.670
REMARK INTER:                  -4.830
REMARK INTRA:                  -0.840
REMARK UNBOUND:                -0.459
REMARK SMILES CCCCCCCCCCCCCC(=O)[O-]
REMARK SMILES IDX 8 1 9 2 10 3 11 4 12 5 13 6 14 7 15 8 16 9 7 10 6 11 5 12
REMARK SMILES IDX 4 13 3 14 2 15 1 16
REMARK H PARENT
REMARK Flexibility Score: inf
ROOT
ATOM      1  C   UNL     1       6.338   5.984  34.416  1.00  0.00     0.000 C 
ENDROOT
BRANCH   1   2
ATOM      2  C   UNL     1       6.178   4.455  34.463  1.00  0.00     0.000 C 
BRANCH   2   3
ATOM      3  C   UNL     1       6.493   3.861  35.848  1.00  0.00     0.000 C 
BRANCH   3   4
ATOM      4  C   UNL     1       6.745   2.342  35.868  1.00  0.00     0.000 C 
BRANCH   4   5
ATOM      5  C   UNL     1       7.970   1.946  36.705  1.00  0.00     0.006 C 
BRANCH   5   6
ATOM      6  C   UNL     1       9.235   1.907  35.844  1.00  0.00     0.053 C 
BRANCH   6   7
ATOM      7  C   UNL     1      10.161   3.019  36.222  1.00  0.00     0.041 C 
ATOM      8  O   UNL     1      11.053   2.833  37.091  1.00  0.00    -0.550 OA
ATOM      9  O   UNL     1      10.009   4.276  35.651  1.00  0.00    -0.550 OA
ENDBRANCH   6   7
ENDBRANCH   5   6
ENDBRANCH   4   5
ENDBRANCH   3   4
ENDBRANCH   2   3
ENDBRANCH   1   2
BRANCH   1  10
ATOM     10  C   UNL     1       7.470   6.495  35.328  1.00  0.00     0.000 C 
BRANCH  10  11
ATOM     11  C   UNL     1       7.075   7.646  36.275  1.00  0.00    -0.000 C 
BRANCH  11  12
ATOM     12  C   UNL     1       5.875   8.493  35.810  1.00  0.00    -0.000 C 
BRANCH  12  13
ATOM     13  C   UNL     1       5.913   9.953  36.311  1.00  0.00    -0.000 C 
BRANCH  13  14
ATOM     14  C   UNL     1       6.323  10.940  35.205  1.00  0.00    -0.000 C 
BRANCH  14  15
ATOM     15  C   UNL     1       5.930  10.453  33.803  1.00  0.00    -0.003 C 
ATOM     16  C   UNL     1       5.986  11.562  32.753  1.00  0.00     0.004 C 
ENDBRANCH  14  15
ENDBRANCH  13  14
ENDBRANCH  12  13
ENDBRANCH  11  12
ENDBRANCH  10  11
ENDBRANCH   1  10
TORSDOF 12
ENDMDL
MODEL 3
REMARK VINA RESULT:    -2.982     23.125     25.346
REMARK INTER + INTRA:          -5.533
REMARK INTER:                  -3.892
REMARK INTRA:                  -1.641
REMARK UNBOUND:                -0.459
REMARK SMILES CCCCCCCCCCCCCC(=O)[O-]
REMARK SMILES IDX 8 1 9 2 10 3 11 4 12 5 13 6 14 7 15 8 16 9 7 10 6 11 5 12
REMARK SMILES IDX 4 13 3 14 2 15 1 16
REMARK H PARENT
REMARK Flexibility Score: inf
ROOT
ATOM      1  C   UNL     1      22.126  21.619  17.863  1.00  0.00     0.000 C 
ENDROOT
BRANCH   1   2
ATOM      2  C   UNL     1      21.634  20.214  17.477  1.00  0.00     0.000 C 
BRANCH   2   3
ATOM      3  C   UNL     1      22.785  19.239  17.166  1.00  0.00     0.000 C 
BRANCH   3   4
ATOM      4  C   UNL     1      24.150  19.901  16.896  1.00  0.00     0.000 C 
BRANCH   4   5
ATOM      5  C   UNL     1      25.224  19.505  17.920  1.00  0.00     0.006 C 
BRANCH   5   6
ATOM      6  C   UNL     1      24.587  19.045  19.234  1.00  0.00     0.053 C 
BRANCH   6   7
ATOM      7  C   UNL     1      25.072  19.883  20.374  1.00  0.00     0.041 C 
ATOM      8  O   UNL     1      25.540  19.336  21.408  1.00  0.00    -0.550 OA
ATOM      9  O   UNL     1      24.962  21.266  20.316  1.00  0.00    -0.550 OA
ENDBRANCH   6   7
ENDBRANCH   5   6
ENDBRANCH   4   5
ENDBRANCH   3   4
ENDBRANCH   2   3
ENDBRANCH   1   2
BRANCH   1  10
ATOM     10  C   UNL     1      21.595  22.083  19.233  1.00  0.00     0.000 C 
BRANCH  10  11
ATOM     11  C   UNL     1      21.467  20.972  20.293  1.00  0.00    -0.000 C 
BRANCH  11  12
ATOM     12  C   UNL     1      20.038  20.726  20.813  1.00  0.00    -0.000 C 
BRANCH  12  13
ATOM     13  C   UNL     1      18.961  21.572  20.100  1.00  0.00    -0.000 C 
BRANCH  13  14
ATOM     14  C   UNL     1      18.138  20.747  19.096  1.00  0.00    -0.000 C 
BRANCH  14  15
ATOM     15  C   UNL     1      17.801  19.344  19.623  1.00  0.00    -0.003 C 
ATOM     16  C   UNL     1      18.063  18.245  18.593  1.00  0.00     0.004 C 
ENDBRANCH  14  15
ENDBRANCH  13  14
ENDBRANCH  12  13
ENDBRANCH  11  12
ENDBRANCH  10  11
ENDBRANCH   1  10
TORSDOF 12
ENDMDL
MODEL 4
REMARK VINA RESULT:    -2.892     22.995     24.732
REMARK INTER + INTRA:          -5.379
REMARK INTER:                  -4.334
REMARK INTRA:                  -1.045
REMARK UNBOUND:                -0.459
REMARK SMILES CCCCCCCCCCCCCC(=O)[O-]
REMARK SMILES IDX 8 1 9 2 10 3 11 4 12 5 13 6 14 7 15 8 16 9 7 10 6 11 5 12
REMARK SMILES IDX 4 13 3 14 2 15 1 16
REMARK H PARENT
REMARK Flexibility Score: inf
ROOT
ATOM      1  C   UNL     1      19.449  20.233  19.925  1.00  0.00     0.000 C 
ENDROOT
BRANCH   1   2
ATOM      2  C   UNL     1      20.341  20.833  21.026  1.00  0.00     0.000 C 
BRANCH   2   3
ATOM      3  C   UNL     1      21.078  22.107  20.573  1.00  0.00     0.000 C 
BRANCH   3   4
ATOM      4  C   UNL     1      22.611  21.988  20.498  1.00  0.00     0.000 C 
BRANCH   4   5
ATOM      5  C   UNL     1      23.085  20.953  19.467  1.00  0.00     0.006 C 
BRANCH   5   6
ATOM      6  C   UNL     1      23.952  19.878  20.126  1.00  0.00     0.053 C 
BRANCH   6   7
ATOM      7  C   UNL     1      25.262  20.454  20.563  1.00  0.00     0.041 C 
ATOM      8  O   UNL     1      25.666  20.286  21.743  1.00  0.00    -0.550 OA
ATOM      9  O   UNL     1      26.013  21.219  19.680  1.00  0.00    -0.550 OA
ENDBRANCH   6   7
ENDBRANCH   5   6
ENDBRANCH   4   5
ENDBRANCH   3   4
ENDBRANCH   2   3
ENDBRANCH   1   2
BRANCH   1  10
ATOM     10  C   UNL     1      19.038  21.267  18.860  1.00  0.00     0.000 C 
BRANCH  10  11
ATOM     11  C   UNL     1      17.518  21.447  18.679  1.00  0.00    -0.000 C 
BRANCH  11  12
ATOM     12  C   UNL     1      16.898  20.643  17.519  1.00  0.00    -0.000 C 
BRANCH  12  13
ATOM     13  C   UNL     1      16.598  19.171  17.873  1.00  0.00    -0.000 C 
BRANCH  13  14
ATOM     14  C   UNL     1      17.287  18.187  16.912  1.00  0.00    -0.000 C 
BRANCH  14  15
ATOM     15  C   UNL     1      18.638  17.688  17.447  1.00  0.00    -0.003 C 
ATOM     16  C   UNL     1      18.625  16.200  17.794  1.00  0.00     0.004 C 
ENDBRANCH  14  15
ENDBRANCH  13  14
ENDBRANCH  12  13
ENDBRANCH  11  12
ENDBRANCH  10  11
ENDBRANCH   1  10
TORSDOF 12
ENDMDL
MODEL 5
REMARK VINA RESULT:    -2.839     21.243     23.478
REMARK INTER + INTRA:          -5.289
REMARK INTER:                  -3.385
REMARK INTRA:                  -1.904
REMARK UNBOUND:                -0.459
REMARK SMILES CCCCCCCCCCCCCC(=O)[O-]
REMARK SMILES IDX 8 1 9 2 10 3 11 4 12 5 13 6 14 7 15 8 16 9 7 10 6 11 5 12
REMARK SMILES IDX 4 13 3 14 2 15 1 16
REMARK H PARENT
REMARK Flexibility Score: inf
ROOT
ATOM      1  C   UNL     1      21.412   5.605  18.405  1.00  0.00     0.000 C 
ENDROOT
BRANCH   1   2
ATOM      2  C   UNL     1      22.389   6.123  17.336  1.00  0.00     0.000 C 
BRANCH   2   3
ATOM      3  C   UNL     1      23.561   5.158  17.076  1.00  0.00     0.000 C 
BRANCH   3   4
ATOM      4  C   UNL     1      24.964   5.765  17.259  1.00  0.00     0.000 C 
BRANCH   4   5
ATOM      5  C   UNL     1      25.921   4.847  18.032  1.00  0.00     0.006 C 
BRANCH   5   6
ATOM      6  C   UNL     1      25.176   3.646  18.620  1.00  0.00     0.053 C 
BRANCH   6   7
ATOM      7  C   UNL     1      25.480   3.502  20.078  1.00  0.00     0.041 C 
ATOM      8  O   UNL     1      25.630   4.524  20.798  1.00  0.00    -0.550 OA
ATOM      9  O   UNL     1      25.648   2.239  20.632  1.00  0.00    -0.550 OA
ENDBRANCH   6   7
ENDBRANCH   5   6
ENDBRANCH   4   5
ENDBRANCH   3   4
ENDBRANCH   2   3
ENDBRANCH   1   2
BRANCH   1  10
ATOM     10  C   UNL     1      22.063   5.465  19.794  1.00  0.00     0.000 C 
BRANCH  10  11
ATOM     11  C   UNL     1      21.901   4.082  20.453  1.00  0.00    -0.000 C 
BRANCH  11  12
ATOM     12  C   UNL     1      20.504   3.448  20.308  1.00  0.00    -0.000 C 
BRANCH  12  13
ATOM     13  C   UNL     1      20.504   2.112  19.534  1.00  0.00    -0.000 C 
BRANCH  13  14
ATOM     14  C   UNL     1      19.711   2.200  18.218  1.00  0.00    -0.000 C 
BRANCH  14  15
ATOM     15  C   UNL     1      20.623   2.287  16.985  1.00  0.00    -0.003 C 
ATOM     16  C   UNL     1      22.064   1.875  17.282  1.00  0.00     0.004 C 
ENDBRANCH  14  15
ENDBRANCH  13  14
ENDBRANCH  12  13
ENDBRANCH  11  12
ENDBRANCH  10  11
ENDBRANCH   1  10
TORSDOF 12
ENDMDL
MODEL 6
REMARK VINA RESULT:    -2.822      4.350      8.680
REMARK INTER + INTRA:          -5.261
REMARK INTER:                  -4.755
REMARK INTRA:                  -0.505
REMARK UNBOUND:                -0.459
REMARK SMILES CCCCCCCCCCCCCC(=O)[O-]
REMARK SMILES IDX 8 1 9 2 10 3 11 4 12 5 13 6 14 7 15 8 16 9 7 10 6 11 5 12
REMARK SMILES IDX 4 13 3 14 2 15 1 16
REMARK H PARENT
REMARK Flexibility Score: inf
ROOT
ATOM      1  C   UNL     1       6.234   8.874  33.571  1.00  0.00     0.000 C 
ENDROOT
BRANCH   1   2
ATOM      2  C   UNL     1       6.727   9.623  34.821  1.00  0.00     0.000 C 
BRANCH   2   3
ATOM      3  C   UNL     1       5.965  10.937  35.073  1.00  0.00     0.000 C 
BRANCH   3   4
ATOM      4  C   UNL     1       6.658  11.924  36.030  1.00  0.00     0.000 C 
BRANCH   4   5
ATOM      5  C   UNL     1       5.875  13.232  36.216  1.00  0.00     0.006 C 
BRANCH   5   6
ATOM      6  C   UNL     1       6.672  14.429  35.688  1.00  0.00     0.053 C 
BRANCH   6   7
ATOM      7  C   UNL     1       6.139  14.870  34.362  1.00  0.00     0.041 C 
ATOM      8  O   UNL     1       5.892  14.022  33.464  1.00  0.00    -0.550 OA
ATOM      9  O   UNL     1       5.962  16.222  34.098  1.00  0.00    -0.550 OA
ENDBRANCH   6   7
ENDBRANCH   5   6
ENDBRANCH   4   5
ENDBRANCH   3   4
ENDBRANCH   2   3
ENDBRANCH   1   2
BRANCH   1  10
ATOM     10  C   UNL     1       6.496   7.358  33.640  1.00  0.00     0.000 C 
BRANCH  10  11
ATOM     11  C   UNL     1       7.392   6.903  34.809  1.00  0.00    -0.000 C 
BRANCH  11  12
ATOM     12  C   UNL     1       6.917   5.634  35.542  1.00  0.00    -0.000 C 
BRANCH  12  13
ATOM     13  C   UNL     1       8.042   4.892  36.295  1.00  0.00    -0.000 C 
BRANCH  13  14
ATOM     14  C   UNL     1       9.441   5.294  35.799  1.00  0.00    -0.000 C 
BRANCH  14  15
ATOM     15  C   UNL     1      10.356   4.081  35.570  1.00  0.00    -0.003 C 
ATOM     16  C   UNL     1      10.499   3.203  36.813  1.00  0.00     0.004 C 
ENDBRANCH  14  15
ENDBRANCH  13  14
ENDBRANCH  12  13
ENDBRANCH  11  12
ENDBRANCH  10  11
ENDBRANCH   1  10
TORSDOF 12
ENDMDL
MODEL 7
REMARK VINA RESULT:    -2.819     21.104     23.152
REMARK INTER + INTRA:          -5.255
REMARK INTER:                  -3.591
REMARK INTRA:                  -1.665
REMARK UNBOUND:                -0.459
REMARK SMILES CCCCCCCCCCCCCC(=O)[O-]
REMARK SMILES IDX 8 1 9 2 10 3 11 4 12 5 13 6 14 7 15 8 16 9 7 10 6 11 5 12
REMARK SMILES IDX 4 13 3 14 2 15 1 16
REMARK H PARENT
REMARK Flexibility Score: inf
ROOT
ATOM      1  C   UNL     1      20.584   3.971  20.559  1.00  0.00     0.000 C 
ENDROOT
BRANCH   1   2
ATOM      2  C   UNL     1      21.997   3.367  20.626  1.00  0.00     0.000 C 
BRANCH   2   3
ATOM      3  C   UNL     1      23.108   4.428  20.514  1.00  0.00     0.000 C 
BRANCH   3   4
ATOM      4  C   UNL     1      24.122   4.440  21.673  1.00  0.00     0.000 C 
BRANCH   4   5
ATOM      5  C   UNL     1      25.571   4.238  21.206  1.00  0.00     0.006 C 
BRANCH   5   6
ATOM      6  C   UNL     1      25.653   3.166  20.116  1.00  0.00     0.053 C 
BRANCH   6   7
ATOM      7  C   UNL     1      25.890   3.794  18.779  1.00  0.00     0.041 C 
ATOM      8  O   UNL     1      26.114   5.029  18.691  1.00  0.00    -0.550 OA
ATOM      9  O   UNL     1      25.813   3.023  17.626  1.00  0.00    -0.550 OA
ENDBRANCH   6   7
ENDBRANCH   5   6
ENDBRANCH   4   5
ENDBRANCH   3   4
ENDBRANCH   2   3
ENDBRANCH   1   2
BRANCH   1  10
ATOM     10  C   UNL     1      19.729   3.367  19.429  1.00  0.00     0.000 C 
BRANCH  10  11
ATOM     11  C   UNL     1      20.472   2.382  18.504  1.00  0.00    -0.000 C 
BRANCH  11  12
ATOM     12  C   UNL     1      20.805   2.927  17.102  1.00  0.00    -0.000 C 
BRANCH  12  13
ATOM     13  C   UNL     1      22.311   3.183  16.875  1.00  0.00    -0.000 C 
BRANCH  13  14
ATOM     14  C   UNL     1      22.674   4.674  16.988  1.00  0.00    -0.000 C 
BRANCH  14  15
ATOM     15  C   UNL     1      21.443   5.589  16.903  1.00  0.00    -0.003 C 
ATOM     16  C   UNL     1      21.426   6.661  17.992  1.00  0.00     0.004 C 
ENDBRANCH  14  15
ENDBRANCH  13  14
ENDBRANCH  12  13
ENDBRANCH  11  12
ENDBRANCH  10  11
ENDBRANCH   1  10
TORSDOF 12
ENDMDL
MODEL 8
REMARK VINA RESULT:    -2.632     21.311     23.592
REMARK INTER + INTRA:          -4.938
REMARK INTER:                  -3.205
REMARK INTRA:                  -1.733
REMARK UNBOUND:                -0.459
REMARK SMILES CCCCCCCCCCCCCC(=O)[O-]
REMARK SMILES IDX 8 1 9 2 10 3 11 4 12 5 13 6 14 7 15 8 16 9 7 10 6 11 5 12
REMARK SMILES IDX 4 13 3 14 2 15 1 16
REMARK H PARENT
REMARK Flexibility Score: inf
ROOT
ATOM      1  C   UNL     1      21.609   3.862  20.781  1.00  0.00     0.000 C 
ENDROOT
BRANCH   1   2
ATOM      2  C   UNL     1      21.631   2.360  20.447  1.00  0.00     0.000 C 
BRANCH   2   3
ATOM      3  C   UNL     1      21.574   2.081  18.934  1.00  0.00     0.000 C 
BRANCH   3   4
ATOM      4  C   UNL     1      20.425   2.778  18.181  1.00  0.00     0.000 C 
BRANCH   4   5
ATOM      5  C   UNL     1      20.879   3.446  16.875  1.00  0.00     0.006 C 
BRANCH   5   6
ATOM      6  C   UNL     1      22.170   4.242  17.084  1.00  0.00     0.053 C 
BRANCH   6   7
ATOM      7  C   UNL     1      21.868   5.699  17.238  1.00  0.00     0.041 C 
ATOM      8  O   UNL     1      22.775   6.555  17.063  1.00  0.00    -0.550 OA
ATOM      9  O   UNL     1      20.599   6.110  17.624  1.00  0.00    -0.550 OA
ENDBRANCH   6   7
ENDBRANCH   5   6
ENDBRANCH   4   5
ENDBRANCH   3   4
ENDBRANCH   2   3
ENDBRANCH   1   2
BRANCH   1  10
ATOM     10  C   UNL     1      22.972   4.544  20.554  1.00  0.00     0.000 C 
BRANCH  10  11
ATOM     11  C   UNL     1      23.932   4.499  21.759  1.00  0.00    -0.000 C 
BRANCH  11  12
ATOM     12  C   UNL     1      25.312   3.876  21.472  1.00  0.00    -0.000 C 
BRANCH  12  13
ATOM     13  C   UNL     1      25.240   2.483  20.809  1.00  0.00    -0.000 C 
BRANCH  13  14
ATOM     14  C   UNL     1      26.125   2.387  19.555  1.00  0.00    -0.000 C 
BRANCH  14  15
ATOM     15  C   UNL     1      25.408   2.878  18.288  1.00  0.00    -0.003 C 
ATOM     16  C   UNL     1      25.764   4.320  17.927  1.00  0.00     0.004 C 
ENDBRANCH  14  15
ENDBRANCH  13  14
ENDBRANCH  12  13
ENDBRANCH  11  12
ENDBRANCH  10  11
ENDBRANCH   1  10
TORSDOF 12
ENDMDL
MODEL 9
REMARK VINA RESULT:    -1.295     22.901     25.226
REMARK INTER + INTRA:          -2.662
REMARK INTER:                  -1.362
REMARK INTRA:                  -1.300
REMARK UNBOUND:                -0.459
REMARK SMILES CCCCCCCCCCCCCC(=O)[O-]
REMARK SMILES IDX 8 1 9 2 10 3 11 4 12 5 13 6 14 7 15 8 16 9 7 10 6 11 5 12
REMARK SMILES IDX 4 13 3 14 2 15 1 16
REMARK H PARENT
REMARK Flexibility Score: inf
ROOT
ATOM      1  C   UNL     1      22.228  21.233  20.614  1.00  0.00     0.000 C 
ENDROOT
BRANCH   1   2
ATOM      2  C   UNL     1      20.999  22.125  20.856  1.00  0.00     0.000 C 
BRANCH   2   3
ATOM      3  C   UNL     1      19.766  21.332  21.330  1.00  0.00     0.000 C 
BRANCH   3   4
ATOM      4  C   UNL     1      19.174  20.360  20.292  1.00  0.00     0.000 C 
BRANCH   4   5
ATOM      5  C   UNL     1      18.938  21.012  18.922  1.00  0.00     0.006 C 
BRANCH   5   6
ATOM      6  C   UNL     1      18.705  19.953  17.842  1.00  0.00     0.053 C 
BRANCH   6   7
ATOM      7  C   UNL     1      17.767  18.897  18.337  1.00  0.00     0.041 C 
ATOM      8  O   UNL     1      18.209  17.772  18.688  1.00  0.00    -0.550 OA
ATOM      9  O   UNL     1      16.399  19.139  18.363  1.00  0.00    -0.550 OA
ENDBRANCH   6   7
ENDBRANCH   5   6
ENDBRANCH   4   5
ENDBRANCH   3   4
ENDBRANCH   2   3
ENDBRANCH   1   2
BRANCH   1  10
ATOM     10  C   UNL     1      22.841  21.428  19.214  1.00  0.00     0.000 C 
BRANCH  10  11
ATOM     11  C   UNL     1      22.557  20.290  18.214  1.00  0.00    -0.000 C 
BRANCH  11  12
ATOM     12  C   UNL     1      23.807  19.581  17.657  1.00  0.00    -0.000 C 
BRANCH  12  13
ATOM     13  C   UNL     1      25.110  19.938  18.405  1.00  0.00    -0.000 C 
BRANCH  13  14
ATOM     14  C   UNL     1      25.709  18.730  19.144  1.00  0.00    -0.000 C 
BRANCH  14  15
ATOM     15  C   UNL     1      25.333  18.703  20.633  1.00  0.00    -0.003 C 
ATOM     16  C   UNL     1      25.772  19.963  21.378  1.00  0.00     0.004 C 
ENDBRANCH  14  15
ENDBRANCH  13  14
ENDBRANCH  12  13
ENDBRANCH  11  12
ENDBRANCH  10  11
ENDBRANCH   1  10
TORSDOF 12
ENDMDL
