MODEL 1
REMARK VINA RESULT:    -4.137      0.000      0.000
REMARK INTER + INTRA:          -6.088
REMARK INTER:                  -5.589
REMARK INTRA:                  -0.500
REMARK UNBOUND:                -0.500
REMARK SMILES [NH3+]CCCC[C@@H]([NH3+])C(=O)[O-]
REMARK SMILES IDX 4 1 3 2 2 3 1 4 5 8 6 9 7 10 8 14 9 15 10 16
REMARK H PARENT 1 5 1 6 1 7 7 11 7 12 7 13
REMARK Flexibility Score: inf
ROOT
ATOM      1  C   UNL     1      13.279  -8.859 -14.082  1.00  0.00     0.012 C 
ENDROOT
BRANCH   1   2
ATOM      2  C   UNL     1      11.787  -8.489 -14.163  1.00  0.00     0.061 C 
BRANCH   2   3
ATOM      3  C   UNL     1      10.842  -9.661 -14.490  1.00  0.00     0.258 C 
BRANCH   3   4
ATOM      4  N   UNL     1      10.061  -9.426 -15.706  1.00  0.00    -0.358 N 
ATOM      5  H   UNL     1       9.544  -8.523 -15.608  1.00  0.00     0.344 HD
ATOM      6  H   UNL     1       9.361 -10.191 -15.840  1.00  0.00     0.344 HD
ATOM      7  H   UNL     1      10.691  -9.365 -16.539  1.00  0.00     0.344 HD
ENDBRANCH   3   4
ENDBRANCH   2   3
ENDBRANCH   1   2
BRANCH   1   8
ATOM      8  C   UNL     1      13.753  -9.698 -15.281  1.00  0.00     0.072 C 
BRANCH   8   9
ATOM      9  C   UNL     1      14.146  -8.830 -16.498  1.00  0.00     0.227 C 
BRANCH   9  10
ATOM     10  N   UNL     1      15.488  -9.162 -16.999  1.00  0.00    -0.350 N 
ATOM     11  H   UNL     1      16.014  -8.284 -17.216  1.00  0.00     0.345 HD
ATOM     12  H   UNL     1      15.427  -9.745 -17.865  1.00  0.00     0.345 HD
ATOM     13  H   UNL     1      16.029  -9.678 -16.269  1.00  0.00     0.345 HD
ENDBRANCH   9  10
BRANCH   9  14
ATOM     14  C   UNL     1      13.127  -9.002 -17.593  1.00  0.00     0.099 C 
ATOM     15  O   UNL     1      12.944  -8.092 -18.445  1.00  0.00    -0.544 OA
ATOM     16  O   UNL     1      12.393 -10.179 -17.681  1.00  0.00    -0.544 OA
ENDBRANCH   9  14
ENDBRANCH   8   9
ENDBRANCH   1   8
TORSDOF 7
ENDMDL
MODEL 2
REMARK VINA RESULT:    -4.097      2.586      4.533
REMARK INTER + INTRA:          -6.033
REMARK INTER:                  -5.569
REMARK INTRA:                  -0.464
REMARK UNBOUND:                -0.500
REMARK SMILES [NH3+]CCCC[C@@H]([NH3+])C(=O)[O-]
REMARK SMILES IDX 4 1 3 2 2 3 1 4 5 8 6 9 7 10 8 14 9 15 10 16
REMARK H PARENT 1 5 1 6 1 7 7 11 7 12 7 13
REMARK Flexibility Score: inf
ROOT
ATOM      1  C   UNL     1      11.948 -12.413 -18.601  1.00  0.00     0.012 C 
ENDROOT
BRANCH   1   2
ATOM      2  C   UNL     1      13.348 -12.231 -19.214  1.00  0.00     0.061 C 
BRANCH   2   3
ATOM      3  C   UNL     1      14.520 -12.582 -18.278  1.00  0.00     0.258 C 
BRANCH   3   4
ATOM      4  N   UNL     1      15.241 -11.394 -17.817  1.00  0.00    -0.358 N 
ATOM      5  H   UNL     1      14.590 -10.577 -17.824  1.00  0.00     0.344 HD
ATOM      6  H   UNL     1      16.038 -11.183 -18.459  1.00  0.00     0.344 HD
ATOM      7  H   UNL     1      15.593 -11.536 -16.842  1.00  0.00     0.344 HD
ENDBRANCH   3   4
ENDBRANCH   2   3
ENDBRANCH   1   2
BRANCH   1   8
ATOM      8  C   UNL     1      11.644 -11.394 -17.489  1.00  0.00     0.072 C 
BRANCH   8   9
ATOM      9  C   UNL     1      11.300  -9.992 -18.043  1.00  0.00     0.227 C 
BRANCH   9  10
ATOM     10  N   UNL     1      10.046  -9.473 -17.477  1.00  0.00    -0.350 N 
ATOM     11  H   UNL     1       9.229  -9.931 -17.943  1.00  0.00     0.345 HD
ATOM     12  H   UNL     1       9.979  -8.437 -17.612  1.00  0.00     0.345 HD
ATOM     13  H   UNL     1       9.989  -9.695 -16.458  1.00  0.00     0.345 HD
ENDBRANCH   9  10
BRANCH   9  14
ATOM     14  C   UNL     1      12.432  -9.042 -17.755  1.00  0.00     0.099 C 
ATOM     15  O   UNL     1      12.577  -7.995 -18.440  1.00  0.00    -0.544 OA
ATOM     16  O   UNL     1      13.315  -9.306 -16.715  1.00  0.00    -0.544 OA
ENDBRANCH   9  14
ENDBRANCH   8   9
ENDBRANCH   1   8
TORSDOF 7
ENDMDL
MODEL 3
REMARK VINA RESULT:    -3.985      1.361      3.587
REMARK INTER + INTRA:          -5.883
REMARK INTER:                  -5.371
REMARK INTRA:                  -0.511
REMARK UNBOUND:                -0.500
REMARK SMILES [NH3+]CCCC[C@@H]([NH3+])C(=O)[O-]
REMARK SMILES IDX 4 1 3 2 2 3 1 4 5 8 6 9 7 10 8 14 9 15 10 16
REMARK H PARENT 1 5 1 6 1 7 7 11 7 12 7 13
REMARK Flexibility Score: inf
ROOT
ATOM      1  C   UNL     1      12.581 -10.048 -14.876  1.00  0.00     0.012 C 
ENDROOT
BRANCH   1   2
ATOM      2  C   UNL     1      13.801  -9.114 -14.976  1.00  0.00     0.061 C 
BRANCH   2   3
ATOM      3  C   UNL     1      14.852  -9.527 -16.024  1.00  0.00     0.258 C 
BRANCH   3   4
ATOM      4  N   UNL     1      14.911  -8.596 -17.153  1.00  0.00    -0.358 N 
ATOM      5  H   UNL     1      15.362  -7.707 -16.837  1.00  0.00     0.344 HD
ATOM      6  H   UNL     1      13.947  -8.373 -17.488  1.00  0.00     0.344 HD
ATOM      7  H   UNL     1      15.478  -9.002 -17.932  1.00  0.00     0.344 HD
ENDBRANCH   3   4
ENDBRANCH   2   3
ENDBRANCH   1   2
BRANCH   1   8
ATOM      8  C   UNL     1      11.278  -9.383 -15.352  1.00  0.00     0.072 C 
BRANCH   8   9
ATOM      9  C   UNL     1      10.610 -10.147 -16.518  1.00  0.00     0.227 C 
BRANCH   9  10
ATOM     10  N   UNL     1       9.233  -9.690 -16.755  1.00  0.00    -0.350 N 
ATOM     11  H   UNL     1       9.182  -9.171 -17.664  1.00  0.00     0.345 HD
ATOM     12  H   UNL     1       8.914  -9.058 -15.985  1.00  0.00     0.345 HD
ATOM     13  H   UNL     1       8.587 -10.507 -16.826  1.00  0.00     0.345 HD
ENDBRANCH   9  10
BRANCH   9  14
ATOM     14  C   UNL     1      11.433  -9.984 -17.768  1.00  0.00     0.099 C 
ATOM     15  O   UNL     1      11.674 -10.975 -18.508  1.00  0.00    -0.544 OA
ATOM     16  O   UNL     1      11.917  -8.731 -18.123  1.00  0.00    -0.544 OA
ENDBRANCH   9  14
ENDBRANCH   8   9
ENDBRANCH   1   8
TORSDOF 7
ENDMDL
MODEL 4
REMARK VINA RESULT:    -3.983      2.121      2.494
REMARK INTER + INTRA:          -5.880
REMARK INTER:                  -5.364
REMARK INTRA:                  -0.517
REMARK UNBOUND:                -0.500
REMARK SMILES [NH3+]CCCC[C@@H]([NH3+])C(=O)[O-]
REMARK SMILES IDX 4 1 3 2 2 3 1 4 5 8 6 9 7 10 8 14 9 15 10 16
REMARK H PARENT 1 5 1 6 1 7 7 11 7 12 7 13
REMARK Flexibility Score: inf
ROOT
ATOM      1  C   UNL     1      12.183  -8.744 -14.693  1.00  0.00     0.012 C 
ENDROOT
BRANCH   1   2
ATOM      2  C   UNL     1      11.400 -10.065 -14.592  1.00  0.00     0.061 C 
BRANCH   2   3
ATOM      3  C   UNL     1      10.882 -10.619 -15.933  1.00  0.00     0.258 C 
BRANCH   3   4
ATOM      4  N   UNL     1      11.453 -11.928 -16.254  1.00  0.00    -0.358 N 
ATOM      5  H   UNL     1      12.081 -11.831 -17.085  1.00  0.00     0.344 HD
ATOM      6  H   UNL     1      10.694 -12.604 -16.495  1.00  0.00     0.344 HD
ATOM      7  H   UNL     1      12.015 -12.289 -15.449  1.00  0.00     0.344 HD
ENDBRANCH   3   4
ENDBRANCH   2   3
ENDBRANCH   1   2
BRANCH   1   8
ATOM      8  C   UNL     1      13.708  -8.950 -14.691  1.00  0.00     0.072 C 
BRANCH   8   9
ATOM      9  C   UNL     1      14.296  -9.063 -16.116  1.00  0.00     0.227 C 
BRANCH   9  10
ATOM     10  N   UNL     1      15.207  -7.951 -16.423  1.00  0.00    -0.350 N 
ATOM     11  H   UNL     1      15.791  -7.727 -15.584  1.00  0.00     0.345 HD
ATOM     12  H   UNL     1      14.669  -7.097 -16.701  1.00  0.00     0.345 HD
ATOM     13  H   UNL     1      15.859  -8.218 -17.194  1.00  0.00     0.345 HD
ENDBRANCH   9  10
BRANCH   9  14
ATOM     14  C   UNL     1      15.016 -10.378 -16.263  1.00  0.00     0.099 C 
ATOM     15  O   UNL     1      14.439 -11.458 -15.966  1.00  0.00    -0.544 OA
ATOM     16  O   UNL     1      16.317 -10.408 -16.747  1.00  0.00    -0.544 OA
ENDBRANCH   9  14
ENDBRANCH   8   9
ENDBRANCH   1   8
TORSDOF 7
ENDMDL
MODEL 5
REMARK VINA RESULT:    -3.970      2.772      3.818
REMARK INTER + INTRA:          -5.863
REMARK INTER:                  -5.397
REMARK INTRA:                  -0.466
REMARK UNBOUND:                -0.500
REMARK SMILES [NH3+]CCCC[C@@H]([NH3+])C(=O)[O-]
REMARK SMILES IDX 4 1 3 2 2 3 1 4 5 8 6 9 7 10 8 14 9 15 10 16
REMARK H PARENT 1 5 1 6 1 7 7 11 7 12 7 13
REMARK Flexibility Score: inf
ROOT
ATOM      1  C   UNL     1      10.860 -10.994 -18.274  1.00  0.00     0.012 C 
ENDROOT
BRANCH   1   2
ATOM      2  C   UNL     1      12.099 -11.824 -18.657  1.00  0.00     0.061 C 
BRANCH   2   3
ATOM      3  C   UNL     1      12.505 -12.898 -17.630  1.00  0.00     0.258 C 
BRANCH   3   4
ATOM      4  N   UNL     1      11.876 -12.689 -16.325  1.00  0.00    -0.358 N 
ATOM      5  H   UNL     1      12.014 -11.694 -16.036  1.00  0.00     0.344 HD
ATOM      6  H   UNL     1      12.322 -13.303 -15.606  1.00  0.00     0.344 HD
ATOM      7  H   UNL     1      10.850 -12.885 -16.378  1.00  0.00     0.344 HD
ENDBRANCH   3   4
ENDBRANCH   2   3
ENDBRANCH   1   2
BRANCH   1   8
ATOM      8  C   UNL     1      11.201  -9.537 -17.920  1.00  0.00     0.072 C 
BRANCH   8   9
ATOM      9  C   UNL     1      12.719  -9.251 -17.971  1.00  0.00     0.227 C 
BRANCH   9  10
ATOM     10  N   UNL     1      13.018  -8.002 -18.687  1.00  0.00    -0.350 N 
ATOM     11  H   UNL     1      12.200  -7.728 -19.280  1.00  0.00     0.345 HD
ATOM     12  H   UNL     1      13.858  -8.118 -19.300  1.00  0.00     0.345 HD
ATOM     13  H   UNL     1      13.186  -7.226 -18.009  1.00  0.00     0.345 HD
ENDBRANCH   9  10
BRANCH   9  14
ATOM     14  C   UNL     1      13.269  -9.189 -16.570  1.00  0.00     0.099 C 
ATOM     15  O   UNL     1      12.651  -9.733 -15.617  1.00  0.00    -0.544 OA
ATOM     16  O   UNL     1      14.476  -8.546 -16.324  1.00  0.00    -0.544 OA
ENDBRANCH   9  14
ENDBRANCH   8   9
ENDBRANCH   1   8
TORSDOF 7
ENDMDL
MODEL 6
REMARK VINA RESULT:    -3.958      1.634      2.832
REMARK INTER + INTRA:          -5.845
REMARK INTER:                  -5.311
REMARK INTRA:                  -0.534
REMARK UNBOUND:                -0.500
REMARK SMILES [NH3+]CCCC[C@@H]([NH3+])C(=O)[O-]
REMARK SMILES IDX 4 1 3 2 2 3 1 4 5 8 6 9 7 10 8 14 9 15 10 16
REMARK H PARENT 1 5 1 6 1 7 7 11 7 12 7 13
REMARK Flexibility Score: inf
ROOT
ATOM      1  C   UNL     1      10.779  -9.434 -15.012  1.00  0.00     0.012 C 
ENDROOT
BRANCH   1   2
ATOM      2  C   UNL     1      11.735  -8.713 -14.045  1.00  0.00     0.061 C 
BRANCH   2   3
ATOM      3  C   UNL     1      12.963  -9.536 -13.610  1.00  0.00     0.258 C 
BRANCH   3   4
ATOM      4  N   UNL     1      14.224  -8.929 -14.041  1.00  0.00    -0.358 N 
ATOM      5  H   UNL     1      14.627  -8.383 -13.246  1.00  0.00     0.344 HD
ATOM      6  H   UNL     1      14.055  -8.272 -14.836  1.00  0.00     0.344 HD
ATOM      7  H   UNL     1      14.908  -9.668 -14.324  1.00  0.00     0.344 HD
ENDBRANCH   3   4
ENDBRANCH   2   3
ENDBRANCH   1   2
BRANCH   1   8
ATOM      8  C   UNL     1      11.489 -10.480 -15.888  1.00  0.00     0.072 C 
BRANCH   8   9
ATOM      9  C   UNL     1      11.518 -10.087 -17.383  1.00  0.00     0.227 C 
BRANCH   9  10
ATOM     10  N   UNL     1      10.264  -9.446 -17.805  1.00  0.00    -0.350 N 
ATOM     11  H   UNL     1      10.254  -9.335 -18.846  1.00  0.00     0.345 HD
ATOM     12  H   UNL     1      10.161  -8.504 -17.362  1.00  0.00     0.345 HD
ATOM     13  H   UNL     1       9.447 -10.043 -17.547  1.00  0.00     0.345 HD
ENDBRANCH   9  10
BRANCH   9  14
ATOM     14  C   UNL     1      12.683  -9.168 -17.642  1.00  0.00     0.099 C 
ATOM     15  O   UNL     1      12.544  -8.152 -18.374  1.00  0.00    -0.544 OA
ATOM     16  O   UNL     1      13.916  -9.426 -17.057  1.00  0.00    -0.544 OA
ENDBRANCH   9  14
ENDBRANCH   8   9
ENDBRANCH   1   8
TORSDOF 7
ENDMDL
MODEL 7
REMARK VINA RESULT:    -3.952      8.557      9.588
REMARK INTER + INTRA:          -5.838
REMARK INTER:                  -5.730
REMARK INTRA:                  -0.108
REMARK UNBOUND:                -0.500
REMARK SMILES [NH3+]CCCC[C@@H]([NH3+])C(=O)[O-]
REMARK SMILES IDX 4 1 3 2 2 3 1 4 5 8 6 9 7 10 8 14 9 15 10 16
REMARK H PARENT 1 5 1 6 1 7 7 11 7 12 7 13
REMARK Flexibility Score: inf
ROOT
ATOM      1  C   UNL     1      22.229  -8.506 -20.102  1.00  0.00     0.012 C 
ENDROOT
BRANCH   1   2
ATOM      2  C   UNL     1      21.343  -8.160 -21.313  1.00  0.00     0.061 C 
BRANCH   2   3
ATOM      3  C   UNL     1      20.520  -6.866 -21.169  1.00  0.00     0.258 C 
BRANCH   3   4
ATOM      4  N   UNL     1      20.960  -6.048 -20.037  1.00  0.00    -0.358 N 
ATOM      5  H   UNL     1      20.147  -5.886 -19.399  1.00  0.00     0.344 HD
ATOM      6  H   UNL     1      21.302  -5.119 -20.373  1.00  0.00     0.344 HD
ATOM      7  H   UNL     1      21.714  -6.537 -19.503  1.00  0.00     0.344 HD
ENDBRANCH   3   4
ENDBRANCH   2   3
ENDBRANCH   1   2
BRANCH   1   8
ATOM      8  C   UNL     1      22.168  -9.995 -19.721  1.00  0.00     0.072 C 
BRANCH   8   9
ATOM      9  C   UNL     1      21.247 -10.263 -18.509  1.00  0.00     0.227 C 
BRANCH   9  10
ATOM     10  N   UNL     1      20.343  -9.134 -18.248  1.00  0.00    -0.350 N 
ATOM     11  H   UNL     1      20.526  -8.365 -18.935  1.00  0.00     0.345 HD
ATOM     12  H   UNL     1      20.481  -8.764 -17.279  1.00  0.00     0.345 HD
ATOM     13  H   UNL     1      19.349  -9.430 -18.370  1.00  0.00     0.345 HD
ENDBRANCH   9  10
BRANCH   9  14
ATOM     14  C   UNL     1      20.452 -11.519 -18.746  1.00  0.00     0.099 C 
ATOM     15  O   UNL     1      20.408 -12.040 -19.893  1.00  0.00    -0.544 OA
ATOM     16  O   UNL     1      19.776 -12.124 -17.694  1.00  0.00    -0.544 OA
ENDBRANCH   9  14
ENDBRANCH   8   9
ENDBRANCH   1   8
TORSDOF 7
ENDMDL
MODEL 8
REMARK VINA RESULT:    -3.929      2.197      3.804
REMARK INTER + INTRA:          -5.807
REMARK INTER:                  -5.283
REMARK INTRA:                  -0.524
REMARK UNBOUND:                -0.500
REMARK SMILES [NH3+]CCCC[C@@H]([NH3+])C(=O)[O-]
REMARK SMILES IDX 4 1 3 2 2 3 1 4 5 8 6 9 7 10 8 14 9 15 10 16
REMARK H PARENT 1 5 1 6 1 7 7 11 7 12 7 13
REMARK Flexibility Score: inf
ROOT
ATOM      1  C   UNL     1      12.361  -9.081 -15.983  1.00  0.00     0.012 C 
ENDROOT
BRANCH   1   2
ATOM      2  C   UNL     1      13.826  -9.032 -15.512  1.00  0.00     0.061 C 
BRANCH   2   3
ATOM      3  C   UNL     1      14.815  -8.422 -16.523  1.00  0.00     0.258 C 
BRANCH   3   4
ATOM      4  N   UNL     1      15.825  -9.384 -16.967  1.00  0.00    -0.358 N 
ATOM      5  H   UNL     1      16.257  -9.834 -16.128  1.00  0.00     0.344 HD
ATOM      6  H   UNL     1      16.580  -8.896 -17.500  1.00  0.00     0.344 HD
ATOM      7  H   UNL     1      15.388 -10.126 -17.559  1.00  0.00     0.344 HD
ENDBRANCH   3   4
ENDBRANCH   2   3
ENDBRANCH   1   2
BRANCH   1   8
ATOM      8  C   UNL     1      12.213  -9.596 -17.425  1.00  0.00     0.072 C 
BRANCH   8   9
ATOM      9  C   UNL     1      12.057 -11.133 -17.497  1.00  0.00     0.227 C 
BRANCH   9  10
ATOM     10  N   UNL     1      10.859 -11.527 -18.252  1.00  0.00    -0.350 N 
ATOM     11  H   UNL     1      10.234 -12.110 -17.648  1.00  0.00     0.345 HD
ATOM     12  H   UNL     1      11.121 -12.078 -19.102  1.00  0.00     0.345 HD
ATOM     13  H   UNL     1      10.317 -10.682 -18.538  1.00  0.00     0.345 HD
ENDBRANCH   9  10
BRANCH   9  14
ATOM     14  C   UNL     1      13.287 -11.738 -18.121  1.00  0.00     0.099 C 
ATOM     15  O   UNL     1      13.322 -11.979 -19.357  1.00  0.00    -0.544 OA
ATOM     16  O   UNL     1      14.400 -12.016 -17.338  1.00  0.00    -0.544 OA
ENDBRANCH   9  14
ENDBRANCH   8   9
ENDBRANCH   1   8
TORSDOF 7
ENDMDL
MODEL 9
REMARK VINA RESULT:    -3.917      2.409      3.412
REMARK INTER + INTRA:          -5.791
REMARK INTER:                  -5.344
REMARK INTRA:                  -0.446
REMARK UNBOUND:                -0.500
REMARK SMILES [NH3+]CCCC[C@@H]([NH3+])C(=O)[O-]
REMARK SMILES IDX 4 1 3 2 2 3 1 4 5 8 6 9 7 10 8 14 9 15 10 16
REMARK H PARENT 1 5 1 6 1 7 7 11 7 12 7 13
REMARK Flexibility Score: inf
ROOT
ATOM      1  C   UNL     1      13.414  -9.582 -17.061  1.00  0.00     0.012 C 
ENDROOT
BRANCH   1   2
ATOM      2  C   UNL     1      12.293  -8.883 -17.851  1.00  0.00     0.061 C 
BRANCH   2   3
ATOM      3  C   UNL     1      11.071  -9.766 -18.166  1.00  0.00     0.258 C 
BRANCH   3   4
ATOM      4  N   UNL     1       9.940  -9.491 -17.277  1.00  0.00    -0.358 N 
ATOM      5  H   UNL     1       9.069  -9.415 -17.850  1.00  0.00     0.344 HD
ATOM      6  H   UNL     1      10.084  -8.584 -16.779  1.00  0.00     0.344 HD
ATOM      7  H   UNL     1       9.821 -10.267 -16.586  1.00  0.00     0.344 HD
ENDBRANCH   3   4
ENDBRANCH   2   3
ENDBRANCH   1   2
BRANCH   1   8
ATOM      8  C   UNL     1      13.870  -8.778 -15.831  1.00  0.00     0.072 C 
BRANCH   8   9
ATOM      9  C   UNL     1      13.392  -9.404 -14.500  1.00  0.00     0.227 C 
BRANCH   9  10
ATOM     10  N   UNL     1      14.160  -8.901 -13.351  1.00  0.00    -0.350 N 
ATOM     11  H   UNL     1      14.776  -9.660 -12.976  1.00  0.00     0.345 HD
ATOM     12  H   UNL     1      13.520  -8.576 -12.590  1.00  0.00     0.345 HD
ATOM     13  H   UNL     1      14.779  -8.114 -13.646  1.00  0.00     0.345 HD
ENDBRANCH   9  10
BRANCH   9  14
ATOM     14  C   UNL     1      11.926  -9.122 -14.306  1.00  0.00     0.099 C 
ATOM     15  O   UNL     1      11.077 -10.046 -14.424  1.00  0.00    -0.544 OA
ATOM     16  O   UNL     1      11.501  -7.842 -13.975  1.00  0.00    -0.544 OA
ENDBRANCH   9  14
ENDBRANCH   8   9
ENDBRANCH   1   8
TORSDOF 7
ENDMDL
