MODEL 1
REMARK VINA RESULT:    -4.673      0.000      0.000
REMARK INTER + INTRA:          -7.270
REMARK INTER:                  -6.586
REMARK INTRA:                  -0.684
REMARK UNBOUND:                -0.684
REMARK SMILES C=CCCCCCCC(=O)[O-]
REMARK SMILES IDX 6 1 7 2 8 3 9 4 10 5 11 6 5 7 4 8 3 9 2 10 1 11
REMARK H PARENT
REMARK Flexibility Score: inf
ROOT
ATOM      1  C   UNL     1     -65.409  -0.003   0.319  1.00  0.00     0.000 C 
ENDROOT
BRANCH   1   2
ATOM      2  C   UNL     1     -64.621   0.567  -0.869  1.00  0.00     0.006 C 
BRANCH   2   3
ATOM      3  C   UNL     1     -64.965  -0.178  -2.162  1.00  0.00     0.053 C 
BRANCH   3   4
ATOM      4  C   UNL     1     -64.182   0.375  -3.310  1.00  0.00     0.041 C 
ATOM      5  O   UNL     1     -64.626   1.353  -3.968  1.00  0.00    -0.550 OA
ATOM      6  O   UNL     1     -62.938  -0.157  -3.625  1.00  0.00    -0.550 OA
ENDBRANCH   3   4
ENDBRANCH   2   3
ENDBRANCH   1   2
BRANCH   1   7
ATOM      7  C   UNL     1     -64.599  -1.024   1.133  1.00  0.00     0.000 C 
BRANCH   7   8
ATOM      8  C   UNL     1     -64.930  -2.477   0.759  1.00  0.00     0.004 C 
BRANCH   8   9
ATOM      9  C   UNL     1     -63.668  -3.347   0.772  1.00  0.00     0.027 C 
BRANCH   9  10
ATOM     10  C   UNL     1     -62.522  -2.657   0.085  1.00  0.00    -0.035 C 
ATOM     11  C   UNL     1     -62.350  -2.725  -1.238  1.00  0.00     0.004 C 
ENDBRANCH   9  10
ENDBRANCH   8   9
ENDBRANCH   7   8
ENDBRANCH   1   7
TORSDOF 7
ENDMDL
MODEL 2
REMARK VINA RESULT:    -4.556      1.964      2.774
REMARK INTER + INTRA:          -7.105
REMARK INTER:                  -6.254
REMARK INTRA:                  -0.851
REMARK UNBOUND:                -0.684
REMARK SMILES C=CCCCCCCC(=O)[O-]
REMARK SMILES IDX 6 1 7 2 8 3 9 4 10 5 11 6 5 7 4 8 3 9 2 10 1 11
REMARK H PARENT
REMARK Flexibility Score: inf
ROOT
ATOM      1  C   UNL     1     -63.420   0.752  -1.139  1.00  0.00     0.000 C 
ENDROOT
BRANCH   1   2
ATOM      2  C   UNL     1     -62.416   0.379  -2.239  1.00  0.00     0.006 C 
BRANCH   2   3
ATOM      3  C   UNL     1     -63.037  -0.605  -3.236  1.00  0.00     0.053 C 
BRANCH   3   4
ATOM      4  C   UNL     1     -63.156  -1.965  -2.624  1.00  0.00     0.041 C 
ATOM      5  O   UNL     1     -64.230  -2.615  -2.728  1.00  0.00    -0.550 OA
ATOM      6  O   UNL     1     -62.066  -2.536  -1.981  1.00  0.00    -0.550 OA
ENDBRANCH   3   4
ENDBRANCH   2   3
ENDBRANCH   1   2
BRANCH   1   7
ATOM      7  C   UNL     1     -62.835   0.603   0.274  1.00  0.00     0.000 C 
BRANCH   7   8
ATOM      8  C   UNL     1     -63.221  -0.727   0.938  1.00  0.00     0.004 C 
BRANCH   8   9
ATOM      9  C   UNL     1     -64.705  -1.041   0.713  1.00  0.00     0.027 C 
BRANCH   9  10
ATOM     10  C   UNL     1     -64.955  -2.524   0.714  1.00  0.00    -0.035 C 
ATOM     11  C   UNL     1     -63.958  -3.406   0.830  1.00  0.00     0.004 C 
ENDBRANCH   9  10
ENDBRANCH   8   9
ENDBRANCH   7   8
ENDBRANCH   1   7
TORSDOF 7
ENDMDL
MODEL 3
REMARK VINA RESULT:    -4.543      1.265      2.759
REMARK INTER + INTRA:          -7.085
REMARK INTER:                  -6.445
REMARK INTRA:                  -0.640
REMARK UNBOUND:                -0.684
REMARK SMILES C=CCCCCCCC(=O)[O-]
REMARK SMILES IDX 6 1 7 2 8 3 9 4 10 5 11 6 5 7 4 8 3 9 2 10 1 11
REMARK H PARENT
REMARK Flexibility Score: inf
ROOT
ATOM      1  C   UNL     1     -63.633  -2.069  -2.694  1.00  0.00     0.000 C 
ENDROOT
BRANCH   1   2
ATOM      2  C   UNL     1     -63.247  -0.590  -2.834  1.00  0.00     0.006 C 
BRANCH   2   3
ATOM      3  C   UNL     1     -64.452   0.252  -3.266  1.00  0.00     0.053 C 
BRANCH   3   4
ATOM      4  C   UNL     1     -64.079   1.698  -3.344  1.00  0.00     0.041 C 
ATOM      5  O   UNL     1     -62.871   2.047  -3.280  1.00  0.00    -0.550 OA
ATOM      6  O   UNL     1     -65.063   2.660  -3.535  1.00  0.00    -0.550 OA
ENDBRANCH   3   4
ENDBRANCH   2   3
ENDBRANCH   1   2
BRANCH   1   7
ATOM      7  C   UNL     1     -63.330  -2.632  -1.296  1.00  0.00     0.000 C 
BRANCH   7   8
ATOM      8  C   UNL     1     -64.596  -3.076  -0.548  1.00  0.00     0.004 C 
BRANCH   8   9
ATOM      9  C   UNL     1     -64.667  -2.429   0.841  1.00  0.00     0.027 C 
BRANCH   9  10
ATOM     10  C   UNL     1     -64.452  -0.943   0.762  1.00  0.00    -0.035 C 
ATOM     11  C   UNL     1     -65.430  -0.109   0.396  1.00  0.00     0.004 C 
ENDBRANCH   9  10
ENDBRANCH   8   9
ENDBRANCH   7   8
ENDBRANCH   1   7
TORSDOF 7
ENDMDL
MODEL 4
REMARK VINA RESULT:    -4.537      2.080      3.504
REMARK INTER + INTRA:          -7.078
REMARK INTER:                  -6.255
REMARK INTRA:                  -0.823
REMARK UNBOUND:                -0.684
REMARK SMILES C=CCCCCCCC(=O)[O-]
REMARK SMILES IDX 6 1 7 2 8 3 9 4 10 5 11 6 5 7 4 8 3 9 2 10 1 11
REMARK H PARENT
REMARK Flexibility Score: inf
ROOT
ATOM      1  C   UNL     1     -64.650   2.560  -2.689  1.00  0.00     0.000 C 
ENDROOT
BRANCH   1   2
ATOM      2  C   UNL     1     -64.472   1.385  -3.662  1.00  0.00     0.006 C 
BRANCH   2   3
ATOM      3  C   UNL     1     -65.064   0.098  -3.080  1.00  0.00     0.053 C 
BRANCH   3   4
ATOM      4  C   UNL     1     -63.997  -0.934  -2.897  1.00  0.00     0.041 C 
ATOM      5  O   UNL     1     -64.302  -2.111  -2.569  1.00  0.00    -0.550 OA
ATOM      6  O   UNL     1     -62.668  -0.609  -3.136  1.00  0.00    -0.550 OA
ENDBRANCH   3   4
ENDBRANCH   2   3
ENDBRANCH   1   2
BRANCH   1   7
ATOM      7  C   UNL     1     -63.517   2.651  -1.655  1.00  0.00     0.000 C 
BRANCH   7   8
ATOM      8  C   UNL     1     -63.969   2.248  -0.243  1.00  0.00     0.004 C 
BRANCH   8   9
ATOM      9  C   UNL     1     -62.948   1.309   0.410  1.00  0.00     0.027 C 
BRANCH   9  10
ATOM     10  C   UNL     1     -63.520  -0.068   0.605  1.00  0.00    -0.035 C 
ATOM     11  C   UNL     1     -64.837  -0.276   0.702  1.00  0.00     0.004 C 
ENDBRANCH   9  10
ENDBRANCH   8   9
ENDBRANCH   7   8
ENDBRANCH   1   7
TORSDOF 7
ENDMDL
MODEL 5
REMARK VINA RESULT:    -4.523      1.998      3.051
REMARK INTER + INTRA:          -7.058
REMARK INTER:                  -6.151
REMARK INTRA:                  -0.907
REMARK UNBOUND:                -0.684
REMARK SMILES C=CCCCCCCC(=O)[O-]
REMARK SMILES IDX 6 1 7 2 8 3 9 4 10 5 11 6 5 7 4 8 3 9 2 10 1 11
REMARK H PARENT
REMARK Flexibility Score: inf
ROOT
ATOM      1  C   UNL     1     -64.996  -2.501   0.556  1.00  0.00     0.000 C 
ENDROOT
BRANCH   1   2
ATOM      2  C   UNL     1     -64.576  -1.125   1.094  1.00  0.00     0.006 C 
BRANCH   2   3
ATOM      3  C   UNL     1     -65.038  -0.006   0.156  1.00  0.00     0.053 C 
BRANCH   3   4
ATOM      4  C   UNL     1     -63.986   1.051   0.043  1.00  0.00     0.041 C 
ATOM      5  O   UNL     1     -64.299   2.226  -0.282  1.00  0.00    -0.550 OA
ATOM      6  O   UNL     1     -62.663   0.750   0.344  1.00  0.00    -0.550 OA
ENDBRANCH   3   4
ENDBRANCH   2   3
ENDBRANCH   1   2
BRANCH   1   7
ATOM      7  C   UNL     1     -64.108  -2.981  -0.602  1.00  0.00     0.000 C 
BRANCH   7   8
ATOM      8  C   UNL     1     -62.613  -2.747  -0.340  1.00  0.00     0.004 C 
BRANCH   8   9
ATOM      9  C   UNL     1     -61.924  -2.164  -1.580  1.00  0.00     0.027 C 
BRANCH   9  10
ATOM     10  C   UNL     1     -62.931  -1.675  -2.584  1.00  0.00    -0.035 C 
ATOM     11  C   UNL     1     -62.805  -0.491  -3.189  1.00  0.00     0.004 C 
ENDBRANCH   9  10
ENDBRANCH   8   9
ENDBRANCH   7   8
ENDBRANCH   1   7
TORSDOF 7
ENDMDL
MODEL 6
REMARK VINA RESULT:    -4.499      2.807      4.870
REMARK INTER + INTRA:          -7.024
REMARK INTER:                  -6.385
REMARK INTRA:                  -0.639
REMARK UNBOUND:                -0.684
REMARK SMILES C=CCCCCCCC(=O)[O-]
REMARK SMILES IDX 6 1 7 2 8 3 9 4 10 5 11 6 5 7 4 8 3 9 2 10 1 11
REMARK H PARENT
REMARK Flexibility Score: inf
ROOT
ATOM      1  C   UNL     1     -62.479   1.629   0.185  1.00  0.00     0.000 C 
ENDROOT
BRANCH   1   2
ATOM      2  C   UNL     1     -62.763   0.177  -0.228  1.00  0.00     0.006 C 
BRANCH   2   3
ATOM      3  C   UNL     1     -63.277  -0.639   0.962  1.00  0.00     0.053 C 
BRANCH   3   4
ATOM      4  C   UNL     1     -64.711  -1.015   0.759  1.00  0.00     0.041 C 
ATOM      5  O   UNL     1     -65.562  -0.134   0.467  1.00  0.00    -0.550 OA
ATOM      6  O   UNL     1     -65.100  -2.346   0.844  1.00  0.00    -0.550 OA
ENDBRANCH   3   4
ENDBRANCH   2   3
ENDBRANCH   1   2
BRANCH   1   7
ATOM      7  C   UNL     1     -62.740   2.630  -0.951  1.00  0.00     0.000 C 
BRANCH   7   8
ATOM      8  C   UNL     1     -64.219   2.685  -1.365  1.00  0.00     0.004 C 
BRANCH   8   9
ATOM      9  C   UNL     1     -64.357   2.895  -2.878  1.00  0.00     0.027 C 
BRANCH   9  10
ATOM     10  C   UNL     1     -64.303   1.587  -3.617  1.00  0.00    -0.035 C 
ATOM     11  C   UNL     1     -64.994   0.519  -3.209  1.00  0.00     0.004 C 
ENDBRANCH   9  10
ENDBRANCH   8   9
ENDBRANCH   7   8
ENDBRANCH   1   7
TORSDOF 7
ENDMDL
MODEL 7
REMARK VINA RESULT:    -4.495      2.397      4.713
REMARK INTER + INTRA:          -7.018
REMARK INTER:                  -6.375
REMARK INTRA:                  -0.643
REMARK UNBOUND:                -0.684
REMARK SMILES C=CCCCCCCC(=O)[O-]
REMARK SMILES IDX 6 1 7 2 8 3 9 4 10 5 11 6 5 7 4 8 3 9 2 10 1 11
REMARK H PARENT
REMARK Flexibility Score: inf
ROOT
ATOM      1  C   UNL     1     -64.242  -2.438  -2.011  1.00  0.00     0.000 C 
ENDROOT
BRANCH   1   2
ATOM      2  C   UNL     1     -63.956  -2.990  -0.606  1.00  0.00     0.006 C 
BRANCH   2   3
ATOM      3  C   UNL     1     -64.928  -2.402   0.421  1.00  0.00     0.053 C 
BRANCH   3   4
ATOM      4  C   UNL     1     -64.636  -0.953   0.649  1.00  0.00     0.041 C 
ATOM      5  O   UNL     1     -63.478  -0.582   0.975  1.00  0.00    -0.550 OA
ATOM      6  O   UNL     1     -65.632  -0.004   0.453  1.00  0.00    -0.550 OA
ENDBRANCH   3   4
ENDBRANCH   2   3
ENDBRANCH   1   2
BRANCH   1   7
ATOM      7  C   UNL     1     -63.013  -1.770  -2.647  1.00  0.00     0.000 C 
BRANCH   7   8
ATOM      8  C   UNL     1     -63.199  -0.259  -2.855  1.00  0.00     0.004 C 
BRANCH   8   9
ATOM      9  C   UNL     1     -64.667   0.076  -3.145  1.00  0.00     0.027 C 
BRANCH   9  10
ATOM     10  C   UNL     1     -64.996   1.486  -2.738  1.00  0.00    -0.035 C 
ATOM     11  C   UNL     1     -64.669   2.533  -3.501  1.00  0.00     0.004 C 
ENDBRANCH   9  10
ENDBRANCH   8   9
ENDBRANCH   7   8
ENDBRANCH   1   7
TORSDOF 7
ENDMDL
MODEL 8
REMARK VINA RESULT:    -4.486      1.572      3.505
REMARK INTER + INTRA:          -7.005
REMARK INTER:                  -6.087
REMARK INTRA:                  -0.919
REMARK UNBOUND:                -0.684
REMARK SMILES C=CCCCCCCC(=O)[O-]
REMARK SMILES IDX 6 1 7 2 8 3 9 4 10 5 11 6 5 7 4 8 3 9 2 10 1 11
REMARK H PARENT
REMARK Flexibility Score: inf
ROOT
ATOM      1  C   UNL     1     -65.000  -2.513   0.531  1.00  0.00     0.000 C 
ENDROOT
BRANCH   1   2
ATOM      2  C   UNL     1     -64.383  -3.016  -0.782  1.00  0.00     0.006 C 
BRANCH   2   3
ATOM      3  C   UNL     1     -62.890  -2.681  -0.849  1.00  0.00     0.053 C 
BRANCH   3   4
ATOM      4  C   UNL     1     -62.526  -2.181  -2.210  1.00  0.00     0.041 C 
ATOM      5  O   UNL     1     -61.860  -1.120  -2.339  1.00  0.00    -0.550 OA
ATOM      6  O   UNL     1     -62.880  -2.912  -3.338  1.00  0.00    -0.550 OA
ENDBRANCH   3   4
ENDBRANCH   2   3
ENDBRANCH   1   2
BRANCH   1   7
ATOM      7  C   UNL     1     -64.521  -1.103   0.909  1.00  0.00     0.000 C 
BRANCH   7   8
ATOM      8  C   UNL     1     -65.278   0.002   0.157  1.00  0.00     0.004 C 
BRANCH   8   9
ATOM      9  C   UNL     1     -64.308   0.891  -0.631  1.00  0.00     0.027 C 
BRANCH   9  10
ATOM     10  C   UNL     1     -64.683   0.953  -2.086  1.00  0.00    -0.035 C 
ATOM     11  C   UNL     1     -65.479   0.038  -2.647  1.00  0.00     0.004 C 
ENDBRANCH   9  10
ENDBRANCH   8   9
ENDBRANCH   7   8
ENDBRANCH   1   7
TORSDOF 7
ENDMDL
MODEL 9
REMARK VINA RESULT:    -4.480      1.651      2.928
REMARK INTER + INTRA:          -6.997
REMARK INTER:                  -6.177
REMARK INTRA:                  -0.820
REMARK UNBOUND:                -0.684
REMARK SMILES C=CCCCCCCC(=O)[O-]
REMARK SMILES IDX 6 1 7 2 8 3 9 4 10 5 11 6 5 7 4 8 3 9 2 10 1 11
REMARK H PARENT
REMARK Flexibility Score: inf
ROOT
ATOM      1  C   UNL     1     -63.907  -2.934  -0.559  1.00  0.00     0.000 C 
ENDROOT
BRANCH   1   2
ATOM      2  C   UNL     1     -64.257  -2.614  -2.019  1.00  0.00     0.006 C 
BRANCH   2   3
ATOM      3  C   UNL     1     -63.002  -2.621  -2.897  1.00  0.00     0.053 C 
BRANCH   3   4
ATOM      4  C   UNL     1     -62.319  -1.292  -2.845  1.00  0.00     0.041 C 
ATOM      5  O   UNL     1     -62.846  -0.285  -3.389  1.00  0.00    -0.550 OA
ATOM      6  O   UNL     1     -61.122  -1.151  -2.154  1.00  0.00    -0.550 OA
ENDBRANCH   3   4
ENDBRANCH   2   3
ENDBRANCH   1   2
BRANCH   1   7
ATOM      7  C   UNL     1     -64.985  -2.457   0.428  1.00  0.00     0.000 C 
BRANCH   7   8
ATOM      8  C   UNL     1     -64.619  -1.130   1.110  1.00  0.00     0.004 C 
BRANCH   8   9
ATOM      9  C   UNL     1     -63.147  -0.776   0.865  1.00  0.00     0.027 C 
BRANCH   9  10
ATOM     10  C   UNL     1     -63.003   0.621   0.329  1.00  0.00    -0.035 C 
ATOM     11  C   UNL     1     -63.982   1.215  -0.359  1.00  0.00     0.004 C 
ENDBRANCH   9  10
ENDBRANCH   8   9
ENDBRANCH   7   8
ENDBRANCH   1   7
TORSDOF 7
ENDMDL
