MODEL 1
REMARK VINA RESULT:    -5.993      0.000      0.000
REMARK INTER + INTRA:          -5.993
REMARK INTER:                  -5.993
REMARK INTRA:                   0.000
REMARK UNBOUND:                 0.000
REMARK SMILES C=C1CCC[C@@]2(C)CC(=O)C(=C(C)C)C[C@@H]12
REMARK SMILES IDX 13 1 12 2 11 3 15 4 16 5 2 6 1 7 3 8 4 9 5 10 6 11 8 12 9 13
REMARK SMILES IDX 10 14 7 15 14 16
REMARK H PARENT
REMARK Flexibility Score: inf
ROOT
ATOM      1  C   UNL     1     102.372 113.305 124.081  1.00  0.00     0.039 C 
ATOM      2  C   UNL     1     102.881 114.452 123.239  1.00  0.00    -0.070 C 
ATOM      3  C   UNL     1     102.090 115.527 122.953  1.00  0.00    -0.006 C 
ATOM      4  C   UNL     1     100.669 115.629 123.493  1.00  0.00     0.047 C 
ATOM      5  C   UNL     1     100.204 117.088 123.738  1.00  0.00     0.025 C 
ATOM      6  C   UNL     1     100.751 117.735 125.012  1.00  0.00    -0.073 C 
ATOM      7  C   UNL     1     101.697 117.188 125.800  1.00  0.00     0.008 C 
ATOM      8  C   UNL     1     100.236 119.118 125.318  1.00  0.00     0.031 C 
ATOM      9  C   UNL     1     100.537 120.045 124.139  1.00  0.00     0.005 C 
ATOM     10  C   UNL     1     100.001 119.470 122.816  1.00  0.00     0.008 C 
ATOM     11  C   UNL     1     100.477 118.015 122.509  1.00  0.00    -0.018 C 
ATOM     12  C   UNL     1     101.992 118.001 122.176  1.00  0.00     0.088 C 
ATOM     13  C   UNL     1     102.518 116.604 122.014  1.00  0.00     0.159 C 
ATOM     14  O   UNL     1     103.314 116.365 121.066  1.00  0.00    -0.295 OA
ATOM     15  C   UNL     1      99.678 117.529 121.270  1.00  0.00     0.012 C 
ATOM     16  C   UNL     1     104.314 114.371 122.765  1.00  0.00     0.039 C 
ENDROOT
TORSDOF 0
ENDMDL
MODEL 2
REMARK VINA RESULT:    -5.917      1.637      1.904
REMARK INTER + INTRA:          -5.917
REMARK INTER:                  -5.917
REMARK INTRA:                   0.000
REMARK UNBOUND:                 0.000
REMARK SMILES C=C1CCC[C@@]2(C)CC(=O)C(=C(C)C)C[C@@H]12
REMARK SMILES IDX 13 1 12 2 11 3 15 4 16 5 2 6 1 7 3 8 4 9 5 10 6 11 8 12 9 13
REMARK SMILES IDX 10 14 7 15 14 16
REMARK H PARENT
REMARK Flexibility Score: inf
ROOT
ATOM      1  C   UNL     1     102.306 114.533 121.179  1.00  0.00     0.039 C 
ATOM      2  C   UNL     1     102.634 116.006 121.098  1.00  0.00    -0.070 C 
ATOM      3  C   UNL     1     101.812 116.947 121.648  1.00  0.00    -0.006 C 
ATOM      4  C   UNL     1     100.542 116.549 122.389  1.00  0.00     0.047 C 
ATOM      5  C   UNL     1     100.156 117.534 123.524  1.00  0.00     0.025 C 
ATOM      6  C   UNL     1     100.972 117.387 124.811  1.00  0.00    -0.073 C 
ATOM      7  C   UNL     1     102.059 116.602 124.940  1.00  0.00     0.008 C 
ATOM      8  C   UNL     1     100.549 118.268 125.958  1.00  0.00     0.031 C 
ATOM      9  C   UNL     1     100.599 119.732 125.520  1.00  0.00     0.005 C 
ATOM     10  C   UNL     1      99.785 119.967 124.236  1.00  0.00     0.008 C 
ATOM     11  C   UNL     1     100.168 119.023 123.051  1.00  0.00    -0.018 C 
ATOM     12  C   UNL     1     101.575 119.384 122.508  1.00  0.00     0.088 C 
ATOM     13  C   UNL     1     102.039 118.409 121.464  1.00  0.00     0.159 C 
ATOM     14  O   UNL     1     102.609 118.857 120.432  1.00  0.00    -0.295 OA
ATOM     15  C   UNL     1      99.116 119.250 121.934  1.00  0.00     0.012 C 
ATOM     16  C   UNL     1     103.931 116.383 120.418  1.00  0.00     0.039 C 
ENDROOT
TORSDOF 0
ENDMDL
MODEL 3
REMARK VINA RESULT:    -5.849      1.967      4.649
REMARK INTER + INTRA:          -5.849
REMARK INTER:                  -5.849
REMARK INTRA:                   0.000
REMARK UNBOUND:                 0.000
REMARK SMILES C=C1CCC[C@@]2(C)CC(=O)C(=C(C)C)C[C@@H]12
REMARK SMILES IDX 13 1 12 2 11 3 15 4 16 5 2 6 1 7 3 8 4 9 5 10 6 11 8 12 9 13
REMARK SMILES IDX 10 14 7 15 14 16
REMARK H PARENT
REMARK Flexibility Score: inf
ROOT
ATOM      1  C   UNL     1     103.258 116.069 126.809  1.00  0.00     0.039 C 
ATOM      2  C   UNL     1     102.376 116.595 125.700  1.00  0.00    -0.070 C 
ATOM      3  C   UNL     1     102.547 116.192 124.408  1.00  0.00    -0.006 C 
ATOM      4  C   UNL     1     103.616 115.173 124.032  1.00  0.00     0.047 C 
ATOM      5  C   UNL     1     103.234 114.297 122.811  1.00  0.00     0.025 C 
ATOM      6  C   UNL     1     102.242 113.170 123.110  1.00  0.00    -0.073 C 
ATOM      7  C   UNL     1     101.595 113.014 124.281  1.00  0.00     0.008 C 
ATOM      8  C   UNL     1     101.931 112.248 121.959  1.00  0.00     0.031 C 
ATOM      9  C   UNL     1     101.391 113.065 120.786  1.00  0.00     0.005 C 
ATOM     10  C   UNL     1     102.343 114.215 120.410  1.00  0.00     0.008 C 
ATOM     11  C   UNL     1     102.724 115.148 121.603  1.00  0.00    -0.018 C 
ATOM     12  C   UNL     1     101.498 115.991 122.042  1.00  0.00     0.088 C 
ATOM     13  C   UNL     1     101.785 116.796 123.277  1.00  0.00     0.159 C 
ATOM     14  O   UNL     1     101.379 117.989 123.327  1.00  0.00    -0.295 OA
ATOM     15  C   UNL     1     103.840 116.099 121.094  1.00  0.00     0.012 C 
ATOM     16  C   UNL     1     101.276 117.554 126.095  1.00  0.00     0.039 C 
ENDROOT
TORSDOF 0
ENDMDL
MODEL 4
REMARK VINA RESULT:    -5.676      1.774      4.845
REMARK INTER + INTRA:          -5.676
REMARK INTER:                  -5.676
REMARK INTRA:                   0.000
REMARK UNBOUND:                 0.000
REMARK SMILES C=C1CCC[C@@]2(C)CC(=O)C(=C(C)C)C[C@@H]12
REMARK SMILES IDX 13 1 12 2 11 3 15 4 16 5 2 6 1 7 3 8 4 9 5 10 6 11 8 12 9 13
REMARK SMILES IDX 10 14 7 15 14 16
REMARK H PARENT
REMARK Flexibility Score: inf
ROOT
ATOM      1  C   UNL     1      99.231 119.173 124.250  1.00  0.00     0.039 C 
ATOM      2  C   UNL     1     100.411 118.503 124.917  1.00  0.00    -0.070 C 
ATOM      3  C   UNL     1     100.939 117.345 124.424  1.00  0.00    -0.006 C 
ATOM      4  C   UNL     1     100.378 116.692 123.167  1.00  0.00     0.047 C 
ATOM      5  C   UNL     1     101.441 115.912 122.349  1.00  0.00     0.025 C 
ATOM      6  C   UNL     1     102.371 116.784 121.502  1.00  0.00    -0.073 C 
ATOM      7  C   UNL     1     102.416 118.129 121.557  1.00  0.00     0.008 C 
ATOM      8  C   UNL     1     103.347 116.042 120.626  1.00  0.00     0.031 C 
ATOM      9  C   UNL     1     104.207 115.121 121.492  1.00  0.00     0.005 C 
ATOM     10  C   UNL     1     103.342 114.195 122.366  1.00  0.00     0.008 C 
ATOM     11  C   UNL     1     102.283 114.942 123.239  1.00  0.00    -0.018 C 
ATOM     12  C   UNL     1     102.982 115.746 124.365  1.00  0.00     0.088 C 
ATOM     13  C   UNL     1     102.010 116.591 125.138  1.00  0.00     0.159 C 
ATOM     14  O   UNL     1     102.115 116.636 126.393  1.00  0.00    -0.295 OA
ATOM     15  C   UNL     1     101.375 113.857 123.875  1.00  0.00     0.012 C 
ATOM     16  C   UNL     1     101.000 119.196 126.124  1.00  0.00     0.039 C 
ENDROOT
TORSDOF 0
ENDMDL
MODEL 5
REMARK VINA RESULT:    -5.576      2.084      3.660
REMARK INTER + INTRA:          -5.576
REMARK INTER:                  -5.576
REMARK INTRA:                   0.000
REMARK UNBOUND:                 0.000
REMARK SMILES C=C1CCC[C@@]2(C)CC(=O)C(=C(C)C)C[C@@H]12
REMARK SMILES IDX 13 1 12 2 11 3 15 4 16 5 2 6 1 7 3 8 4 9 5 10 6 11 8 12 9 13
REMARK SMILES IDX 10 14 7 15 14 16
REMARK H PARENT
REMARK Flexibility Score: inf
ROOT
ATOM      1  C   UNL     1     101.405 110.989 121.248  1.00  0.00     0.039 C 
ATOM      2  C   UNL     1     102.166 112.281 121.060  1.00  0.00    -0.070 C 
ATOM      3  C   UNL     1     101.978 113.342 121.898  1.00  0.00    -0.006 C 
ATOM      4  C   UNL     1     101.011 113.260 123.073  1.00  0.00     0.047 C 
ATOM      5  C   UNL     1     101.428 114.142 124.279  1.00  0.00     0.025 C 
ATOM      6  C   UNL     1     102.552 113.564 125.143  1.00  0.00    -0.073 C 
ATOM      7  C   UNL     1     103.270 112.469 124.828  1.00  0.00     0.008 C 
ATOM      8  C   UNL     1     102.907 114.359 126.373  1.00  0.00     0.031 C 
ATOM      9  C   UNL     1     103.294 115.780 125.966  1.00  0.00     0.005 C 
ATOM     10  C   UNL     1     102.202 116.440 125.105  1.00  0.00     0.008 C 
ATOM     11  C   UNL     1     101.779 115.605 123.855  1.00  0.00    -0.018 C 
ATOM     12  C   UNL     1     102.923 115.581 122.809  1.00  0.00     0.088 C 
ATOM     13  C   UNL     1     102.610 114.671 121.655  1.00  0.00     0.159 C 
ATOM     14  O   UNL     1     102.882 115.061 120.488  1.00  0.00    -0.295 OA
ATOM     15  C   UNL     1     100.540 116.307 123.240  1.00  0.00     0.012 C 
ATOM     16  C   UNL     1     103.171 112.328 119.932  1.00  0.00     0.039 C 
ENDROOT
TORSDOF 0
ENDMDL
MODEL 6
REMARK VINA RESULT:    -5.522     11.945     13.857
REMARK INTER + INTRA:          -5.522
REMARK INTER:                  -5.522
REMARK INTRA:                   0.000
REMARK UNBOUND:                 0.000
REMARK SMILES C=C1CCC[C@@]2(C)CC(=O)C(=C(C)C)C[C@@H]12
REMARK SMILES IDX 13 1 12 2 11 3 15 4 16 5 2 6 1 7 3 8 4 9 5 10 6 11 8 12 9 13
REMARK SMILES IDX 10 14 7 15 14 16
REMARK H PARENT
REMARK Flexibility Score: inf
ROOT
ATOM      1  C   UNL     1      97.245 107.756 110.353  1.00  0.00     0.039 C 
ATOM      2  C   UNL     1      97.193 108.558 111.633  1.00  0.00    -0.070 C 
ATOM      3  C   UNL     1      98.097 108.352 112.635  1.00  0.00    -0.006 C 
ATOM      4  C   UNL     1      99.211 107.322 112.495  1.00  0.00     0.047 C 
ATOM      5  C   UNL     1     100.499 107.696 113.274  1.00  0.00     0.025 C 
ATOM      6  C   UNL     1     101.374 108.758 112.604  1.00  0.00    -0.073 C 
ATOM      7  C   UNL     1     101.016 109.464 111.514  1.00  0.00     0.008 C 
ATOM      8  C   UNL     1     102.676 109.066 113.296  1.00  0.00     0.031 C 
ATOM      9  C   UNL     1     102.397 109.510 114.732  1.00  0.00     0.005 C 
ATOM     10  C   UNL     1     101.532 108.482 115.483  1.00  0.00     0.008 C 
ATOM     11  C   UNL     1     100.203 108.105 114.754  1.00  0.00    -0.018 C 
ATOM     12  C   UNL     1      99.218 109.303 114.773  1.00  0.00     0.088 C 
ATOM     13  C   UNL     1      97.986 109.029 113.959  1.00  0.00     0.159 C 
ATOM     14  O   UNL     1      96.866 109.372 114.425  1.00  0.00    -0.295 OA
ATOM     15  C   UNL     1      99.579 106.918 115.534  1.00  0.00     0.012 C 
ATOM     16  C   UNL     1      96.124 109.622 111.732  1.00  0.00     0.039 C 
ENDROOT
TORSDOF 0
ENDMDL
MODEL 7
REMARK VINA RESULT:    -5.424      1.895      4.586
REMARK INTER + INTRA:          -5.424
REMARK INTER:                  -5.424
REMARK INTRA:                   0.000
REMARK UNBOUND:                 0.000
REMARK SMILES C=C1CCC[C@@]2(C)CC(=O)C(=C(C)C)C[C@@H]12
REMARK SMILES IDX 13 1 12 2 11 3 15 4 16 5 2 6 1 7 3 8 4 9 5 10 6 11 8 12 9 13
REMARK SMILES IDX 10 14 7 15 14 16
REMARK H PARENT
REMARK Flexibility Score: inf
ROOT
ATOM      1  C   UNL     1     102.158 118.894 121.271  1.00  0.00     0.039 C 
ATOM      2  C   UNL     1     101.506 117.534 121.169  1.00  0.00    -0.070 C 
ATOM      3  C   UNL     1     102.069 116.433 121.748  1.00  0.00    -0.006 C 
ATOM      4  C   UNL     1     103.365 116.534 122.543  1.00  0.00     0.047 C 
ATOM      5  C   UNL     1     103.469 115.494 123.689  1.00  0.00     0.025 C 
ATOM      6  C   UNL     1     102.655 115.828 124.941  1.00  0.00    -0.073 C 
ATOM      7  C   UNL     1     101.771 116.841 125.029  1.00  0.00     0.008 C 
ATOM      8  C   UNL     1     102.818 114.880 126.101  1.00  0.00     0.031 C 
ATOM      9  C   UNL     1     102.454 113.464 125.654  1.00  0.00     0.005 C 
ATOM     10  C   UNL     1     103.247 113.044 124.404  1.00  0.00     0.008 C 
ATOM     11  C   UNL     1     103.138 114.044 123.209  1.00  0.00    -0.018 C 
ATOM     12  C   UNL     1     101.709 114.011 122.606  1.00  0.00     0.088 C 
ATOM     13  C   UNL     1     101.522 115.060 121.548  1.00  0.00     0.159 C 
ATOM     14  O   UNL     1     100.909 114.749 120.491  1.00  0.00    -0.295 OA
ATOM     15  C   UNL     1     104.156 113.578 122.134  1.00  0.00     0.012 C 
ATOM     16  C   UNL     1     100.187 117.459 120.434  1.00  0.00     0.039 C 
ENDROOT
TORSDOF 0
ENDMDL
MODEL 8
REMARK VINA RESULT:    -5.331      2.305      3.769
REMARK INTER + INTRA:          -5.331
REMARK INTER:                  -5.331
REMARK INTRA:                   0.000
REMARK UNBOUND:                 0.000
REMARK SMILES C=C1CCC[C@@]2(C)CC(=O)C(=C(C)C)C[C@@H]12
REMARK SMILES IDX 13 1 12 2 11 3 15 4 16 5 2 6 1 7 3 8 4 9 5 10 6 11 8 12 9 13
REMARK SMILES IDX 10 14 7 15 14 16
REMARK H PARENT
REMARK Flexibility Score: inf
ROOT
ATOM      1  C   UNL     1     102.667 113.035 119.202  1.00  0.00     0.039 C 
ATOM      2  C   UNL     1     102.068 112.845 120.577  1.00  0.00    -0.070 C 
ATOM      3  C   UNL     1     102.118 113.835 121.515  1.00  0.00    -0.006 C 
ATOM      4  C   UNL     1     102.759 115.183 121.207  1.00  0.00     0.047 C 
ATOM      5  C   UNL     1     102.121 116.362 121.987  1.00  0.00     0.025 C 
ATOM      6  C   UNL     1     100.781 116.854 121.433  1.00  0.00    -0.073 C 
ATOM      7  C   UNL     1     100.088 116.238 120.456  1.00  0.00     0.008 C 
ATOM      8  C   UNL     1     100.192 118.060 122.118  1.00  0.00     0.031 C 
ATOM      9  C   UNL     1     100.017 117.763 123.608  1.00  0.00     0.005 C 
ATOM     10  C   UNL     1     101.330 117.277 124.246  1.00  0.00     0.008 C 
ATOM     11  C   UNL     1     101.988 116.063 123.516  1.00  0.00    -0.018 C 
ATOM     12  C   UNL     1     101.137 114.783 123.722  1.00  0.00     0.088 C 
ATOM     13  C   UNL     1     101.659 113.627 122.919  1.00  0.00     0.159 C 
ATOM     14  O   UNL     1     101.710 112.490 123.460  1.00  0.00    -0.295 OA
ATOM     15  C   UNL     1     103.387 115.854 124.155  1.00  0.00     0.012 C 
ATOM     16  C   UNL     1     101.377 111.528 120.847  1.00  0.00     0.039 C 
ENDROOT
TORSDOF 0
ENDMDL
MODEL 9
REMARK VINA RESULT:    -5.284      9.234     11.427
REMARK INTER + INTRA:          -5.284
REMARK INTER:                  -5.284
REMARK INTRA:                   0.000
REMARK UNBOUND:                 0.000
REMARK SMILES C=C1CCC[C@@]2(C)CC(=O)C(=C(C)C)C[C@@H]12
REMARK SMILES IDX 13 1 12 2 11 3 15 4 16 5 2 6 1 7 3 8 4 9 5 10 6 11 8 12 9 13
REMARK SMILES IDX 10 14 7 15 14 16
REMARK H PARENT
REMARK Flexibility Score: inf
ROOT
ATOM      1  C   UNL     1     104.872 106.730 121.879  1.00  0.00     0.039 C 
ATOM      2  C   UNL     1     103.566 107.439 121.605  1.00  0.00    -0.070 C 
ATOM      3  C   UNL     1     103.071 107.548 120.338  1.00  0.00    -0.006 C 
ATOM      4  C   UNL     1     103.802 106.937 119.149  1.00  0.00     0.047 C 
ATOM      5  C   UNL     1     102.855 106.486 118.006  1.00  0.00     0.025 C 
ATOM      6  C   UNL     1     102.124 105.165 118.257  1.00  0.00    -0.073 C 
ATOM      7  C   UNL     1     102.137 104.496 119.427  1.00  0.00     0.008 C 
ATOM      8  C   UNL     1     101.273 104.661 117.121  1.00  0.00     0.031 C 
ATOM      9  C   UNL     1     100.236 105.721 116.753  1.00  0.00     0.005 C 
ATOM     10  C   UNL     1     100.895 107.083 116.468  1.00  0.00     0.008 C 
ATOM     11  C   UNL     1     101.828 107.596 117.610  1.00  0.00    -0.018 C 
ATOM     12  C   UNL     1     100.990 107.995 118.853  1.00  0.00     0.088 C 
ATOM     13  C   UNL     1     101.859 108.359 120.022  1.00  0.00     0.159 C 
ATOM     14  O   UNL     1     101.548 109.365 120.716  1.00  0.00    -0.295 OA
ATOM     15  C   UNL     1     102.562 108.850 117.066  1.00  0.00     0.012 C 
ATOM     16  C   UNL     1     102.817 107.983 122.801  1.00  0.00     0.039 C 
ENDROOT
TORSDOF 0
ENDMDL
