MODEL 1
REMARK VINA RESULT:    -3.858      0.000      0.000
REMARK INTER + INTRA:          -5.105
REMARK INTER:                  -4.760
REMARK INTRA:                  -0.345
REMARK UNBOUND:                -0.345
REMARK SMILES C=CCc1ccc(OC)c(OC)c1
REMARK SMILES IDX 7 1 10 2 13 3 4 4 5 5 6 6 8 7 9 8 11 9 12 10 3 11 2 12 1 13
REMARK H PARENT
REMARK Flexibility Score: inf
ROOT
ATOM      1  C   UNL     1     134.984 139.124 129.783  1.00  0.00     0.160 A 
ATOM      2  C   UNL     1     135.455 139.176 131.105  1.00  0.00     0.160 A 
ATOM      3  C   UNL     1     135.669 137.978 131.815  1.00  0.00     0.054 A 
ATOM      4  C   UNL     1     135.423 136.737 131.212  1.00  0.00    -0.040 A 
ATOM      5  C   UNL     1     134.944 136.695 129.896  1.00  0.00     0.008 A 
ATOM      6  C   UNL     1     134.729 137.876 129.184  1.00  0.00     0.051 A 
ENDROOT
BRANCH   1   7
ATOM      7  O   UNL     1     134.781 140.334 129.099  1.00  0.00    -0.493 OA
ATOM      8  C   UNL     1     135.679 140.876 128.137  1.00  0.00     0.278 C 
ENDBRANCH   1   7
BRANCH   2   9
ATOM      9  O   UNL     1     135.696 140.435 131.677  1.00  0.00    -0.493 OA
ATOM     10  C   UNL     1     134.817 141.091 132.586  1.00  0.00     0.278 C 
ENDBRANCH   2   9
BRANCH   4  11
ATOM     11  C   UNL     1     135.627 135.463 131.989  1.00  0.00     0.062 C 
BRANCH  11  12
ATOM     12  C   UNL     1     134.332 134.714 132.134  1.00  0.00    -0.030 C 
ATOM     13  C   UNL     1     133.471 134.985 133.119  1.00  0.00     0.004 C 
ENDBRANCH  11  12
ENDBRANCH   4  11
TORSDOF 4
ENDMDL
MODEL 2
REMARK VINA RESULT:    -3.835      5.447      6.872
REMARK INTER + INTRA:          -5.077
REMARK INTER:                  -4.750
REMARK INTRA:                  -0.327
REMARK UNBOUND:                -0.345
REMARK SMILES C=CCc1ccc(OC)c(OC)c1
REMARK SMILES IDX 7 1 10 2 13 3 4 4 5 5 6 6 8 7 9 8 11 9 12 10 3 11 2 12 1 13
REMARK H PARENT
REMARK Flexibility Score: inf
ROOT
ATOM      1  C   UNL     1     140.117 135.994 129.791  1.00  0.00     0.160 A 
ATOM      2  C   UNL     1     139.709 135.952 131.133  1.00  0.00     0.160 A 
ATOM      3  C   UNL     1     139.532 137.155 131.845  1.00  0.00     0.054 A 
ATOM      4  C   UNL     1     139.754 138.392 131.224  1.00  0.00    -0.040 A 
ATOM      5  C   UNL     1     140.171 138.424 129.886  1.00  0.00     0.008 A 
ATOM      6  C   UNL     1     140.348 137.238 129.172  1.00  0.00     0.051 A 
ENDROOT
BRANCH   1   7
ATOM      7  O   UNL     1     140.284 134.780 129.105  1.00  0.00    -0.493 OA
ATOM      8  C   UNL     1     139.428 134.316 128.067  1.00  0.00     0.278 C 
ENDBRANCH   1   7
BRANCH   2   9
ATOM      9  O   UNL     1     139.491 134.697 131.723  1.00  0.00    -0.493 OA
ATOM     10  C   UNL     1     140.385 134.068 132.636  1.00  0.00     0.278 C 
ENDBRANCH   2   9
BRANCH   4  11
ATOM     11  C   UNL     1     139.590 139.671 132.001  1.00  0.00     0.062 C 
BRANCH  11  12
ATOM     12  C   UNL     1     140.905 140.389 132.128  1.00  0.00    -0.030 C 
ATOM     13  C   UNL     1     141.668 140.268 133.219  1.00  0.00     0.004 C 
ENDBRANCH  11  12
ENDBRANCH   4  11
TORSDOF 4
ENDMDL
MODEL 3
REMARK VINA RESULT:    -3.834      3.571      4.787
REMARK INTER + INTRA:          -5.076
REMARK INTER:                  -4.759
REMARK INTRA:                  -0.317
REMARK UNBOUND:                -0.345
REMARK SMILES C=CCc1ccc(OC)c(OC)c1
REMARK SMILES IDX 7 1 10 2 13 3 4 4 5 5 6 6 8 7 9 8 11 9 12 10 3 11 2 12 1 13
REMARK H PARENT
REMARK Flexibility Score: inf
ROOT
ATOM      1  C   UNL     1     135.867 135.095 129.725  1.00  0.00     0.160 A 
ATOM      2  C   UNL     1     135.785 135.454 131.079  1.00  0.00     0.160 A 
ATOM      3  C   UNL     1     136.967 135.651 131.821  1.00  0.00     0.054 A 
ATOM      4  C   UNL     1     138.223 135.498 131.215  1.00  0.00    -0.040 A 
ATOM      5  C   UNL     1     138.296 135.130 129.865  1.00  0.00     0.008 A 
ATOM      6  C   UNL     1     137.130 134.934 129.123  1.00  0.00     0.051 A 
ENDROOT
BRANCH   1   7
ATOM      7  O   UNL     1     134.673 134.907 129.011  1.00  0.00    -0.493 OA
ATOM      8  C   UNL     1     134.194 135.781 127.995  1.00  0.00     0.278 C 
ENDBRANCH   1   7
BRANCH   2   9
ATOM      9  O   UNL     1     134.513 135.602 131.653  1.00  0.00    -0.493 OA
ATOM     10  C   UNL     1     134.010 134.805 132.721  1.00  0.00     0.278 C 
ENDBRANCH   2   9
BRANCH   4  11
ATOM     11  C   UNL     1     139.481 135.683 132.023  1.00  0.00     0.062 C 
BRANCH  11  12
ATOM     12  C   UNL     1     140.302 134.423 132.025  1.00  0.00    -0.030 C 
ATOM     13  C   UNL     1     140.341 133.612 133.087  1.00  0.00     0.004 C 
ENDBRANCH  11  12
ENDBRANCH   4  11
TORSDOF 4
ENDMDL
MODEL 4
REMARK VINA RESULT:    -3.830      1.320      3.192
REMARK INTER + INTRA:          -5.071
REMARK INTER:                  -4.719
REMARK INTRA:                  -0.352
REMARK UNBOUND:                -0.345
REMARK SMILES C=CCc1ccc(OC)c(OC)c1
REMARK SMILES IDX 7 1 10 2 13 3 4 4 5 5 6 6 8 7 9 8 11 9 12 10 3 11 2 12 1 13
REMARK H PARENT
REMARK Flexibility Score: inf
ROOT
ATOM      1  C   UNL     1     135.432 139.504 131.167  1.00  0.00     0.160 A 
ATOM      2  C   UNL     1     135.075 139.359 129.818  1.00  0.00     0.160 A 
ATOM      3  C   UNL     1     134.908 138.068 129.276  1.00  0.00     0.054 A 
ATOM      4  C   UNL     1     135.091 136.930 130.075  1.00  0.00    -0.040 A 
ATOM      5  C   UNL     1     135.457 137.085 131.419  1.00  0.00     0.008 A 
ATOM      6  C   UNL     1     135.624 138.359 131.964  1.00  0.00     0.051 A 
ENDROOT
BRANCH   1   7
ATOM      7  O   UNL     1     135.590 140.802 131.679  1.00  0.00    -0.493 OA
ATOM      8  C   UNL     1     134.845 141.335 132.770  1.00  0.00     0.278 C 
ENDBRANCH   1   7
BRANCH   2   9
ATOM      9  O   UNL     1     134.896 140.518 129.047  1.00  0.00    -0.493 OA
ATOM     10  C   UNL     1     135.764 140.932 127.997  1.00  0.00     0.278 C 
ENDBRANCH   2   9
BRANCH   4  11
ATOM     11  C   UNL     1     134.939 135.555 129.480  1.00  0.00     0.062 C 
BRANCH  11  12
ATOM     12  C   UNL     1     136.205 134.762 129.644  1.00  0.00    -0.030 C 
ATOM     13  C   UNL     1     137.283 134.996 128.889  1.00  0.00     0.004 C 
ENDBRANCH  11  12
ENDBRANCH   4  11
TORSDOF 4
ENDMDL
MODEL 5
REMARK VINA RESULT:    -3.825      3.688      4.886
REMARK INTER + INTRA:          -5.065
REMARK INTER:                  -4.755
REMARK INTRA:                  -0.310
REMARK UNBOUND:                -0.345
REMARK SMILES C=CCc1ccc(OC)c(OC)c1
REMARK SMILES IDX 7 1 10 2 13 3 4 4 5 5 6 6 8 7 9 8 11 9 12 10 3 11 2 12 1 13
REMARK H PARENT
REMARK Flexibility Score: inf
ROOT
ATOM      1  C   UNL     1     139.309 140.063 129.694  1.00  0.00     0.160 A 
ATOM      2  C   UNL     1     139.351 139.709 131.051  1.00  0.00     0.160 A 
ATOM      3  C   UNL     1     138.147 139.509 131.756  1.00  0.00     0.054 A 
ATOM      4  C   UNL     1     136.910 139.652 131.112  1.00  0.00    -0.040 A 
ATOM      5  C   UNL     1     136.877 140.016 129.759  1.00  0.00     0.008 A 
ATOM      6  C   UNL     1     138.064 140.216 129.052  1.00  0.00     0.051 A 
ENDROOT
BRANCH   1   7
ATOM      7  O   UNL     1     140.524 140.256 129.016  1.00  0.00    -0.493 OA
ATOM      8  C   UNL     1     141.036 139.384 128.014  1.00  0.00     0.278 C 
ENDBRANCH   1   7
BRANCH   2   9
ATOM      9  O   UNL     1     140.605 139.569 131.664  1.00  0.00    -0.493 OA
ATOM     10  C   UNL     1     141.086 140.397 132.720  1.00  0.00     0.278 C 
ENDBRANCH   2   9
BRANCH   4  11
ATOM     11  C   UNL     1     135.629 139.464 131.881  1.00  0.00     0.062 C 
BRANCH  11  12
ATOM     12  C   UNL     1     134.839 140.742 131.920  1.00  0.00    -0.030 C 
ATOM     13  C   UNL     1     134.720 141.460 133.041  1.00  0.00     0.004 C 
ENDBRANCH  11  12
ENDBRANCH   4  11
TORSDOF 4
ENDMDL
MODEL 6
REMARK VINA RESULT:    -3.822      5.123      7.155
REMARK INTER + INTRA:          -5.061
REMARK INTER:                  -4.708
REMARK INTRA:                  -0.353
REMARK UNBOUND:                -0.345
REMARK SMILES C=CCc1ccc(OC)c(OC)c1
REMARK SMILES IDX 7 1 10 2 13 3 4 4 5 5 6 6 8 7 9 8 11 9 12 10 3 11 2 12 1 13
REMARK H PARENT
REMARK Flexibility Score: inf
ROOT
ATOM      1  C   UNL     1     139.801 135.641 131.148  1.00  0.00     0.160 A 
ATOM      2  C   UNL     1     140.143 135.805 129.797  1.00  0.00     0.160 A 
ATOM      3  C   UNL     1     140.289 137.103 129.268  1.00  0.00     0.054 A 
ATOM      4  C   UNL     1     140.103 138.230 130.081  1.00  0.00    -0.040 A 
ATOM      5  C   UNL     1     139.752 138.057 131.427  1.00  0.00     0.008 A 
ATOM      6  C   UNL     1     139.606 136.775 131.959  1.00  0.00     0.051 A 
ENDROOT
BRANCH   1   7
ATOM      7  O   UNL     1     139.664 134.335 131.648  1.00  0.00    -0.493 OA
ATOM      8  C   UNL     1     140.388 133.817 132.758  1.00  0.00     0.278 C 
ENDBRANCH   1   7
BRANCH   2   9
ATOM      9  O   UNL     1     140.327 134.656 129.012  1.00  0.00    -0.493 OA
ATOM     10  C   UNL     1     139.397 134.183 128.041  1.00  0.00     0.278 C 
ENDBRANCH   2   9
BRANCH   4  11
ATOM     11  C   UNL     1     140.233 139.613 129.500  1.00  0.00     0.062 C 
BRANCH  11  12
ATOM     12  C   UNL     1     138.939 140.367 129.627  1.00  0.00    -0.030 C 
ATOM     13  C   UNL     1     137.893 140.105 128.836  1.00  0.00     0.004 C 
ENDBRANCH  11  12
ENDBRANCH   4  11
TORSDOF 4
ENDMDL
MODEL 7
REMARK VINA RESULT:    -3.783      2.084      2.844
REMARK INTER + INTRA:          -5.013
REMARK INTER:                  -4.698
REMARK INTRA:                  -0.316
REMARK UNBOUND:                -0.345
REMARK SMILES C=CCc1ccc(OC)c(OC)c1
REMARK SMILES IDX 7 1 10 2 13 3 4 4 5 5 6 6 8 7 9 8 11 9 12 10 3 11 2 12 1 13
REMARK H PARENT
REMARK Flexibility Score: inf
ROOT
ATOM      1  C   UNL     1     137.192 139.690 129.264  1.00  0.00     0.160 A 
ATOM      2  C   UNL     1     136.076 139.682 130.116  1.00  0.00     0.160 A 
ATOM      3  C   UNL     1     135.056 138.730 129.919  1.00  0.00     0.054 A 
ATOM      4  C   UNL     1     135.149 137.788 128.885  1.00  0.00    -0.040 A 
ATOM      5  C   UNL     1     136.262 137.809 128.034  1.00  0.00     0.008 A 
ATOM      6  C   UNL     1     137.278 138.747 128.222  1.00  0.00     0.051 A 
ENDROOT
BRANCH   1   7
ATOM      7  O   UNL     1     138.193 140.649 129.485  1.00  0.00    -0.493 OA
ATOM      8  C   UNL     1     139.550 140.343 129.789  1.00  0.00     0.278 C 
ENDBRANCH   1   7
BRANCH   2   9
ATOM      9  O   UNL     1     136.016 140.637 131.143  1.00  0.00    -0.493 OA
ATOM     10  C   UNL     1     134.953 140.745 132.085  1.00  0.00     0.278 C 
ENDBRANCH   2   9
BRANCH   4  11
ATOM     11  C   UNL     1     134.040 136.793 128.664  1.00  0.00     0.062 C 
BRANCH  11  12
ATOM     12  C   UNL     1     134.575 135.388 128.676  1.00  0.00    -0.030 C 
ATOM     13  C   UNL     1     135.091 134.842 129.782  1.00  0.00     0.004 C 
ENDBRANCH  11  12
ENDBRANCH   4  11
TORSDOF 4
ENDMDL
MODEL 8
REMARK VINA RESULT:    -3.780      4.125      5.623
REMARK INTER + INTRA:          -5.009
REMARK INTER:                  -4.688
REMARK INTRA:                  -0.321
REMARK UNBOUND:                -0.345
REMARK SMILES C=CCc1ccc(OC)c(OC)c1
REMARK SMILES IDX 7 1 10 2 13 3 4 4 5 5 6 6 8 7 9 8 11 9 12 10 3 11 2 12 1 13
REMARK H PARENT
REMARK Flexibility Score: inf
ROOT
ATOM      1  C   UNL     1     139.729 138.045 129.154  1.00  0.00     0.160 A 
ATOM      2  C   UNL     1     139.717 139.146 130.023  1.00  0.00     0.160 A 
ATOM      3  C   UNL     1     138.749 140.156 129.855  1.00  0.00     0.054 A 
ATOM      4  C   UNL     1     137.793 140.065 128.833  1.00  0.00    -0.040 A 
ATOM      5  C   UNL     1     137.818 138.966 127.964  1.00  0.00     0.008 A 
ATOM      6  C   UNL     1     138.774 137.962 128.123  1.00  0.00     0.051 A 
ENDROOT
BRANCH   1   7
ATOM      7  O   UNL     1     140.705 137.054 129.346  1.00  0.00    -0.493 OA
ATOM      8  C   UNL     1     140.436 135.736 129.813  1.00  0.00     0.278 C 
ENDBRANCH   1   7
BRANCH   2   9
ATOM      9  O   UNL     1     140.685 139.204 131.039  1.00  0.00    -0.493 OA
ATOM     10  C   UNL     1     140.698 140.167 132.088  1.00  0.00     0.278 C 
ENDBRANCH   2   9
BRANCH   4  11
ATOM     11  C   UNL     1     136.780 141.163 128.643  1.00  0.00     0.062 C 
BRANCH  11  12
ATOM     12  C   UNL     1     135.385 140.604 128.638  1.00  0.00    -0.030 C 
ATOM     13  C   UNL     1     134.834 140.080 129.737  1.00  0.00     0.004 C 
ENDBRANCH  11  12
ENDBRANCH   4  11
TORSDOF 4
ENDMDL
MODEL 9
REMARK VINA RESULT:    -3.764      3.624      5.615
REMARK INTER + INTRA:          -4.989
REMARK INTER:                  -4.639
REMARK INTRA:                  -0.350
REMARK UNBOUND:                -0.345
REMARK SMILES C=CCc1ccc(OC)c(OC)c1
REMARK SMILES IDX 7 1 10 2 13 3 4 4 5 5 6 6 8 7 9 8 11 9 12 10 3 11 2 12 1 13
REMARK H PARENT
REMARK Flexibility Score: inf
ROOT
ATOM      1  C   UNL     1     135.742 135.497 131.140  1.00  0.00     0.160 A 
ATOM      2  C   UNL     1     135.890 135.120 129.797  1.00  0.00     0.160 A 
ATOM      3  C   UNL     1     137.181 134.922 129.267  1.00  0.00     0.054 A 
ATOM      4  C   UNL     1     138.316 135.090 130.073  1.00  0.00    -0.040 A 
ATOM      5  C   UNL     1     138.159 135.476 131.411  1.00  0.00     0.008 A 
ATOM      6  C   UNL     1     136.885 135.675 131.944  1.00  0.00     0.051 A 
ENDROOT
BRANCH   1   7
ATOM      7  O   UNL     1     134.443 135.687 131.641  1.00  0.00    -0.493 OA
ATOM      8  C   UNL     1     133.870 134.932 132.703  1.00  0.00     0.278 C 
ENDBRANCH   1   7
BRANCH   2   9
ATOM      9  O   UNL     1     134.733 134.956 129.020  1.00  0.00    -0.493 OA
ATOM     10  C   UNL     1     134.392 135.763 127.897  1.00  0.00     0.278 C 
ENDBRANCH   2   9
BRANCH   4  11
ATOM     11  C   UNL     1     139.693 134.904 129.491  1.00  0.00     0.062 C 
BRANCH  11  12
ATOM     12  C   UNL     1     140.469 136.190 129.538  1.00  0.00    -0.030 C 
ATOM     13  C   UNL     1     140.139 137.238 128.777  1.00  0.00     0.004 C 
ENDBRANCH  11  12
ENDBRANCH   4  11
TORSDOF 4
ENDMDL
