MODEL 1
REMARK VINA RESULT:    -4.720      0.000      0.000
REMARK INTER + INTRA:          -9.502
REMARK INTER:                  -8.584
REMARK INTRA:                  -0.918
REMARK UNBOUND:                -0.918
REMARK SMILES CCCCCCCCCCCCCCCC(=O)[O-]
REMARK SMILES IDX 9 1 10 2 11 3 12 4 13 5 14 6 15 7 16 8 17 9 18 10 8 11 7 12
REMARK SMILES IDX 6 13 5 14 4 15 3 16 2 17 1 18
REMARK H PARENT
REMARK Flexibility Score: inf
ROOT
ATOM      1  C   UNL     1      19.217  25.266   4.121  1.00  0.00     0.000 C 
ENDROOT
BRANCH   1   2
ATOM      2  C   UNL     1      19.258  25.736   2.657  1.00  0.00     0.000 C 
BRANCH   2   3
ATOM      3  C   UNL     1      19.601  24.599   1.682  1.00  0.00     0.000 C 
BRANCH   3   4
ATOM      4  C   UNL     1      19.044  24.845   0.269  1.00  0.00     0.000 C 
BRANCH   4   5
ATOM      5  C   UNL     1      18.638  26.309   0.040  1.00  0.00     0.000 C 
BRANCH   5   6
ATOM      6  C   UNL     1      17.245  26.442  -0.599  1.00  0.00     0.006 C 
BRANCH   6   7
ATOM      7  C   UNL     1      17.007  25.393  -1.694  1.00  0.00     0.053 C 
BRANCH   7   8
ATOM      8  C   UNL     1      15.575  25.357  -2.129  1.00  0.00     0.041 C 
ATOM      9  O   UNL     1      15.282  25.392  -3.352  1.00  0.00    -0.550 OA
ATOM     10  O   UNL     1      14.562  25.313  -1.180  1.00  0.00    -0.550 OA
ENDBRANCH   7   8
ENDBRANCH   6   7
ENDBRANCH   5   6
ENDBRANCH   4   5
ENDBRANCH   3   4
ENDBRANCH   2   3
ENDBRANCH   1   2
BRANCH   1  11
ATOM     11  C   UNL     1      18.878  23.772   4.251  1.00  0.00     0.000 C 
BRANCH  11  12
ATOM     12  C   UNL     1      17.731  23.511   5.242  1.00  0.00    -0.000 C 
BRANCH  12  13
ATOM     13  C   UNL     1      16.829  22.337   4.803  1.00  0.00    -0.000 C 
BRANCH  13  14
ATOM     14  C   UNL     1      15.695  22.020   5.796  1.00  0.00    -0.000 C 
BRANCH  14  15
ATOM     15  C   UNL     1      14.278  22.020   5.192  1.00  0.00    -0.000 C 
BRANCH  15  16
ATOM     16  C   UNL     1      13.590  23.398   5.154  1.00  0.00    -0.000 C 
BRANCH  16  17
ATOM     17  C   UNL     1      12.487  23.484   4.091  1.00  0.00    -0.003 C 
ATOM     18  C   UNL     1      12.578  22.320   3.109  1.00  0.00     0.004 C 
ENDBRANCH  16  17
ENDBRANCH  15  16
ENDBRANCH  14  15
ENDBRANCH  13  14
ENDBRANCH  12  13
ENDBRANCH  11  12
ENDBRANCH   1  11
TORSDOF 14
ENDMDL
MODEL 2
REMARK VINA RESULT:    -4.478      2.337      6.356
REMARK INTER + INTRA:          -9.060
REMARK INTER:                  -8.135
REMARK INTRA:                  -0.925
REMARK UNBOUND:                -0.918
REMARK SMILES CCCCCCCCCCCCCCCC(=O)[O-]
REMARK SMILES IDX 9 1 10 2 11 3 12 4 13 5 14 6 15 7 16 8 17 9 18 10 8 11 7 12
REMARK SMILES IDX 6 13 5 14 4 15 3 16 2 17 1 18
REMARK H PARENT
REMARK Flexibility Score: inf
ROOT
ATOM      1  C   UNL     1      19.158  25.372   4.052  1.00  0.00     0.000 C 
ENDROOT
BRANCH   1   2
ATOM      2  C   UNL     1      18.896  23.863   4.200  1.00  0.00     0.000 C 
BRANCH   2   3
ATOM      3  C   UNL     1      17.815  23.554   5.247  1.00  0.00     0.000 C 
BRANCH   3   4
ATOM      4  C   UNL     1      16.919  22.371   4.838  1.00  0.00     0.000 C 
BRANCH   4   5
ATOM      5  C   UNL     1      15.980  21.921   5.969  1.00  0.00     0.000 C 
BRANCH   5   6
ATOM      6  C   UNL     1      14.531  21.725   5.491  1.00  0.00     0.006 C 
BRANCH   6   7
ATOM      7  C   UNL     1      13.833  23.061   5.199  1.00  0.00     0.053 C 
BRANCH   7   8
ATOM      8  C   UNL     1      12.899  22.957   4.034  1.00  0.00     0.041 C 
ATOM      9  O   UNL     1      12.070  23.875   3.800  1.00  0.00    -0.550 OA
ATOM     10  O   UNL     1      12.925  21.831   3.220  1.00  0.00    -0.550 OA
ENDBRANCH   7   8
ENDBRANCH   6   7
ENDBRANCH   5   6
ENDBRANCH   4   5
ENDBRANCH   3   4
ENDBRANCH   2   3
ENDBRANCH   1   2
BRANCH   1  11
ATOM     11  C   UNL     1      19.276  25.808   2.582  1.00  0.00     0.000 C 
BRANCH  11  12
ATOM     12  C   UNL     1      19.274  24.616   1.610  1.00  0.00    -0.000 C 
BRANCH  12  13
ATOM     13  C   UNL     1      19.205  25.059   0.133  1.00  0.00    -0.000 C 
BRANCH  13  14
ATOM     14  C   UNL     1      18.549  26.437  -0.072  1.00  0.00    -0.000 C 
BRANCH  14  15
ATOM     15  C   UNL     1      17.219  26.418  -0.850  1.00  0.00    -0.000 C 
BRANCH  15  16
ATOM     16  C   UNL     1      16.667  25.013  -1.156  1.00  0.00    -0.000 C 
BRANCH  16  17
ATOM     17  C   UNL     1      15.192  25.031  -1.577  1.00  0.00    -0.003 C 
ATOM     18  C   UNL     1      15.047  25.376  -3.057  1.00  0.00     0.004 C 
ENDBRANCH  16  17
ENDBRANCH  15  16
ENDBRANCH  14  15
ENDBRANCH  13  14
ENDBRANCH  12  13
ENDBRANCH  11  12
ENDBRANCH   1  11
TORSDOF 14
ENDMDL
MODEL 3
REMARK VINA RESULT:    -4.324      0.850      1.551
REMARK INTER + INTRA:          -8.781
REMARK INTER:                  -7.955
REMARK INTRA:                  -0.826
REMARK UNBOUND:                -0.918
REMARK SMILES CCCCCCCCCCCCCCCC(=O)[O-]
REMARK SMILES IDX 9 1 10 2 11 3 12 4 13 5 14 6 15 7 16 8 17 9 18 10 8 11 7 12
REMARK SMILES IDX 6 13 5 14 4 15 3 16 2 17 1 18
REMARK H PARENT
REMARK Flexibility Score: inf
ROOT
ATOM      1  C   UNL     1      18.495  24.451   4.776  1.00  0.00     0.000 C 
ENDROOT
BRANCH   1   2
ATOM      2  C   UNL     1      19.358  23.662   3.776  1.00  0.00     0.000 C 
BRANCH   2   3
ATOM      3  C   UNL     1      20.159  24.579   2.838  1.00  0.00     0.000 C 
BRANCH   3   4
ATOM      4  C   UNL     1      19.256  25.395   1.897  1.00  0.00     0.000 C 
BRANCH   4   5
ATOM      5  C   UNL     1      18.769  24.578   0.689  1.00  0.00     0.000 C 
BRANCH   5   6
ATOM      6  C   UNL     1      18.694  25.416  -0.599  1.00  0.00     0.006 C 
BRANCH   6   7
ATOM      7  C   UNL     1      17.335  26.113  -0.757  1.00  0.00     0.053 C 
BRANCH   7   8
ATOM      8  C   UNL     1      16.354  25.257  -1.496  1.00  0.00     0.041 C 
ATOM      9  O   UNL     1      15.927  25.612  -2.627  1.00  0.00    -0.550 OA
ATOM     10  O   UNL     1      15.888  24.080  -0.925  1.00  0.00    -0.550 OA
ENDBRANCH   7   8
ENDBRANCH   6   7
ENDBRANCH   5   6
ENDBRANCH   4   5
ENDBRANCH   3   4
ENDBRANCH   2   3
ENDBRANCH   1   2
BRANCH   1  11
ATOM     11  C   UNL     1      17.665  23.536   5.690  1.00  0.00     0.000 C 
BRANCH  11  12
ATOM     12  C   UNL     1      16.877  22.474   4.904  1.00  0.00    -0.000 C 
BRANCH  12  13
ATOM     13  C   UNL     1      15.791  21.790   5.761  1.00  0.00    -0.000 C 
BRANCH  13  14
ATOM     14  C   UNL     1      14.376  21.882   5.161  1.00  0.00    -0.000 C 
BRANCH  14  15
ATOM     15  C   UNL     1      13.707  23.265   5.275  1.00  0.00    -0.000 C 
BRANCH  15  16
ATOM     16  C   UNL     1      12.651  23.565   4.195  1.00  0.00    -0.000 C 
BRANCH  16  17
ATOM     17  C   UNL     1      12.548  22.458   3.137  1.00  0.00    -0.003 C 
ATOM     18  C   UNL     1      11.129  22.352   2.587  1.00  0.00     0.004 C 
ENDBRANCH  16  17
ENDBRANCH  15  16
ENDBRANCH  14  15
ENDBRANCH  13  14
ENDBRANCH  12  13
ENDBRANCH  11  12
ENDBRANCH   1  11
TORSDOF 14
ENDMDL
MODEL 4
REMARK VINA RESULT:    -3.684      2.403      6.364
REMARK INTER + INTRA:          -7.616
REMARK INTER:                  -6.872
REMARK INTRA:                  -0.744
REMARK UNBOUND:                -0.918
REMARK SMILES CCCCCCCCCCCCCCCC(=O)[O-]
REMARK SMILES IDX 9 1 10 2 11 3 12 4 13 5 14 6 15 7 16 8 17 9 18 10 8 11 7 12
REMARK SMILES IDX 6 13 5 14 4 15 3 16 2 17 1 18
REMARK H PARENT
REMARK Flexibility Score: inf
ROOT
ATOM      1  C   UNL     1      17.744  23.540   5.721  1.00  0.00     0.000 C 
ENDROOT
BRANCH   1   2
ATOM      2  C   UNL     1      16.956  22.467   4.950  1.00  0.00     0.000 C 
BRANCH   2   3
ATOM      3  C   UNL     1      16.125  21.566   5.877  1.00  0.00     0.000 C 
BRANCH   3   4
ATOM      4  C   UNL     1      14.611  21.780   5.706  1.00  0.00     0.000 C 
BRANCH   4   5
ATOM      5  C   UNL     1      14.278  23.092   4.979  1.00  0.00     0.000 C 
BRANCH   5   6
ATOM      6  C   UNL     1      12.781  23.442   5.047  1.00  0.00     0.006 C 
BRANCH   6   7
ATOM      7  C   UNL     1      12.198  23.760   3.663  1.00  0.00     0.053 C 
BRANCH   7   8
ATOM      8  C   UNL     1      11.623  22.542   3.009  1.00  0.00     0.041 C 
ATOM      9  O   UNL     1      10.389  22.474   2.767  1.00  0.00    -0.550 OA
ATOM     10  O   UNL     1      12.446  21.469   2.690  1.00  0.00    -0.550 OA
ENDBRANCH   7   8
ENDBRANCH   6   7
ENDBRANCH   5   6
ENDBRANCH   4   5
ENDBRANCH   3   4
ENDBRANCH   2   3
ENDBRANCH   1   2
BRANCH   1  11
ATOM     11  C   UNL     1      18.560  24.454   4.793  1.00  0.00     0.000 C 
BRANCH  11  12
ATOM     12  C   UNL     1      19.364  23.666   3.745  1.00  0.00    -0.000 C 
BRANCH  12  13
ATOM     13  C   UNL     1      20.112  24.588   2.759  1.00  0.00    -0.000 C 
BRANCH  13  14
ATOM     14  C   UNL     1      19.180  25.417   1.855  1.00  0.00    -0.000 C 
BRANCH  14  15
ATOM     15  C   UNL     1      18.739  24.717   0.556  1.00  0.00    -0.000 C 
BRANCH  15  16
ATOM     16  C   UNL     1      18.730  25.617  -0.695  1.00  0.00    -0.000 C 
BRANCH  16  17
ATOM     17  C   UNL     1      17.374  26.296  -0.931  1.00  0.00    -0.003 C 
ATOM     18  C   UNL     1      16.327  25.285  -1.389  1.00  0.00     0.004 C 
ENDBRANCH  16  17
ENDBRANCH  15  16
ENDBRANCH  14  15
ENDBRANCH  13  14
ENDBRANCH  12  13
ENDBRANCH  11  12
ENDBRANCH   1  11
TORSDOF 14
ENDMDL
MODEL 5
REMARK VINA RESULT:    -3.485     15.908     17.657
REMARK INTER + INTRA:          -7.255
REMARK INTER:                  -5.187
REMARK INTRA:                  -2.068
REMARK UNBOUND:                -0.918
REMARK SMILES CCCCCCCCCCCCCCCC(=O)[O-]
REMARK SMILES IDX 9 1 10 2 11 3 12 4 13 5 14 6 15 7 16 8 17 9 18 10 8 11 7 12
REMARK SMILES IDX 6 13 5 14 4 15 3 16 2 17 1 18
REMARK H PARENT
REMARK Flexibility Score: inf
ROOT
ATOM      1  C   UNL     1      21.780  35.250  13.480  1.00  0.00     0.000 C 
ENDROOT
BRANCH   1   2
ATOM      2  C   UNL     1      22.093  36.476  14.355  1.00  0.00     0.000 C 
BRANCH   2   3
ATOM      3  C   UNL     1      23.593  36.617  14.656  1.00  0.00     0.000 C 
BRANCH   3   4
ATOM      4  C   UNL     1      24.477  36.101  13.507  1.00  0.00     0.000 C 
BRANCH   4   5
ATOM      5  C   UNL     1      25.974  36.137  13.850  1.00  0.00     0.000 C 
BRANCH   5   6
ATOM      6  C   UNL     1      26.866  35.833  12.634  1.00  0.00     0.006 C 
BRANCH   6   7
ATOM      7  C   UNL     1      26.769  36.923  11.558  1.00  0.00     0.053 C 
BRANCH   7   8
ATOM      8  C   UNL     1      26.979  36.367  10.183  1.00  0.00     0.041 C 
ATOM      9  O   UNL     1      27.121  35.128  10.014  1.00  0.00    -0.550 OA
ATOM     10  O   UNL     1      27.046  37.222   9.090  1.00  0.00    -0.550 OA
ENDBRANCH   7   8
ENDBRANCH   6   7
ENDBRANCH   5   6
ENDBRANCH   4   5
ENDBRANCH   3   4
ENDBRANCH   2   3
ENDBRANCH   1   2
BRANCH   1  11
ATOM     11  C   UNL     1      20.768  34.298  14.137  1.00  0.00     0.000 C 
BRANCH  11  12
ATOM     12  C   UNL     1      21.084  34.030  15.618  1.00  0.00    -0.000 C 
BRANCH  12  13
ATOM     13  C   UNL     1      22.090  32.874  15.806  1.00  0.00    -0.000 C 
BRANCH  13  14
ATOM     14  C   UNL     1      23.563  33.305  15.687  1.00  0.00    -0.000 C 
BRANCH  14  15
ATOM     15  C   UNL     1      24.399  32.503  14.672  1.00  0.00    -0.000 C 
BRANCH  15  16
ATOM     16  C   UNL     1      23.667  32.150  13.364  1.00  0.00    -0.000 C 
BRANCH  16  17
ATOM     17  C   UNL     1      24.205  32.924  12.152  1.00  0.00    -0.003 C 
ATOM     18  C   UNL     1      25.629  32.492  11.813  1.00  0.00     0.004 C 
ENDBRANCH  16  17
ENDBRANCH  15  16
ENDBRANCH  14  15
ENDBRANCH  13  14
ENDBRANCH  12  13
ENDBRANCH  11  12
ENDBRANCH   1  11
TORSDOF 14
ENDMDL
MODEL 6
REMARK VINA RESULT:    -3.420     15.664     18.098
REMARK INTER + INTRA:          -7.136
REMARK INTER:                  -5.122
REMARK INTRA:                  -2.013
REMARK UNBOUND:                -0.918
REMARK SMILES CCCCCCCCCCCCCCCC(=O)[O-]
REMARK SMILES IDX 9 1 10 2 11 3 12 4 13 5 14 6 15 7 16 8 17 9 18 10 8 11 7 12
REMARK SMILES IDX 6 13 5 14 4 15 3 16 2 17 1 18
REMARK H PARENT
REMARK Flexibility Score: inf
ROOT
ATOM      1  C   UNL     1      23.726  32.415  12.941  1.00  0.00     0.000 C 
ENDROOT
BRANCH   1   2
ATOM      2  C   UNL     1      23.875  32.141  14.448  1.00  0.00     0.000 C 
BRANCH   2   3
ATOM      3  C   UNL     1      24.427  33.353  15.214  1.00  0.00     0.000 C 
BRANCH   3   4
ATOM      4  C   UNL     1      23.372  34.006  16.125  1.00  0.00     0.000 C 
BRANCH   4   5
ATOM      5  C   UNL     1      21.972  33.405  15.933  1.00  0.00     0.000 C 
BRANCH   5   6
ATOM      6  C   UNL     1      20.970  34.414  15.347  1.00  0.00     0.006 C 
BRANCH   6   7
ATOM      7  C   UNL     1      21.513  35.102  14.087  1.00  0.00     0.053 C 
BRANCH   7   8
ATOM      8  C   UNL     1      20.798  34.648  12.853  1.00  0.00     0.041 C 
ATOM      9  O   UNL     1      19.621  34.205  12.927  1.00  0.00    -0.550 OA
ATOM     10  O   UNL     1      21.441  34.686  11.622  1.00  0.00    -0.550 OA
ENDBRANCH   7   8
ENDBRANCH   6   7
ENDBRANCH   5   6
ENDBRANCH   4   5
ENDBRANCH   3   4
ENDBRANCH   2   3
ENDBRANCH   1   2
BRANCH   1  11
ATOM     11  C   UNL     1      24.617  33.572  12.461  1.00  0.00     0.000 C 
BRANCH  11  12
ATOM     12  C   UNL     1      26.038  33.109  12.094  1.00  0.00    -0.000 C 
BRANCH  12  13
ATOM     13  C   UNL     1      27.086  34.228  12.271  1.00  0.00    -0.000 C 
BRANCH  13  14
ATOM     14  C   UNL     1      26.478  35.639  12.379  1.00  0.00    -0.000 C 
BRANCH  14  15
ATOM     15  C   UNL     1      26.626  36.311  13.757  1.00  0.00    -0.000 C 
BRANCH  15  16
ATOM     16  C   UNL     1      25.475  37.259  14.143  1.00  0.00    -0.000 C 
BRANCH  16  17
ATOM     17  C   UNL     1      25.105  37.174  15.630  1.00  0.00    -0.003 C 
ATOM     18  C   UNL     1      23.703  37.723  15.879  1.00  0.00     0.004 C 
ENDBRANCH  16  17
ENDBRANCH  15  16
ENDBRANCH  14  15
ENDBRANCH  13  14
ENDBRANCH  12  13
ENDBRANCH  11  12
ENDBRANCH   1  11
TORSDOF 14
ENDMDL
MODEL 7
REMARK VINA RESULT:    -3.402     14.054     16.818
REMARK INTER + INTRA:          -7.104
REMARK INTER:                  -5.113
REMARK INTRA:                  -1.990
REMARK UNBOUND:                -0.918
REMARK SMILES CCCCCCCCCCCCCCCC(=O)[O-]
REMARK SMILES IDX 9 1 10 2 11 3 12 4 13 5 14 6 15 7 16 8 17 9 18 10 8 11 7 12
REMARK SMILES IDX 6 13 5 14 4 15 3 16 2 17 1 18
REMARK H PARENT
REMARK Flexibility Score: inf
ROOT
ATOM      1  C   UNL     1      22.639  33.407  15.573  1.00  0.00     0.000 C 
ENDROOT
BRANCH   1   2
ATOM      2  C   UNL     1      22.124  32.801  14.255  1.00  0.00     0.000 C 
BRANCH   2   3
ATOM      3  C   UNL     1      22.868  33.347  13.026  1.00  0.00     0.000 C 
BRANCH   3   4
ATOM      4  C   UNL     1      21.988  34.271  12.166  1.00  0.00     0.000 C 
BRANCH   4   5
ATOM      5  C   UNL     1      20.804  34.859  12.950  1.00  0.00     0.000 C 
BRANCH   5   6
ATOM      6  C   UNL     1      19.460  34.223  12.556  1.00  0.00     0.006 C 
BRANCH   6   7
ATOM      7  C   UNL     1      19.311  34.080  11.035  1.00  0.00     0.053 C 
BRANCH   7   8
ATOM      8  C   UNL     1      17.987  33.493  10.658  1.00  0.00     0.041 C 
ATOM      9  O   UNL     1      16.921  33.995  11.102  1.00  0.00    -0.550 OA
ATOM     10  O   UNL     1      17.930  32.372   9.839  1.00  0.00    -0.550 OA
ENDBRANCH   7   8
ENDBRANCH   6   7
ENDBRANCH   5   6
ENDBRANCH   4   5
ENDBRANCH   3   4
ENDBRANCH   2   3
ENDBRANCH   1   2
BRANCH   1  11
ATOM     11  C   UNL     1      24.172  33.377  15.676  1.00  0.00     0.000 C 
BRANCH  11  12
ATOM     12  C   UNL     1      24.781  34.780  15.845  1.00  0.00    -0.000 C 
BRANCH  12  13
ATOM     13  C   UNL     1      23.732  35.901  15.680  1.00  0.00    -0.000 C 
BRANCH  13  14
ATOM     14  C   UNL     1      23.888  36.711  14.379  1.00  0.00    -0.000 C 
BRANCH  14  15
ATOM     15  C   UNL     1      25.295  36.680  13.755  1.00  0.00    -0.000 C 
BRANCH  15  16
ATOM     16  C   UNL     1      25.395  35.922  12.417  1.00  0.00    -0.000 C 
BRANCH  16  17
ATOM     17  C   UNL     1      26.664  35.065  12.310  1.00  0.00    -0.003 C 
ATOM     18  C   UNL     1      26.317  33.588  12.150  1.00  0.00     0.004 C 
ENDBRANCH  16  17
ENDBRANCH  15  16
ENDBRANCH  14  15
ENDBRANCH  13  14
ENDBRANCH  12  13
ENDBRANCH  11  12
ENDBRANCH   1  11
TORSDOF 14
ENDMDL
MODEL 8
REMARK VINA RESULT:    -3.359     15.522     17.843
REMARK INTER + INTRA:          -7.026
REMARK INTER:                  -4.823
REMARK INTRA:                  -2.203
REMARK UNBOUND:                -0.918
REMARK SMILES CCCCCCCCCCCCCCCC(=O)[O-]
REMARK SMILES IDX 9 1 10 2 11 3 12 4 13 5 14 6 15 7 16 8 17 9 18 10 8 11 7 12
REMARK SMILES IDX 6 13 5 14 4 15 3 16 2 17 1 18
REMARK H PARENT
REMARK Flexibility Score: inf
ROOT
ATOM      1  C   UNL     1      21.497  35.422  14.271  1.00  0.00     0.000 C 
ENDROOT
BRANCH   1   2
ATOM      2  C   UNL     1      22.794  36.232  14.099  1.00  0.00     0.000 C 
BRANCH   2   3
ATOM      3  C   UNL     1      23.533  36.447  15.429  1.00  0.00     0.000 C 
BRANCH   3   4
ATOM      4  C   UNL     1      25.060  36.316  15.283  1.00  0.00     0.000 C 
BRANCH   4   5
ATOM      5  C   UNL     1      25.681  37.482  14.497  1.00  0.00     0.000 C 
BRANCH   5   6
ATOM      6  C   UNL     1      26.833  37.030  13.584  1.00  0.00     0.006 C 
BRANCH   6   7
ATOM      7  C   UNL     1      26.661  35.581  13.109  1.00  0.00     0.053 C 
BRANCH   7   8
ATOM      8  C   UNL     1      26.781  35.466  11.621  1.00  0.00     0.041 C 
ATOM      9  O   UNL     1      26.556  36.464  10.886  1.00  0.00    -0.550 OA
ATOM     10  O   UNL     1      27.114  34.248  11.042  1.00  0.00    -0.550 OA
ENDBRANCH   7   8
ENDBRANCH   6   7
ENDBRANCH   5   6
ENDBRANCH   4   5
ENDBRANCH   3   4
ENDBRANCH   2   3
ENDBRANCH   1   2
BRANCH   1  11
ATOM     11  C   UNL     1      21.053  34.737  12.968  1.00  0.00     0.000 C 
BRANCH  11  12
ATOM     12  C   UNL     1      22.234  34.419  12.036  1.00  0.00    -0.000 C 
BRANCH  12  13
ATOM     13  C   UNL     1      22.758  32.978  12.217  1.00  0.00    -0.000 C 
BRANCH  13  14
ATOM     14  C   UNL     1      24.204  32.904  12.742  1.00  0.00    -0.000 C 
BRANCH  14  15
ATOM     15  C   UNL     1      24.341  32.870  14.276  1.00  0.00    -0.000 C 
BRANCH  15  16
ATOM     16  C   UNL     1      23.262  32.049  15.006  1.00  0.00    -0.000 C 
BRANCH  16  17
ATOM     17  C   UNL     1      22.457  32.882  16.013  1.00  0.00    -0.003 C 
ATOM     18  C   UNL     1      21.016  32.389  16.106  1.00  0.00     0.004 C 
ENDBRANCH  16  17
ENDBRANCH  15  16
ENDBRANCH  14  15
ENDBRANCH  13  14
ENDBRANCH  12  13
ENDBRANCH  11  12
ENDBRANCH   1  11
TORSDOF 14
ENDMDL
MODEL 9
REMARK VINA RESULT:    -3.353     16.046     18.707
REMARK INTER + INTRA:          -7.014
REMARK INTER:                  -4.864
REMARK INTRA:                  -2.150
REMARK UNBOUND:                -0.918
REMARK SMILES CCCCCCCCCCCCCCCC(=O)[O-]
REMARK SMILES IDX 9 1 10 2 11 3 12 4 13 5 14 6 15 7 16 8 17 9 18 10 8 11 7 12
REMARK SMILES IDX 6 13 5 14 4 15 3 16 2 17 1 18
REMARK H PARENT
REMARK Flexibility Score: inf
ROOT
ATOM      1  C   UNL     1      22.992  36.651  14.230  1.00  0.00     0.000 C 
ENDROOT
BRANCH   1   2
ATOM      2  C   UNL     1      21.643  35.917  14.133  1.00  0.00     0.000 C 
BRANCH   2   3
ATOM      3  C   UNL     1      21.596  34.923  12.963  1.00  0.00     0.000 C 
BRANCH   3   4
ATOM      4  C   UNL     1      22.898  34.114  12.823  1.00  0.00     0.000 C 
BRANCH   4   5
ATOM      5  C   UNL     1      22.756  32.672  13.335  1.00  0.00     0.000 C 
BRANCH   5   6
ATOM      6  C   UNL     1      23.533  32.429  14.640  1.00  0.00     0.006 C 
BRANCH   6   7
ATOM      7  C   UNL     1      22.875  33.121  15.842  1.00  0.00     0.053 C 
BRANCH   7   8
ATOM      8  C   UNL     1      21.466  32.660  16.047  1.00  0.00     0.041 C 
ATOM      9  O   UNL     1      21.205  31.431  16.124  1.00  0.00    -0.550 OA
ATOM     10  O   UNL     1      20.435  33.588  16.125  1.00  0.00    -0.550 OA
ENDBRANCH   7   8
ENDBRANCH   6   7
ENDBRANCH   5   6
ENDBRANCH   4   5
ENDBRANCH   3   4
ENDBRANCH   2   3
ENDBRANCH   1   2
BRANCH   1  11
ATOM     11  C   UNL     1      23.559  36.656  15.659  1.00  0.00     0.000 C 
BRANCH  11  12
ATOM     12  C   UNL     1      24.733  37.637  15.825  1.00  0.00    -0.000 C 
BRANCH  12  13
ATOM     13  C   UNL     1      26.104  36.931  15.760  1.00  0.00    -0.000 C 
BRANCH  13  14
ATOM     14  C   UNL     1      26.010  35.401  15.618  1.00  0.00    -0.000 C 
BRANCH  14  15
ATOM     15  C   UNL     1      27.081  34.761  14.715  1.00  0.00    -0.000 C 
BRANCH  15  16
ATOM     16  C   UNL     1      26.530  34.002  13.493  1.00  0.00    -0.000 C 
BRANCH  16  17
ATOM     17  C   UNL     1      26.865  34.691  12.163  1.00  0.00    -0.003 C 
ATOM     18  C   UNL     1      26.248  36.086  12.097  1.00  0.00     0.004 C 
ENDBRANCH  16  17
ENDBRANCH  15  16
ENDBRANCH  14  15
ENDBRANCH  13  14
ENDBRANCH  12  13
ENDBRANCH  11  12
ENDBRANCH   1  11
TORSDOF 14
ENDMDL
