MODEL 1
REMARK VINA RESULT:    -3.317      0.000      0.000
REMARK INTER + INTRA:          -3.933
REMARK INTER:                  -3.898
REMARK INTRA:                  -0.034
REMARK UNBOUND:                -0.034
REMARK SMILES CCCCC(=O)[O-]
REMARK SMILES IDX 4 1 5 2 6 3 7 4 3 5 2 6 1 7
REMARK H PARENT
REMARK Flexibility Score: inf
ROOT
ATOM      1  C   UNL     1     -10.156 -24.656  27.168  1.00  0.00     0.053 C 
ENDROOT
BRANCH   1   2
ATOM      2  C   UNL     1      -9.551 -25.992  27.468  1.00  0.00     0.041 C 
ATOM      3  O   UNL     1      -8.740 -26.122  28.424  1.00  0.00    -0.550 OA
ATOM      4  O   UNL     1      -9.906 -27.101  26.712  1.00  0.00    -0.550 OA
ENDBRANCH   1   2
BRANCH   1   5
ATOM      5  C   UNL     1     -10.850 -24.640  25.799  1.00  0.00     0.006 C 
BRANCH   5   6
ATOM      6  C   UNL     1     -11.542 -23.300  25.514  1.00  0.00    -0.003 C 
ATOM      7  C   UNL     1     -11.034 -22.209  26.452  1.00  0.00     0.004 C 
ENDBRANCH   5   6
ENDBRANCH   1   5
TORSDOF 3
ENDMDL
MODEL 2
REMARK VINA RESULT:    -3.227      0.363      1.274
REMARK INTER + INTRA:          -3.828
REMARK INTER:                  -3.801
REMARK INTRA:                  -0.027
REMARK UNBOUND:                -0.034
REMARK SMILES CCCCC(=O)[O-]
REMARK SMILES IDX 4 1 5 2 6 3 7 4 3 5 2 6 1 7
REMARK H PARENT
REMARK Flexibility Score: inf
ROOT
ATOM      1  C   UNL     1     -10.339 -24.878  27.474  1.00  0.00     0.053 C 
ENDROOT
BRANCH   1   2
ATOM      2  C   UNL     1      -9.439 -26.045  27.743  1.00  0.00     0.041 C 
ATOM      3  O   UNL     1      -9.486 -27.066  27.007  1.00  0.00    -0.550 OA
ATOM      4  O   UNL     1      -8.526 -25.991  28.788  1.00  0.00    -0.550 OA
ENDBRANCH   1   2
BRANCH   1   5
ATOM      5  C   UNL     1     -10.528 -24.641  25.970  1.00  0.00     0.006 C 
BRANCH   5   6
ATOM      6  C   UNL     1     -11.468 -23.462  25.683  1.00  0.00    -0.003 C 
ATOM      7  C   UNL     1     -11.067 -22.230  26.488  1.00  0.00     0.004 C 
ENDBRANCH   5   6
ENDBRANCH   1   5
TORSDOF 3
ENDMDL
MODEL 3
REMARK VINA RESULT:    -3.089      1.643      1.899
REMARK INTER + INTRA:          -3.665
REMARK INTER:                  -3.624
REMARK INTRA:                  -0.042
REMARK UNBOUND:                -0.034
REMARK SMILES CCCCC(=O)[O-]
REMARK SMILES IDX 4 1 5 2 6 3 7 4 3 5 2 6 1 7
REMARK H PARENT
REMARK Flexibility Score: inf
ROOT
ATOM      1  C   UNL     1     -10.137 -26.278  27.026  1.00  0.00     0.053 C 
ENDROOT
BRANCH   1   2
ATOM      2  C   UNL     1     -11.310 -26.899  27.719  1.00  0.00     0.041 C 
ATOM      3  O   UNL     1     -11.364 -26.924  28.977  1.00  0.00    -0.550 OA
ATOM      4  O   UNL     1     -12.360 -27.421  26.975  1.00  0.00    -0.550 OA
ENDBRANCH   1   2
BRANCH   1   5
ATOM      5  C   UNL     1     -10.076 -24.762  27.258  1.00  0.00     0.006 C 
BRANCH   5   6
ATOM      6  C   UNL     1     -10.585 -23.968  26.047  1.00  0.00    -0.003 C 
ATOM      7  C   UNL     1     -11.174 -22.628  26.477  1.00  0.00     0.004 C 
ENDBRANCH   5   6
ENDBRANCH   1   5
TORSDOF 3
ENDMDL
MODEL 4
REMARK VINA RESULT:    -3.071      3.618      4.287
REMARK INTER + INTRA:          -3.644
REMARK INTER:                  -3.572
REMARK INTRA:                  -0.073
REMARK UNBOUND:                -0.034
REMARK SMILES CCCCC(=O)[O-]
REMARK SMILES IDX 4 1 5 2 6 3 7 4 3 5 2 6 1 7
REMARK H PARENT
REMARK Flexibility Score: inf
ROOT
ATOM      1  C   UNL     1      -8.702 -26.834  29.841  1.00  0.00     0.053 C 
ENDROOT
BRANCH   1   2
ATOM      2  C   UNL     1      -7.865 -27.183  28.649  1.00  0.00     0.041 C 
ATOM      3  O   UNL     1      -6.608 -27.166  28.728  1.00  0.00    -0.550 OA
ATOM      4  O   UNL     1      -8.474 -27.561  27.459  1.00  0.00    -0.550 OA
ENDBRANCH   1   2
BRANCH   1   5
ATOM      5  C   UNL     1      -9.194 -25.381  29.783  1.00  0.00     0.006 C 
BRANCH   5   6
ATOM      6  C   UNL     1      -8.985 -24.645  31.114  1.00  0.00    -0.003 C 
ATOM      7  C   UNL     1      -7.503 -24.401  31.381  1.00  0.00     0.004 C 
ENDBRANCH   5   6
ENDBRANCH   1   5
TORSDOF 3
ENDMDL
MODEL 5
REMARK VINA RESULT:    -3.047      2.253      3.807
REMARK INTER + INTRA:          -3.616
REMARK INTER:                  -3.511
REMARK INTRA:                  -0.104
REMARK UNBOUND:                -0.034
REMARK SMILES CCCCC(=O)[O-]
REMARK SMILES IDX 4 1 5 2 6 3 7 4 3 5 2 6 1 7
REMARK H PARENT
REMARK Flexibility Score: inf
ROOT
ATOM      1  C   UNL     1     -10.113 -24.182  26.750  1.00  0.00     0.053 C 
ENDROOT
BRANCH   1   2
ATOM      2  C   UNL     1     -11.146 -24.117  25.668  1.00  0.00     0.041 C 
ATOM      3  O   UNL     1     -11.723 -23.028  25.406  1.00  0.00    -0.550 OA
ATOM      4  O   UNL     1     -11.449 -25.252  24.927  1.00  0.00    -0.550 OA
ENDBRANCH   1   2
BRANCH   1   5
ATOM      5  C   UNL     1     -10.432 -25.278  27.776  1.00  0.00     0.006 C 
BRANCH   5   6
ATOM      6  C   UNL     1      -9.324 -26.338  27.857  1.00  0.00    -0.003 C 
ATOM      7  C   UNL     1      -9.698 -27.585  27.063  1.00  0.00     0.004 C 
ENDBRANCH   5   6
ENDBRANCH   1   5
TORSDOF 3
ENDMDL
MODEL 6
REMARK VINA RESULT:    -3.042      3.459      4.166
REMARK INTER + INTRA:          -3.610
REMARK INTER:                  -3.504
REMARK INTRA:                  -0.106
REMARK UNBOUND:                -0.034
REMARK SMILES CCCCC(=O)[O-]
REMARK SMILES IDX 4 1 5 2 6 3 7 4 3 5 2 6 1 7
REMARK H PARENT
REMARK Flexibility Score: inf
ROOT
ATOM      1  C   UNL     1      -9.370 -27.227  29.614  1.00  0.00     0.053 C 
ENDROOT
BRANCH   1   2
ATOM      2  C   UNL     1      -8.919 -26.815  28.247  1.00  0.00     0.041 C 
ATOM      3  O   UNL     1      -8.269 -27.617  27.524  1.00  0.00    -0.550 OA
ATOM      4  O   UNL     1      -9.244 -25.557  27.758  1.00  0.00    -0.550 OA
ENDBRANCH   1   2
BRANCH   1   5
ATOM      5  C   UNL     1     -10.377 -26.231  30.205  1.00  0.00     0.006 C 
BRANCH   5   6
ATOM      6  C   UNL     1      -9.883 -25.621  31.524  1.00  0.00    -0.003 C 
ATOM      7  C   UNL     1      -8.893 -24.489  31.270  1.00  0.00     0.004 C 
ENDBRANCH   5   6
ENDBRANCH   1   5
TORSDOF 3
ENDMDL
MODEL 7
REMARK VINA RESULT:    -3.037      3.007      4.262
REMARK INTER + INTRA:          -3.604
REMARK INTER:                  -3.544
REMARK INTRA:                  -0.060
REMARK UNBOUND:                -0.034
REMARK SMILES CCCCC(=O)[O-]
REMARK SMILES IDX 4 1 5 2 6 3 7 4 3 5 2 6 1 7
REMARK H PARENT
REMARK Flexibility Score: inf
ROOT
ATOM      1  C   UNL     1      -9.245 -25.695  28.579  1.00  0.00     0.053 C 
ENDROOT
BRANCH   1   2
ATOM      2  C   UNL     1      -8.337 -26.875  28.418  1.00  0.00     0.041 C 
ATOM      3  O   UNL     1      -8.464 -27.643  27.427  1.00  0.00    -0.550 OA
ATOM      4  O   UNL     1      -7.330 -27.109  29.345  1.00  0.00    -0.550 OA
ENDBRANCH   1   2
BRANCH   1   5
ATOM      5  C   UNL     1      -9.532 -25.395  30.057  1.00  0.00     0.006 C 
BRANCH   5   6
ATOM      6  C   UNL     1     -10.712 -26.215  30.595  1.00  0.00    -0.003 C 
ATOM      7  C   UNL     1     -10.777 -26.150  32.118  1.00  0.00     0.004 C 
ENDBRANCH   5   6
ENDBRANCH   1   5
TORSDOF 3
ENDMDL
MODEL 8
REMARK VINA RESULT:    -3.022      3.101      3.804
REMARK INTER + INTRA:          -3.587
REMARK INTER:                  -3.473
REMARK INTRA:                  -0.113
REMARK UNBOUND:                -0.034
REMARK SMILES CCCCC(=O)[O-]
REMARK SMILES IDX 4 1 5 2 6 3 7 4 3 5 2 6 1 7
REMARK H PARENT
REMARK Flexibility Score: inf
ROOT
ATOM      1  C   UNL     1      -8.704 -27.273  28.011  1.00  0.00     0.053 C 
ENDROOT
BRANCH   1   2
ATOM      2  C   UNL     1      -8.958 -25.849  28.397  1.00  0.00     0.041 C 
ATOM      3  O   UNL     1      -9.572 -25.078  27.613  1.00  0.00    -0.550 OA
ATOM      4  O   UNL     1      -8.544 -25.381  29.637  1.00  0.00    -0.550 OA
ENDBRANCH   1   2
BRANCH   1   5
ATOM      5  C   UNL     1      -9.649 -27.737  26.895  1.00  0.00     0.006 C 
BRANCH   5   6
ATOM      6  C   UNL     1     -10.872 -28.484  27.443  1.00  0.00    -0.003 C 
ATOM      7  C   UNL     1     -12.126 -27.618  27.367  1.00  0.00     0.004 C 
ENDBRANCH   5   6
ENDBRANCH   1   5
TORSDOF 3
ENDMDL
MODEL 9
REMARK VINA RESULT:    -3.002     11.076     12.227
REMARK INTER + INTRA:          -3.563
REMARK INTER:                  -3.473
REMARK INTRA:                  -0.089
REMARK UNBOUND:                -0.034
REMARK SMILES CCCCC(=O)[O-]
REMARK SMILES IDX 4 1 5 2 6 3 7 4 3 5 2 6 1 7
REMARK H PARENT
REMARK Flexibility Score: inf
ROOT
ATOM      1  C   UNL     1     -16.702 -23.529  17.451  1.00  0.00     0.053 C 
ENDROOT
BRANCH   1   2
ATOM      2  C   UNL     1     -15.620 -22.517  17.231  1.00  0.00     0.041 C 
ATOM      3  O   UNL     1     -14.490 -22.669  17.768  1.00  0.00    -0.550 OA
ATOM      4  O   UNL     1     -15.848 -21.424  16.406  1.00  0.00    -0.550 OA
ENDBRANCH   1   2
BRANCH   1   5
ATOM      5  C   UNL     1     -17.599 -23.680  16.215  1.00  0.00     0.006 C 
BRANCH   5   6
ATOM      6  C   UNL     1     -19.091 -23.609  16.568  1.00  0.00    -0.003 C 
ATOM      7  C   UNL     1     -19.348 -22.579  17.664  1.00  0.00     0.004 C 
ENDBRANCH   5   6
ENDBRANCH   1   5
TORSDOF 3
ENDMDL
