MODEL 1
REMARK VINA RESULT:    -3.936      0.000      0.000
REMARK INTER + INTRA:          -6.007
REMARK INTER:                  -6.007
REMARK INTRA:                  -0.000
REMARK UNBOUND:                -0.000
REMARK SMILES CC1=CCC[C@H](C)C(=O)C[C@@H](C(C)C)C(=O)C1
REMARK SMILES IDX 8 1 9 2 6 3 7 4 5 5 4 6 3 7 2 8 1 9 10 11 11 12 15 13 16 14
REMARK SMILES IDX 17 15 12 17 13 18 14 19
REMARK H PARENT
REMARK Flexibility Score: 70.00
ROOT
ATOM      1  C   UNL     1      12.325  19.436  57.490  1.00  0.00     0.136 C 
ATOM      2  O   UNL     1      12.201  20.641  57.662  1.00  0.00    -0.299 OA
ENDROOT
BRANCH   1   3
ATOM      3  C   UNL     1      11.120  18.527  57.620  1.00  0.00     0.053 C 
ATOM      4  C   UNL     1      10.852  18.249  59.103  1.00  0.00     0.016 C 
BRANCH   3   5
ATOM      5  C   UNL     1       9.866  19.140  56.955  1.00  0.00     0.015 C 
BRANCH   5   6
ATOM      6  C   UNL     1       9.914  19.106  55.420  1.00  0.00     0.028 C 
BRANCH   6   7
ATOM      7  C   UNL     1      10.052  17.692  54.906  1.00  0.00    -0.028 C 
ATOM      8  C   UNL     1      11.100  17.206  54.204  1.00  0.00    -0.070 CG0
ATOM      9  C   UNL     1      11.055  15.762  53.774  1.00  0.00     0.039 C 
ATOM     10  G   UNL     1      12.326  18.033  53.863  1.00  0.00     0.000 G0
ENDBRANCH   6   7
ENDBRANCH   5   6
ENDBRANCH   3   5
ENDBRANCH   1   3
BRANCH   1  11
ATOM     11  C   UNL     1      13.689  18.880  57.171  1.00  0.00     0.087 C 
BRANCH  11  12
ATOM     12  C   UNL     1      14.020  18.995  55.660  1.00  0.00     0.066 C 
BRANCH  12  13
ATOM     13  C   UNL     1      13.438  17.823  54.887  1.00  0.00     0.140 C 
ATOM     14  O   UNL     1      13.888  16.699  55.057  1.00  0.00    -0.299 OA
BRANCH  13  15
ATOM     15  C   UNL     1      12.349  18.022  53.866  1.00  0.00     0.106 CG0
ATOM     16  G   UNL     1      11.117  17.211  54.221  1.00  0.00     0.000 G0
ENDBRANCH  13  15
ENDBRANCH  12  13
BRANCH  12  17
ATOM     17  C   UNL     1      15.547  19.135  55.366  1.00  0.00    -0.006 C 
ATOM     18  C   UNL     1      16.406  19.355  56.624  1.00  0.00     0.008 C 
ATOM     19  C   UNL     1      15.827  20.242  54.337  1.00  0.00     0.008 C 
ENDBRANCH  12  17
ENDBRANCH  11  12
ENDBRANCH   1  11
TORSDOF 1
ENDMDL
MODEL 2
REMARK VINA RESULT:    -3.888      1.611      4.181
REMARK INTER + INTRA:          -5.934
REMARK INTER:                  -6.368
REMARK INTRA:                   0.434
REMARK UNBOUND:                -0.000
REMARK SMILES CC1=CCC[C@H](C)C(=O)C[C@@H](C(C)C)C(=O)C1
REMARK SMILES IDX 8 1 9 2 6 3 7 4 5 5 4 6 3 7 2 8 1 9 10 11 11 12 15 13 16 14
REMARK SMILES IDX 17 15 12 17 13 18 14 19
REMARK H PARENT
REMARK Flexibility Score: 70.00
ROOT
ATOM      1  C   UNL     1      13.221  19.220  57.610  1.00  0.00     0.136 C 
ATOM      2  O   UNL     1      13.480  18.690  58.681  1.00  0.00    -0.299 OA
ENDROOT
BRANCH   1   3
ATOM      3  C   UNL     1      14.262  19.244  56.508  1.00  0.00     0.053 C 
ATOM      4  C   UNL     1      15.650  19.438  57.126  1.00  0.00     0.016 C 
BRANCH   3   5
ATOM      5  C   UNL     1      14.229  17.950  55.662  1.00  0.00     0.015 C 
BRANCH   5   6
ATOM      6  C   UNL     1      13.783  18.185  54.211  1.00  0.00     0.028 C 
BRANCH   6   7
ATOM      7  C   UNL     1      12.600  17.316  53.852  1.00  0.00    -0.028 C 
ATOM      8  C   UNL     1      11.313  17.558  54.186  1.00  0.00    -0.070 CG0
ATOM      9  C   UNL     1      10.267  16.569  53.736  1.00  0.00     0.039 C 
ATOM     10  G   UNL     1      10.872  18.788  54.957  1.00  0.00     0.000 G0
ENDBRANCH   6   7
ENDBRANCH   5   6
ENDBRANCH   3   5
ENDBRANCH   1   3
BRANCH   1  11
ATOM     11  C   UNL     1      11.871  19.861  57.419  1.00  0.00     0.087 C 
BRANCH  11  12
ATOM     12  C   UNL     1      10.718  18.838  57.592  1.00  0.00     0.066 C 
BRANCH  12  13
ATOM     13  C   UNL     1      10.159  18.417  56.243  1.00  0.00     0.140 C 
ATOM     14  O   UNL     1       9.158  17.716  56.192  1.00  0.00    -0.299 OA
BRANCH  13  15
ATOM     15  C   UNL     1      10.844  18.799  54.957  1.00  0.00     0.106 CG0
ATOM     16  G   UNL     1      11.301  17.567  54.201  1.00  0.00     0.000 G0
ENDBRANCH  13  15
ENDBRANCH  12  13
BRANCH  12  17
ATOM     17  C   UNL     1       9.570  19.343  58.522  1.00  0.00    -0.006 C 
ATOM     18  C   UNL     1       9.416  20.876  58.545  1.00  0.00     0.008 C 
ATOM     19  C   UNL     1       9.724  18.809  59.955  1.00  0.00     0.008 C 
ENDBRANCH  12  17
ENDBRANCH  11  12
ENDBRANCH   1  11
TORSDOF 1
ENDMDL
MODEL 3
REMARK VINA RESULT:    -3.882      2.172      5.683
REMARK INTER + INTRA:          -5.925
REMARK INTER:                  -5.850
REMARK INTRA:                  -0.075
REMARK UNBOUND:                -0.000
REMARK SMILES CC1=CCC[C@H](C)C(=O)C[C@@H](C(C)C)C(=O)C1
REMARK SMILES IDX 8 1 9 2 6 3 7 4 5 5 4 6 3 7 2 8 1 9 10 11 11 12 15 13 16 14
REMARK SMILES IDX 17 15 12 17 13 18 14 19
REMARK H PARENT
REMARK Flexibility Score: 70.00
ROOT
ATOM      1  C   UNL     1      11.326  15.939  53.383  1.00  0.00     0.136 C 
ATOM      2  O   UNL     1      10.690  15.448  52.460  1.00  0.00    -0.299 OA
ENDROOT
BRANCH   1   3
ATOM      3  C   UNL     1      12.729  16.459  53.140  1.00  0.00     0.053 C 
ATOM      4  C   UNL     1      12.657  17.737  52.297  1.00  0.00     0.016 C 
BRANCH   3   5
ATOM      5  C   UNL     1      13.475  16.734  54.466  1.00  0.00     0.015 C 
BRANCH   5   6
ATOM      6  C   UNL     1      13.651  18.231  54.765  1.00  0.00     0.028 C 
BRANCH   6   7
ATOM      7  C   UNL     1      13.248  18.560  56.183  1.00  0.00    -0.028 C 
ATOM      8  C   UNL     1      12.020  18.964  56.581  1.00  0.00    -0.070 CG0
ATOM      9  C   UNL     1      11.810  19.248  58.047  1.00  0.00     0.039 C 
ATOM     10  G   UNL     1      10.845  19.107  55.633  1.00  0.00     0.000 G0
ENDBRANCH   6   7
ENDBRANCH   5   6
ENDBRANCH   3   5
ENDBRANCH   1   3
BRANCH   1  11
ATOM     11  C   UNL     1      10.702  15.993  54.753  1.00  0.00     0.087 C 
BRANCH  11  12
ATOM     12  C   UNL     1       9.518  16.995  54.808  1.00  0.00     0.066 C 
BRANCH  12  13
ATOM     13  C   UNL     1       9.781  18.089  55.829  1.00  0.00     0.140 C 
ATOM     14  O   UNL     1       9.080  18.169  56.829  1.00  0.00    -0.299 OA
BRANCH  13  15
ATOM     15  C   UNL     1      10.855  19.122  55.611  1.00  0.00     0.106 CG0
ATOM     16  G   UNL     1      12.000  18.928  56.587  1.00  0.00     0.000 G0
ENDBRANCH  13  15
ENDBRANCH  12  13
BRANCH  12  17
ATOM     17  C   UNL     1       8.140  16.315  55.082  1.00  0.00    -0.006 C 
ATOM     18  C   UNL     1       8.122  14.803  54.790  1.00  0.00     0.008 C 
ATOM     19  C   UNL     1       7.002  17.012  54.319  1.00  0.00     0.008 C 
ENDBRANCH  12  17
ENDBRANCH  11  12
ENDBRANCH   1  11
TORSDOF 1
ENDMDL
MODEL 4
REMARK VINA RESULT:    -3.843      1.870      4.148
REMARK INTER + INTRA:          -5.865
REMARK INTER:                  -6.199
REMARK INTRA:                   0.334
REMARK UNBOUND:                -0.000
REMARK SMILES CC1=CCC[C@H](C)C(=O)C[C@@H](C(C)C)C(=O)C1
REMARK SMILES IDX 8 1 9 2 6 3 7 4 5 5 4 6 3 7 2 8 1 9 10 11 11 12 15 13 16 14
REMARK SMILES IDX 17 15 12 17 13 18 14 19
REMARK H PARENT
REMARK Flexibility Score: 70.00
ROOT
ATOM      1  C   UNL     1      14.693  18.865  55.218  1.00  0.00     0.136 C 
ATOM      2  O   UNL     1      14.969  19.775  54.448  1.00  0.00    -0.299 OA
ENDROOT
BRANCH   1   3
ATOM      3  C   UNL     1      15.228  18.888  56.635  1.00  0.00     0.053 C 
ATOM      4  C   UNL     1      16.629  19.508  56.639  1.00  0.00     0.016 C 
BRANCH   3   5
ATOM      5  C   UNL     1      14.294  19.671  57.587  1.00  0.00     0.015 C 
BRANCH   5   6
ATOM      6  C   UNL     1      13.066  18.864  58.033  1.00  0.00     0.028 C 
BRANCH   6   7
ATOM      7  C   UNL     1      11.784  19.614  57.759  1.00  0.00    -0.028 C 
ATOM      8  C   UNL     1      10.920  19.358  56.751  1.00  0.00    -0.070 CG0
ATOM      9  C   UNL     1       9.689  20.222  56.639  1.00  0.00     0.039 C 
ATOM     10  G   UNL     1      11.113  18.228  55.758  1.00  0.00     0.000 G0
ENDBRANCH   6   7
ENDBRANCH   5   6
ENDBRANCH   3   5
ENDBRANCH   1   3
BRANCH   1  11
ATOM     11  C   UNL     1      13.839  17.726  54.726  1.00  0.00     0.087 C 
BRANCH  11  12
ATOM     12  C   UNL     1      12.780  18.200  53.697  1.00  0.00     0.066 C 
BRANCH  12  13
ATOM     13  C   UNL     1      11.552  18.755  54.399  1.00  0.00     0.140 C 
ATOM     14  O   UNL     1      10.930  19.681  53.896  1.00  0.00    -0.299 OA
BRANCH  13  15
ATOM     15  C   UNL     1      11.109  18.227  55.738  1.00  0.00     0.106 CG0
ATOM     16  G   UNL     1      10.940  19.356  56.737  1.00  0.00     0.000 G0
ENDBRANCH  13  15
ENDBRANCH  12  13
BRANCH  12  17
ATOM     17  C   UNL     1      12.368  17.096  52.673  1.00  0.00    -0.006 C 
ATOM     18  C   UNL     1      12.675  15.663  53.144  1.00  0.00     0.008 C 
ATOM     19  C   UNL     1      12.995  17.342  51.291  1.00  0.00     0.008 C 
ENDBRANCH  12  17
ENDBRANCH  11  12
ENDBRANCH   1  11
TORSDOF 1
ENDMDL
MODEL 5
REMARK VINA RESULT:    -3.722      3.237      5.492
REMARK INTER + INTRA:          -5.680
REMARK INTER:                  -5.594
REMARK INTRA:                  -0.086
REMARK UNBOUND:                -0.000
REMARK SMILES CC1=CCC[C@H](C)C(=O)C[C@@H](C(C)C)C(=O)C1
REMARK SMILES IDX 8 1 9 2 6 3 7 4 5 5 4 6 3 7 2 8 1 9 10 11 11 12 15 13 16 14
REMARK SMILES IDX 17 15 12 17 13 18 14 19
REMARK H PARENT
REMARK Flexibility Score: 70.00
ROOT
ATOM      1  C   UNL     1      11.453  18.645  56.483  1.00  0.00     0.136 C 
ATOM      2  O   UNL     1      12.361  18.794  55.677  1.00  0.00    -0.299 OA
ENDROOT
BRANCH   1   3
ATOM      3  C   UNL     1      11.568  19.246  57.869  1.00  0.00     0.053 C 
ATOM      4  C   UNL     1      11.023  20.678  57.848  1.00  0.00     0.016 C 
BRANCH   3   5
ATOM      5  C   UNL     1      10.814  18.403  58.923  1.00  0.00     0.015 C 
BRANCH   5   6
ATOM      6  C   UNL     1       9.811  19.220  59.751  1.00  0.00     0.028 C 
BRANCH   6   7
ATOM      7  C   UNL     1       8.509  18.475  59.931  1.00  0.00    -0.028 C 
ATOM      8  C   UNL     1       7.455  18.513  59.085  1.00  0.00    -0.070 CG0
ATOM      9  C   UNL     1       6.236  17.698  59.437  1.00  0.00     0.039 C 
ATOM     10  G   UNL     1       7.457  19.303  57.790  1.00  0.00     0.000 G0
ENDBRANCH   6   7
ENDBRANCH   5   6
ENDBRANCH   3   5
ENDBRANCH   1   3
BRANCH   1  11
ATOM     11  C   UNL     1      10.243  17.842  56.080  1.00  0.00     0.087 C 
BRANCH  11  12
ATOM     12  C   UNL     1       9.040  18.753  55.720  1.00  0.00     0.066 C 
BRANCH  12  13
ATOM     13  C   UNL     1       7.836  18.431  56.590  1.00  0.00     0.140 C 
ATOM     14  O   UNL     1       7.127  17.473  56.316  1.00  0.00    -0.299 OA
BRANCH  13  15
ATOM     15  C   UNL     1       7.459  19.303  57.759  1.00  0.00     0.106 CG0
ATOM     16  G   UNL     1       7.455  18.506  59.050  1.00  0.00     0.000 G0
ENDBRANCH  13  15
ENDBRANCH  12  13
BRANCH  12  17
ATOM     17  C   UNL     1       8.649  18.700  54.210  1.00  0.00    -0.006 C 
ATOM     18  C   UNL     1       9.692  18.000  53.320  1.00  0.00     0.008 C 
ATOM     19  C   UNL     1       8.338  20.099  53.654  1.00  0.00     0.008 C 
ENDBRANCH  12  17
ENDBRANCH  11  12
ENDBRANCH   1  11
TORSDOF 1
ENDMDL
MODEL 6
REMARK VINA RESULT:    -3.688      2.433      3.576
REMARK INTER + INTRA:          -5.628
REMARK INTER:                  -5.576
REMARK INTRA:                  -0.052
REMARK UNBOUND:                -0.000
REMARK SMILES CC1=CCC[C@H](C)C(=O)C[C@@H](C(C)C)C(=O)C1
REMARK SMILES IDX 8 1 9 2 6 3 7 4 5 5 4 6 3 7 2 8 1 9 10 11 11 12 15 13 16 14
REMARK SMILES IDX 17 15 12 17 13 18 14 19
REMARK H PARENT
REMARK Flexibility Score: 70.00
ROOT
ATOM      1  C   UNL     1      10.670  18.445  57.977  1.00  0.00     0.136 C 
ATOM      2  O   UNL     1      11.443  18.263  58.908  1.00  0.00    -0.299 OA
ENDROOT
BRANCH   1   3
ATOM      3  C   UNL     1       9.408  19.255  58.191  1.00  0.00     0.053 C 
ATOM      4  C   UNL     1       8.549  18.582  59.266  1.00  0.00     0.016 C 
BRANCH   3   5
ATOM      5  C   UNL     1       9.725  20.714  58.597  1.00  0.00     0.015 C 
BRANCH   5   6
ATOM      6  C   UNL     1       9.607  21.707  57.431  1.00  0.00     0.028 C 
BRANCH   6   7
ATOM      7  C   UNL     1       8.491  21.321  56.490  1.00  0.00    -0.028 C 
ATOM      8  C   UNL     1       8.644  20.905  55.212  1.00  0.00    -0.070 CG0
ATOM      9  C   UNL     1       7.403  20.564  54.426  1.00  0.00     0.039 C 
ATOM     10  G   UNL     1       9.998  20.732  54.552  1.00  0.00     0.000 G0
ENDBRANCH   6   7
ENDBRANCH   5   6
ENDBRANCH   3   5
ENDBRANCH   1   3
BRANCH   1  11
ATOM     11  C   UNL     1      10.986  17.835  56.636  1.00  0.00     0.087 C 
BRANCH  11  12
ATOM     12  C   UNL     1      11.544  18.887  55.641  1.00  0.00     0.066 C 
BRANCH  12  13
ATOM     13  C   UNL     1      10.481  19.300  54.636  1.00  0.00     0.140 C 
ATOM     14  O   UNL     1      10.030  18.475  53.854  1.00  0.00    -0.299 OA
BRANCH  13  15
ATOM     15  C   UNL     1      10.006  20.726  54.541  1.00  0.00     0.106 CG0
ATOM     16  G   UNL     1       8.647  20.889  55.195  1.00  0.00     0.000 G0
ENDBRANCH  13  15
ENDBRANCH  12  13
BRANCH  12  17
ATOM     17  C   UNL     1      12.838  18.421  54.903  1.00  0.00    -0.006 C 
ATOM     18  C   UNL     1      12.848  16.922  54.549  1.00  0.00     0.008 C 
ATOM     19  C   UNL     1      14.105  18.783  55.694  1.00  0.00     0.008 C 
ENDBRANCH  12  17
ENDBRANCH  11  12
ENDBRANCH   1  11
TORSDOF 1
ENDMDL
MODEL 7
REMARK VINA RESULT:    -3.482      6.037      8.301
REMARK INTER + INTRA:          -5.314
REMARK INTER:                  -5.070
REMARK INTRA:                  -0.245
REMARK UNBOUND:                -0.000
REMARK SMILES CC1=CCC[C@H](C)C(=O)C[C@@H](C(C)C)C(=O)C1
REMARK SMILES IDX 8 1 9 2 6 3 7 4 5 5 4 6 3 7 2 8 1 9 10 11 11 12 15 13 16 14
REMARK SMILES IDX 17 15 12 17 13 18 14 19
REMARK H PARENT
REMARK Flexibility Score: 70.00
ROOT
ATOM      1  C   UNL     1       6.130  24.556  54.060  1.00  0.00     0.136 C 
ATOM      2  O   UNL     1       5.016  24.945  54.384  1.00  0.00    -0.299 OA
ENDROOT
BRANCH   1   3
ATOM      3  C   UNL     1       7.294  24.719  55.015  1.00  0.00     0.053 C 
ATOM      4  C   UNL     1       7.208  26.091  55.691  1.00  0.00     0.016 C 
BRANCH   3   5
ATOM      5  C   UNL     1       7.322  23.598  56.080  1.00  0.00     0.015 C 
BRANCH   5   6
ATOM      6  C   UNL     1       8.430  22.561  55.842  1.00  0.00     0.028 C 
BRANCH   6   7
ATOM      7  C   UNL     1       9.413  23.036  54.797  1.00  0.00    -0.028 C 
ATOM      8  C   UNL     1       9.579  22.498  53.567  1.00  0.00    -0.070 CG0
ATOM      9  C   UNL     1      10.616  23.112  52.661  1.00  0.00     0.039 C 
ATOM     10  G   UNL     1       8.751  21.338  53.050  1.00  0.00     0.000 G0
ENDBRANCH   6   7
ENDBRANCH   5   6
ENDBRANCH   3   5
ENDBRANCH   1   3
BRANCH   1  11
ATOM     11  C   UNL     1       6.320  23.938  52.698  1.00  0.00     0.087 C 
BRANCH  11  12
ATOM     12  C   UNL     1       6.342  22.389  52.766  1.00  0.00     0.066 C 
BRANCH  12  13
ATOM     13  C   UNL     1       7.622  21.838  52.159  1.00  0.00     0.140 C 
ATOM     14  O   UNL     1       7.726  21.742  50.944  1.00  0.00    -0.299 OA
BRANCH  13  15
ATOM     15  C   UNL     1       8.753  21.349  53.025  1.00  0.00     0.106 CG0
ATOM     16  G   UNL     1       9.574  22.510  53.550  1.00  0.00     0.000 G0
ENDBRANCH  13  15
ENDBRANCH  12  13
BRANCH  12  17
ATOM     17  C   UNL     1       5.096  21.718  52.107  1.00  0.00    -0.006 C 
ATOM     18  C   UNL     1       4.402  22.596  51.050  1.00  0.00     0.008 C 
ATOM     19  C   UNL     1       4.075  21.258  53.161  1.00  0.00     0.008 C 
ENDBRANCH  12  17
ENDBRANCH  11  12
ENDBRANCH   1  11
TORSDOF 1
ENDMDL
MODEL 8
REMARK VINA RESULT:    -3.477      6.793      8.882
REMARK INTER + INTRA:          -5.307
REMARK INTER:                  -5.394
REMARK INTRA:                   0.088
REMARK UNBOUND:                -0.000
REMARK SMILES CC1=CCC[C@H](C)C(=O)C[C@@H](C(C)C)C(=O)C1
REMARK SMILES IDX 8 1 9 2 6 3 7 4 5 5 4 6 3 7 2 8 1 9 10 11 11 12 15 13 16 14
REMARK SMILES IDX 17 15 12 17 13 18 14 19
REMARK H PARENT
REMARK Flexibility Score: 70.00
ROOT
ATOM      1  C   UNL     1       8.453  23.425  54.289  1.00  0.00     0.136 C 
ATOM      2  O   UNL     1       9.104  23.222  53.273  1.00  0.00    -0.299 OA
ENDROOT
BRANCH   1   3
ATOM      3  C   UNL     1       8.304  22.326  55.322  1.00  0.00     0.053 C 
ATOM      4  C   UNL     1       8.278  22.946  56.722  1.00  0.00     0.016 C 
BRANCH   3   5
ATOM      5  C   UNL     1       7.027  21.487  55.084  1.00  0.00     0.015 C 
BRANCH   5   6
ATOM      6  C   UNL     1       6.833  21.077  53.616  1.00  0.00     0.028 C 
BRANCH   6   7
ATOM      7  C   UNL     1       5.410  21.303  53.165  1.00  0.00    -0.028 C 
ATOM      8  C   UNL     1       4.953  22.395  52.512  1.00  0.00    -0.070 CG0
ATOM      9  C   UNL     1       3.491  22.440  52.144  1.00  0.00     0.039 C 
ATOM     10  G   UNL     1       5.844  23.552  52.103  1.00  0.00     0.000 G0
ENDBRANCH   6   7
ENDBRANCH   5   6
ENDBRANCH   3   5
ENDBRANCH   1   3
BRANCH   1  11
ATOM     11  C   UNL     1       7.794  24.767  54.479  1.00  0.00     0.087 C 
BRANCH  11  12
ATOM     12  C   UNL     1       6.247  24.656  54.461  1.00  0.00     0.066 C 
BRANCH  12  13
ATOM     13  C   UNL     1       5.714  24.729  53.040  1.00  0.00     0.140 C 
ATOM     14  O   UNL     1       5.125  25.732  52.661  1.00  0.00    -0.299 OA
BRANCH  13  15
ATOM     15  C   UNL     1       5.844  23.564  52.093  1.00  0.00     0.106 CG0
ATOM     16  G   UNL     1       4.960  22.411  52.528  1.00  0.00     0.000 G0
ENDBRANCH  13  15
ENDBRANCH  12  13
BRANCH  12  17
ATOM     17  C   UNL     1       5.536  25.715  55.362  1.00  0.00    -0.006 C 
ATOM     18  C   UNL     1       6.444  26.316  56.451  1.00  0.00     0.008 C 
ATOM     19  C   UNL     1       4.255  25.151  55.997  1.00  0.00     0.008 C 
ENDBRANCH  12  17
ENDBRANCH  11  12
ENDBRANCH   1  11
TORSDOF 1
ENDMDL
MODEL 9
REMARK VINA RESULT:    -3.346      6.543      8.122
REMARK INTER + INTRA:          -5.106
REMARK INTER:                  -4.942
REMARK INTRA:                  -0.164
REMARK UNBOUND:                -0.000
REMARK SMILES CC1=CCC[C@H](C)C(=O)C[C@@H](C(C)C)C(=O)C1
REMARK SMILES IDX 8 1 9 2 6 3 7 4 5 5 4 6 3 7 2 8 1 9 10 11 11 12 15 13 16 14
REMARK SMILES IDX 17 15 12 17 13 18 14 19
REMARK H PARENT
REMARK Flexibility Score: 70.00
ROOT
ATOM      1  C   UNL     1       6.267  24.249  55.268  1.00  0.00     0.136 C 
ATOM      2  O   UNL     1       7.087  25.006  55.768  1.00  0.00    -0.299 OA
ENDROOT
BRANCH   1   3
ATOM      3  C   UNL     1       4.955  24.797  54.746  1.00  0.00     0.053 C 
ATOM      4  C   UNL     1       4.250  25.575  55.861  1.00  0.00     0.016 C 
BRANCH   3   5
ATOM      5  C   UNL     1       5.164  25.703  53.510  1.00  0.00     0.015 C 
BRANCH   5   6
ATOM      6  C   UNL     1       5.354  24.916  52.205  1.00  0.00     0.028 C 
BRANCH   6   7
ATOM      7  C   UNL     1       4.496  23.673  52.182  1.00  0.00    -0.028 C 
ATOM      8  C   UNL     1       4.939  22.412  51.980  1.00  0.00    -0.070 CG0
ATOM      9  C   UNL     1       3.925  21.296  51.991  1.00  0.00     0.039 C 
ATOM     10  G   UNL     1       6.403  22.068  51.781  1.00  0.00     0.000 G0
ENDBRANCH   6   7
ENDBRANCH   5   6
ENDBRANCH   3   5
ENDBRANCH   1   3
BRANCH   1  11
ATOM     11  C   UNL     1       6.577  22.776  55.203  1.00  0.00     0.087 C 
BRANCH  11  12
ATOM     12  C   UNL     1       7.608  22.452  54.091  1.00  0.00     0.066 C 
BRANCH  12  13
ATOM     13  C   UNL     1       7.009  21.520  53.051  1.00  0.00     0.140 C 
ATOM     14  O   UNL     1       7.058  20.309  53.219  1.00  0.00    -0.299 OA
BRANCH  13  15
ATOM     15  C   UNL     1       6.402  22.052  51.779  1.00  0.00     0.106 CG0
ATOM     16  G   UNL     1       4.943  22.414  51.986  1.00  0.00     0.000 G0
ENDBRANCH  13  15
ENDBRANCH  12  13
BRANCH  12  17
ATOM     17  C   UNL     1       8.950  21.867  54.636  1.00  0.00    -0.006 C 
ATOM     18  C   UNL     1       9.459  22.562  55.912  1.00  0.00     0.008 C 
ATOM     19  C   UNL     1      10.048  21.870  53.561  1.00  0.00     0.008 C 
ENDBRANCH  12  17
ENDBRANCH  11  12
ENDBRANCH   1  11
TORSDOF 1
ENDMDL
