MODEL 1
REMARK VINA RESULT:    -4.822      0.000      0.000
REMARK INTER + INTRA:          -4.822
REMARK INTER:                  -4.822
REMARK INTRA:                   0.000
REMARK UNBOUND:                 0.000
REMARK SMILES CC1=CC(=O)[C@H]2C[C@@H]1C2(C)C
REMARK SMILES IDX 1 1 2 2 3 3 4 4 5 5 6 6 7 7 8 8 9 9 10 10 11 11
REMARK H PARENT
REMARK Flexibility Score: inf
ROOT
ATOM      1  C   UNL     1      10.231 116.510  18.919  1.00  0.00     0.040 C 
ATOM      2  C   UNL     1       9.115 117.398  19.369  1.00  0.00    -0.066 C 
ATOM      3  C   UNL     1       7.996 117.571  18.611  1.00  0.00     0.047 C 
ATOM      4  C   UNL     1       6.964 118.510  19.157  1.00  0.00     0.159 C 
ATOM      5  O   UNL     1       5.906 118.783  18.532  1.00  0.00    -0.295 OA
ATOM      6  C   UNL     1       7.287 119.116  20.524  1.00  0.00     0.067 C 
ATOM      7  C   UNL     1       7.780 117.916  21.361  1.00  0.00     0.021 C 
ATOM      8  C   UNL     1       9.166 118.148  20.717  1.00  0.00     0.022 C 
ATOM      9  C   UNL     1       8.754 119.633  20.502  1.00  0.00    -0.019 C 
ATOM     10  C   UNL     1       9.263 120.359  19.223  1.00  0.00     0.012 C 
ATOM     11  C   UNL     1       9.084 120.521  21.727  1.00  0.00     0.012 C 
ENDROOT
TORSDOF 0
ENDMDL
MODEL 2
REMARK VINA RESULT:    -4.706      1.245      2.935
REMARK INTER + INTRA:          -4.706
REMARK INTER:                  -4.706
REMARK INTRA:                   0.000
REMARK UNBOUND:                 0.000
REMARK SMILES CC1=CC(=O)[C@H]2C[C@@H]1C2(C)C
REMARK SMILES IDX 1 1 2 2 3 3 4 4 5 5 6 6 7 7 8 8 9 9 10 10 11 11
REMARK H PARENT
REMARK Flexibility Score: inf
ROOT
ATOM      1  C   UNL     1       8.276 118.295  22.551  1.00  0.00     0.040 C 
ATOM      2  C   UNL     1       8.441 118.334  21.064  1.00  0.00    -0.066 C 
ATOM      3  C   UNL     1       7.448 117.920  20.230  1.00  0.00     0.047 C 
ATOM      4  C   UNL     1       7.747 117.980  18.762  1.00  0.00     0.159 C 
ATOM      5  O   UNL     1       6.926 117.588  17.892  1.00  0.00    -0.295 OA
ATOM      6  C   UNL     1       9.120 118.547  18.397  1.00  0.00     0.067 C 
ATOM      7  C   UNL     1       9.255 119.806  19.279  1.00  0.00     0.021 C 
ATOM      8  C   UNL     1       9.733 118.860  20.404  1.00  0.00     0.022 C 
ATOM      9  C   UNL     1      10.191 117.868  19.296  1.00  0.00    -0.019 C 
ATOM     10  C   UNL     1      10.063 116.343  19.577  1.00  0.00     0.012 C 
ATOM     11  C   UNL     1      11.635 118.151  18.810  1.00  0.00     0.012 C 
ENDROOT
TORSDOF 0
ENDMDL
MODEL 3
REMARK VINA RESULT:    -4.675      1.182      3.027
REMARK INTER + INTRA:          -4.675
REMARK INTER:                  -4.675
REMARK INTRA:                   0.000
REMARK UNBOUND:                 0.000
REMARK SMILES CC1=CC(=O)[C@H]2C[C@@H]1C2(C)C
REMARK SMILES IDX 1 1 2 2 3 3 4 4 5 5 6 6 7 7 8 8 9 9 10 10 11 11
REMARK H PARENT
REMARK Flexibility Score: inf
ROOT
ATOM      1  C   UNL     1       9.010 121.286  20.541  1.00  0.00     0.040 C 
ATOM      2  C   UNL     1       8.886 119.896  20.002  1.00  0.00    -0.066 C 
ATOM      3  C   UNL     1       7.820 119.523  19.242  1.00  0.00     0.047 C 
ATOM      4  C   UNL     1       7.796 118.095  18.788  1.00  0.00     0.159 C 
ATOM      5  O   UNL     1       6.845 117.619  18.115  1.00  0.00    -0.295 OA
ATOM      6  C   UNL     1       9.007 117.257  19.202  1.00  0.00     0.067 C 
ATOM      7  C   UNL     1      10.217 118.162  18.890  1.00  0.00     0.021 C 
ATOM      8  C   UNL     1       9.966 118.825  20.264  1.00  0.00     0.022 C 
ATOM      9  C   UNL     1       9.283 117.500  20.713  1.00  0.00    -0.019 C 
ATOM     10  C   UNL     1       8.070 117.591  21.682  1.00  0.00     0.012 C 
ATOM     11  C   UNL     1      10.296 116.484  21.298  1.00  0.00     0.012 C 
ENDROOT
TORSDOF 0
ENDMDL
MODEL 4
REMARK VINA RESULT:    -4.636      1.502      2.272
REMARK INTER + INTRA:          -4.636
REMARK INTER:                  -4.636
REMARK INTRA:                   0.000
REMARK UNBOUND:                 0.000
REMARK SMILES CC1=CC(=O)[C@H]2C[C@@H]1C2(C)C
REMARK SMILES IDX 1 1 2 2 3 3 4 4 5 5 6 6 7 7 8 8 9 9 10 10 11 11
REMARK H PARENT
REMARK Flexibility Score: inf
ROOT
ATOM      1  C   UNL     1      10.765 116.615  18.029  1.00  0.00     0.040 C 
ATOM      2  C   UNL     1       9.815 117.611  18.615  1.00  0.00    -0.066 C 
ATOM      3  C   UNL     1       9.887 118.933  18.296  1.00  0.00     0.047 C 
ATOM      4  C   UNL     1       8.899 119.833  18.973  1.00  0.00     0.159 C 
ATOM      5  O   UNL     1       8.891 121.079  18.793  1.00  0.00    -0.295 OA
ATOM      6  C   UNL     1       7.904 119.134  19.901  1.00  0.00     0.067 C 
ATOM      7  C   UNL     1       7.427 117.911  19.088  1.00  0.00     0.021 C 
ATOM      8  C   UNL     1       8.697 117.189  19.593  1.00  0.00     0.022 C 
ATOM      9  C   UNL     1       8.688 118.151  20.816  1.00  0.00    -0.019 C 
ATOM     10  C   UNL     1      10.055 118.612  21.398  1.00  0.00     0.012 C 
ATOM     11  C   UNL     1       7.822 117.613  21.983  1.00  0.00     0.012 C 
ENDROOT
TORSDOF 0
ENDMDL
MODEL 5
REMARK VINA RESULT:    -4.542      1.937      2.997
REMARK INTER + INTRA:          -4.542
REMARK INTER:                  -4.542
REMARK INTRA:                   0.000
REMARK UNBOUND:                 0.000
REMARK SMILES CC1=CC(=O)[C@H]2C[C@@H]1C2(C)C
REMARK SMILES IDX 1 1 2 2 3 3 4 4 5 5 6 6 7 7 8 8 9 9 10 10 11 11
REMARK H PARENT
REMARK Flexibility Score: inf
ROOT
ATOM      1  C   UNL     1       6.734 117.585  17.932  1.00  0.00     0.040 C 
ATOM      2  C   UNL     1       7.823 118.072  18.835  1.00  0.00    -0.066 C 
ATOM      3  C   UNL     1       9.025 117.438  18.903  1.00  0.00     0.047 C 
ATOM      4  C   UNL     1      10.021 118.005  19.868  1.00  0.00     0.159 C 
ATOM      5  O   UNL     1      11.152 117.484  20.052  1.00  0.00    -0.295 OA
ATOM      6  C   UNL     1       9.566 119.259  20.617  1.00  0.00     0.067 C 
ATOM      7  C   UNL     1       8.939 120.146  19.520  1.00  0.00     0.021 C 
ATOM      8  C   UNL     1       7.644 119.325  19.718  1.00  0.00     0.022 C 
ATOM      9  C   UNL     1       8.131 119.015  21.164  1.00  0.00    -0.019 C 
ATOM     10  C   UNL     1       7.796 117.621  21.768  1.00  0.00     0.012 C 
ATOM     11  C   UNL     1       7.694 120.101  22.179  1.00  0.00     0.012 C 
ENDROOT
TORSDOF 0
ENDMDL
MODEL 6
REMARK VINA RESULT:    -4.487      1.722      3.422
REMARK INTER + INTRA:          -4.487
REMARK INTER:                  -4.487
REMARK INTRA:                   0.000
REMARK UNBOUND:                 0.000
REMARK SMILES CC1=CC(=O)[C@H]2C[C@@H]1C2(C)C
REMARK SMILES IDX 1 1 2 2 3 3 4 4 5 5 6 6 7 7 8 8 9 9 10 10 11 11
REMARK H PARENT
REMARK Flexibility Score: inf
ROOT
ATOM      1  C   UNL     1       8.994 121.720  20.826  1.00  0.00     0.040 C 
ATOM      2  C   UNL     1       8.626 120.291  20.584  1.00  0.00    -0.066 C 
ATOM      3  C   UNL     1       8.329 119.450  21.612  1.00  0.00     0.047 C 
ATOM      4  C   UNL     1       8.007 118.034  21.241  1.00  0.00     0.159 C 
ATOM      5  O   UNL     1       7.755 117.154  22.103  1.00  0.00    -0.295 OA
ATOM      6  C   UNL     1       8.009 117.735  19.741  1.00  0.00     0.067 C 
ATOM      7  C   UNL     1       7.223 118.910  19.121  1.00  0.00     0.021 C 
ATOM      8  C   UNL     1       8.549 119.703  19.158  1.00  0.00     0.022 C 
ATOM      9  C   UNL     1       9.299 118.340  19.117  1.00  0.00    -0.019 C 
ATOM     10  C   UNL     1      10.633 118.211  19.907  1.00  0.00     0.012 C 
ATOM     11  C   UNL     1       9.543 117.844  17.670  1.00  0.00     0.012 C 
ENDROOT
TORSDOF 0
ENDMDL
MODEL 7
REMARK VINA RESULT:    -4.482      2.464      3.274
REMARK INTER + INTRA:          -4.482
REMARK INTER:                  -4.482
REMARK INTRA:                   0.000
REMARK UNBOUND:                 0.000
REMARK SMILES CC1=CC(=O)[C@H]2C[C@@H]1C2(C)C
REMARK SMILES IDX 1 1 2 2 3 3 4 4 5 5 6 6 7 7 8 8 9 9 10 10 11 11
REMARK H PARENT
REMARK Flexibility Score: inf
ROOT
ATOM      1  C   UNL     1      11.216 114.306  19.435  1.00  0.00     0.040 C 
ATOM      2  C   UNL     1      10.827 115.699  19.050  1.00  0.00    -0.066 C 
ATOM      3  C   UNL     1      11.043 116.174  17.792  1.00  0.00     0.047 C 
ATOM      4  C   UNL     1      10.637 117.594  17.541  1.00  0.00     0.159 C 
ATOM      5  O   UNL     1      10.821 118.160  16.432  1.00  0.00    -0.295 OA
ATOM      6  C   UNL     1       9.986 118.308  18.727  1.00  0.00     0.067 C 
ATOM      7  C   UNL     1       8.967 117.284  19.271  1.00  0.00     0.021 C 
ATOM      8  C   UNL     1      10.147 116.657  20.051  1.00  0.00     0.022 C 
ATOM      9  C   UNL     1      10.846 118.047  19.995  1.00  0.00    -0.019 C 
ATOM     10  C   UNL     1      12.395 118.084  19.859  1.00  0.00     0.012 C 
ATOM     11  C   UNL     1      10.442 118.959  21.181  1.00  0.00     0.012 C 
ENDROOT
TORSDOF 0
ENDMDL
MODEL 8
REMARK VINA RESULT:    -4.424      1.766      2.943
REMARK INTER + INTRA:          -4.424
REMARK INTER:                  -4.424
REMARK INTRA:                   0.000
REMARK UNBOUND:                 0.000
REMARK SMILES CC1=CC(=O)[C@H]2C[C@@H]1C2(C)C
REMARK SMILES IDX 1 1 2 2 3 3 4 4 5 5 6 6 7 7 8 8 9 9 10 10 11 11
REMARK H PARENT
REMARK Flexibility Score: inf
ROOT
ATOM      1  C   UNL     1       6.723 117.617  18.039  1.00  0.00     0.040 C 
ATOM      2  C   UNL     1       7.798 118.142  18.937  1.00  0.00    -0.066 C 
ATOM      3  C   UNL     1       7.901 119.470  19.220  1.00  0.00     0.047 C 
ATOM      4  C   UNL     1       9.039 119.873  20.107  1.00  0.00     0.159 C 
ATOM      5  O   UNL     1       9.264 121.074  20.409  1.00  0.00    -0.295 OA
ATOM      6  C   UNL     1       9.910 118.724  20.617  1.00  0.00     0.067 C 
ATOM      7  C   UNL     1       8.895 117.657  21.078  1.00  0.00     0.021 C 
ATOM      8  C   UNL     1       8.832 117.206  19.600  1.00  0.00     0.022 C 
ATOM      9  C   UNL     1      10.260 117.798  19.418  1.00  0.00    -0.019 C 
ATOM     10  C   UNL     1      10.614 118.456  18.054  1.00  0.00     0.012 C 
ATOM     11  C   UNL     1      11.371 116.776  19.767  1.00  0.00     0.012 C 
ENDROOT
TORSDOF 0
ENDMDL
MODEL 9
REMARK VINA RESULT:    -4.405      1.942      3.241
REMARK INTER + INTRA:          -4.405
REMARK INTER:                  -4.405
REMARK INTRA:                   0.000
REMARK UNBOUND:                 0.000
REMARK SMILES CC1=CC(=O)[C@H]2C[C@@H]1C2(C)C
REMARK SMILES IDX 1 1 2 2 3 3 4 4 5 5 6 6 7 7 8 8 9 9 10 10 11 11
REMARK H PARENT
REMARK Flexibility Score: inf
ROOT
ATOM      1  C   UNL     1      11.121 116.026  20.552  1.00  0.00     0.040 C 
ATOM      2  C   UNL     1      10.374 117.287  20.252  1.00  0.00    -0.066 C 
ATOM      3  C   UNL     1      10.528 118.402  21.018  1.00  0.00     0.047 C 
ATOM      4  C   UNL     1       9.701 119.591  20.633  1.00  0.00     0.159 C 
ATOM      5  O   UNL     1       9.724 120.666  21.286  1.00  0.00    -0.295 OA
ATOM      6  C   UNL     1       8.826 119.405  19.392  1.00  0.00     0.067 C 
ATOM      7  C   UNL     1       9.763 118.733  18.367  1.00  0.00     0.021 C 
ATOM      8  C   UNL     1       9.408 117.393  19.052  1.00  0.00     0.022 C 
ATOM      9  C   UNL     1       8.075 118.049  19.515  1.00  0.00    -0.019 C 
ATOM     10  C   UNL     1       7.501 117.644  20.903  1.00  0.00     0.012 C 
ATOM     11  C   UNL     1       6.948 117.901  18.462  1.00  0.00     0.012 C 
ENDROOT
TORSDOF 0
ENDMDL
