MODEL 1
REMARK VINA RESULT:    -4.899      0.000      0.000
REMARK INTER + INTRA:          -4.899
REMARK INTER:                  -4.899
REMARK INTRA:                   0.000
REMARK UNBOUND:                 0.000
REMARK SMILES CC(C)=C1CC[C@H](C)CC1=O
REMARK SMILES IDX 8 1 7 2 6 3 5 4 4 5 2 6 1 7 3 8 10 9 11 10 9 11
REMARK H PARENT
REMARK Flexibility Score: inf
ROOT
ATOM      1  C   UNL     1     -26.248  -0.420  -4.872  1.00  0.00     0.008 C 
ATOM      2  C   UNL     1     -25.670  -0.602  -3.464  1.00  0.00    -0.006 C 
ATOM      3  C   UNL     1     -24.238  -0.050  -3.391  1.00  0.00     0.008 C 
ATOM      4  C   UNL     1     -23.606  -0.317  -2.018  1.00  0.00     0.039 C 
ATOM      5  C   UNL     1     -24.480   0.171  -0.870  1.00  0.00    -0.006 C 
ATOM      6  C   UNL     1     -23.931   0.627   0.294  1.00  0.00    -0.070 C 
ATOM      7  C   UNL     1     -24.785   1.166   1.419  1.00  0.00     0.039 C 
ATOM      8  C   UNL     1     -22.434   0.651   0.499  1.00  0.00     0.039 C 
ATOM      9  C   UNL     1     -25.953   0.008  -1.052  1.00  0.00     0.159 C 
ATOM     10  O   UNL     1     -26.713  -0.211  -0.071  1.00  0.00    -0.295 OA
ATOM     11  C   UNL     1     -26.556   0.099  -2.423  1.00  0.00     0.084 C 
ENDROOT
TORSDOF 0
ENDMDL
MODEL 2
REMARK VINA RESULT:    -4.773      1.549      4.256
REMARK INTER + INTRA:          -4.773
REMARK INTER:                  -4.773
REMARK INTRA:                   0.000
REMARK UNBOUND:                 0.000
REMARK SMILES CC(C)=C1CC[C@H](C)CC1=O
REMARK SMILES IDX 8 1 7 2 6 3 5 4 4 5 2 6 1 7 3 8 10 9 11 10 9 11
REMARK H PARENT
REMARK Flexibility Score: inf
ROOT
ATOM      1  C   UNL     1     -24.623   1.117   1.222  1.00  0.00     0.008 C 
ATOM      2  C   UNL     1     -25.102   1.339  -0.218  1.00  0.00    -0.006 C 
ATOM      3  C   UNL     1     -23.909   1.607  -1.149  1.00  0.00     0.008 C 
ATOM      4  C   UNL     1     -24.376   1.934  -2.574  1.00  0.00     0.039 C 
ATOM      5  C   UNL     1     -25.328   0.883  -3.131  1.00  0.00    -0.006 C 
ATOM      6  C   UNL     1     -25.364   0.595  -4.465  1.00  0.00    -0.070 C 
ATOM      7  C   UNL     1     -26.264  -0.484  -5.022  1.00  0.00     0.039 C 
ATOM      8  C   UNL     1     -24.472   1.317  -5.448  1.00  0.00     0.039 C 
ATOM      9  C   UNL     1     -26.288   0.286  -2.155  1.00  0.00     0.159 C 
ATOM     10  O   UNL     1     -27.438  -0.085  -2.512  1.00  0.00    -0.295 OA
ATOM     11  C   UNL     1     -25.893   0.121  -0.717  1.00  0.00     0.084 C 
ENDROOT
TORSDOF 0
ENDMDL
MODEL 3
REMARK VINA RESULT:    -4.758      2.532      5.603
REMARK INTER + INTRA:          -4.758
REMARK INTER:                  -4.758
REMARK INTRA:                   0.000
REMARK UNBOUND:                 0.000
REMARK SMILES CC(C)=C1CC[C@H](C)CC1=O
REMARK SMILES IDX 8 1 7 2 6 3 5 4 4 5 2 6 1 7 3 8 10 9 11 10 9 11
REMARK H PARENT
REMARK Flexibility Score: inf
ROOT
ATOM      1  C   UNL     1     -25.402   0.690  -1.055  1.00  0.00     0.008 C 
ATOM      2  C   UNL     1     -25.394   0.020  -2.433  1.00  0.00    -0.006 C 
ATOM      3  C   UNL     1     -26.581  -0.948  -2.571  1.00  0.00     0.008 C 
ATOM      4  C   UNL     1     -26.532  -1.705  -3.905  1.00  0.00     0.039 C 
ATOM      5  C   UNL     1     -26.398  -0.771  -5.100  1.00  0.00    -0.006 C 
ATOM      6  C   UNL     1     -26.948  -1.084  -6.310  1.00  0.00    -0.070 C 
ATOM      7  C   UNL     1     -26.870  -0.140  -7.488  1.00  0.00     0.039 C 
ATOM      8  C   UNL     1     -27.701  -2.378  -6.517  1.00  0.00     0.039 C 
ATOM      9  C   UNL     1     -25.535   0.432  -4.899  1.00  0.00     0.159 C 
ATOM     10  O   UNL     1     -24.867   0.924  -5.847  1.00  0.00    -0.295 OA
ATOM     11  C   UNL     1     -25.448   1.076  -3.546  1.00  0.00     0.084 C 
ENDROOT
TORSDOF 0
ENDMDL
MODEL 4
REMARK VINA RESULT:    -4.718      2.059      5.249
REMARK INTER + INTRA:          -4.718
REMARK INTER:                  -4.718
REMARK INTRA:                   0.000
REMARK UNBOUND:                 0.000
REMARK SMILES CC(C)=C1CC[C@H](C)CC1=O
REMARK SMILES IDX 8 1 7 2 6 3 5 4 4 5 2 6 1 7 3 8 10 9 11 10 9 11
REMARK H PARENT
REMARK Flexibility Score: inf
ROOT
ATOM      1  C   UNL     1     -25.217   0.312  -0.879  1.00  0.00     0.008 C 
ATOM      2  C   UNL     1     -25.912   0.419  -2.242  1.00  0.00    -0.006 C 
ATOM      3  C   UNL     1     -25.099  -0.312  -3.322  1.00  0.00     0.008 C 
ATOM      4  C   UNL     1     -25.726  -0.128  -4.711  1.00  0.00     0.039 C 
ATOM      5  C   UNL     1     -27.202  -0.502  -4.738  1.00  0.00    -0.006 C 
ATOM      6  C   UNL     1     -27.781  -1.024  -5.859  1.00  0.00    -0.070 C 
ATOM      7  C   UNL     1     -29.231  -1.451  -5.881  1.00  0.00     0.039 C 
ATOM      8  C   UNL     1     -26.984  -1.239  -7.125  1.00  0.00     0.039 C 
ATOM      9  C   UNL     1     -27.990  -0.152  -3.518  1.00  0.00     0.159 C 
ATOM     10  O   UNL     1     -29.207   0.162  -3.592  1.00  0.00    -0.295 OA
ATOM     11  C   UNL     1     -27.331  -0.165  -2.169  1.00  0.00     0.084 C 
ENDROOT
TORSDOF 0
ENDMDL
MODEL 5
REMARK VINA RESULT:    -4.699      2.063      2.678
REMARK INTER + INTRA:          -4.699
REMARK INTER:                  -4.699
REMARK INTRA:                   0.000
REMARK UNBOUND:                 0.000
REMARK SMILES CC(C)=C1CC[C@H](C)CC1=O
REMARK SMILES IDX 8 1 7 2 6 3 5 4 4 5 2 6 1 7 3 8 10 9 11 10 9 11
REMARK H PARENT
REMARK Flexibility Score: inf
ROOT
ATOM      1  C   UNL     1     -26.915  -1.583  -5.372  1.00  0.00     0.008 C 
ATOM      2  C   UNL     1     -26.755  -0.542  -4.258  1.00  0.00    -0.006 C 
ATOM      3  C   UNL     1     -26.622  -1.231  -2.890  1.00  0.00     0.008 C 
ATOM      4  C   UNL     1     -26.564  -0.204  -1.751  1.00  0.00     0.039 C 
ATOM      5  C   UNL     1     -25.494   0.856  -1.977  1.00  0.00    -0.006 C 
ATOM      6  C   UNL     1     -24.835   1.433  -0.930  1.00  0.00    -0.070 C 
ATOM      7  C   UNL     1     -23.733   2.445  -1.144  1.00  0.00     0.039 C 
ATOM      8  C   UNL     1     -25.149   1.054   0.499  1.00  0.00     0.039 C 
ATOM      9  C   UNL     1     -25.302   1.304  -3.390  1.00  0.00     0.159 C 
ATOM     10  O   UNL     1     -24.958   2.485  -3.661  1.00  0.00    -0.295 OA
ATOM     11  C   UNL     1     -25.526   0.342  -4.519  1.00  0.00     0.084 C 
ENDROOT
TORSDOF 0
ENDMDL
MODEL 6
REMARK VINA RESULT:    -4.697      2.165      5.244
REMARK INTER + INTRA:          -4.697
REMARK INTER:                  -4.697
REMARK INTRA:                   0.000
REMARK UNBOUND:                 0.000
REMARK SMILES CC(C)=C1CC[C@H](C)CC1=O
REMARK SMILES IDX 8 1 7 2 6 3 5 4 4 5 2 6 1 7 3 8 10 9 11 10 9 11
REMARK H PARENT
REMARK Flexibility Score: inf
ROOT
ATOM      1  C   UNL     1     -24.216   1.127  -1.460  1.00  0.00     0.008 C 
ATOM      2  C   UNL     1     -25.279   0.182  -2.035  1.00  0.00    -0.006 C 
ATOM      3  C   UNL     1     -26.263   0.956  -2.928  1.00  0.00     0.008 C 
ATOM      4  C   UNL     1     -27.393   0.047  -3.429  1.00  0.00     0.039 C 
ATOM      5  C   UNL     1     -26.871  -1.220  -4.094  1.00  0.00    -0.006 C 
ATOM      6  C   UNL     1     -27.552  -1.815  -5.117  1.00  0.00    -0.070 C 
ATOM      7  C   UNL     1     -27.017  -3.041  -5.822  1.00  0.00     0.039 C 
ATOM      8  C   UNL     1     -28.860  -1.252  -5.621  1.00  0.00     0.039 C 
ATOM      9  C   UNL     1     -25.649  -1.825  -3.485  1.00  0.00     0.159 C 
ATOM     10  O   UNL     1     -25.461  -3.071  -3.495  1.00  0.00    -0.295 OA
ATOM     11  C   UNL     1     -24.618  -0.947  -2.839  1.00  0.00     0.084 C 
ENDROOT
TORSDOF 0
ENDMDL
MODEL 7
REMARK VINA RESULT:    -4.640      2.676      3.863
REMARK INTER + INTRA:          -4.640
REMARK INTER:                  -4.640
REMARK INTRA:                   0.000
REMARK UNBOUND:                 0.000
REMARK SMILES CC(C)=C1CC[C@H](C)CC1=O
REMARK SMILES IDX 8 1 7 2 6 3 5 4 4 5 2 6 1 7 3 8 10 9 11 10 9 11
REMARK H PARENT
REMARK Flexibility Score: inf
ROOT
ATOM      1  C   UNL     1     -25.089   5.552  -0.983  1.00  0.00     0.008 C 
ATOM      2  C   UNL     1     -25.095   4.026  -0.836  1.00  0.00    -0.006 C 
ATOM      3  C   UNL     1     -24.430   3.363  -2.054  1.00  0.00     0.008 C 
ATOM      4  C   UNL     1     -24.519   1.834  -1.973  1.00  0.00     0.039 C 
ATOM      5  C   UNL     1     -23.995   1.288  -0.652  1.00  0.00    -0.006 C 
ATOM      6  C   UNL     1     -23.392   0.065  -0.579  1.00  0.00    -0.070 C 
ATOM      7  C   UNL     1     -22.818  -0.464   0.716  1.00  0.00     0.039 C 
ATOM      8  C   UNL     1     -23.234  -0.806  -1.804  1.00  0.00     0.039 C 
ATOM      9  C   UNL     1     -24.286   2.111   0.560  1.00  0.00     0.159 C 
ATOM     10  O   UNL     1     -24.471   1.577   1.686  1.00  0.00    -0.295 OA
ATOM     11  C   UNL     1     -24.369   3.606   0.450  1.00  0.00     0.084 C 
ENDROOT
TORSDOF 0
ENDMDL
MODEL 8
REMARK VINA RESULT:    -4.619      1.779      2.457
REMARK INTER + INTRA:          -4.619
REMARK INTER:                  -4.619
REMARK INTRA:                   0.000
REMARK UNBOUND:                 0.000
REMARK SMILES CC(C)=C1CC[C@H](C)CC1=O
REMARK SMILES IDX 8 1 7 2 6 3 5 4 4 5 2 6 1 7 3 8 10 9 11 10 9 11
REMARK H PARENT
REMARK Flexibility Score: inf
ROOT
ATOM      1  C   UNL     1     -27.509  -1.369  -4.895  1.00  0.00     0.008 C 
ATOM      2  C   UNL     1     -26.369  -0.626  -4.187  1.00  0.00    -0.006 C 
ATOM      3  C   UNL     1     -26.930   0.389  -3.178  1.00  0.00     0.008 C 
ATOM      4  C   UNL     1     -25.807   1.214  -2.535  1.00  0.00     0.039 C 
ATOM      5  C   UNL     1     -24.711   0.342  -1.938  1.00  0.00    -0.006 C 
ATOM      6  C   UNL     1     -24.010   0.739  -0.836  1.00  0.00    -0.070 C 
ATOM      7  C   UNL     1     -22.958  -0.142  -0.202  1.00  0.00     0.039 C 
ATOM      8  C   UNL     1     -24.282   2.068  -0.170  1.00  0.00     0.039 C 
ATOM      9  C   UNL     1     -24.375  -0.900  -2.697  1.00  0.00     0.159 C 
ATOM     10  O   UNL     1     -23.204  -1.364  -2.709  1.00  0.00    -0.295 OA
ATOM     11  C   UNL     1     -25.442  -1.619  -3.471  1.00  0.00     0.084 C 
ENDROOT
TORSDOF 0
ENDMDL
MODEL 9
REMARK VINA RESULT:    -4.598      3.409      3.968
REMARK INTER + INTRA:          -4.598
REMARK INTER:                  -4.598
REMARK INTRA:                   0.000
REMARK UNBOUND:                 0.000
REMARK SMILES CC(C)=C1CC[C@H](C)CC1=O
REMARK SMILES IDX 8 1 7 2 6 3 5 4 4 5 2 6 1 7 3 8 10 9 11 10 9 11
REMARK H PARENT
REMARK Flexibility Score: inf
ROOT
ATOM      1  C   UNL     1     -24.438  -0.759  -3.070  1.00  0.00     0.008 C 
ATOM      2  C   UNL     1     -24.363   0.765  -2.918  1.00  0.00    -0.006 C 
ATOM      3  C   UNL     1     -25.767   1.386  -2.999  1.00  0.00     0.008 C 
ATOM      4  C   UNL     1     -25.702   2.918  -2.952  1.00  0.00     0.039 C 
ATOM      5  C   UNL     1     -24.903   3.432  -1.761  1.00  0.00    -0.006 C 
ATOM      6  C   UNL     1     -25.213   4.616  -1.157  1.00  0.00    -0.070 C 
ATOM      7  C   UNL     1     -24.463   5.110   0.059  1.00  0.00     0.039 C 
ATOM      8  C   UNL     1     -26.353   5.475  -1.654  1.00  0.00     0.039 C 
ATOM      9  C   UNL     1     -23.703   2.628  -1.381  1.00  0.00     0.159 C 
ATOM     10  O   UNL     1     -22.678   3.173  -0.890  1.00  0.00    -0.295 OA
ATOM     11  C   UNL     1     -23.699   1.141  -1.586  1.00  0.00     0.084 C 
ENDROOT
TORSDOF 0
ENDMDL
