MODEL 1
REMARK VINA RESULT:    -4.546      0.000      0.000
REMARK INTER + INTRA:          -5.424
REMARK INTER:                  -5.476
REMARK INTRA:                   0.052
REMARK UNBOUND:                 0.052
REMARK SMILES O=c1c(O)c(-c2ccc(O)c(O)c2)oc2cc(O)cc(O)c12
REMARK SMILES IDX 5 1 3 2 2 3 1 4 22 5 20 6 19 7 17 8 16 9 15 10 14 11 6 12
REMARK SMILES IDX 7 13 8 14 9 15 13 16 11 17 10 18 12 20 4 22 21 24 18 26
REMARK H PARENT 10 19 12 21 4 23 21 25 18 27
REMARK Flexibility Score: inf
ROOT
ATOM      1  C   UNL     1       1.810  22.634   4.893  1.00  0.00     0.180 A 
ATOM      2  C   UNL     1       1.974  21.848   6.050  1.00  0.00     0.208 A 
ATOM      3  C   UNL     1       3.174  21.946   6.772  1.00  0.00     0.238 A 
ATOM      4  O   UNL     1       3.328  21.255   7.816  1.00  0.00    -0.285 OA
ATOM      5  C   UNL     1       4.193  22.809   6.318  1.00  0.00     0.111 A 
ATOM      6  C   UNL     1       5.431  22.962   6.985  1.00  0.00     0.134 A 
ATOM      7  C   UNL     1       6.399  23.835   6.463  1.00  0.00     0.093 A 
ATOM      8  C   UNL     1       6.150  24.554   5.289  1.00  0.00     0.123 A 
ATOM      9  C   UNL     1       4.930  24.406   4.628  1.00  0.00     0.094 A 
ATOM     10  C   UNL     1       3.952  23.543   5.132  1.00  0.00     0.146 A 
ATOM     11  O   UNL     1       2.798  23.425   4.487  1.00  0.00    -0.452 OA
ENDROOT
BRANCH   1  12
ATOM     12  C   UNL     1       0.567  22.601   4.089  1.00  0.00     0.025 A 
ATOM     13  C   UNL     1      -0.036  21.384   3.721  1.00  0.00     0.016 A 
ATOM     14  C   UNL     1      -1.222  21.379   2.983  1.00  0.00     0.051 A 
ATOM     15  C   UNL     1      -1.830  22.586   2.613  1.00  0.00     0.157 A 
ATOM     16  C   UNL     1      -0.058  23.808   3.734  1.00  0.00     0.062 A 
ATOM     17  C   UNL     1      -1.249  23.802   2.992  1.00  0.00     0.158 A 
BRANCH  15  18
ATOM     18  O   UNL     1      -3.012  22.583   1.875  1.00  0.00    -0.504 OA
ATOM     19  H   UNL     1      -3.458  21.719   1.592  1.00  0.00     0.293 HD
ENDBRANCH  15  18
BRANCH  17  20
ATOM     20  O   UNL     1      -1.858  25.001   2.629  1.00  0.00    -0.504 OA
ATOM     21  H   UNL     1      -2.342  25.577   3.307  1.00  0.00     0.293 HD
ENDBRANCH  17  20
ENDBRANCH   1  12
BRANCH   2  22
ATOM     22  O   UNL     1       0.969  20.965   6.451  1.00  0.00    -0.502 OA
ATOM     23  H   UNL     1       0.851  20.679   7.416  1.00  0.00     0.293 HD
ENDBRANCH   2  22
BRANCH   6  24
ATOM     24  O   UNL     1       5.708  22.258   8.157  1.00  0.00    -0.507 OA
ATOM     25  H   UNL     1       4.970  21.904   8.754  1.00  0.00     0.293 HD
ENDBRANCH   6  24
BRANCH   8  26
ATOM     26  O   UNL     1       7.111  25.419   4.770  1.00  0.00    -0.508 OA
ATOM     27  H   UNL     1       7.485  26.186   5.318  1.00  0.00     0.293 HD
ENDBRANCH   8  26
TORSDOF 6
ENDMDL
MODEL 2
REMARK VINA RESULT:    -4.285      2.362      6.260
REMARK INTER + INTRA:          -5.110
REMARK INTER:                  -4.976
REMARK INTRA:                  -0.134
REMARK UNBOUND:                 0.052
REMARK SMILES O=c1c(O)c(-c2ccc(O)c(O)c2)oc2cc(O)cc(O)c12
REMARK SMILES IDX 5 1 3 2 2 3 1 4 22 5 20 6 19 7 17 8 16 9 15 10 14 11 6 12
REMARK SMILES IDX 7 13 8 14 9 15 13 16 11 17 10 18 12 20 4 22 21 24 18 26
REMARK H PARENT 10 19 12 21 4 23 21 25 18 27
REMARK Flexibility Score: inf
ROOT
ATOM      1  C   UNL     1       2.145  22.918   4.265  1.00  0.00     0.180 A 
ATOM      2  C   UNL     1       1.111  22.574   3.374  1.00  0.00     0.208 A 
ATOM      3  C   UNL     1      -0.082  22.043   3.892  1.00  0.00     0.238 A 
ATOM      4  O   UNL     1      -1.019  21.740   3.105  1.00  0.00    -0.285 OA
ATOM      5  C   UNL     1      -0.212  21.848   5.282  1.00  0.00     0.111 A 
ATOM      6  C   UNL     1      -1.377  21.316   5.884  1.00  0.00     0.134 A 
ATOM      7  C   UNL     1      -1.426  21.144   7.275  1.00  0.00     0.093 A 
ATOM      8  C   UNL     1      -0.332  21.494   8.075  1.00  0.00     0.123 A 
ATOM      9  C   UNL     1       0.819  22.020   7.486  1.00  0.00     0.094 A 
ATOM     10  C   UNL     1       0.887  22.200   6.102  1.00  0.00     0.146 A 
ATOM     11  O   UNL     1       1.992  22.707   5.569  1.00  0.00    -0.452 OA
ENDROOT
BRANCH   1  12
ATOM     12  C   UNL     1       3.424  23.500   3.798  1.00  0.00     0.025 A 
ATOM     13  C   UNL     1       4.643  22.816   3.958  1.00  0.00     0.016 A 
ATOM     14  C   UNL     1       5.833  23.375   3.487  1.00  0.00     0.051 A 
ATOM     15  C   UNL     1       5.823  24.617   2.838  1.00  0.00     0.157 A 
ATOM     16  C   UNL     1       3.417  24.735   3.127  1.00  0.00     0.062 A 
ATOM     17  C   UNL     1       4.612  25.296   2.655  1.00  0.00     0.158 A 
BRANCH  15  18
ATOM     18  O   UNL     1       7.009  25.178   2.369  1.00  0.00    -0.504 OA
ATOM     19  H   UNL     1       7.910  24.901   2.741  1.00  0.00     0.293 HD
ENDBRANCH  15  18
BRANCH  17  20
ATOM     20  O   UNL     1       4.604  26.528   2.003  1.00  0.00    -0.504 OA
ATOM     21  H   UNL     1       4.180  26.642   1.090  1.00  0.00     0.293 HD
ENDBRANCH  17  20
ENDBRANCH   1  12
BRANCH   2  22
ATOM     22  O   UNL     1       1.284  22.730   1.997  1.00  0.00    -0.502 OA
ATOM     23  H   UNL     1       0.519  22.637   1.340  1.00  0.00     0.293 HD
ENDBRANCH   2  22
BRANCH   6  24
ATOM     24  O   UNL     1      -2.484  20.957   5.113  1.00  0.00    -0.507 OA
ATOM     25  H   UNL     1      -2.538  21.174   4.124  1.00  0.00     0.293 HD
ENDBRANCH   6  24
BRANCH   8  26
ATOM     26  O   UNL     1      -0.379  21.323   9.456  1.00  0.00    -0.508 OA
ATOM     27  H   UNL     1      -1.218  21.529   9.988  1.00  0.00     0.293 HD
ENDBRANCH   8  26
TORSDOF 6
ENDMDL
MODEL 3
REMARK VINA RESULT:    -4.073     23.194     24.770
REMARK INTER + INTRA:          -4.854
REMARK INTER:                  -5.379
REMARK INTRA:                   0.524
REMARK UNBOUND:                 0.052
REMARK SMILES O=c1c(O)c(-c2ccc(O)c(O)c2)oc2cc(O)cc(O)c12
REMARK SMILES IDX 5 1 3 2 2 3 1 4 22 5 20 6 19 7 17 8 16 9 15 10 14 11 6 12
REMARK SMILES IDX 7 13 8 14 9 15 13 16 11 17 10 18 12 20 4 22 21 24 18 26
REMARK H PARENT 10 19 12 21 4 23 21 25 18 27
REMARK Flexibility Score: inf
ROOT
ATOM      1  C   UNL     1      -6.449  40.780  18.100  1.00  0.00     0.180 A 
ATOM      2  C   UNL     1      -7.201  40.818  19.291  1.00  0.00     0.208 A 
ATOM      3  C   UNL     1      -8.599  40.728  19.214  1.00  0.00     0.238 A 
ATOM      4  O   UNL     1      -9.282  40.750  20.274  1.00  0.00    -0.285 OA
ATOM      5  C   UNL     1      -9.223  40.623  17.953  1.00  0.00     0.111 A 
ATOM      6  C   UNL     1     -10.625  40.531  17.788  1.00  0.00     0.134 A 
ATOM      7  C   UNL     1     -11.170  40.439  16.498  1.00  0.00     0.093 A 
ATOM      8  C   UNL     1     -10.338  40.435  15.373  1.00  0.00     0.123 A 
ATOM      9  C   UNL     1      -8.954  40.524  15.531  1.00  0.00     0.094 A 
ATOM     10  C   UNL     1      -8.392  40.616  16.807  1.00  0.00     0.146 A 
ATOM     11  O   UNL     1      -7.072  40.695  16.929  1.00  0.00    -0.452 OA
ENDROOT
BRANCH   1  12
ATOM     12  C   UNL     1      -4.970  40.850  18.101  1.00  0.00     0.025 A 
ATOM     13  C   UNL     1      -4.245  41.038  16.910  1.00  0.00     0.016 A 
ATOM     14  C   UNL     1      -2.851  41.125  16.940  1.00  0.00     0.051 A 
ATOM     15  C   UNL     1      -2.162  41.040  18.157  1.00  0.00     0.157 A 
ATOM     16  C   UNL     1      -4.277  40.787  19.321  1.00  0.00     0.062 A 
ATOM     17  C   UNL     1      -2.877  40.875  19.350  1.00  0.00     0.158 A 
BRANCH  15  18
ATOM     18  O   UNL     1      -0.772  41.125  18.189  1.00  0.00    -0.504 OA
ATOM     19  H   UNL     1      -0.188  40.424  17.750  1.00  0.00     0.293 HD
ENDBRANCH  15  18
BRANCH  17  20
ATOM     20  O   UNL     1      -2.191  40.797  20.561  1.00  0.00    -0.504 OA
ATOM     21  H   UNL     1      -1.628  41.567  20.901  1.00  0.00     0.293 HD
ENDBRANCH  17  20
ENDBRANCH   1  12
BRANCH   2  22
ATOM     22  O   UNL     1      -6.562  40.973  20.524  1.00  0.00    -0.502 OA
ATOM     23  H   UNL     1      -7.050  41.297  21.350  1.00  0.00     0.293 HD
ENDBRANCH   2  22
BRANCH   6  24
ATOM     24  O   UNL     1     -11.480  40.533  18.891  1.00  0.00    -0.507 OA
ATOM     25  H   UNL     1     -12.432  40.193  18.828  1.00  0.00     0.293 HD
ENDBRANCH   6  24
BRANCH   8  26
ATOM     26  O   UNL     1     -10.878  40.344  14.092  1.00  0.00    -0.508 OA
ATOM     27  H   UNL     1     -10.400  39.845  13.349  1.00  0.00     0.293 HD
ENDBRANCH   8  26
TORSDOF 6
ENDMDL
MODEL 4
REMARK VINA RESULT:    -4.039      2.222      6.310
REMARK INTER + INTRA:          -4.814
REMARK INTER:                  -4.536
REMARK INTRA:                  -0.278
REMARK UNBOUND:                 0.052
REMARK SMILES O=c1c(O)c(-c2ccc(O)c(O)c2)oc2cc(O)cc(O)c12
REMARK SMILES IDX 5 1 3 2 2 3 1 4 22 5 20 6 19 7 17 8 16 9 15 10 14 11 6 12
REMARK SMILES IDX 7 13 8 14 9 15 13 16 11 17 10 18 12 20 4 22 21 24 18 26
REMARK H PARENT 10 19 12 21 4 23 21 25 18 27
REMARK Flexibility Score: inf
ROOT
ATOM      1  C   UNL     1       2.364  23.037   4.182  1.00  0.00     0.180 A 
ATOM      2  C   UNL     1       2.162  22.929   5.571  1.00  0.00     0.208 A 
ATOM      3  C   UNL     1       0.953  22.391   6.041  1.00  0.00     0.238 A 
ATOM      4  O   UNL     1       0.765  22.280   7.283  1.00  0.00    -0.285 OA
ATOM      5  C   UNL     1      -0.036  21.989   5.120  1.00  0.00     0.111 A 
ATOM      6  C   UNL     1      -1.281  21.441   5.511  1.00  0.00     0.134 A 
ATOM      7  C   UNL     1      -2.218  21.074   4.533  1.00  0.00     0.093 A 
ATOM      8  C   UNL     1      -1.932  21.245   3.174  1.00  0.00     0.123 A 
ATOM      9  C   UNL     1      -0.705  21.785   2.783  1.00  0.00     0.094 A 
ATOM     10  C   UNL     1       0.242  22.155   3.742  1.00  0.00     0.146 A 
ATOM     11  O   UNL     1       1.403  22.661   3.343  1.00  0.00    -0.452 OA
ENDROOT
BRANCH   1  12
ATOM     12  C   UNL     1       3.618  23.576   3.609  1.00  0.00     0.025 A 
ATOM     13  C   UNL     1       4.802  22.816   3.591  1.00  0.00     0.016 A 
ATOM     14  C   UNL     1       5.967  23.338   3.023  1.00  0.00     0.051 A 
ATOM     15  C   UNL     1       5.964  24.618   2.453  1.00  0.00     0.157 A 
ATOM     16  C   UNL     1       3.615  24.851   3.018  1.00  0.00     0.062 A 
ATOM     17  C   UNL     1       4.785  25.374   2.448  1.00  0.00     0.158 A 
BRANCH  15  18
ATOM     18  O   UNL     1       7.125  25.142   1.888  1.00  0.00    -0.504 OA
ATOM     19  H   UNL     1       7.474  26.057   2.145  1.00  0.00     0.293 HD
ENDBRANCH  15  18
BRANCH  17  20
ATOM     20  O   UNL     1       4.783  26.645   1.875  1.00  0.00    -0.504 OA
ATOM     21  H   UNL     1       3.923  27.159   1.729  1.00  0.00     0.293 HD
ENDBRANCH  17  20
ENDBRANCH   1  12
BRANCH   2  22
ATOM     22  O   UNL     1       3.137  23.381   6.464  1.00  0.00    -0.502 OA
ATOM     23  H   UNL     1       3.669  24.227   6.303  1.00  0.00     0.293 HD
ENDBRANCH   2  22
BRANCH   6  24
ATOM     24  O   UNL     1      -1.595  21.259   6.859  1.00  0.00    -0.507 OA
ATOM     25  H   UNL     1      -2.452  20.805   7.150  1.00  0.00     0.293 HD
ENDBRANCH   6  24
BRANCH   8  26
ATOM     26  O   UNL     1      -2.862  20.882   2.202  1.00  0.00    -0.508 OA
ATOM     27  H   UNL     1      -3.769  20.503   2.451  1.00  0.00     0.293 HD
ENDBRANCH   8  26
TORSDOF 6
ENDMDL
MODEL 5
REMARK VINA RESULT:    -3.751      2.389      3.694
REMARK INTER + INTRA:          -4.466
REMARK INTER:                  -4.370
REMARK INTRA:                  -0.097
REMARK UNBOUND:                 0.052
REMARK SMILES O=c1c(O)c(-c2ccc(O)c(O)c2)oc2cc(O)cc(O)c12
REMARK SMILES IDX 5 1 3 2 2 3 1 4 22 5 20 6 19 7 17 8 16 9 15 10 14 11 6 12
REMARK SMILES IDX 7 13 8 14 9 15 13 16 11 17 10 18 12 20 4 22 21 24 18 26
REMARK H PARENT 10 19 12 21 4 23 21 25 18 27
REMARK Flexibility Score: inf
ROOT
ATOM      1  C   UNL     1       1.485  23.260   3.114  1.00  0.00     0.180 A 
ATOM      2  C   UNL     1       1.769  24.555   2.638  1.00  0.00     0.208 A 
ATOM      3  C   UNL     1       3.099  25.004   2.646  1.00  0.00     0.238 A 
ATOM      4  O   UNL     1       3.367  26.158   2.213  1.00  0.00    -0.285 OA
ATOM      5  C   UNL     1       4.116  24.164   3.146  1.00  0.00     0.111 A 
ATOM      6  C   UNL     1       5.479  24.541   3.192  1.00  0.00     0.134 A 
ATOM      7  C   UNL     1       6.430  23.651   3.713  1.00  0.00     0.093 A 
ATOM      8  C   UNL     1       6.043  22.393   4.187  1.00  0.00     0.123 A 
ATOM      9  C   UNL     1       4.700  22.016   4.143  1.00  0.00     0.094 A 
ATOM     10  C   UNL     1       3.737  22.887   3.626  1.00  0.00     0.146 A 
ATOM     11  O   UNL     1       2.467  22.501   3.591  1.00  0.00    -0.452 OA
ENDROOT
BRANCH   1  12
ATOM     12  C   UNL     1       0.111  22.708   3.120  1.00  0.00     0.025 A 
ATOM     13  C   UNL     1      -0.655  22.637   1.943  1.00  0.00     0.016 A 
ATOM     14  C   UNL     1      -1.940  22.089   1.969  1.00  0.00     0.051 A 
ATOM     15  C   UNL     1      -2.473  21.594   3.167  1.00  0.00     0.157 A 
ATOM     16  C   UNL     1      -0.420  22.191   4.314  1.00  0.00     0.062 A 
ATOM     17  C   UNL     1      -1.710  21.641   4.340  1.00  0.00     0.158 A 
BRANCH  15  18
ATOM     18  O   UNL     1      -3.756  21.049   3.196  1.00  0.00    -0.504 OA
ATOM     19  H   UNL     1      -4.556  21.594   3.493  1.00  0.00     0.293 HD
ENDBRANCH  15  18
BRANCH  17  20
ATOM     20  O   UNL     1      -2.240  21.142   5.528  1.00  0.00    -0.504 OA
ATOM     21  H   UNL     1      -3.226  20.932   5.623  1.00  0.00     0.293 HD
ENDBRANCH  17  20
ENDBRANCH   1  12
BRANCH   2  22
ATOM     22  O   UNL     1       0.737  25.386   2.195  1.00  0.00    -0.502 OA
ATOM     23  H   UNL     1       0.010  25.724   2.813  1.00  0.00     0.293 HD
ENDBRANCH   2  22
BRANCH   6  24
ATOM     24  O   UNL     1       5.895  25.790   2.728  1.00  0.00    -0.507 OA
ATOM     25  H   UNL     1       5.941  26.597   3.338  1.00  0.00     0.293 HD
ENDBRANCH   6  24
BRANCH   8  26
ATOM     26  O   UNL     1       6.987  21.509   4.705  1.00  0.00    -0.508 OA
ATOM     27  H   UNL     1       6.917  21.154   5.653  1.00  0.00     0.293 HD
ENDBRANCH   8  26
TORSDOF 6
ENDMDL
MODEL 6
REMARK VINA RESULT:    -3.418      2.509      4.074
REMARK INTER + INTRA:          -4.065
REMARK INTER:                  -4.490
REMARK INTRA:                   0.424
REMARK UNBOUND:                 0.052
REMARK SMILES O=c1c(O)c(-c2ccc(O)c(O)c2)oc2cc(O)cc(O)c12
REMARK SMILES IDX 5 1 3 2 2 3 1 4 22 5 20 6 19 7 17 8 16 9 15 10 14 11 6 12
REMARK SMILES IDX 7 13 8 14 9 15 13 16 11 17 10 18 12 20 4 22 21 24 18 26
REMARK H PARENT 10 19 12 21 4 23 21 25 18 27
REMARK Flexibility Score: inf
ROOT
ATOM      1  C   UNL     1       1.475  22.535   5.621  1.00  0.00     0.180 A 
ATOM      2  C   UNL     1       1.425  22.484   4.215  1.00  0.00     0.208 A 
ATOM      3  C   UNL     1       2.554  22.881   3.481  1.00  0.00     0.238 A 
ATOM      4  O   UNL     1       2.524  22.830   2.221  1.00  0.00    -0.285 OA
ATOM      5  C   UNL     1       3.701  23.341   4.160  1.00  0.00     0.111 A 
ATOM      6  C   UNL     1       4.877  23.763   3.495  1.00  0.00     0.134 A 
ATOM      7  C   UNL     1       5.974  24.216   4.243  1.00  0.00     0.093 A 
ATOM      8  C   UNL     1       5.917  24.254   5.641  1.00  0.00     0.123 A 
ATOM      9  C   UNL     1       4.759  23.839   6.301  1.00  0.00     0.094 A 
ATOM     10  C   UNL     1       3.656  23.382   5.574  1.00  0.00     0.146 A 
ATOM     11  O   UNL     1       2.569  22.988   6.227  1.00  0.00    -0.452 OA
ENDROOT
BRANCH   1  12
ATOM     12  C   UNL     1       0.333  22.115   6.465  1.00  0.00     0.025 A 
ATOM     13  C   UNL     1      -0.774  21.442   5.918  1.00  0.00     0.016 A 
ATOM     14  C   UNL     1      -1.828  21.034   6.739  1.00  0.00     0.051 A 
ATOM     15  C   UNL     1      -1.786  21.279   8.118  1.00  0.00     0.157 A 
ATOM     16  C   UNL     1       0.380  22.340   7.851  1.00  0.00     0.062 A 
ATOM     17  C   UNL     1      -0.679  21.930   8.675  1.00  0.00     0.158 A 
BRANCH  15  18
ATOM     18  O   UNL     1      -2.837  20.875   8.938  1.00  0.00    -0.504 OA
ATOM     19  H   UNL     1      -3.648  20.396   8.565  1.00  0.00     0.293 HD
ENDBRANCH  15  18
BRANCH  17  20
ATOM     20  O   UNL     1      -0.637  22.168  10.048  1.00  0.00    -0.504 OA
ATOM     21  H   UNL     1      -1.182  21.616  10.698  1.00  0.00     0.293 HD
ENDBRANCH  17  20
ENDBRANCH   1  12
BRANCH   2  22
ATOM     22  O   UNL     1       0.259  22.072   3.565  1.00  0.00    -0.502 OA
ATOM     23  H   UNL     1      -0.437  22.728   3.232  1.00  0.00     0.293 HD
ENDBRANCH   2  22
BRANCH   6  24
ATOM     24  O   UNL     1       4.964  23.737   2.103  1.00  0.00    -0.507 OA
ATOM     25  H   UNL     1       5.563  23.079   1.618  1.00  0.00     0.293 HD
ENDBRANCH   6  24
BRANCH   8  26
ATOM     26  O   UNL     1       7.005  24.705   6.384  1.00  0.00    -0.508 OA
ATOM     27  H   UNL     1       7.402  24.150   7.134  1.00  0.00     0.293 HD
ENDBRANCH   8  26
TORSDOF 6
ENDMDL
MODEL 7
REMARK VINA RESULT:    -3.154      1.558      3.079
REMARK INTER + INTRA:          -3.748
REMARK INTER:                  -4.291
REMARK INTRA:                   0.543
REMARK UNBOUND:                 0.052
REMARK SMILES O=c1c(O)c(-c2ccc(O)c(O)c2)oc2cc(O)cc(O)c12
REMARK SMILES IDX 5 1 3 2 2 3 1 4 22 5 20 6 19 7 17 8 16 9 15 10 14 11 6 12
REMARK SMILES IDX 7 13 8 14 9 15 13 16 11 17 10 18 12 20 4 22 21 24 18 26
REMARK H PARENT 10 19 12 21 4 23 21 25 18 27
REMARK Flexibility Score: inf
ROOT
ATOM      1  C   UNL     1       0.997  22.404   4.510  1.00  0.00     0.180 A 
ATOM      2  C   UNL     1       1.677  23.141   3.521  1.00  0.00     0.208 A 
ATOM      3  C   UNL     1       3.018  23.493   3.740  1.00  0.00     0.238 A 
ATOM      4  O   UNL     1       3.640  24.144   2.856  1.00  0.00    -0.285 OA
ATOM      5  C   UNL     1       3.649  23.124   4.946  1.00  0.00     0.111 A 
ATOM      6  C   UNL     1       4.994  23.443   5.245  1.00  0.00     0.134 A 
ATOM      7  C   UNL     1       5.547  23.047   6.473  1.00  0.00     0.093 A 
ATOM      8  C   UNL     1       4.779  22.338   7.403  1.00  0.00     0.123 A 
ATOM      9  C   UNL     1       3.452  22.021   7.112  1.00  0.00     0.094 A 
ATOM     10  C   UNL     1       2.883  22.405   5.895  1.00  0.00     0.146 A 
ATOM     11  O   UNL     1       1.620  22.085   5.641  1.00  0.00    -0.452 OA
ENDROOT
BRANCH   1  12
ATOM     12  C   UNL     1      -0.412  21.978   4.345  1.00  0.00     0.025 A 
ATOM     13  C   UNL     1      -1.077  21.244   5.343  1.00  0.00     0.016 A 
ATOM     14  C   UNL     1      -2.414  20.875   5.175  1.00  0.00     0.051 A 
ATOM     15  C   UNL     1      -3.109  21.244   4.015  1.00  0.00     0.157 A 
ATOM     16  C   UNL     1      -1.118  22.364   3.194  1.00  0.00     0.062 A 
ATOM     17  C   UNL     1      -2.461  21.992   3.025  1.00  0.00     0.158 A 
BRANCH  15  18
ATOM     18  O   UNL     1      -4.441  20.875   3.844  1.00  0.00    -0.504 OA
ATOM     19  H   UNL     1      -4.745  19.916   3.957  1.00  0.00     0.293 HD
ENDBRANCH  15  18
BRANCH  17  20
ATOM     20  O   UNL     1      -3.155  22.364   1.875  1.00  0.00    -0.504 OA
ATOM     21  H   UNL     1      -2.798  23.072   1.246  1.00  0.00     0.293 HD
ENDBRANCH  17  20
ENDBRANCH   1  12
BRANCH   2  22
ATOM     22  O   UNL     1       1.015  23.538   2.357  1.00  0.00    -0.502 OA
ATOM     23  H   UNL     1       1.511  23.841   1.527  1.00  0.00     0.293 HD
ENDBRANCH   2  22
BRANCH   6  24
ATOM     24  O   UNL     1       5.784  24.149   4.337  1.00  0.00    -0.507 OA
ATOM     25  H   UNL     1       6.022  25.124   4.482  1.00  0.00     0.293 HD
ENDBRANCH   6  24
BRANCH   8  26
ATOM     26  O   UNL     1       5.327  21.945   8.622  1.00  0.00    -0.508 OA
ATOM     27  H   UNL     1       5.499  20.969   8.837  1.00  0.00     0.293 HD
ENDBRANCH   8  26
TORSDOF 6
ENDMDL
MODEL 8
REMARK VINA RESULT:    -2.734      1.219      2.999
REMARK INTER + INTRA:          -3.242
REMARK INTER:                  -3.195
REMARK INTRA:                  -0.047
REMARK UNBOUND:                 0.052
REMARK SMILES O=c1c(O)c(-c2ccc(O)c(O)c2)oc2cc(O)cc(O)c12
REMARK SMILES IDX 5 1 3 2 2 3 1 4 22 5 20 6 19 7 17 8 16 9 15 10 14 11 6 12
REMARK SMILES IDX 7 13 8 14 9 15 13 16 11 17 10 18 12 20 4 22 21 24 18 26
REMARK H PARENT 10 19 12 21 4 23 21 25 18 27
REMARK Flexibility Score: inf
ROOT
ATOM      1  C   UNL     1       2.369  23.530   3.803  1.00  0.00     0.180 A 
ATOM      2  C   UNL     1       3.271  24.346   3.093  1.00  0.00     0.208 A 
ATOM      3  C   UNL     1       4.540  24.589   3.641  1.00  0.00     0.238 A 
ATOM      4  O   UNL     1       5.361  25.310   3.010  1.00  0.00    -0.285 OA
ATOM      5  C   UNL     1       4.879  24.032   4.892  1.00  0.00     0.111 A 
ATOM      6  C   UNL     1       6.134  24.231   5.514  1.00  0.00     0.134 A 
ATOM      7  C   UNL     1       6.390  23.650   6.765  1.00  0.00     0.093 A 
ATOM      8  C   UNL     1       5.416  22.875   7.403  1.00  0.00     0.123 A 
ATOM      9  C   UNL     1       4.177  22.675   6.793  1.00  0.00     0.094 A 
ATOM     10  C   UNL     1       3.902  23.244   5.546  1.00  0.00     0.146 A 
ATOM     11  O   UNL     1       2.717  23.034   4.986  1.00  0.00    -0.452 OA
ENDROOT
BRANCH   1  12
ATOM     12  C   UNL     1       1.019  23.211   3.282  1.00  0.00     0.025 A 
ATOM     13  C   UNL     1       0.582  21.882   3.144  1.00  0.00     0.016 A 
ATOM     14  C   UNL     1      -0.704  21.607   2.674  1.00  0.00     0.051 A 
ATOM     15  C   UNL     1      -1.576  22.654   2.347  1.00  0.00     0.157 A 
ATOM     16  C   UNL     1       0.135  24.258   2.973  1.00  0.00     0.062 A 
ATOM     17  C   UNL     1      -1.157  23.982   2.500  1.00  0.00     0.158 A 
BRANCH  15  18
ATOM     18  O   UNL     1      -2.859  22.383   1.875  1.00  0.00    -0.504 OA
ATOM     19  H   UNL     1      -3.085  21.503   1.428  1.00  0.00     0.293 HD
ENDBRANCH  15  18
BRANCH  17  20
ATOM     20  O   UNL     1      -2.028  25.022   2.180  1.00  0.00    -0.504 OA
ATOM     21  H   UNL     1      -2.949  25.089   2.596  1.00  0.00     0.293 HD
ENDBRANCH  17  20
ENDBRANCH   1  12
BRANCH   2  22
ATOM     22  O   UNL     1       2.894  24.926   1.880  1.00  0.00    -0.502 OA
ATOM     23  H   UNL     1       2.519  25.865   1.821  1.00  0.00     0.293 HD
ENDBRANCH   2  22
BRANCH   6  24
ATOM     24  O   UNL     1       7.125  25.000   4.903  1.00  0.00    -0.507 OA
ATOM     25  H   UNL     1       7.781  25.552   5.443  1.00  0.00     0.293 HD
ENDBRANCH   6  24
BRANCH   8  26
ATOM     26  O   UNL     1       5.670  22.299   8.646  1.00  0.00    -0.508 OA
ATOM     27  H   UNL     1       5.582  21.299   8.795  1.00  0.00     0.293 HD
ENDBRANCH   8  26
TORSDOF 6
ENDMDL
