MODEL 1
REMARK VINA RESULT:    10.550      0.000      0.000
REMARK INTER + INTRA:          12.636
REMARK INTER:                  11.475
REMARK INTRA:                   1.162
REMARK UNBOUND:                 1.162
REMARK SMILES C[C@@H]1[C@H](C)CC[C@@]2(C(=O)[O-])CC[C@@]3(C)C(=CC[C@H]4[C@@]5(C)CC[C@H](O)C(C)(C)[C@H]5CC[C@@]43C)[C@@H]12
REMARK SMILES IDX 7 1 6 2 11 3 33 4 5 5 12 6 15 7 2 8 3 9 13 10 16 11 1 12
REMARK SMILES IDX 4 13 14 14 31 15 17 16 18 17 30 18 32 19 19 20 29 21 28 22
REMARK SMILES IDX 21 23 20 24 25 25 22 26 23 27 26 28 27 29 8 30 9 31 10 32
REMARK SMILES IDX 24 33
REMARK H PARENT 24 34
REMARK Flexibility Score: inf
ROOT
ATOM      1  C   UNL     1     140.082 148.499 120.139  1.00  0.00     0.017 C 
ATOM      2  C   UNL     1     140.238 146.940 120.032  1.00  0.00     0.014 C 
ATOM      3  C   UNL     1     139.369 149.059 118.880  1.00  0.00     0.014 C 
ATOM      4  C   UNL     1     139.258 148.923 121.404  1.00  0.00     0.030 C 
ATOM      5  C   UNL     1     139.306 146.125 120.937  1.00  0.00     0.004 C 
ATOM      6  C   UNL     1     139.306 150.597 118.875  1.00  0.00     0.013 C 
ATOM      7  C   UNL     1     139.031 150.445 121.432  1.00  0.00    -0.063 C 
ATOM      8  C   UNL     1     137.912 148.130 121.637  1.00  0.00    -0.003 C 
ATOM      9  C   UNL     1     137.902 146.729 120.942  1.00  0.00    -0.011 C 
ATOM     10  C   UNL     1     138.647 151.232 120.152  1.00  0.00    -0.006 C 
ATOM     11  C   UNL     1     139.095 151.068 122.637  1.00  0.00    -0.027 C 
ATOM     12  C   UNL     1     137.596 148.051 123.149  1.00  0.00     0.008 C 
ATOM     13  C   UNL     1     136.883 145.731 121.515  1.00  0.00     0.008 C 
ATOM     14  C   UNL     1     137.097 151.070 119.975  1.00  0.00     0.017 C 
ATOM     15  C   UNL     1     139.110 152.774 120.325  1.00  0.00    -0.020 C 
ATOM     16  C   UNL     1     138.982 152.558 122.857  1.00  0.00     0.032 C 
ATOM     17  C   UNL     1     138.430 153.339 121.633  1.00  0.00     0.006 C 
ATOM     18  C   UNL     1     138.692 153.649 119.120  1.00  0.00     0.008 C 
ATOM     19  C   UNL     1     140.678 152.836 120.424  1.00  0.00     0.012 C 
ATOM     20  C   UNL     1     138.299 154.931 121.857  1.00  0.00    -0.025 C 
ATOM     21  C   UNL     1     138.970 155.130 119.357  1.00  0.00     0.005 C 
ATOM     22  C   UNL     1     138.072 155.710 120.483  1.00  0.00     0.003 C 
ATOM     23  C   UNL     1     139.526 155.517 122.631  1.00  0.00     0.010 C 
ATOM     24  C   UNL     1     137.034 155.124 122.762  1.00  0.00     0.012 C 
ATOM     25  C   UNL     1     138.171 157.305 120.575  1.00  0.00    -0.006 C 
ATOM     26  C   UNL     1     139.545 157.045 122.746  1.00  0.00     0.033 C 
ATOM     27  C   UNL     1     139.449 157.717 121.370  1.00  0.00     0.120 C 
ATOM     28  C   UNL     1     136.880 157.914 121.210  1.00  0.00     0.014 C 
ATOM     29  C   UNL     1     138.269 157.953 119.161  1.00  0.00     0.014 C 
ENDROOT
BRANCH   1  30
ATOM     30  C   UNL     1     141.501 149.069 120.187  1.00  0.00     0.048 C 
ATOM     31  O   UNL     1     142.453 148.506 119.584  1.00  0.00    -0.550 OA
ATOM     32  O   UNL     1     141.738 150.280 120.828  1.00  0.00    -0.550 OA
ENDBRANCH   1  30
BRANCH  27  33
ATOM     33  O   UNL     1     139.562 159.116 121.489  1.00  0.00    -0.393 OA
ATOM     34  H   UNL     1     139.159 159.388 122.355  1.00  0.00     0.210 HD
ENDBRANCH  27  33
TORSDOF 2
ENDMDL
