MODEL 1
REMARK VINA RESULT:    -6.486      0.000      0.000
REMARK INTER + INTRA:          -6.486
REMARK INTER:                  -6.486
REMARK INTRA:                   0.000
REMARK UNBOUND:                 0.000
REMARK SMILES CC1=CC=CC(C)(C)[C@@H]1C
REMARK SMILES IDX 10 1 9 2 2 3 3 4 4 5 5 6 6 7 7 8 8 9 1 10
REMARK H PARENT
REMARK Flexibility Score: inf
ROOT
ATOM      1  C   UNL     1      -2.603 -17.757   8.833  1.00  0.00     0.013 C 
ATOM      2  C   UNL     1      -3.087 -16.351   9.237  1.00  0.00     0.021 C 
ATOM      3  C   UNL     1      -4.609 -16.352   9.245  1.00  0.00    -0.070 C 
ATOM      4  C   UNL     1      -5.283 -16.037   8.127  1.00  0.00    -0.001 C 
ATOM      5  C   UNL     1      -4.575 -15.568   6.923  1.00  0.00    -0.004 C 
ATOM      6  C   UNL     1      -3.284 -15.223   6.980  1.00  0.00    -0.020 C 
ATOM      7  C   UNL     1      -2.540 -15.209   8.304  1.00  0.00    -0.011 C 
ATOM      8  C   UNL     1      -2.777 -13.839   8.978  1.00  0.00     0.016 C 
ATOM      9  C   UNL     1      -1.026 -15.354   8.041  1.00  0.00     0.016 C 
ATOM     10  C   UNL     1      -5.361 -16.788  10.469  1.00  0.00     0.040 C 
ENDROOT
TORSDOF 0
ENDMDL
MODEL 2
REMARK VINA RESULT:    -6.281      0.952      3.351
REMARK INTER + INTRA:          -6.281
REMARK INTER:                  -6.281
REMARK INTRA:                   0.000
REMARK UNBOUND:                 0.000
REMARK SMILES CC1=CC=CC(C)(C)[C@@H]1C
REMARK SMILES IDX 10 1 9 2 2 3 3 4 4 5 5 6 6 7 7 8 8 9 1 10
REMARK H PARENT
REMARK Flexibility Score: inf
ROOT
ATOM      1  C   UNL     1      -2.764 -14.998  10.592  1.00  0.00     0.013 C 
ATOM      2  C   UNL     1      -2.619 -16.135   9.562  1.00  0.00     0.021 C 
ATOM      3  C   UNL     1      -1.949 -15.570   8.317  1.00  0.00    -0.070 C 
ATOM      4  C   UNL     1      -2.700 -15.052   7.331  1.00  0.00    -0.001 C 
ATOM      5  C   UNL     1      -4.171 -15.132   7.378  1.00  0.00    -0.004 C 
ATOM      6  C   UNL     1      -4.784 -15.917   8.269  1.00  0.00    -0.020 C 
ATOM      7  C   UNL     1      -3.985 -16.821   9.191  1.00  0.00    -0.011 C 
ATOM      8  C   UNL     1      -3.707 -18.147   8.447  1.00  0.00     0.016 C 
ATOM      9  C   UNL     1      -4.825 -17.147  10.444  1.00  0.00     0.016 C 
ATOM     10  C   UNL     1      -0.452 -15.510   8.222  1.00  0.00     0.040 C 
ENDROOT
TORSDOF 0
ENDMDL
MODEL 3
REMARK VINA RESULT:    -6.260      1.440      2.039
REMARK INTER + INTRA:          -6.260
REMARK INTER:                  -6.260
REMARK INTRA:                   0.000
REMARK UNBOUND:                 0.000
REMARK SMILES CC1=CC=CC(C)(C)[C@@H]1C
REMARK SMILES IDX 10 1 9 2 2 3 3 4 4 5 5 6 6 7 7 8 8 9 1 10
REMARK H PARENT
REMARK Flexibility Score: inf
ROOT
ATOM      1  C   UNL     1      -2.265 -16.124  11.683  1.00  0.00     0.013 C 
ATOM      2  C   UNL     1      -3.118 -15.596  10.513  1.00  0.00     0.021 C 
ATOM      3  C   UNL     1      -4.212 -16.613  10.220  1.00  0.00    -0.070 C 
ATOM      4  C   UNL     1      -3.987 -17.600   9.338  1.00  0.00    -0.001 C 
ATOM      5  C   UNL     1      -2.740 -17.644   8.553  1.00  0.00    -0.004 C 
ATOM      6  C   UNL     1      -1.913 -16.594   8.524  1.00  0.00    -0.020 C 
ATOM      7  C   UNL     1      -2.283 -15.293   9.216  1.00  0.00    -0.011 C 
ATOM      8  C   UNL     1      -3.137 -14.452   8.240  1.00  0.00     0.016 C 
ATOM      9  C   UNL     1      -0.998 -14.497   9.530  1.00  0.00     0.016 C 
ATOM     10  C   UNL     1      -5.509 -16.572  10.975  1.00  0.00     0.040 C 
ENDROOT
TORSDOF 0
ENDMDL
MODEL 4
REMARK VINA RESULT:    -6.185      1.417      2.917
REMARK INTER + INTRA:          -6.185
REMARK INTER:                  -6.185
REMARK INTRA:                   0.000
REMARK UNBOUND:                 0.000
REMARK SMILES CC1=CC=CC(C)(C)[C@@H]1C
REMARK SMILES IDX 10 1 9 2 2 3 3 4 4 5 5 6 6 7 7 8 8 9 1 10
REMARK H PARENT
REMARK Flexibility Score: inf
ROOT
ATOM      1  C   UNL     1      -4.170 -16.432   9.587  1.00  0.00     0.013 C 
ATOM      2  C   UNL     1      -3.640 -15.001   9.368  1.00  0.00     0.021 C 
ATOM      3  C   UNL     1      -3.480 -14.773   7.872  1.00  0.00    -0.070 C 
ATOM      4  C   UNL     1      -2.317 -15.073   7.271  1.00  0.00    -0.001 C 
ATOM      5  C   UNL     1      -1.148 -15.504   8.058  1.00  0.00    -0.004 C 
ATOM      6  C   UNL     1      -1.138 -15.384   9.389  1.00  0.00    -0.020 C 
ATOM      7  C   UNL     1      -2.289 -14.712  10.119  1.00  0.00    -0.011 C 
ATOM      8  C   UNL     1      -2.026 -13.189  10.135  1.00  0.00     0.016 C 
ATOM      9  C   UNL     1      -2.324 -15.204  11.582  1.00  0.00     0.016 C 
ATOM     10  C   UNL     1      -4.642 -14.298   7.049  1.00  0.00     0.040 C 
ENDROOT
TORSDOF 0
ENDMDL
MODEL 5
REMARK VINA RESULT:    -6.168      0.947      2.910
REMARK INTER + INTRA:          -6.168
REMARK INTER:                  -6.168
REMARK INTRA:                   0.000
REMARK UNBOUND:                 0.000
REMARK SMILES CC1=CC=CC(C)(C)[C@@H]1C
REMARK SMILES IDX 10 1 9 2 2 3 3 4 4 5 5 6 6 7 7 8 8 9 1 10
REMARK H PARENT
REMARK Flexibility Score: inf
ROOT
ATOM      1  C   UNL     1      -3.524 -13.760   8.338  1.00  0.00     0.013 C 
ATOM      2  C   UNL     1      -3.305 -15.235   7.948  1.00  0.00     0.021 C 
ATOM      3  C   UNL     1      -4.624 -15.796   7.436  1.00  0.00    -0.070 C 
ATOM      4  C   UNL     1      -5.485 -16.367   8.294  1.00  0.00    -0.001 C 
ATOM      5  C   UNL     1      -5.120 -16.573   9.707  1.00  0.00    -0.004 C 
ATOM      6  C   UNL     1      -3.858 -16.415  10.117  1.00  0.00    -0.020 C 
ATOM      7  C   UNL     1      -2.748 -16.117   9.124  1.00  0.00    -0.011 C 
ATOM      8  C   UNL     1      -2.233 -17.460   8.558  1.00  0.00     0.016 C 
ATOM      9  C   UNL     1      -1.576 -15.430   9.857  1.00  0.00     0.016 C 
ATOM     10  C   UNL     1      -5.007 -15.637   5.993  1.00  0.00     0.040 C 
ENDROOT
TORSDOF 0
ENDMDL
MODEL 6
REMARK VINA RESULT:    -6.159      1.177      3.145
REMARK INTER + INTRA:          -6.159
REMARK INTER:                  -6.159
REMARK INTRA:                   0.000
REMARK UNBOUND:                 0.000
REMARK SMILES CC1=CC=CC(C)(C)[C@@H]1C
REMARK SMILES IDX 10 1 9 2 2 3 3 4 4 5 5 6 6 7 7 8 8 9 1 10
REMARK H PARENT
REMARK Flexibility Score: inf
ROOT
ATOM      1  C   UNL     1      -2.483 -14.732   7.693  1.00  0.00     0.013 C 
ATOM      2  C   UNL     1      -3.528 -15.281   8.684  1.00  0.00     0.021 C 
ATOM      3  C   UNL     1      -2.790 -15.928   9.848  1.00  0.00    -0.070 C 
ATOM      4  C   UNL     1      -2.464 -17.229   9.792  1.00  0.00    -0.001 C 
ATOM      5  C   UNL     1      -2.917 -18.075   8.673  1.00  0.00    -0.004 C 
ATOM      6  C   UNL     1      -3.847 -17.638   7.819  1.00  0.00    -0.020 C 
ATOM      7  C   UNL     1      -4.533 -16.300   8.032  1.00  0.00    -0.011 C 
ATOM      8  C   UNL     1      -5.731 -16.517   8.984  1.00  0.00     0.016 C 
ATOM      9  C   UNL     1      -5.084 -15.785   6.685  1.00  0.00     0.016 C 
ATOM     10  C   UNL     1      -2.348 -15.100  11.020  1.00  0.00     0.040 C 
ENDROOT
TORSDOF 0
ENDMDL
MODEL 7
REMARK VINA RESULT:    -6.152      1.217      2.923
REMARK INTER + INTRA:          -6.152
REMARK INTER:                  -6.152
REMARK INTRA:                   0.000
REMARK UNBOUND:                 0.000
REMARK SMILES CC1=CC=CC(C)(C)[C@@H]1C
REMARK SMILES IDX 10 1 9 2 2 3 3 4 4 5 5 6 6 7 7 8 8 9 1 10
REMARK H PARENT
REMARK Flexibility Score: inf
ROOT
ATOM      1  C   UNL     1      -4.743 -15.698   8.086  1.00  0.00     0.013 C 
ATOM      2  C   UNL     1      -3.257 -16.056   8.281  1.00  0.00     0.021 C 
ATOM      3  C   UNL     1      -3.177 -17.431   8.928  1.00  0.00    -0.070 C 
ATOM      4  C   UNL     1      -3.164 -17.540  10.267  1.00  0.00    -0.001 C 
ATOM      5  C   UNL     1      -3.102 -16.341  11.123  1.00  0.00    -0.004 C 
ATOM      6  C   UNL     1      -2.822 -15.143  10.601  1.00  0.00    -0.020 C 
ATOM      7  C   UNL     1      -2.464 -14.997   9.132  1.00  0.00    -0.011 C 
ATOM      8  C   UNL     1      -0.947 -15.247   8.978  1.00  0.00     0.016 C 
ATOM      9  C   UNL     1      -2.757 -13.552   8.674  1.00  0.00     0.016 C 
ATOM     10  C   UNL     1      -3.199 -18.671   8.082  1.00  0.00     0.040 C 
ENDROOT
TORSDOF 0
ENDMDL
MODEL 8
REMARK VINA RESULT:    -6.086      1.363      3.561
REMARK INTER + INTRA:          -6.086
REMARK INTER:                  -6.086
REMARK INTRA:                   0.000
REMARK UNBOUND:                 0.000
REMARK SMILES CC1=CC=CC(C)(C)[C@@H]1C
REMARK SMILES IDX 10 1 9 2 2 3 3 4 4 5 5 6 6 7 7 8 8 9 1 10
REMARK H PARENT
REMARK Flexibility Score: inf
ROOT
ATOM      1  C   UNL     1      -1.244 -16.039   8.279  1.00  0.00     0.013 C 
ATOM      2  C   UNL     1      -2.674 -15.671   8.721  1.00  0.00     0.021 C 
ATOM      3  C   UNL     1      -2.580 -14.605   9.804  1.00  0.00    -0.070 C 
ATOM      4  C   UNL     1      -2.497 -14.969  11.094  1.00  0.00    -0.001 C 
ATOM      5  C   UNL     1      -2.621 -16.383  11.491  1.00  0.00    -0.004 C 
ATOM      6  C   UNL     1      -3.047 -17.303  10.619  1.00  0.00    -0.020 C 
ATOM      7  C   UNL     1      -3.509 -16.903   9.229  1.00  0.00    -0.011 C 
ATOM      8  C   UNL     1      -5.002 -16.512   9.310  1.00  0.00     0.016 C 
ATOM      9  C   UNL     1      -3.386 -18.114   8.280  1.00  0.00     0.016 C 
ATOM     10  C   UNL     1      -2.492 -13.153   9.434  1.00  0.00     0.040 C 
ENDROOT
TORSDOF 0
ENDMDL
MODEL 9
REMARK VINA RESULT:    -6.014      1.242      2.476
REMARK INTER + INTRA:          -6.014
REMARK INTER:                  -6.014
REMARK INTRA:                   0.000
REMARK UNBOUND:                 0.000
REMARK SMILES CC1=CC=CC(C)(C)[C@@H]1C
REMARK SMILES IDX 10 1 9 2 2 3 3 4 4 5 5 6 6 7 7 8 8 9 1 10
REMARK H PARENT
REMARK Flexibility Score: inf
ROOT
ATOM      1  C   UNL     1      -2.409 -17.534   8.384  1.00  0.00     0.013 C 
ATOM      2  C   UNL     1      -2.936 -16.104   8.610  1.00  0.00     0.021 C 
ATOM      3  C   UNL     1      -3.220 -15.927  10.095  1.00  0.00    -0.070 C 
ATOM      4  C   UNL     1      -4.434 -16.229  10.583  1.00  0.00    -0.001 C 
ATOM      5  C   UNL     1      -5.538 -16.611   9.684  1.00  0.00    -0.004 C 
ATOM      6  C   UNL     1      -5.431 -16.443   8.362  1.00  0.00    -0.020 C 
ATOM      7  C   UNL     1      -4.214 -15.765   7.759  1.00  0.00    -0.011 C 
ATOM      8  C   UNL     1      -4.452 -14.238   7.777  1.00  0.00     0.016 C 
ATOM      9  C   UNL     1      -4.060 -16.204   6.287  1.00  0.00     0.016 C 
ATOM     10  C   UNL     1      -2.126 -15.502  11.031  1.00  0.00     0.040 C 
ENDROOT
TORSDOF 0
ENDMDL
