MODEL 1
REMARK VINA RESULT:    -2.215      0.000      0.000
REMARK INTER + INTRA:          -2.280
REMARK INTER:                  -2.280
REMARK INTRA:                   0.000
REMARK UNBOUND:                 0.000
REMARK SMILES Nc1ncnc2nc[nH]c12
REMARK SMILES IDX 8 1 7 2 6 3 5 4 4 5 3 6 2 7 10 8 9 9 1 11
REMARK H PARENT 9 10 1 12 1 13
REMARK Flexibility Score: inf
ROOT
ATOM      1  C   UNL     1       0.907  -8.193  22.867  1.00  0.00     0.199 A 
ATOM      2  N   UNL     1       0.875  -9.466  22.386  1.00  0.00    -0.217 NA
ATOM      3  C   UNL     1       0.948 -10.197  23.510  1.00  0.00     0.182 A 
ATOM      4  N   UNL     1       0.953 -11.549  23.596  1.00  0.00    -0.215 NA
ATOM      5  C   UNL     1       1.033 -12.118  24.838  1.00  0.00     0.226 A 
ATOM      6  N   UNL     1       1.108 -11.331  25.959  1.00  0.00    -0.217 NA
ATOM      7  C   UNL     1       1.104  -9.967  25.875  1.00  0.00     0.152 A 
ATOM      8  C   UNL     1       1.020  -9.404  24.604  1.00  0.00     0.127 A 
ATOM      9  N   UNL     1       0.997  -8.123  24.220  1.00  0.00    -0.340 N 
ATOM     10  H   UNL     1       1.036  -7.263  24.810  1.00  0.00     0.168 HD
ENDROOT
BRANCH   7  11
ATOM     11  N   UNL     1       1.183  -9.169  27.056  1.00  0.00    -0.382 N 
ATOM     12  H   UNL     1       2.114  -8.922  27.458  1.00  0.00     0.158 HD
ATOM     13  H   UNL     1       0.323  -8.821  27.537  1.00  0.00     0.158 HD
ENDBRANCH   7  11
TORSDOF 1
ENDMDL
MODEL 2
REMARK VINA RESULT:    -2.161     19.119     19.624
REMARK INTER + INTRA:          -2.224
REMARK INTER:                  -2.224
REMARK INTRA:                   0.000
REMARK UNBOUND:                 0.000
REMARK SMILES Nc1ncnc2nc[nH]c12
REMARK SMILES IDX 8 1 7 2 6 3 5 4 4 5 3 6 2 7 10 8 9 9 1 11
REMARK H PARENT 9 10 1 12 1 13
REMARK Flexibility Score: inf
ROOT
ATOM      1  C   UNL     1      20.016 -11.503  20.490  1.00  0.00     0.199 A 
ATOM      2  N   UNL     1      18.790 -11.997  20.165  1.00  0.00    -0.217 NA
ATOM      3  C   UNL     1      18.680 -11.654  18.871  1.00  0.00     0.182 A 
ATOM      4  N   UNL     1      17.631 -11.912  18.053  1.00  0.00    -0.215 NA
ATOM      5  C   UNL     1      17.701 -11.480  16.757  1.00  0.00     0.226 A 
ATOM      6  N   UNL     1      18.808 -10.805  16.307  1.00  0.00    -0.217 NA
ATOM      7  C   UNL     1      19.867 -10.544  17.131  1.00  0.00     0.152 A 
ATOM      8  C   UNL     1      19.780 -10.990  18.447  1.00  0.00     0.127 A 
ATOM      9  N   UNL     1      20.646 -10.881  19.461  1.00  0.00    -0.340 N 
ATOM     10  H   UNL     1      21.586 -10.428  19.472  1.00  0.00     0.168 HD
ENDROOT
BRANCH   7  11
ATOM     11  N   UNL     1      21.008  -9.839  16.640  1.00  0.00    -0.382 N 
ATOM     12  H   UNL     1      21.248  -8.900  17.028  1.00  0.00     0.158 HD
ATOM     13  H   UNL     1      21.617 -10.242  15.894  1.00  0.00     0.158 HD
ENDBRANCH   7  11
TORSDOF 1
ENDMDL
MODEL 3
REMARK VINA RESULT:    -2.119     24.414     25.495
REMARK INTER + INTRA:          -2.181
REMARK INTER:                  -2.181
REMARK INTRA:                   0.000
REMARK UNBOUND:                 0.000
REMARK SMILES Nc1ncnc2nc[nH]c12
REMARK SMILES IDX 8 1 7 2 6 3 5 4 4 5 3 6 2 7 10 8 9 9 1 11
REMARK H PARENT 9 10 1 12 1 13
REMARK Flexibility Score: inf
ROOT
ATOM      1  C   UNL     1      20.469   3.800  23.593  1.00  0.00     0.199 A 
ATOM      2  N   UNL     1      20.746   4.798  22.710  1.00  0.00    -0.217 NA
ATOM      3  C   UNL     1      20.825   5.873  23.511  1.00  0.00     0.182 A 
ATOM      4  N   UNL     1      21.085   7.148  23.131  1.00  0.00    -0.215 NA
ATOM      5  C   UNL     1      21.125   8.115  24.098  1.00  0.00     0.226 A 
ATOM      6  N   UNL     1      20.906   7.793  25.413  1.00  0.00    -0.217 NA
ATOM      7  C   UNL     1      20.643   6.508  25.799  1.00  0.00     0.152 A 
ATOM      8  C   UNL     1      20.606   5.536  24.803  1.00  0.00     0.127 A 
ATOM      9  N   UNL     1      20.377   4.220  24.880  1.00  0.00    -0.340 N 
ATOM     10  H   UNL     1      20.174   3.640  25.725  1.00  0.00     0.168 HD
ENDROOT
BRANCH   7  11
ATOM     11  N   UNL     1      20.418   6.197  27.174  1.00  0.00    -0.382 N 
ATOM     12  H   UNL     1      20.463   5.207  27.500  1.00  0.00     0.158 HD
ATOM     13  H   UNL     1      20.206   6.943  27.873  1.00  0.00     0.158 HD
ENDBRANCH   7  11
TORSDOF 1
ENDMDL
MODEL 4
REMARK VINA RESULT:    -2.049      0.965      2.985
REMARK INTER + INTRA:          -2.109
REMARK INTER:                  -2.109
REMARK INTRA:                   0.000
REMARK UNBOUND:                 0.000
REMARK SMILES Nc1ncnc2nc[nH]c12
REMARK SMILES IDX 8 1 7 2 6 3 5 4 4 5 3 6 2 7 10 8 9 9 1 11
REMARK H PARENT 9 10 1 12 1 13
REMARK Flexibility Score: inf
ROOT
ATOM      1  C   UNL     1       1.370 -11.387  26.797  1.00  0.00     0.199 A 
ATOM      2  N   UNL     1       1.207 -12.112  25.657  1.00  0.00    -0.217 NA
ATOM      3  C   UNL     1       1.117 -11.154  24.721  1.00  0.00     0.182 A 
ATOM      4  N   UNL     1       0.945 -11.338  23.389  1.00  0.00    -0.215 NA
ATOM      5  C   UNL     1       0.875 -10.232  22.588  1.00  0.00     0.226 A 
ATOM      6  N   UNL     1       0.977  -8.974  23.127  1.00  0.00    -0.217 NA
ATOM      7  C   UNL     1       1.150  -8.786  24.470  1.00  0.00     0.152 A 
ATOM      8  C   UNL     1       1.219  -9.922  25.271  1.00  0.00     0.127 A 
ATOM      9  N   UNL     1       1.381 -10.045  26.594  1.00  0.00    -0.340 N 
ATOM     10  H   UNL     1       1.491  -9.294  27.311  1.00  0.00     0.168 HD
ENDROOT
BRANCH   7  11
ATOM     11  N   UNL     1       1.252  -7.467  25.008  1.00  0.00    -0.382 N 
ATOM     12  H   UNL     1       2.169  -7.120  25.367  1.00  0.00     0.158 HD
ATOM     13  H   UNL     1       0.425  -6.833  25.053  1.00  0.00     0.158 HD
ENDBRANCH   7  11
TORSDOF 1
ENDMDL
MODEL 5
REMARK VINA RESULT:    -2.039      1.118      1.754
REMARK INTER + INTRA:          -2.099
REMARK INTER:                  -2.099
REMARK INTRA:                   0.000
REMARK UNBOUND:                 0.000
REMARK SMILES Nc1ncnc2nc[nH]c12
REMARK SMILES IDX 8 1 7 2 6 3 5 4 4 5 3 6 2 7 10 8 9 9 1 11
REMARK H PARENT 9 10 1 12 1 13
REMARK Flexibility Score: inf
ROOT
ATOM      1  C   UNL     1       0.875 -10.609  21.911  1.00  0.00     0.199 A 
ATOM      2  N   UNL     1       0.955 -11.770  22.617  1.00  0.00    -0.217 NA
ATOM      3  C   UNL     1       1.040 -11.328  23.883  1.00  0.00     0.182 A 
ATOM      4  N   UNL     1       1.142 -12.088  24.999  1.00  0.00    -0.215 NA
ATOM      5  C   UNL     1       1.217 -11.453  26.209  1.00  0.00     0.226 A 
ATOM      6  N   UNL     1       1.191 -10.083  26.278  1.00  0.00    -0.217 NA
ATOM      7  C   UNL     1       1.089  -9.314  25.152  1.00  0.00     0.152 A 
ATOM      8  C   UNL     1       1.012  -9.976  23.930  1.00  0.00     0.127 A 
ATOM      9  N   UNL     1       0.908  -9.495  22.685  1.00  0.00    -0.340 N 
ATOM     10  H   UNL     1       0.861  -8.501  22.371  1.00  0.00     0.168 HD
ENDROOT
BRANCH   7  11
ATOM     11  N   UNL     1       1.064  -7.890  25.250  1.00  0.00    -0.382 N 
ATOM     12  H   UNL     1       0.257  -7.412  25.707  1.00  0.00     0.158 HD
ATOM     13  H   UNL     1       1.841  -7.305  24.870  1.00  0.00     0.158 HD
ENDBRANCH   7  11
TORSDOF 1
ENDMDL
MODEL 6
REMARK VINA RESULT:    -2.033     24.002     25.034
REMARK INTER + INTRA:          -2.093
REMARK INTER:                  -2.093
REMARK INTRA:                   0.000
REMARK UNBOUND:                 0.000
REMARK SMILES Nc1ncnc2nc[nH]c12
REMARK SMILES IDX 8 1 7 2 6 3 5 4 4 5 3 6 2 7 10 8 9 9 1 11
REMARK H PARENT 9 10 1 12 1 13
REMARK Flexibility Score: inf
ROOT
ATOM      1  C   UNL     1      19.776   4.578  28.139  1.00  0.00     0.199 A 
ATOM      2  N   UNL     1      19.722   3.754  27.057  1.00  0.00    -0.217 NA
ATOM      3  C   UNL     1      20.118   4.564  26.062  1.00  0.00     0.182 A 
ATOM      4  N   UNL     1      20.243   4.235  24.753  1.00  0.00    -0.215 NA
ATOM      5  C   UNL     1      20.664   5.202  23.882  1.00  0.00     0.226 A 
ATOM      6  N   UNL     1      20.948   6.467  24.331  1.00  0.00    -0.217 NA
ATOM      7  C   UNL     1      20.823   6.801  25.650  1.00  0.00     0.152 A 
ATOM      8  C   UNL     1      20.395   5.805  26.524  1.00  0.00     0.127 A 
ATOM      9  N   UNL     1      20.183   5.839  27.845  1.00  0.00    -0.340 N 
ATOM     10  H   UNL     1      20.301   6.639  28.505  1.00  0.00     0.168 HD
ENDROOT
BRANCH   7  11
ATOM     11  N   UNL     1      21.125   8.124  26.094  1.00  0.00    -0.382 N 
ATOM     12  H   UNL     1      20.511   8.920  25.815  1.00  0.00     0.158 HD
ATOM     13  H   UNL     1      21.954   8.320  26.696  1.00  0.00     0.158 HD
ENDBRANCH   7  11
TORSDOF 1
ENDMDL
MODEL 7
REMARK VINA RESULT:    -2.022     19.319     19.686
REMARK INTER + INTRA:          -2.081
REMARK INTER:                  -2.081
REMARK INTRA:                   0.000
REMARK UNBOUND:                 0.000
REMARK SMILES Nc1ncnc2nc[nH]c12
REMARK SMILES IDX 8 1 7 2 6 3 5 4 4 5 3 6 2 7 10 8 9 9 1 11
REMARK H PARENT 9 10 1 12 1 13
REMARK Flexibility Score: inf
ROOT
ATOM      1  C   UNL     1      20.895  -8.302  19.611  1.00  0.00     0.199 A 
ATOM      2  N   UNL     1      20.161  -8.803  20.642  1.00  0.00    -0.217 NA
ATOM      3  C   UNL     1      19.672  -9.939  20.117  1.00  0.00     0.182 A 
ATOM      4  N   UNL     1      18.864 -10.833  20.736  1.00  0.00    -0.215 NA
ATOM      5  C   UNL     1      18.465 -11.937  20.034  1.00  0.00     0.226 A 
ATOM      6  N   UNL     1      18.878 -12.125  18.739  1.00  0.00    -0.217 NA
ATOM      7  C   UNL     1      19.693 -11.224  18.113  1.00  0.00     0.152 A 
ATOM      8  C   UNL     1      20.089 -10.106  18.841  1.00  0.00     0.127 A 
ATOM      9  N   UNL     1      20.870  -9.075  18.496  1.00  0.00    -0.340 N 
ATOM     10  H   UNL     1      21.352  -8.896  17.587  1.00  0.00     0.168 HD
ENDROOT
BRANCH   7  11
ATOM     11  N   UNL     1      20.108 -11.441  16.764  1.00  0.00    -0.382 N 
ATOM     12  H   UNL     1      20.799 -12.191  16.545  1.00  0.00     0.158 HD
ATOM     13  H   UNL     1      19.735 -10.861  15.980  1.00  0.00     0.158 HD
ENDBRANCH   7  11
TORSDOF 1
ENDMDL
MODEL 8
REMARK VINA RESULT:    -1.989      2.459      4.261
REMARK INTER + INTRA:          -2.048
REMARK INTER:                  -2.048
REMARK INTRA:                   0.000
REMARK UNBOUND:                 0.000
REMARK SMILES Nc1ncnc2nc[nH]c12
REMARK SMILES IDX 8 1 7 2 6 3 5 4 4 5 3 6 2 7 10 8 9 9 1 11
REMARK H PARENT 9 10 1 12 1 13
REMARK Flexibility Score: inf
ROOT
ATOM      1  C   UNL     1       1.187 -12.113  26.669  1.00  0.00     0.199 A 
ATOM      2  N   UNL     1       2.220 -12.061  27.554  1.00  0.00    -0.217 NA
ATOM      3  C   UNL     1       2.543 -10.757  27.538  1.00  0.00     0.182 A 
ATOM      4  N   UNL     1       3.525 -10.158  28.254  1.00  0.00    -0.215 NA
ATOM      5  C   UNL     1       3.705  -8.810  28.103  1.00  0.00     0.226 A 
ATOM      6  N   UNL     1       2.908  -8.094  27.246  1.00  0.00    -0.217 NA
ATOM      7  C   UNL     1       1.917  -8.696  26.522  1.00  0.00     0.152 A 
ATOM      8  C   UNL     1       1.747 -10.068  26.688  1.00  0.00     0.127 A 
ATOM      9  N   UNL     1       0.875 -10.911  26.122  1.00  0.00    -0.340 N 
ATOM     10  H   UNL     1       0.126 -10.706  25.424  1.00  0.00     0.168 HD
ENDROOT
BRANCH   7  11
ATOM     11  N   UNL     1       1.100  -7.930  25.637  1.00  0.00    -0.382 N 
ATOM     12  H   UNL     1       1.541  -7.262  24.967  1.00  0.00     0.158 HD
ATOM     13  H   UNL     1       0.060  -8.019  25.641  1.00  0.00     0.158 HD
ENDBRANCH   7  11
TORSDOF 1
ENDMDL
MODEL 9
REMARK VINA RESULT:    -1.954      2.591      3.624
REMARK INTER + INTRA:          -2.011
REMARK INTER:                  -2.011
REMARK INTRA:                   0.000
REMARK UNBOUND:                 0.000
REMARK SMILES Nc1ncnc2nc[nH]c12
REMARK SMILES IDX 8 1 7 2 6 3 5 4 4 5 3 6 2 7 10 8 9 9 1 11
REMARK H PARENT 9 10 1 12 1 13
REMARK Flexibility Score: inf
ROOT
ATOM      1  C   UNL     1       2.071 -11.758  23.365  1.00  0.00     0.199 A 
ATOM      2  N   UNL     1       1.124 -11.884  24.333  1.00  0.00    -0.217 NA
ATOM      3  C   UNL     1       1.866 -11.945  25.451  1.00  0.00     0.182 A 
ATOM      4  N   UNL     1       1.407 -12.074  26.720  1.00  0.00    -0.215 NA
ATOM      5  C   UNL     1       2.322 -12.119  27.736  1.00  0.00     0.226 A 
ATOM      6  N   UNL     1       3.665 -12.036  27.467  1.00  0.00    -0.217 NA
ATOM      7  C   UNL     1       4.130 -11.906  26.188  1.00  0.00     0.152 A 
ATOM      8  C   UNL     1       3.186 -11.861  25.166  1.00  0.00     0.127 A 
ATOM      9  N   UNL     1       3.342 -11.742  23.842  1.00  0.00    -0.340 N 
ATOM     10  H   UNL     1       4.226 -11.656  23.294  1.00  0.00     0.168 HD
ENDROOT
BRANCH   7  11
ATOM     11  N   UNL     1       5.532 -11.822  25.933  1.00  0.00    -0.382 N 
ATOM     12  H   UNL     1       5.899 -11.113  25.261  1.00  0.00     0.158 HD
ATOM     13  H   UNL     1       6.210 -12.460  26.406  1.00  0.00     0.158 HD
ENDBRANCH   7  11
TORSDOF 1
ENDMDL
