MODEL 1
REMARK VINA RESULT:    -1.928      0.000      0.000
REMARK INTER + INTRA:          -4.509
REMARK INTER:                  -3.618
REMARK INTRA:                  -0.891
REMARK UNBOUND:                -0.891
REMARK SMILES O=C([O-])CCCCCCCCCCCCCCC(=O)[O-]
REMARK SMILES IDX 10 1 9 2 8 3 7 4 6 5 5 6 4 7 2 8 1 9 3 10 11 11 12 12 13 13
REMARK SMILES IDX 14 14 15 15 16 16 17 17 18 18 19 19 20 20
REMARK H PARENT
REMARK Flexibility Score: inf
ROOT
ATOM      1  C   UNL     1     -21.254   0.475   6.118  1.00  0.00     0.000 C 
ENDROOT
BRANCH   1   2
ATOM      2  C   UNL     1     -20.991   1.605   7.133  1.00  0.00     0.000 C 
BRANCH   2   3
ATOM      3  C   UNL     1     -21.399   1.290   8.586  1.00  0.00     0.000 C 
BRANCH   3   4
ATOM      4  C   UNL     1     -22.393   2.286   9.210  1.00  0.00     0.000 C 
BRANCH   4   5
ATOM      5  C   UNL     1     -22.831   1.884  10.627  1.00  0.00     0.000 C 
BRANCH   5   6
ATOM      6  C   UNL     1     -21.823   0.915  11.257  1.00  0.00     0.006 C 
BRANCH   6   7
ATOM      7  C   UNL     1     -21.807   1.055  12.783  1.00  0.00     0.053 C 
BRANCH   7   8
ATOM      8  C   UNL     1     -21.438  -0.246  13.423  1.00  0.00     0.041 C 
ATOM      9  O   UNL     1     -21.393  -0.344  14.678  1.00  0.00    -0.550 OA
ATOM     10  O   UNL     1     -21.193  -1.364  12.636  1.00  0.00    -0.550 OA
ENDBRANCH   7   8
ENDBRANCH   6   7
ENDBRANCH   5   6
ENDBRANCH   4   5
ENDBRANCH   3   4
ENDBRANCH   2   3
ENDBRANCH   1   2
BRANCH   1  11
ATOM     11  C   UNL     1     -21.841  -0.815   6.720  1.00  0.00     0.000 C 
BRANCH  11  12
ATOM     12  C   UNL     1     -20.761  -1.803   7.182  1.00  0.00     0.000 C 
BRANCH  12  13
ATOM     13  C   UNL     1     -20.626  -1.796   8.709  1.00  0.00     0.000 C 
BRANCH  13  14
ATOM     14  C   UNL     1     -20.227  -3.178   9.236  1.00  0.00     0.000 C 
BRANCH  14  15
ATOM     15  C   UNL     1     -19.857  -4.121   8.081  1.00  0.00     0.000 C 
BRANCH  15  16
ATOM     16  C   UNL     1     -20.132  -5.601   8.406  1.00  0.00     0.006 C 
BRANCH  16  17
ATOM     17  C   UNL     1     -21.395  -6.172   7.742  1.00  0.00     0.053 C 
BRANCH  17  18
ATOM     18  C   UNL     1     -22.467  -6.477   8.742  1.00  0.00     0.041 C 
ATOM     19  O   UNL     1     -22.428  -5.963   9.890  1.00  0.00    -0.550 OA
ATOM     20  O   UNL     1     -23.492  -7.358   8.417  1.00  0.00    -0.550 OA
ENDBRANCH  17  18
ENDBRANCH  16  17
ENDBRANCH  15  16
ENDBRANCH  14  15
ENDBRANCH  13  14
ENDBRANCH  12  13
ENDBRANCH  11  12
ENDBRANCH   1  11
TORSDOF 15
ENDMDL
MODEL 2
REMARK VINA RESULT:    -1.907      3.257      7.179
REMARK INTER + INTRA:          -4.469
REMARK INTER:                  -3.490
REMARK INTRA:                  -0.980
REMARK UNBOUND:                -0.891
REMARK SMILES O=C([O-])CCCCCCCCCCCCCCC(=O)[O-]
REMARK SMILES IDX 10 1 9 2 8 3 7 4 6 5 5 6 4 7 2 8 1 9 3 10 11 11 12 12 13 13
REMARK SMILES IDX 14 14 15 15 16 16 17 17 18 18 19 19 20 20
REMARK H PARENT
REMARK Flexibility Score: inf
ROOT
ATOM      1  C   UNL     1     -20.530  -0.548   6.373  1.00  0.00     0.000 C 
ENDROOT
BRANCH   1   2
ATOM      2  C   UNL     1     -21.051  -1.851   7.011  1.00  0.00     0.000 C 
BRANCH   2   3
ATOM      3  C   UNL     1     -20.369  -2.254   8.333  1.00  0.00     0.000 C 
BRANCH   3   4
ATOM      4  C   UNL     1     -20.939  -1.574   9.591  1.00  0.00     0.000 C 
BRANCH   4   5
ATOM      5  C   UNL     1     -20.175  -1.948  10.870  1.00  0.00     0.000 C 
BRANCH   5   6
ATOM      6  C   UNL     1     -21.126  -2.038  12.069  1.00  0.00     0.006 C 
BRANCH   6   7
ATOM      7  C   UNL     1     -21.592  -0.646  12.507  1.00  0.00     0.053 C 
BRANCH   7   8
ATOM      8  C   UNL     1     -21.590  -0.538  13.999  1.00  0.00     0.041 C 
ATOM      9  O   UNL     1     -22.672  -0.600  14.640  1.00  0.00    -0.550 OA
ATOM     10  O   UNL     1     -20.388  -0.421  14.685  1.00  0.00    -0.550 OA
ENDBRANCH   7   8
ENDBRANCH   6   7
ENDBRANCH   5   6
ENDBRANCH   4   5
ENDBRANCH   3   4
ENDBRANCH   2   3
ENDBRANCH   1   2
BRANCH   1  11
ATOM     11  C   UNL     1     -21.561   0.591   6.290  1.00  0.00     0.000 C 
BRANCH  11  12
ATOM     12  C   UNL     1     -21.235   1.762   7.227  1.00  0.00     0.000 C 
BRANCH  12  13
ATOM     13  C   UNL     1     -21.713   1.473   8.655  1.00  0.00     0.000 C 
BRANCH  13  14
ATOM     14  C   UNL     1     -22.466   2.673   9.240  1.00  0.00     0.000 C 
BRANCH  14  15
ATOM     15  C   UNL     1     -22.383   3.885   8.301  1.00  0.00     0.000 C 
BRANCH  15  16
ATOM     16  C   UNL     1     -22.176   5.212   9.054  1.00  0.00     0.006 C 
BRANCH  16  17
ATOM     17  C   UNL     1     -20.948   6.015   8.597  1.00  0.00     0.053 C 
BRANCH  17  18
ATOM     18  C   UNL     1     -19.991   6.268   9.721  1.00  0.00     0.041 C 
ATOM     19  O   UNL     1     -19.054   7.096   9.581  1.00  0.00    -0.550 OA
ATOM     20  O   UNL     1     -20.114   5.562  10.912  1.00  0.00    -0.550 OA
ENDBRANCH  17  18
ENDBRANCH  16  17
ENDBRANCH  15  16
ENDBRANCH  14  15
ENDBRANCH  13  14
ENDBRANCH  12  13
ENDBRANCH  11  12
ENDBRANCH   1  11
TORSDOF 15
ENDMDL
MODEL 3
REMARK VINA RESULT:    -1.864      3.266      5.298
REMARK INTER + INTRA:          -4.389
REMARK INTER:                  -3.420
REMARK INTRA:                  -0.969
REMARK UNBOUND:                -0.891
REMARK SMILES O=C([O-])CCCCCCCCCCCCCCC(=O)[O-]
REMARK SMILES IDX 10 1 9 2 8 3 7 4 6 5 5 6 4 7 2 8 1 9 3 10 11 11 12 12 13 13
REMARK SMILES IDX 14 14 15 15 16 16 17 17 18 18 19 19 20 20
REMARK H PARENT
REMARK Flexibility Score: inf
ROOT
ATOM      1  C   UNL     1     -20.394   0.777   6.862  1.00  0.00     0.000 C 
ENDROOT
BRANCH   1   2
ATOM      2  C   UNL     1     -21.386   1.861   7.332  1.00  0.00     0.000 C 
BRANCH   2   3
ATOM      3  C   UNL     1     -21.803   1.771   8.813  1.00  0.00     0.000 C 
BRANCH   3   4
ATOM      4  C   UNL     1     -22.569   2.995   9.347  1.00  0.00     0.000 C 
BRANCH   4   5
ATOM      5  C   UNL     1     -22.564   4.177   8.365  1.00  0.00     0.000 C 
BRANCH   5   6
ATOM      6  C   UNL     1     -22.258   5.492   9.091  1.00  0.00     0.006 C 
BRANCH   6   7
ATOM      7  C   UNL     1     -20.907   6.062   8.651  1.00  0.00     0.053 C 
BRANCH   7   8
ATOM      8  C   UNL     1     -19.989   6.200   9.825  1.00  0.00     0.041 C 
ATOM      9  O   UNL     1     -20.237   5.590  10.898  1.00  0.00    -0.550 OA
ATOM     10  O   UNL     1     -18.833   6.962   9.717  1.00  0.00    -0.550 OA
ENDBRANCH   7   8
ENDBRANCH   6   7
ENDBRANCH   5   6
ENDBRANCH   4   5
ENDBRANCH   3   4
ENDBRANCH   2   3
ENDBRANCH   1   2
BRANCH   1  11
ATOM     11  C   UNL     1     -21.031  -0.395   6.095  1.00  0.00     0.000 C 
BRANCH  11  12
ATOM     12  C   UNL     1     -21.074  -1.692   6.914  1.00  0.00     0.000 C 
BRANCH  12  13
ATOM     13  C   UNL     1     -20.846  -1.409   8.404  1.00  0.00     0.000 C 
BRANCH  13  14
ATOM     14  C   UNL     1     -20.230  -2.623   9.109  1.00  0.00     0.000 C 
BRANCH  14  15
ATOM     15  C   UNL     1     -19.890  -2.297  10.570  1.00  0.00     0.000 C 
BRANCH  15  16
ATOM     16  C   UNL     1     -20.860  -1.278  11.197  1.00  0.00     0.006 C 
BRANCH  16  17
ATOM     17  C   UNL     1     -21.287  -1.612  12.635  1.00  0.00     0.053 C 
BRANCH  17  18
ATOM     18  C   UNL     1     -21.433  -0.382  13.478  1.00  0.00     0.041 C 
ATOM     19  O   UNL     1     -21.120  -0.408  14.697  1.00  0.00    -0.550 OA
ATOM     20  O   UNL     1     -21.949   0.783  12.925  1.00  0.00    -0.550 OA
ENDBRANCH  17  18
ENDBRANCH  16  17
ENDBRANCH  15  16
ENDBRANCH  14  15
ENDBRANCH  13  14
ENDBRANCH  12  13
ENDBRANCH  11  12
ENDBRANCH   1  11
TORSDOF 15
ENDMDL
MODEL 4
REMARK VINA RESULT:    -1.859      0.592      6.516
REMARK INTER + INTRA:          -4.381
REMARK INTER:                  -3.414
REMARK INTRA:                  -0.967
REMARK UNBOUND:                -0.891
REMARK SMILES O=C([O-])CCCCCCCCCCCCCCC(=O)[O-]
REMARK SMILES IDX 10 1 9 2 8 3 7 4 6 5 5 6 4 7 2 8 1 9 3 10 11 11 12 12 13 13
REMARK SMILES IDX 14 14 15 15 16 16 17 17 18 18 19 19 20 20
REMARK H PARENT
REMARK Flexibility Score: inf
ROOT
ATOM      1  C   UNL     1     -21.387  -0.048   6.425  1.00  0.00     0.000 C 
ENDROOT
BRANCH   1   2
ATOM      2  C   UNL     1     -21.139  -1.462   6.988  1.00  0.00     0.000 C 
BRANCH   2   3
ATOM      3  C   UNL     1     -20.707  -1.514   8.467  1.00  0.00     0.000 C 
BRANCH   3   4
ATOM      4  C   UNL     1     -20.465  -2.928   9.023  1.00  0.00     0.000 C 
BRANCH   4   5
ATOM      5  C   UNL     1     -20.002  -3.921   7.946  1.00  0.00     0.000 C 
BRANCH   5   6
ATOM      6  C   UNL     1     -20.049  -5.361   8.472  1.00  0.00     0.006 C 
BRANCH   6   7
ATOM      7  C   UNL     1     -21.167  -6.158   7.792  1.00  0.00     0.053 C 
BRANCH   7   8
ATOM      8  C   UNL     1     -22.285  -6.414   8.753  1.00  0.00     0.041 C 
ATOM      9  O   UNL     1     -22.282  -5.871   9.889  1.00  0.00    -0.550 OA
ATOM     10  O   UNL     1     -23.357  -7.212   8.374  1.00  0.00    -0.550 OA
ENDBRANCH   7   8
ENDBRANCH   6   7
ENDBRANCH   5   6
ENDBRANCH   4   5
ENDBRANCH   3   4
ENDBRANCH   2   3
ENDBRANCH   1   2
BRANCH   1  11
ATOM     11  C   UNL     1     -20.710   1.090   7.210  1.00  0.00     0.000 C 
BRANCH  11  12
ATOM     12  C   UNL     1     -21.567   2.362   7.276  1.00  0.00     0.000 C 
BRANCH  12  13
ATOM     13  C   UNL     1     -22.140   2.567   8.683  1.00  0.00     0.000 C 
BRANCH  13  14
ATOM     14  C   UNL     1     -21.706   1.439   9.626  1.00  0.00     0.000 C 
BRANCH  14  15
ATOM     15  C   UNL     1     -22.540   1.448  10.915  1.00  0.00     0.000 C 
BRANCH  15  16
ATOM     16  C   UNL     1     -21.674   1.522  12.187  1.00  0.00     0.006 C 
BRANCH  16  17
ATOM     17  C   UNL     1     -22.192   0.669  13.356  1.00  0.00     0.053 C 
BRANCH  17  18
ATOM     18  C   UNL     1     -21.268  -0.466  13.676  1.00  0.00     0.041 C 
ATOM     19  O   UNL     1     -21.180  -1.450  12.897  1.00  0.00    -0.550 OA
ATOM     20  O   UNL     1     -20.531  -0.452  14.854  1.00  0.00    -0.550 OA
ENDBRANCH  17  18
ENDBRANCH  16  17
ENDBRANCH  15  16
ENDBRANCH  14  15
ENDBRANCH  13  14
ENDBRANCH  12  13
ENDBRANCH  11  12
ENDBRANCH   1  11
TORSDOF 15
ENDMDL
MODEL 5
REMARK VINA RESULT:    -1.810      2.525      6.578
REMARK INTER + INTRA:          -4.287
REMARK INTER:                  -2.674
REMARK INTRA:                  -1.614
REMARK UNBOUND:                -0.891
REMARK SMILES O=C([O-])CCCCCCCCCCCCCCC(=O)[O-]
REMARK SMILES IDX 10 1 9 2 8 3 7 4 6 5 5 6 4 7 2 8 1 9 3 10 11 11 12 12 13 13
REMARK SMILES IDX 14 14 15 15 16 16 17 17 18 18 19 19 20 20
REMARK H PARENT
REMARK Flexibility Score: inf
ROOT
ATOM      1  C   UNL     1     -21.067  -0.329  13.907  1.00  0.00     0.000 C 
ENDROOT
BRANCH   1   2
ATOM      2  C   UNL     1     -21.801  -1.429  13.115  1.00  0.00     0.000 C 
BRANCH   2   3
ATOM      3  C   UNL     1     -20.912  -2.263  12.171  1.00  0.00     0.000 C 
BRANCH   3   4
ATOM      4  C   UNL     1     -20.420  -1.518  10.917  1.00  0.00     0.000 C 
BRANCH   4   5
ATOM      5  C   UNL     1     -20.876  -2.184   9.610  1.00  0.00     0.000 C 
BRANCH   5   6
ATOM      6  C   UNL     1     -19.853  -3.224   9.139  1.00  0.00     0.006 C 
BRANCH   6   7
ATOM      7  C   UNL     1     -20.341  -3.942   7.877  1.00  0.00     0.053 C 
BRANCH   7   8
ATOM      8  C   UNL     1     -20.458  -5.413   8.125  1.00  0.00     0.041 C 
ATOM      9  O   UNL     1     -19.578  -6.201   7.689  1.00  0.00    -0.550 OA
ATOM     10  O   UNL     1     -21.512  -5.908   8.882  1.00  0.00    -0.550 OA
ENDBRANCH   7   8
ENDBRANCH   6   7
ENDBRANCH   5   6
ENDBRANCH   4   5
ENDBRANCH   3   4
ENDBRANCH   2   3
ENDBRANCH   1   2
BRANCH   1  11
ATOM     11  C   UNL     1     -21.417   1.112  13.494  1.00  0.00     0.000 C 
BRANCH  11  12
ATOM     12  C   UNL     1     -22.339   1.174  12.268  1.00  0.00     0.000 C 
BRANCH  12  13
ATOM     13  C   UNL     1     -21.668   1.927  11.113  1.00  0.00     0.000 C 
BRANCH  13  14
ATOM     14  C   UNL     1     -22.136   1.390   9.756  1.00  0.00     0.000 C 
BRANCH  14  15
ATOM     15  C   UNL     1     -22.082   2.486   8.682  1.00  0.00     0.000 C 
BRANCH  15  16
ATOM     16  C   UNL     1     -21.541   1.976   7.334  1.00  0.00     0.006 C 
BRANCH  16  17
ATOM     17  C   UNL     1     -20.553   0.804   7.451  1.00  0.00     0.053 C 
BRANCH  17  18
ATOM     18  C   UNL     1     -20.874  -0.300   6.491  1.00  0.00     0.041 C 
ATOM     19  O   UNL     1     -20.035  -0.644   5.618  1.00  0.00    -0.550 OA
ATOM     20  O   UNL     1     -22.113  -0.925   6.539  1.00  0.00    -0.550 OA
ENDBRANCH  17  18
ENDBRANCH  16  17
ENDBRANCH  15  16
ENDBRANCH  14  15
ENDBRANCH  13  14
ENDBRANCH  12  13
ENDBRANCH  11  12
ENDBRANCH   1  11
TORSDOF 15
ENDMDL
MODEL 6
REMARK VINA RESULT:    -1.772      3.898      7.884
REMARK INTER + INTRA:          -4.218
REMARK INTER:                  -2.599
REMARK INTRA:                  -1.619
REMARK UNBOUND:                -0.891
REMARK SMILES O=C([O-])CCCCCCCCCCCCCCC(=O)[O-]
REMARK SMILES IDX 10 1 9 2 8 3 7 4 6 5 5 6 4 7 2 8 1 9 3 10 11 11 12 12 13 13
REMARK SMILES IDX 14 14 15 15 16 16 17 17 18 18 19 19 20 20
REMARK H PARENT
REMARK Flexibility Score: inf
ROOT
ATOM      1  C   UNL     1     -20.872  -1.505  13.204  1.00  0.00     0.000 C 
ENDROOT
BRANCH   1   2
ATOM      2  C   UNL     1     -21.331  -2.124  11.868  1.00  0.00     0.000 C 
BRANCH   2   3
ATOM      3  C   UNL     1     -20.263  -2.153  10.756  1.00  0.00     0.000 C 
BRANCH   3   4
ATOM      4  C   UNL     1     -20.707  -1.545   9.414  1.00  0.00     0.000 C 
BRANCH   4   5
ATOM      5  C   UNL     1     -20.559  -2.522   8.238  1.00  0.00     0.000 C 
BRANCH   5   6
ATOM      6  C   UNL     1     -20.594  -1.777   6.899  1.00  0.00     0.006 C 
BRANCH   6   7
ATOM      7  C   UNL     1     -21.795  -0.829   6.828  1.00  0.00     0.053 C 
BRANCH   7   8
ATOM      8  C   UNL     1     -21.361   0.532   6.385  1.00  0.00     0.041 C 
ATOM      9  O   UNL     1     -22.051   1.177   5.551  1.00  0.00    -0.550 OA
ATOM     10  O   UNL     1     -20.224   1.112   6.932  1.00  0.00    -0.550 OA
ENDBRANCH   7   8
ENDBRANCH   6   7
ENDBRANCH   5   6
ENDBRANCH   4   5
ENDBRANCH   3   4
ENDBRANCH   2   3
ENDBRANCH   1   2
BRANCH   1  11
ATOM     11  C   UNL     1     -21.845  -0.480  13.813  1.00  0.00     0.000 C 
BRANCH  11  12
ATOM     12  C   UNL     1     -21.528   0.964  13.400  1.00  0.00     0.000 C 
BRANCH  12  13
ATOM     13  C   UNL     1     -22.396   1.400  12.214  1.00  0.00     0.000 C 
BRANCH  13  14
ATOM     14  C   UNL     1     -21.534   1.750  10.997  1.00  0.00     0.000 C 
BRANCH  14  15
ATOM     15  C   UNL     1     -22.354   1.671   9.701  1.00  0.00     0.000 C 
BRANCH  15  16
ATOM     16  C   UNL     1     -22.942   3.030   9.281  1.00  0.00     0.006 C 
BRANCH  16  17
ATOM     17  C   UNL     1     -22.048   3.841   8.330  1.00  0.00     0.053 C 
BRANCH  17  18
ATOM     18  C   UNL     1     -21.955   5.280   8.735  1.00  0.00     0.041 C 
ATOM     19  O   UNL     1     -22.676   6.145   8.173  1.00  0.00    -0.550 OA
ATOM     20  O   UNL     1     -21.045   5.671   9.710  1.00  0.00    -0.550 OA
ENDBRANCH  17  18
ENDBRANCH  16  17
ENDBRANCH  15  16
ENDBRANCH  14  15
ENDBRANCH  13  14
ENDBRANCH  12  13
ENDBRANCH  11  12
ENDBRANCH   1  11
TORSDOF 15
ENDMDL
MODEL 7
REMARK VINA RESULT:    -1.726      2.517      4.821
REMARK INTER + INTRA:          -4.130
REMARK INTER:                  -3.028
REMARK INTRA:                  -1.102
REMARK UNBOUND:                -0.891
REMARK SMILES O=C([O-])CCCCCCCCCCCCCCC(=O)[O-]
REMARK SMILES IDX 10 1 9 2 8 3 7 4 6 5 5 6 4 7 2 8 1 9 3 10 11 11 12 12 13 13
REMARK SMILES IDX 14 14 15 15 16 16 17 17 18 18 19 19 20 20
REMARK H PARENT
REMARK Flexibility Score: inf
ROOT
ATOM      1  C   UNL     1     -21.310   0.721  13.598  1.00  0.00     0.000 C 
ENDROOT
BRANCH   1   2
ATOM      2  C   UNL     1     -21.701   1.713  12.484  1.00  0.00     0.000 C 
BRANCH   2   3
ATOM      3  C   UNL     1     -22.300   1.073  11.216  1.00  0.00     0.000 C 
BRANCH   3   4
ATOM      4  C   UNL     1     -22.034   1.846   9.912  1.00  0.00     0.000 C 
BRANCH   4   5
ATOM      5  C   UNL     1     -21.519   0.946   8.778  1.00  0.00     0.000 C 
BRANCH   5   6
ATOM      6  C   UNL     1     -21.191   1.772   7.529  1.00  0.00     0.006 C 
BRANCH   6   7
ATOM      7  C   UNL     1     -21.664   1.060   6.259  1.00  0.00     0.053 C 
BRANCH   7   8
ATOM      8  C   UNL     1     -21.107  -0.327   6.198  1.00  0.00     0.041 C 
ATOM      9  O   UNL     1     -19.917  -0.517   5.832  1.00  0.00    -0.550 OA
ATOM     10  O   UNL     1     -21.886  -1.407   6.595  1.00  0.00    -0.550 OA
ENDBRANCH   7   8
ENDBRANCH   6   7
ENDBRANCH   5   6
ENDBRANCH   4   5
ENDBRANCH   3   4
ENDBRANCH   2   3
ENDBRANCH   1   2
BRANCH   1  11
ATOM     11  C   UNL     1     -22.086  -0.608  13.584  1.00  0.00     0.000 C 
BRANCH  11  12
ATOM     12  C   UNL     1     -21.188  -1.821  13.304  1.00  0.00     0.000 C 
BRANCH  12  13
ATOM     13  C   UNL     1     -21.376  -2.324  11.867  1.00  0.00     0.000 C 
BRANCH  13  14
ATOM     14  C   UNL     1     -20.275  -1.790  10.946  1.00  0.00     0.000 C 
BRANCH  14  15
ATOM     15  C   UNL     1     -20.552  -2.163   9.482  1.00  0.00     0.000 C 
BRANCH  15  16
ATOM     16  C   UNL     1     -19.700  -3.349   8.995  1.00  0.00     0.006 C 
BRANCH  16  17
ATOM     17  C   UNL     1     -20.340  -4.166   7.861  1.00  0.00     0.053 C 
BRANCH  17  18
ATOM     18  C   UNL     1     -20.535  -5.601   8.243  1.00  0.00     0.041 C 
ATOM     19  O   UNL     1     -19.546  -6.376   8.319  1.00  0.00    -0.550 OA
ATOM     20  O   UNL     1     -21.813  -6.090   8.482  1.00  0.00    -0.550 OA
ENDBRANCH  17  18
ENDBRANCH  16  17
ENDBRANCH  15  16
ENDBRANCH  14  15
ENDBRANCH  13  14
ENDBRANCH  12  13
ENDBRANCH  11  12
ENDBRANCH   1  11
TORSDOF 15
ENDMDL
MODEL 8
REMARK VINA RESULT:    -1.696      1.266      2.147
REMARK INTER + INTRA:          -4.075
REMARK INTER:                  -3.247
REMARK INTRA:                  -0.828
REMARK UNBOUND:                -0.891
REMARK SMILES O=C([O-])CCCCCCCCCCCCCCC(=O)[O-]
REMARK SMILES IDX 10 1 9 2 8 3 7 4 6 5 5 6 4 7 2 8 1 9 3 10 11 11 12 12 13 13
REMARK SMILES IDX 14 14 15 15 16 16 17 17 18 18 19 19 20 20
REMARK H PARENT
REMARK Flexibility Score: inf
ROOT
ATOM      1  C   UNL     1     -21.649   2.161   7.070  1.00  0.00     0.000 C 
ENDROOT
BRANCH   1   2
ATOM      2  C   UNL     1     -21.770   2.920   8.407  1.00  0.00     0.000 C 
BRANCH   2   3
ATOM      3  C   UNL     1     -22.899   2.434   9.338  1.00  0.00     0.000 C 
BRANCH   3   4
ATOM      4  C   UNL     1     -22.448   1.488  10.465  1.00  0.00     0.000 C 
BRANCH   4   5
ATOM      5  C   UNL     1     -21.508   2.166  11.473  1.00  0.00     0.000 C 
BRANCH   5   6
ATOM      6  C   UNL     1     -21.706   1.590  12.880  1.00  0.00     0.006 C 
BRANCH   6   7
ATOM      7  C   UNL     1     -21.754   0.060  12.846  1.00  0.00     0.053 C 
BRANCH   7   8
ATOM      8  C   UNL     1     -21.584  -0.500  14.223  1.00  0.00     0.041 C 
ATOM      9  O   UNL     1     -22.529  -1.125  14.774  1.00  0.00    -0.550 OA
ATOM     10  O   UNL     1     -20.366  -0.376  14.879  1.00  0.00    -0.550 OA
ENDBRANCH   7   8
ENDBRANCH   6   7
ENDBRANCH   5   6
ENDBRANCH   4   5
ENDBRANCH   3   4
ENDBRANCH   2   3
ENDBRANCH   1   2
BRANCH   1  11
ATOM     11  C   UNL     1     -20.551   1.084   7.033  1.00  0.00     0.000 C 
BRANCH  11  12
ATOM     12  C   UNL     1     -20.992  -0.195   6.307  1.00  0.00     0.000 C 
BRANCH  12  13
ATOM     13  C   UNL     1     -20.969  -1.401   7.253  1.00  0.00     0.000 C 
BRANCH  13  14
ATOM     14  C   UNL     1     -21.066  -0.957   8.717  1.00  0.00     0.000 C 
BRANCH  14  15
ATOM     15  C   UNL     1     -20.330  -1.939   9.640  1.00  0.00     0.000 C 
BRANCH  15  16
ATOM     16  C   UNL     1     -20.751  -3.403   9.413  1.00  0.00     0.006 C 
BRANCH  16  17
ATOM     17  C   UNL     1     -19.922  -4.142   8.350  1.00  0.00     0.053 C 
BRANCH  17  18
ATOM     18  C   UNL     1     -20.361  -5.564   8.184  1.00  0.00     0.041 C 
ATOM     19  O   UNL     1     -19.638  -6.381   7.556  1.00  0.00    -0.550 OA
ATOM     20  O   UNL     1     -21.585  -5.979   8.692  1.00  0.00    -0.550 OA
ENDBRANCH  17  18
ENDBRANCH  16  17
ENDBRANCH  15  16
ENDBRANCH  14  15
ENDBRANCH  13  14
ENDBRANCH  12  13
ENDBRANCH  11  12
ENDBRANCH   1  11
TORSDOF 15
ENDMDL
MODEL 9
REMARK VINA RESULT:    -1.604      1.154      6.185
REMARK INTER + INTRA:          -3.901
REMARK INTER:                  -3.437
REMARK INTRA:                  -0.464
REMARK UNBOUND:                -0.891
REMARK SMILES O=C([O-])CCCCCCCCCCCCCCC(=O)[O-]
REMARK SMILES IDX 10 1 9 2 8 3 7 4 6 5 5 6 4 7 2 8 1 9 3 10 11 11 12 12 13 13
REMARK SMILES IDX 14 14 15 15 16 16 17 17 18 18 19 19 20 20
REMARK H PARENT
REMARK Flexibility Score: inf
ROOT
ATOM      1  C   UNL     1     -21.443   0.794   6.175  1.00  0.00     0.000 C 
ENDROOT
BRANCH   1   2
ATOM      2  C   UNL     1     -20.616  -0.507   6.134  1.00  0.00     0.000 C 
BRANCH   2   3
ATOM      3  C   UNL     1     -21.005  -1.566   7.185  1.00  0.00     0.000 C 
BRANCH   3   4
ATOM      4  C   UNL     1     -21.019  -1.061   8.639  1.00  0.00     0.000 C 
BRANCH   4   5
ATOM      5  C   UNL     1     -20.309  -2.016   9.610  1.00  0.00     0.000 C 
BRANCH   5   6
ATOM      6  C   UNL     1     -20.772  -3.462   9.392  1.00  0.00     0.006 C 
BRANCH   6   7
ATOM      7  C   UNL     1     -19.921  -4.157   8.326  1.00  0.00     0.053 C 
BRANCH   7   8
ATOM      8  C   UNL     1     -20.354  -5.579   8.155  1.00  0.00     0.041 C 
ATOM      9  O   UNL     1     -19.606  -6.403   7.566  1.00  0.00    -0.550 OA
ATOM     10  O   UNL     1     -21.562  -6.006   8.692  1.00  0.00    -0.550 OA
ENDBRANCH   7   8
ENDBRANCH   6   7
ENDBRANCH   5   6
ENDBRANCH   4   5
ENDBRANCH   3   4
ENDBRANCH   2   3
ENDBRANCH   1   2
BRANCH   1  11
ATOM     11  C   UNL     1     -21.039   1.785   7.280  1.00  0.00     0.000 C 
BRANCH  11  12
ATOM     12  C   UNL     1     -21.918   3.044   7.304  1.00  0.00     0.000 C 
BRANCH  12  13
ATOM     13  C   UNL     1     -22.258   3.449   8.743  1.00  0.00     0.000 C 
BRANCH  13  14
ATOM     14  C   UNL     1     -22.635   2.227   9.588  1.00  0.00     0.000 C 
BRANCH  14  15
ATOM     15  C   UNL     1     -21.725   2.107  10.819  1.00  0.00     0.000 C 
BRANCH  15  16
ATOM     16  C   UNL     1     -21.894   0.768  11.559  1.00  0.00     0.006 C 
BRANCH  16  17
ATOM     17  C   UNL     1     -21.685   0.853  13.079  1.00  0.00     0.053 C 
BRANCH  17  18
ATOM     18  C   UNL     1     -21.564  -0.501  13.708  1.00  0.00     0.041 C 
ATOM     19  O   UNL     1     -21.781  -0.650  14.938  1.00  0.00    -0.550 OA
ATOM     20  O   UNL     1     -21.178  -1.592  12.940  1.00  0.00    -0.550 OA
ENDBRANCH  17  18
ENDBRANCH  16  17
ENDBRANCH  15  16
ENDBRANCH  14  15
ENDBRANCH  13  14
ENDBRANCH  12  13
ENDBRANCH  11  12
ENDBRANCH   1  11
TORSDOF 15
ENDMDL
