MODEL 1
REMARK VINA RESULT:    -3.394      0.000      0.000
REMARK INTER + INTRA:          -5.341
REMARK INTER:                  -4.981
REMARK INTRA:                  -0.360
REMARK UNBOUND:                -0.360
REMARK SMILES C=C1C=C[C@H](C(C)C)CCC(C)=CCC1
REMARK SMILES IDX 3 1 4 2 5 3 9 4 10 5 11 6 12 7 13 8 6 10 7 11 8 12 2 13 1 14
REMARK SMILES IDX 15 15 14 16
REMARK H PARENT
REMARK Flexibility Score: 70.00
ROOT
ATOM      1  C   UNL     1      21.164  63.138  17.919  1.00  0.00    -0.001 C 
ATOM      2  C   UNL     1      19.996  63.497  17.359  1.00  0.00    -0.023 C 
ENDROOT
BRANCH   2   3
ATOM      3  C   UNL     1      19.694  64.040  15.968  1.00  0.00     0.014 C 
BRANCH   3   4
ATOM      4  C   UNL     1      19.865  63.041  14.792  1.00  0.00     0.012 C 
BRANCH   4   5
ATOM      5  C   UNL     1      21.203  63.064  14.035  1.00  0.00     0.031 C 
BRANCH   5   6
ATOM      6  C   UNL     1      21.598  64.495  13.734  1.00  0.00    -0.077 C 
ATOM      7  C   UNL     1      20.768  65.284  12.755  1.00  0.00     0.039 C 
ATOM      8  C   UNL     1      22.606  65.122  14.379  1.00  0.00    -0.028 CG0
ATOM      9  G   UNL     1      23.556  64.454  15.343  1.00  0.00     0.000 G0
ENDBRANCH   5   6
ENDBRANCH   4   5
ENDBRANCH   3   4
BRANCH   3  10
ATOM     10  C   UNL     1      18.515  65.061  15.936  1.00  0.00    -0.010 C 
ATOM     11  C   UNL     1      17.399  64.635  14.969  1.00  0.00     0.008 C 
ATOM     12  C   UNL     1      17.930  65.441  17.303  1.00  0.00     0.008 C 
ENDBRANCH   3  10
ENDBRANCH   2   3
BRANCH   1  13
ATOM     13  C   UNL     1      22.505  63.161  17.308  1.00  0.00    -0.055 C 
ATOM     14  C   UNL     1      23.334  62.156  17.613  1.00  0.00     0.012 C 
BRANCH  13  15
ATOM     15  C   UNL     1      23.068  64.481  16.818  1.00  0.00     0.039 C 
BRANCH  15  16
ATOM     16  C   UNL     1      23.559  64.462  15.348  1.00  0.00     0.032 CG0
ATOM     17  G   UNL     1      22.604  65.130  14.389  1.00  0.00     0.000 G0
ENDBRANCH  15  16
ENDBRANCH  13  15
ENDBRANCH   1  13
TORSDOF 1
ENDMDL
MODEL 2
REMARK VINA RESULT:    -3.351      1.540      3.543
REMARK INTER + INTRA:          -5.279
REMARK INTER:                  -4.805
REMARK INTRA:                  -0.475
REMARK UNBOUND:                -0.360
REMARK SMILES C=C1C=C[C@H](C(C)C)CCC(C)=CCC1
REMARK SMILES IDX 3 1 4 2 5 3 9 4 10 5 11 6 12 7 13 8 6 10 7 11 8 12 2 13 1 14
REMARK SMILES IDX 15 15 14 16
REMARK H PARENT
REMARK Flexibility Score: 70.00
ROOT
ATOM      1  C   UNL     1      19.755  65.439  14.048  1.00  0.00    -0.001 C 
ATOM      2  C   UNL     1      18.848  65.880  14.936  1.00  0.00    -0.023 C 
ENDROOT
BRANCH   2   3
ATOM      3  C   UNL     1      18.150  65.152  16.078  1.00  0.00     0.014 C 
BRANCH   3   4
ATOM      4  C   UNL     1      18.873  65.180  17.451  1.00  0.00     0.012 C 
BRANCH   4   5
ATOM      5  C   UNL     1      19.809  64.006  17.780  1.00  0.00     0.031 C 
BRANCH   5   6
ATOM      6  C   UNL     1      21.246  64.484  17.799  1.00  0.00    -0.077 C 
ATOM      7  C   UNL     1      21.679  65.431  18.888  1.00  0.00     0.039 C 
ATOM      8  C   UNL     1      22.177  64.023  16.935  1.00  0.00    -0.028 CG0
ATOM      9  G   UNL     1      21.887  63.117  15.763  1.00  0.00     0.000 G0
ENDBRANCH   5   6
ENDBRANCH   4   5
ENDBRANCH   3   4
BRANCH   3  10
ATOM     10  C   UNL     1      16.594  65.262  16.033  1.00  0.00    -0.010 C 
ATOM     11  C   UNL     1      16.011  64.760  14.702  1.00  0.00     0.008 C 
ATOM     12  C   UNL     1      15.851  64.635  17.220  1.00  0.00     0.008 C 
ENDBRANCH   3  10
ENDBRANCH   2   3
BRANCH   1  13
ATOM     13  C   UNL     1      20.346  64.092  13.951  1.00  0.00    -0.055 C 
ATOM     14  C   UNL     1      19.500  63.056  13.892  1.00  0.00     0.012 C 
BRANCH  13  15
ATOM     15  C   UNL     1      21.771  63.877  14.420  1.00  0.00     0.039 C 
BRANCH  15  16
ATOM     16  C   UNL     1      21.896  63.121  15.766  1.00  0.00     0.032 CG0
ATOM     17  G   UNL     1      22.177  64.027  16.940  1.00  0.00     0.000 G0
ENDBRANCH  15  16
ENDBRANCH  13  15
ENDBRANCH   1  13
TORSDOF 1
ENDMDL
MODEL 3
REMARK VINA RESULT:    -3.240      1.971      4.769
REMARK INTER + INTRA:          -5.116
REMARK INTER:                  -4.636
REMARK INTRA:                  -0.480
REMARK UNBOUND:                -0.360
REMARK SMILES C=C1C=C[C@H](C(C)C)CCC(C)=CCC1
REMARK SMILES IDX 3 1 4 2 5 3 9 4 10 5 11 6 12 7 13 8 6 10 7 11 8 12 2 13 1 14
REMARK SMILES IDX 15 15 14 16
REMARK H PARENT
REMARK Flexibility Score: 70.00
ROOT
ATOM      1  C   UNL     1      21.738  63.105  14.450  1.00  0.00    -0.001 C 
ATOM      2  C   UNL     1      22.671  63.212  15.410  1.00  0.00    -0.023 C 
ENDROOT
BRANCH   2   3
ATOM      3  C   UNL     1      22.564  63.737  16.837  1.00  0.00     0.014 C 
BRANCH   3   4
ATOM      4  C   UNL     1      21.790  62.839  17.839  1.00  0.00     0.012 C 
BRANCH   4   5
ATOM      5  C   UNL     1      20.321  63.194  18.116  1.00  0.00     0.031 C 
BRANCH   5   6
ATOM      6  C   UNL     1      20.181  64.690  18.308  1.00  0.00    -0.077 C 
ATOM      7  C   UNL     1      20.756  65.316  19.551  1.00  0.00     0.039 C 
ATOM      8  C   UNL     1      19.646  65.497  17.366  1.00  0.00    -0.028 CG0
ATOM      9  G   UNL     1      18.984  65.016  16.097  1.00  0.00     0.000 G0
ENDBRANCH   5   6
ENDBRANCH   4   5
ENDBRANCH   3   4
BRANCH   3  10
ATOM     10  C   UNL     1      23.836  64.501  17.321  1.00  0.00    -0.010 C 
ATOM     11  C   UNL     1      23.822  65.980  16.904  1.00  0.00     0.008 C 
ATOM     12  C   UNL     1      24.164  64.362  18.813  1.00  0.00     0.008 C 
ENDBRANCH   3  10
ENDBRANCH   2   3
BRANCH   1  13
ATOM     13  C   UNL     1      20.311  63.465  14.530  1.00  0.00    -0.055 C 
ATOM     14  C   UNL     1      19.445  62.688  13.869  1.00  0.00     0.012 C 
BRANCH  13  15
ATOM     15  C   UNL     1      19.930  64.890  14.882  1.00  0.00     0.039 C 
BRANCH  15  16
ATOM     16  C   UNL     1      18.974  65.017  16.095  1.00  0.00     0.032 CG0
ATOM     17  G   UNL     1      19.660  65.492  17.353  1.00  0.00     0.000 G0
ENDBRANCH  15  16
ENDBRANCH  13  15
ENDBRANCH   1  13
TORSDOF 1
ENDMDL
MODEL 4
REMARK VINA RESULT:    -3.146      1.904      3.973
REMARK INTER + INTRA:          -4.978
REMARK INTER:                  -4.405
REMARK INTRA:                  -0.572
REMARK UNBOUND:                -0.360
REMARK SMILES C=C1C=C[C@H](C(C)C)CCC(C)=CCC1
REMARK SMILES IDX 3 1 4 2 5 3 9 4 10 5 11 6 12 7 13 8 6 10 7 11 8 12 2 13 1 14
REMARK SMILES IDX 15 15 14 16
REMARK H PARENT
REMARK Flexibility Score: 70.00
ROOT
ATOM      1  C   UNL     1      23.552  64.946  15.503  1.00  0.00    -0.001 C 
ATOM      2  C   UNL     1      22.240  65.236  15.519  1.00  0.00    -0.023 C 
ENDROOT
BRANCH   2   3
ATOM      3  C   UNL     1      21.029  64.319  15.635  1.00  0.00     0.014 C 
BRANCH   3   4
ATOM      4  C   UNL     1      20.249  64.385  16.976  1.00  0.00     0.012 C 
BRANCH   4   5
ATOM      5  C   UNL     1      20.446  63.225  17.965  1.00  0.00     0.031 C 
BRANCH   5   6
ATOM      6  C   UNL     1      21.519  63.585  18.971  1.00  0.00    -0.077 C 
ATOM      7  C   UNL     1      21.134  64.403  20.177  1.00  0.00     0.039 C 
ATOM      8  C   UNL     1      22.786  63.124  18.880  1.00  0.00    -0.028 CG0
ATOM      9  G   UNL     1      23.333  62.342  17.711  1.00  0.00     0.000 G0
ENDBRANCH   5   6
ENDBRANCH   4   5
ENDBRANCH   3   4
BRANCH   3  10
ATOM     10  C   UNL     1      20.239  64.152  14.300  1.00  0.00    -0.010 C 
ATOM     11  C   UNL     1      21.016  64.695  13.090  1.00  0.00     0.008 C 
ATOM     12  C   UNL     1      19.711  62.740  14.015  1.00  0.00     0.008 C 
ENDBRANCH   3  10
ENDBRANCH   2   3
BRANCH   1  13
ATOM     13  C   UNL     1      24.188  63.621  15.612  1.00  0.00    -0.055 C 
ATOM     14  C   UNL     1      24.033  62.780  14.583  1.00  0.00     0.012 C 
BRANCH  13  15
ATOM     15  C   UNL     1      24.523  63.077  16.987  1.00  0.00     0.039 C 
BRANCH  15  16
ATOM     16  C   UNL     1      23.350  62.350  17.692  1.00  0.00     0.032 CG0
ATOM     17  G   UNL     1      22.799  63.108  18.875  1.00  0.00     0.000 G0
ENDBRANCH  15  16
ENDBRANCH  13  15
ENDBRANCH   1  13
TORSDOF 1
ENDMDL
MODEL 5
REMARK VINA RESULT:    -3.122      2.011      5.008
REMARK INTER + INTRA:          -4.943
REMARK INTER:                  -4.482
REMARK INTRA:                  -0.460
REMARK UNBOUND:                -0.360
REMARK SMILES C=C1C=C[C@H](C(C)C)CCC(C)=CCC1
REMARK SMILES IDX 3 1 4 2 5 3 9 4 10 5 11 6 12 7 13 8 6 10 7 11 8 12 2 13 1 14
REMARK SMILES IDX 15 15 14 16
REMARK H PARENT
REMARK Flexibility Score: 70.00
ROOT
ATOM      1  C   UNL     1      20.542  63.430  13.855  1.00  0.00    -0.001 C 
ATOM      2  C   UNL     1      21.366  62.745  14.666  1.00  0.00    -0.023 C 
ENDROOT
BRANCH   2   3
ATOM      3  C   UNL     1      22.548  63.221  15.502  1.00  0.00     0.014 C 
BRANCH   3   4
ATOM      4  C   UNL     1      22.235  63.598  16.975  1.00  0.00     0.012 C 
BRANCH   4   5
ATOM      5  C   UNL     1      20.785  63.427  17.454  1.00  0.00     0.031 C 
BRANCH   5   6
ATOM      6  C   UNL     1      20.212  64.773  17.847  1.00  0.00    -0.077 C 
ATOM      7  C   UNL     1      20.541  65.330  19.208  1.00  0.00     0.039 C 
ATOM      8  C   UNL     1      19.497  65.536  16.992  1.00  0.00    -0.028 CG0
ATOM      9  G   UNL     1      19.044  65.096  15.620  1.00  0.00     0.000 G0
ENDBRANCH   5   6
ENDBRANCH   4   5
ENDBRANCH   3   4
BRANCH   3  10
ATOM     10  C   UNL     1      23.886  62.491  15.168  1.00  0.00    -0.010 C 
ATOM     11  C   UNL     1      24.349  61.569  16.308  1.00  0.00     0.008 C 
ATOM     12  C   UNL     1      23.919  61.749  13.825  1.00  0.00     0.008 C 
ENDBRANCH   3  10
ENDBRANCH   2   3
BRANCH   1  13
ATOM     13  C   UNL     1      20.554  64.874  13.562  1.00  0.00    -0.055 C 
ATOM     14  C   UNL     1      21.561  65.339  12.814  1.00  0.00     0.012 C 
BRANCH  13  15
ATOM     15  C   UNL     1      19.795  65.816  14.476  1.00  0.00     0.039 C 
BRANCH  15  16
ATOM     16  C   UNL     1      19.028  65.115  15.626  1.00  0.00     0.032 CG0
ATOM     17  G   UNL     1      19.496  65.530  17.000  1.00  0.00     0.000 G0
ENDBRANCH  15  16
ENDBRANCH  13  15
ENDBRANCH   1  13
TORSDOF 1
ENDMDL
MODEL 6
REMARK VINA RESULT:    -3.094      2.097      5.175
REMARK INTER + INTRA:          -4.901
REMARK INTER:                  -4.600
REMARK INTRA:                  -0.301
REMARK UNBOUND:                -0.360
REMARK SMILES C=C1C=C[C@H](C(C)C)CCC(C)=CCC1
REMARK SMILES IDX 3 1 4 2 5 3 9 4 10 5 11 6 12 7 13 8 6 10 7 11 8 12 2 13 1 14
REMARK SMILES IDX 15 15 14 16
REMARK H PARENT
REMARK Flexibility Score: 70.00
ROOT
ATOM      1  C   UNL     1      21.560  64.255  13.957  1.00  0.00    -0.001 C 
ATOM      2  C   UNL     1      22.886  64.178  14.161  1.00  0.00    -0.023 C 
ENDROOT
BRANCH   2   3
ATOM      3  C   UNL     1      23.678  63.444  15.236  1.00  0.00     0.014 C 
BRANCH   3   4
ATOM      4  C   UNL     1      23.463  63.930  16.694  1.00  0.00     0.012 C 
BRANCH   4   5
ATOM      5  C   UNL     1      22.759  62.967  17.663  1.00  0.00     0.031 C 
BRANCH   5   6
ATOM      6  C   UNL     1      21.894  63.751  18.628  1.00  0.00    -0.077 C 
ATOM      7  C   UNL     1      22.530  64.328  19.865  1.00  0.00     0.039 C 
ATOM      8  C   UNL     1      20.596  64.033  18.377  1.00  0.00    -0.028 CG0
ATOM      9  G   UNL     1      19.808  63.486  17.212  1.00  0.00     0.000 G0
ENDBRANCH   5   6
ENDBRANCH   4   5
ENDBRANCH   3   4
BRANCH   3  10
ATOM     10  C   UNL     1      23.847  61.917  14.958  1.00  0.00    -0.010 C 
ATOM     11  C   UNL     1      24.049  61.615  13.464  1.00  0.00     0.008 C 
ATOM     12  C   UNL     1      24.911  61.204  15.803  1.00  0.00     0.008 C 
ENDBRANCH   3  10
ENDBRANCH   2   3
BRANCH   1  13
ATOM     13  C   UNL     1      20.486  63.616  14.737  1.00  0.00    -0.055 C 
ATOM     14  C   UNL     1      19.767  62.667  14.125  1.00  0.00     0.012 C 
BRANCH  13  15
ATOM     15  C   UNL     1      19.907  64.348  15.932  1.00  0.00     0.039 C 
BRANCH  15  16
ATOM     16  C   UNL     1      19.786  63.487  17.214  1.00  0.00     0.032 CG0
ATOM     17  G   UNL     1      20.591  64.021  18.374  1.00  0.00     0.000 G0
ENDBRANCH  15  16
ENDBRANCH  13  15
ENDBRANCH   1  13
TORSDOF 1
ENDMDL
MODEL 7
REMARK VINA RESULT:    -2.837      1.713      3.790
REMARK INTER + INTRA:          -4.524
REMARK INTER:                  -3.950
REMARK INTRA:                  -0.574
REMARK UNBOUND:                -0.360
REMARK SMILES C=C1C=C[C@H](C(C)C)CCC(C)=CCC1
REMARK SMILES IDX 3 1 4 2 5 3 9 4 10 5 11 6 12 7 13 8 6 10 7 11 8 12 2 13 1 14
REMARK SMILES IDX 15 15 14 16
REMARK H PARENT
REMARK Flexibility Score: 70.00
ROOT
ATOM      1  C   UNL     1      19.974  63.229  17.657  1.00  0.00    -0.001 C 
ATOM      2  C   UNL     1      21.140  62.758  18.131  1.00  0.00    -0.023 C 
ENDROOT
BRANCH   2   3
ATOM      3  C   UNL     1      22.531  63.378  18.119  1.00  0.00     0.014 C 
BRANCH   3   4
ATOM      4  C   UNL     1      23.099  63.756  16.725  1.00  0.00     0.012 C 
BRANCH   4   5
ATOM      5  C   UNL     1      22.893  62.750  15.582  1.00  0.00     0.031 C 
BRANCH   5   6
ATOM      6  C   UNL     1      22.539  63.486  14.307  1.00  0.00    -0.077 C 
ATOM      7  C   UNL     1      23.653  63.938  13.400  1.00  0.00     0.039 C 
ATOM      8  C   UNL     1      21.262  63.671  13.905  1.00  0.00    -0.028 CG0
ATOM      9  G   UNL     1      20.044  63.323  14.725  1.00  0.00     0.000 G0
ENDBRANCH   5   6
ENDBRANCH   4   5
ENDBRANCH   3   4
BRANCH   3  10
ATOM     10  C   UNL     1      22.810  64.314  19.337  1.00  0.00    -0.010 C 
ATOM     11  C   UNL     1      22.618  65.799  18.988  1.00  0.00     0.008 C 
ATOM     12  C   UNL     1      22.063  63.960  20.629  1.00  0.00     0.008 C 
ENDBRANCH   3  10
ENDBRANCH   2   3
BRANCH   1  13
ATOM     13  C   UNL     1      19.721  64.520  16.992  1.00  0.00    -0.055 C 
ATOM     14  C   UNL     1      19.300  65.531  17.761  1.00  0.00     0.012 C 
BRANCH  13  15
ATOM     15  C   UNL     1      19.448  64.539  15.502  1.00  0.00     0.039 C 
BRANCH  15  16
ATOM     16  C   UNL     1      20.028  63.329  14.728  1.00  0.00     0.032 CG0
ATOM     17  G   UNL     1      21.254  63.668  13.915  1.00  0.00     0.000 G0
ENDBRANCH  15  16
ENDBRANCH  13  15
ENDBRANCH   1  13
TORSDOF 1
ENDMDL
MODEL 8
REMARK VINA RESULT:    -2.836      1.191      3.346
REMARK INTER + INTRA:          -4.523
REMARK INTER:                  -4.275
REMARK INTRA:                  -0.248
REMARK UNBOUND:                -0.360
REMARK SMILES C=C1C=C[C@H](C(C)C)CCC(C)=CCC1
REMARK SMILES IDX 3 1 4 2 5 3 9 4 10 5 11 6 12 7 13 8 6 10 7 11 8 12 2 13 1 14
REMARK SMILES IDX 15 15 14 16
REMARK H PARENT
REMARK Flexibility Score: 70.00
ROOT
ATOM      1  C   UNL     1      20.681  63.177  13.911  1.00  0.00    -0.001 C 
ATOM      2  C   UNL     1      19.886  63.092  14.991  1.00  0.00    -0.023 C 
ENDROOT
BRANCH   2   3
ATOM      3  C   UNL     1      19.821  63.964  16.239  1.00  0.00     0.014 C 
BRANCH   3   4
ATOM      4  C   UNL     1      21.180  64.295  16.912  1.00  0.00     0.012 C 
BRANCH   4   5
ATOM      5  C   UNL     1      22.037  63.113  17.392  1.00  0.00     0.031 C 
BRANCH   5   6
ATOM      6  C   UNL     1      23.503  63.416  17.167  1.00  0.00    -0.077 C 
ATOM      7  C   UNL     1      24.313  63.962  18.315  1.00  0.00     0.039 C 
ATOM      8  C   UNL     1      24.136  63.130  16.009  1.00  0.00    -0.028 CG0
ATOM      9  G   UNL     1      23.454  62.632  14.758  1.00  0.00     0.000 G0
ENDBRANCH   5   6
ENDBRANCH   4   5
ENDBRANCH   3   4
BRANCH   3  10
ATOM     10  C   UNL     1      18.711  65.059  16.183  1.00  0.00    -0.010 C 
ATOM     11  C   UNL     1      17.854  64.957  14.911  1.00  0.00     0.008 C 
ATOM     12  C   UNL     1      17.820  65.163  17.428  1.00  0.00     0.008 C 
ENDBRANCH   3  10
ENDBRANCH   2   3
BRANCH   1  13
ATOM     13  C   UNL     1      21.727  64.178  13.633  1.00  0.00    -0.055 C 
ATOM     14  C   UNL     1      21.379  65.237  12.893  1.00  0.00     0.012 C 
BRANCH  13  15
ATOM     15  C   UNL     1      23.183  63.765  13.723  1.00  0.00     0.039 C 
BRANCH  15  16
ATOM     16  C   UNL     1      23.468  62.640  14.750  1.00  0.00     0.032 CG0
ATOM     17  G   UNL     1      24.134  63.134  16.012  1.00  0.00     0.000 G0
ENDBRANCH  15  16
ENDBRANCH  13  15
ENDBRANCH   1  13
TORSDOF 1
ENDMDL
MODEL 9
REMARK VINA RESULT:    -2.737      1.402      2.002
REMARK INTER + INTRA:          -4.377
REMARK INTER:                  -3.906
REMARK INTRA:                  -0.471
REMARK UNBOUND:                -0.360
REMARK SMILES C=C1C=C[C@H](C(C)C)CCC(C)=CCC1
REMARK SMILES IDX 3 1 4 2 5 3 9 4 10 5 11 6 12 7 13 8 6 10 7 11 8 12 2 13 1 14
REMARK SMILES IDX 15 15 14 16
REMARK H PARENT
REMARK Flexibility Score: 70.00
ROOT
ATOM      1  C   UNL     1      20.625  63.497  18.406  1.00  0.00    -0.001 C 
ATOM      2  C   UNL     1      19.799  63.756  17.379  1.00  0.00    -0.023 C 
ENDROOT
BRANCH   2   3
ATOM      3  C   UNL     1      19.803  64.903  16.375  1.00  0.00     0.014 C 
BRANCH   3   4
ATOM      4  C   UNL     1      20.579  64.652  15.054  1.00  0.00     0.012 C 
BRANCH   4   5
ATOM      5  C   UNL     1      21.213  63.265  14.861  1.00  0.00     0.031 C 
BRANCH   5   6
ATOM      6  C   UNL     1      22.717  63.400  14.737  1.00  0.00    -0.077 C 
ATOM      7  C   UNL     1      23.299  63.806  13.408  1.00  0.00     0.039 C 
ATOM      8  C   UNL     1      23.549  63.265  15.793  1.00  0.00    -0.028 CG0
ATOM      9  G   UNL     1      23.124  62.813  17.169  1.00  0.00     0.000 G0
ENDBRANCH   5   6
ENDBRANCH   4   5
ENDBRANCH   3   4
BRANCH   3  10
ATOM     10  C   UNL     1      18.465  65.704  16.333  1.00  0.00    -0.010 C 
ATOM     11  C   UNL     1      17.418  65.045  15.420  1.00  0.00     0.008 C 
ATOM     12  C   UNL     1      17.854  66.045  17.698  1.00  0.00     0.008 C 
ENDBRANCH   3  10
ENDBRANCH   2   3
BRANCH   1  13
ATOM     13  C   UNL     1      21.804  64.270  18.838  1.00  0.00    -0.055 C 
ATOM     14  C   UNL     1      21.580  65.466  19.395  1.00  0.00     0.012 C 
BRANCH  13  15
ATOM     15  C   UNL     1      23.152  63.967  18.214  1.00  0.00     0.039 C 
BRANCH  15  16
ATOM     16  C   UNL     1      23.133  62.820  17.173  1.00  0.00     0.032 CG0
ATOM     17  G   UNL     1      23.549  63.258  15.790  1.00  0.00     0.000 G0
ENDBRANCH  15  16
ENDBRANCH  13  15
ENDBRANCH   1  13
TORSDOF 1
ENDMDL
