MODEL 1
REMARK VINA RESULT:    -2.845      0.000      0.000
REMARK INTER + INTRA:          -3.143
REMARK INTER:                  -3.011
REMARK INTRA:                  -0.132
REMARK UNBOUND:                -0.132
REMARK SMILES C=C(C)[C@@H]1CC=C(C)CC1
REMARK SMILES IDX 8 1 7 2 6 3 5 4 4 5 10 6 9 7 2 8 1 9 3 10
REMARK H PARENT
REMARK Flexibility Score: inf
ROOT
ATOM      1  C   UNL     1      -3.077   7.877  10.200  1.00  0.00     0.039 C 
ATOM      2  C   UNL     1      -3.284   9.342   9.933  1.00  0.00    -0.077 C 
ATOM      3  C   UNL     1      -3.913  10.096  10.860  1.00  0.00    -0.027 C 
ATOM      4  C   UNL     1      -4.121  11.583  10.708  1.00  0.00     0.035 C 
ATOM      5  C   UNL     1      -4.065  12.031   9.238  1.00  0.00     0.018 C 
ATOM      6  C   UNL     1      -2.825  11.432   8.556  1.00  0.00     0.013 C 
ATOM      7  C   UNL     1      -2.900   9.900   8.575  1.00  0.00     0.031 C 
ENDROOT
BRANCH   5   8
ATOM      8  C   UNL     1      -4.089  13.548   9.119  1.00  0.00    -0.077 C 
ATOM      9  C   UNL     1      -4.125  14.309  10.225  1.00  0.00     0.008 C 
ATOM     10  C   UNL     1      -4.061  14.234   7.775  1.00  0.00     0.039 C 
ENDBRANCH   5   8
TORSDOF 1
ENDMDL
MODEL 2
REMARK VINA RESULT:    -2.496      0.944      4.286
REMARK INTER + INTRA:          -2.773
REMARK INTER:                  -2.641
REMARK INTRA:                  -0.132
REMARK UNBOUND:                -0.132
REMARK SMILES C=C(C)[C@@H]1CC=C(C)CC1
REMARK SMILES IDX 8 1 7 2 6 3 5 4 4 5 10 6 9 7 2 8 1 9 3 10
REMARK H PARENT
REMARK Flexibility Score: inf
ROOT
ATOM      1  C   UNL     1      -3.575  15.060   7.291  1.00  0.00     0.039 C 
ATOM      2  C   UNL     1      -3.490  13.729   7.985  1.00  0.00    -0.077 C 
ATOM      3  C   UNL     1      -4.107  13.569   9.175  1.00  0.00    -0.027 C 
ATOM      4  C   UNL     1      -4.125  12.259   9.924  1.00  0.00     0.035 C 
ATOM      5  C   UNL     1      -2.963  11.338   9.511  1.00  0.00     0.018 C 
ATOM      6  C   UNL     1      -2.879  11.259   7.979  1.00  0.00     0.013 C 
ATOM      7  C   UNL     1      -2.603  12.649   7.393  1.00  0.00     0.031 C 
ENDROOT
BRANCH   5   8
ATOM      8  C   UNL     1      -3.103   9.956  10.135  1.00  0.00    -0.077 C 
ATOM      9  C   UNL     1      -4.025   9.738  11.086  1.00  0.00     0.008 C 
ATOM     10  C   UNL     1      -2.231   8.804   9.700  1.00  0.00     0.039 C 
ENDBRANCH   5   8
TORSDOF 1
ENDMDL
MODEL 3
REMARK VINA RESULT:    -2.291      0.934      4.406
REMARK INTER + INTRA:          -2.557
REMARK INTER:                  -2.427
REMARK INTRA:                  -0.130
REMARK UNBOUND:                -0.132
REMARK SMILES C=C(C)[C@@H]1CC=C(C)CC1
REMARK SMILES IDX 8 1 7 2 6 3 5 4 4 5 10 6 9 7 2 8 1 9 3 10
REMARK H PARENT
REMARK Flexibility Score: inf
ROOT
ATOM      1  C   UNL     1      -3.020  14.610   6.982  1.00  0.00     0.039 C 
ATOM      2  C   UNL     1      -3.198  13.429   7.896  1.00  0.00    -0.077 C 
ATOM      3  C   UNL     1      -2.626  12.252   7.565  1.00  0.00    -0.027 C 
ATOM      4  C   UNL     1      -2.702  11.025   8.440  1.00  0.00     0.035 C 
ATOM      5  C   UNL     1      -3.898  11.073   9.406  1.00  0.00     0.018 C 
ATOM      6  C   UNL     1      -3.942  12.435  10.116  1.00  0.00     0.013 C 
ATOM      7  C   UNL     1      -4.125  13.560   9.091  1.00  0.00     0.031 C 
ENDROOT
BRANCH   5   8
ATOM      8  C   UNL     1      -3.853   9.924  10.403  1.00  0.00    -0.077 C 
ATOM      9  C   UNL     1      -4.119  10.148  11.701  1.00  0.00     0.008 C 
ATOM     10  C   UNL     1      -3.525   8.516   9.969  1.00  0.00     0.039 C 
ENDBRANCH   5   8
TORSDOF 1
ENDMDL
MODEL 4
REMARK VINA RESULT:    -2.223      0.633      1.707
REMARK INTER + INTRA:          -2.485
REMARK INTER:                  -2.356
REMARK INTRA:                  -0.129
REMARK UNBOUND:                -0.132
REMARK SMILES C=C(C)[C@@H]1CC=C(C)CC1
REMARK SMILES IDX 8 1 7 2 6 3 5 4 4 5 10 6 9 7 2 8 1 9 3 10
REMARK H PARENT
REMARK Flexibility Score: inf
ROOT
ATOM      1  C   UNL     1      -2.590   7.492  10.322  1.00  0.00     0.039 C 
ATOM      2  C   UNL     1      -2.935   8.925  10.025  1.00  0.00    -0.077 C 
ATOM      3  C   UNL     1      -2.644   9.430   8.807  1.00  0.00    -0.027 C 
ATOM      4  C   UNL     1      -2.999  10.838   8.395  1.00  0.00     0.035 C 
ATOM      5  C   UNL     1      -3.194  11.767   9.606  1.00  0.00     0.018 C 
ATOM      6  C   UNL     1      -4.113  11.095  10.637  1.00  0.00     0.013 C 
ATOM      7  C   UNL     1      -3.477   9.795  11.144  1.00  0.00     0.031 C 
ENDROOT
BRANCH   5   8
ATOM      8  C   UNL     1      -3.730  13.127   9.181  1.00  0.00    -0.077 C 
ATOM      9  C   UNL     1      -4.125  14.014  10.109  1.00  0.00     0.008 C 
ATOM     10  C   UNL     1      -3.822  13.518   7.726  1.00  0.00     0.039 C 
ENDBRANCH   5   8
TORSDOF 1
ENDMDL
MODEL 5
REMARK VINA RESULT:    -1.822      1.281      1.719
REMARK INTER + INTRA:          -2.061
REMARK INTER:                  -1.932
REMARK INTRA:                  -0.129
REMARK UNBOUND:                -0.132
REMARK SMILES C=C(C)[C@@H]1CC=C(C)CC1
REMARK SMILES IDX 8 1 7 2 6 3 5 4 4 5 10 6 9 7 2 8 1 9 3 10
REMARK H PARENT
REMARK Flexibility Score: inf
ROOT
ATOM      1  C   UNL     1      -2.105   6.892  10.371  1.00  0.00     0.039 C 
ATOM      2  C   UNL     1      -2.433   8.311   9.994  1.00  0.00    -0.077 C 
ATOM      3  C   UNL     1      -3.684   8.607   9.580  1.00  0.00    -0.027 C 
ATOM      4  C   UNL     1      -4.125  10.008   9.232  1.00  0.00     0.035 C 
ATOM      5  C   UNL     1      -2.939  10.916   8.863  1.00  0.00     0.018 C 
ATOM      6  C   UNL     1      -1.830  10.781   9.919  1.00  0.00     0.013 C 
ATOM      7  C   UNL     1      -1.316   9.337   9.963  1.00  0.00     0.031 C 
ENDROOT
BRANCH   5   8
ATOM      8  C   UNL     1      -3.379  12.364   8.698  1.00  0.00    -0.077 C 
ATOM      9  C   UNL     1      -4.104  12.960   9.658  1.00  0.00     0.008 C 
ATOM     10  C   UNL     1      -3.010  13.165   7.474  1.00  0.00     0.039 C 
ENDBRANCH   5   8
TORSDOF 1
ENDMDL
MODEL 6
REMARK VINA RESULT:    -1.740      1.266      1.859
REMARK INTER + INTRA:          -1.973
REMARK INTER:                  -1.852
REMARK INTRA:                  -0.121
REMARK UNBOUND:                -0.132
REMARK SMILES C=C(C)[C@@H]1CC=C(C)CC1
REMARK SMILES IDX 8 1 7 2 6 3 5 4 4 5 10 6 9 7 2 8 1 9 3 10
REMARK H PARENT
REMARK Flexibility Score: inf
ROOT
ATOM      1  C   UNL     1      -2.123   6.895  10.395  1.00  0.00     0.039 C 
ATOM      2  C   UNL     1      -2.480   8.298   9.989  1.00  0.00    -0.077 C 
ATOM      3  C   UNL     1      -1.514   9.241   9.971  1.00  0.00    -0.027 C 
ATOM      4  C   UNL     1      -1.759  10.663   9.528  1.00  0.00     0.035 C 
ATOM      5  C   UNL     1      -3.242  11.058   9.639  1.00  0.00     0.018 C 
ATOM      6  C   UNL     1      -4.122   9.972   9.001  1.00  0.00     0.013 C 
ATOM      7  C   UNL     1      -3.937   8.641   9.741  1.00  0.00     0.031 C 
ENDROOT
BRANCH   5   8
ATOM      8  C   UNL     1      -3.500  12.423   9.016  1.00  0.00    -0.077 C 
ATOM      9  C   UNL     1      -4.125  13.378   9.724  1.00  0.00     0.008 C 
ATOM     10  C   UNL     1      -3.058  12.743   7.609  1.00  0.00     0.039 C 
ENDBRANCH   5   8
TORSDOF 1
ENDMDL
MODEL 7
REMARK VINA RESULT:    -1.595      1.328      2.075
REMARK INTER + INTRA:          -1.821
REMARK INTER:                  -1.699
REMARK INTRA:                  -0.121
REMARK UNBOUND:                -0.132
REMARK SMILES C=C(C)[C@@H]1CC=C(C)CC1
REMARK SMILES IDX 8 1 7 2 6 3 5 4 4 5 10 6 9 7 2 8 1 9 3 10
REMARK H PARENT
REMARK Flexibility Score: inf
ROOT
ATOM      1  C   UNL     1      -2.147   6.751  10.401  1.00  0.00     0.039 C 
ATOM      2  C   UNL     1      -2.453   8.173  10.017  1.00  0.00    -0.077 C 
ATOM      3  C   UNL     1      -3.704   8.491   9.622  1.00  0.00    -0.027 C 
ATOM      4  C   UNL     1      -4.123   9.897   9.269  1.00  0.00     0.035 C 
ATOM      5  C   UNL     1      -2.925  10.779   8.873  1.00  0.00     0.018 C 
ATOM      6  C   UNL     1      -1.802  10.630   9.911  1.00  0.00     0.013 C 
ATOM      7  C   UNL     1      -1.316   9.177   9.959  1.00  0.00     0.031 C 
ENDROOT
BRANCH   5   8
ATOM      8  C   UNL     1      -3.340  12.233   8.702  1.00  0.00    -0.077 C 
ATOM      9  C   UNL     1      -3.018  12.897   7.580  1.00  0.00     0.008 C 
ATOM     10  C   UNL     1      -4.124  12.959   9.768  1.00  0.00     0.039 C 
ENDBRANCH   5   8
TORSDOF 1
ENDMDL
