MODEL 1
REMARK VINA RESULT:    -3.314      0.000      0.000
REMARK INTER + INTRA:         -11.834
REMARK INTER:                  -7.577
REMARK INTRA:                  -4.258
REMARK UNBOUND:                -4.258
REMARK SMILES CCCCCCCCCCCCCCCCCCCCCCCC(=O)[O-]
REMARK SMILES IDX 13 1 14 2 15 3 16 4 17 5 18 6 19 7 20 8 21 9 22 10 23 11
REMARK SMILES IDX 24 12 25 13 26 14 12 15 11 16 10 17 9 18 8 19 7 20 6 21 5 22
REMARK SMILES IDX 4 23 3 24 2 25 1 26
REMARK H PARENT
REMARK Flexibility Score: inf
ROOT
ATOM      1  C   UNL     1      53.085  32.205  87.465  1.00  0.00     0.000 C 
ENDROOT
BRANCH   1   2
ATOM      2  C   UNL     1      53.120  31.749  88.939  1.00  0.00     0.000 C 
BRANCH   2   3
ATOM      3  C   UNL     1      52.892  32.905  89.928  1.00  0.00     0.000 C 
BRANCH   3   4
ATOM      4  C   UNL     1      52.702  32.420  91.374  1.00  0.00     0.000 C 
BRANCH   4   5
ATOM      5  C   UNL     1      52.200  30.961  91.472  1.00  0.00     0.000 C 
BRANCH   5   6
ATOM      6  C   UNL     1      50.893  30.829  92.277  1.00  0.00     0.000 C 
BRANCH   6   7
ATOM      7  C   UNL     1      49.626  30.967  91.400  1.00  0.00     0.000 C 
BRANCH   7   8
ATOM      8  C   UNL     1      48.890  29.634  91.161  1.00  0.00     0.000 C 
BRANCH   8   9
ATOM      9  C   UNL     1      47.427  29.779  90.711  1.00  0.00     0.000 C 
BRANCH   9  10
ATOM     10  C   UNL     1      47.000  31.248  90.539  1.00  0.00     0.006 C 
BRANCH  10  11
ATOM     11  C   UNL     1      45.489  31.388  90.311  1.00  0.00     0.053 C 
BRANCH  11  12
ATOM     12  C   UNL     1      44.702  31.026  91.532  1.00  0.00     0.041 C 
ATOM     13  O   UNL     1      44.039  29.956  91.565  1.00  0.00    -0.550 OA
ATOM     14  O   UNL     1      44.678  31.884  92.624  1.00  0.00    -0.550 OA
ENDBRANCH  11  12
ENDBRANCH  10  11
ENDBRANCH   9  10
ENDBRANCH   8   9
ENDBRANCH   7   8
ENDBRANCH   6   7
ENDBRANCH   5   6
ENDBRANCH   4   5
ENDBRANCH   3   4
ENDBRANCH   2   3
ENDBRANCH   1   2
BRANCH   1  15
ATOM     15  C   UNL     1      53.372  33.705  87.265  1.00  0.00     0.000 C 
BRANCH  15  16
ATOM     16  C   UNL     1      52.295  34.484  86.486  1.00  0.00     0.000 C 
BRANCH  16  17
ATOM     17  C   UNL     1      52.096  34.048  85.022  1.00  0.00     0.000 C 
BRANCH  17  18
ATOM     18  C   UNL     1      50.637  34.172  84.551  1.00  0.00    -0.000 C 
BRANCH  18  19
ATOM     19  C   UNL     1      50.057  32.833  84.060  1.00  0.00    -0.000 C 
BRANCH  19  20
ATOM     20  C   UNL     1      50.881  31.587  84.442  1.00  0.00    -0.000 C 
BRANCH  20  21
ATOM     21  C   UNL     1      50.205  30.633  85.450  1.00  0.00    -0.000 C 
BRANCH  21  22
ATOM     22  C   UNL     1      49.137  31.284  86.348  1.00  0.00    -0.000 C 
BRANCH  22  23
ATOM     23  C   UNL     1      49.573  31.386  87.817  1.00  0.00    -0.000 C 
BRANCH  23  24
ATOM     24  C   UNL     1      49.537  32.842  88.299  1.00  0.00    -0.000 C 
BRANCH  24  25
ATOM     25  C   UNL     1      48.458  33.640  87.558  1.00  0.00    -0.003 C 
ATOM     26  C   UNL     1      48.757  35.136  87.596  1.00  0.00     0.004 C 
ENDBRANCH  24  25
ENDBRANCH  23  24
ENDBRANCH  22  23
ENDBRANCH  21  22
ENDBRANCH  20  21
ENDBRANCH  19  20
ENDBRANCH  18  19
ENDBRANCH  17  18
ENDBRANCH  16  17
ENDBRANCH  15  16
ENDBRANCH   1  15
TORSDOF 22
ENDMDL
MODEL 2
REMARK VINA RESULT:    -3.267      1.481      3.643
REMARK INTER + INTRA:         -11.726
REMARK INTER:                  -7.538
REMARK INTRA:                  -4.188
REMARK UNBOUND:                -4.258
REMARK SMILES CCCCCCCCCCCCCCCCCCCCCCCC(=O)[O-]
REMARK SMILES IDX 13 1 14 2 15 3 16 4 17 5 18 6 19 7 20 8 21 9 22 10 23 11
REMARK SMILES IDX 24 12 25 13 26 14 12 15 11 16 10 17 9 18 8 19 7 20 6 21 5 22
REMARK SMILES IDX 4 23 3 24 2 25 1 26
REMARK H PARENT
REMARK Flexibility Score: inf
ROOT
ATOM      1  C   UNL     1      48.726  30.414  86.902  1.00  0.00     0.000 C 
ENDROOT
BRANCH   1   2
ATOM      2  C   UNL     1      49.907  29.697  87.589  1.00  0.00     0.000 C 
BRANCH   2   3
ATOM      3  C   UNL     1      51.021  30.664  88.025  1.00  0.00     0.000 C 
BRANCH   3   4
ATOM      4  C   UNL     1      51.375  30.529  89.515  1.00  0.00     0.000 C 
BRANCH   4   5
ATOM      5  C   UNL     1      50.633  31.540  90.418  1.00  0.00     0.000 C 
BRANCH   5   6
ATOM      6  C   UNL     1      49.546  30.881  91.289  1.00  0.00     0.000 C 
BRANCH   6   7
ATOM      7  C   UNL     1      49.627  29.337  91.293  1.00  0.00     0.000 C 
BRANCH   7   8
ATOM      8  C   UNL     1      48.263  28.645  91.104  1.00  0.00     0.000 C 
BRANCH   8   9
ATOM      9  C   UNL     1      47.046  29.573  91.254  1.00  0.00     0.000 C 
BRANCH   9  10
ATOM     10  C   UNL     1      45.900  28.928  92.055  1.00  0.00     0.006 C 
BRANCH  10  11
ATOM     11  C   UNL     1      44.522  29.284  91.482  1.00  0.00     0.053 C 
BRANCH  11  12
ATOM     12  C   UNL     1      44.249  30.755  91.549  1.00  0.00     0.041 C 
ATOM     13  O   UNL     1      44.075  31.317  92.662  1.00  0.00    -0.550 OA
ATOM     14  O   UNL     1      44.161  31.500  90.380  1.00  0.00    -0.550 OA
ENDBRANCH  11  12
ENDBRANCH  10  11
ENDBRANCH   9  10
ENDBRANCH   8   9
ENDBRANCH   7   8
ENDBRANCH   6   7
ENDBRANCH   5   6
ENDBRANCH   4   5
ENDBRANCH   3   4
ENDBRANCH   2   3
ENDBRANCH   1   2
BRANCH   1  15
ATOM     15  C   UNL     1      47.643  30.916  87.875  1.00  0.00     0.000 C 
BRANCH  15  16
ATOM     16  C   UNL     1      47.767  32.392  88.296  1.00  0.00     0.000 C 
BRANCH  16  17
ATOM     17  C   UNL     1      48.407  33.324  87.249  1.00  0.00     0.000 C 
BRANCH  17  18
ATOM     18  C   UNL     1      48.711  34.727  87.800  1.00  0.00    -0.000 C 
BRANCH  18  19
ATOM     19  C   UNL     1      50.156  35.176  87.514  1.00  0.00    -0.000 C 
BRANCH  19  20
ATOM     20  C   UNL     1      51.250  34.307  88.165  1.00  0.00    -0.000 C 
BRANCH  20  21
ATOM     21  C   UNL     1      52.462  33.987  87.265  1.00  0.00    -0.000 C 
BRANCH  21  22
ATOM     22  C   UNL     1      52.329  34.454  85.803  1.00  0.00    -0.000 C 
BRANCH  22  23
ATOM     23  C   UNL     1      52.146  33.291  84.818  1.00  0.00    -0.000 C 
BRANCH  23  24
ATOM     24  C   UNL     1      50.661  33.061  84.511  1.00  0.00    -0.000 C 
BRANCH  24  25
ATOM     25  C   UNL     1      50.027  34.312  83.892  1.00  0.00    -0.003 C 
ATOM     26  C   UNL     1      48.532  34.116  83.664  1.00  0.00     0.004 C 
ENDBRANCH  24  25
ENDBRANCH  23  24
ENDBRANCH  22  23
ENDBRANCH  21  22
ENDBRANCH  20  21
ENDBRANCH  19  20
ENDBRANCH  18  19
ENDBRANCH  17  18
ENDBRANCH  16  17
ENDBRANCH  15  16
ENDBRANCH   1  15
TORSDOF 22
ENDMDL
MODEL 3
REMARK VINA RESULT:    -3.211      2.717      5.836
REMARK INTER + INTRA:         -11.599
REMARK INTER:                  -7.514
REMARK INTRA:                  -4.085
REMARK UNBOUND:                -4.258
REMARK SMILES CCCCCCCCCCCCCCCCCCCCCCCC(=O)[O-]
REMARK SMILES IDX 13 1 14 2 15 3 16 4 17 5 18 6 19 7 20 8 21 9 22 10 23 11
REMARK SMILES IDX 24 12 25 13 26 14 12 15 11 16 10 17 9 18 8 19 7 20 6 21 5 22
REMARK SMILES IDX 4 23 3 24 2 25 1 26
REMARK H PARENT
REMARK Flexibility Score: inf
ROOT
ATOM      1  C   UNL     1      48.335  32.425  87.350  1.00  0.00     0.000 C 
ENDROOT
BRANCH   1   2
ATOM      2  C   UNL     1      48.439  33.937  87.640  1.00  0.00     0.000 C 
BRANCH   2   3
ATOM      3  C   UNL     1      49.703  34.575  87.039  1.00  0.00     0.000 C 
BRANCH   3   4
ATOM      4  C   UNL     1      50.380  35.567  87.999  1.00  0.00     0.000 C 
BRANCH   4   5
ATOM      5  C   UNL     1      51.921  35.455  88.014  1.00  0.00     0.000 C 
BRANCH   5   6
ATOM      6  C   UNL     1      52.490  34.839  86.722  1.00  0.00     0.000 C 
BRANCH   6   7
ATOM      7  C   UNL     1      53.530  33.725  86.988  1.00  0.00     0.000 C 
BRANCH   7   8
ATOM      8  C   UNL     1      52.942  32.302  86.922  1.00  0.00     0.000 C 
BRANCH   8   9
ATOM      9  C   UNL     1      53.094  31.483  88.215  1.00  0.00     0.000 C 
BRANCH   9  10
ATOM     10  C   UNL     1      51.744  31.182  88.891  1.00  0.00     0.006 C 
BRANCH  10  11
ATOM     11  C   UNL     1      51.294  32.319  89.818  1.00  0.00     0.053 C 
BRANCH  11  12
ATOM     12  C   UNL     1      50.969  31.825  91.194  1.00  0.00     0.041 C 
ATOM     13  O   UNL     1      51.644  32.215  92.183  1.00  0.00    -0.550 OA
ATOM     14  O   UNL     1      49.939  30.913  91.380  1.00  0.00    -0.550 OA
ENDBRANCH  11  12
ENDBRANCH  10  11
ENDBRANCH   9  10
ENDBRANCH   8   9
ENDBRANCH   7   8
ENDBRANCH   6   7
ENDBRANCH   5   6
ENDBRANCH   4   5
ENDBRANCH   3   4
ENDBRANCH   2   3
ENDBRANCH   1   2
BRANCH   1  15
ATOM     15  C   UNL     1      49.324  31.921  86.282  1.00  0.00     0.000 C 
BRANCH  15  16
ATOM     16  C   UNL     1      48.685  31.222  85.068  1.00  0.00     0.000 C 
BRANCH  16  17
ATOM     17  C   UNL     1      47.431  31.910  84.495  1.00  0.00     0.000 C 
BRANCH  17  18
ATOM     18  C   UNL     1      47.736  32.802  83.281  1.00  0.00    -0.000 C 
BRANCH  18  19
ATOM     19  C   UNL     1      48.377  34.145  83.677  1.00  0.00    -0.000 C 
BRANCH  19  20
ATOM     20  C   UNL     1      49.727  34.448  82.997  1.00  0.00    -0.000 C 
BRANCH  20  21
ATOM     21  C   UNL     1      50.969  33.880  83.716  1.00  0.00    -0.000 C 
BRANCH  21  22
ATOM     22  C   UNL     1      52.057  33.313  82.786  1.00  0.00    -0.000 C 
BRANCH  22  23
ATOM     23  C   UNL     1      53.481  33.630  83.268  1.00  0.00    -0.000 C 
BRANCH  23  24
ATOM     24  C   UNL     1      53.984  34.945  82.660  1.00  0.00    -0.000 C 
BRANCH  24  25
ATOM     25  C   UNL     1      54.195  34.808  81.148  1.00  0.00    -0.003 C 
ATOM     26  C   UNL     1      53.309  35.783  80.378  1.00  0.00     0.004 C 
ENDBRANCH  24  25
ENDBRANCH  23  24
ENDBRANCH  22  23
ENDBRANCH  21  22
ENDBRANCH  20  21
ENDBRANCH  19  20
ENDBRANCH  18  19
ENDBRANCH  17  18
ENDBRANCH  16  17
ENDBRANCH  15  16
ENDBRANCH   1  15
TORSDOF 22
ENDMDL
MODEL 4
REMARK VINA RESULT:    -3.151      1.425      3.193
REMARK INTER + INTRA:         -11.461
REMARK INTER:                  -7.877
REMARK INTRA:                  -3.583
REMARK UNBOUND:                -4.258
REMARK SMILES CCCCCCCCCCCCCCCCCCCCCCCC(=O)[O-]
REMARK SMILES IDX 13 1 14 2 15 3 16 4 17 5 18 6 19 7 20 8 21 9 22 10 23 11
REMARK SMILES IDX 24 12 25 13 26 14 12 15 11 16 10 17 9 18 8 19 7 20 6 21 5 22
REMARK SMILES IDX 4 23 3 24 2 25 1 26
REMARK H PARENT
REMARK Flexibility Score: inf
ROOT
ATOM      1  C   UNL     1      50.949  32.025  89.871  1.00  0.00     0.000 C 
ENDROOT
BRANCH   1   2
ATOM      2  C   UNL     1      51.162  31.732  91.371  1.00  0.00     0.000 C 
BRANCH   2   3
ATOM      3  C   UNL     1      51.580  30.276  91.642  1.00  0.00     0.000 C 
BRANCH   3   4
ATOM      4  C   UNL     1      50.726  29.260  90.868  1.00  0.00     0.000 C 
BRANCH   4   5
ATOM      5  C   UNL     1      49.765  28.451  91.769  1.00  0.00     0.000 C 
BRANCH   5   6
ATOM      6  C   UNL     1      48.305  28.495  91.281  1.00  0.00     0.000 C 
BRANCH   6   7
ATOM      7  C   UNL     1      48.019  29.684  90.334  1.00  0.00     0.000 C 
BRANCH   7   8
ATOM      8  C   UNL     1      47.529  30.950  91.062  1.00  0.00     0.000 C 
BRANCH   8   9
ATOM      9  C   UNL     1      46.018  31.211  90.952  1.00  0.00     0.000 C 
BRANCH   9  10
ATOM     10  C   UNL     1      45.185  29.917  90.999  1.00  0.00     0.006 C 
BRANCH  10  11
ATOM     11  C   UNL     1      44.779  29.541  92.431  1.00  0.00     0.053 C 
BRANCH  11  12
ATOM     12  C   UNL     1      43.574  30.303  92.890  1.00  0.00     0.041 C 
ATOM     13  O   UNL     1      42.420  29.930  92.550  1.00  0.00    -0.550 OA
ATOM     14  O   UNL     1      43.726  31.441  93.670  1.00  0.00    -0.550 OA
ENDBRANCH  11  12
ENDBRANCH  10  11
ENDBRANCH   9  10
ENDBRANCH   8   9
ENDBRANCH   7   8
ENDBRANCH   6   7
ENDBRANCH   5   6
ENDBRANCH   4   5
ENDBRANCH   3   4
ENDBRANCH   2   3
ENDBRANCH   1   2
BRANCH   1  15
ATOM     15  C   UNL     1      52.254  32.218  89.077  1.00  0.00     0.000 C 
BRANCH  15  16
ATOM     16  C   UNL     1      53.138  33.393  89.535  1.00  0.00     0.000 C 
BRANCH  16  17
ATOM     17  C   UNL     1      53.773  34.222  88.403  1.00  0.00     0.000 C 
BRANCH  17  18
ATOM     18  C   UNL     1      52.784  35.196  87.742  1.00  0.00    -0.000 C 
BRANCH  18  19
ATOM     19  C   UNL     1      52.298  34.705  86.366  1.00  0.00    -0.000 C 
BRANCH  19  20
ATOM     20  C   UNL     1      50.802  34.340  86.296  1.00  0.00    -0.000 C 
BRANCH  20  21
ATOM     21  C   UNL     1      49.926  34.930  87.421  1.00  0.00    -0.000 C 
BRANCH  21  22
ATOM     22  C   UNL     1      48.672  34.106  87.771  1.00  0.00    -0.000 C 
BRANCH  22  23
ATOM     23  C   UNL     1      48.314  33.074  86.691  1.00  0.00    -0.000 C 
BRANCH  23  24
ATOM     24  C   UNL     1      48.435  31.646  87.237  1.00  0.00    -0.000 C 
BRANCH  24  25
ATOM     25  C   UNL     1      49.574  30.888  86.546  1.00  0.00    -0.003 C 
ATOM     26  C   UNL     1      49.800  29.525  87.193  1.00  0.00     0.004 C 
ENDBRANCH  24  25
ENDBRANCH  23  24
ENDBRANCH  22  23
ENDBRANCH  21  22
ENDBRANCH  20  21
ENDBRANCH  19  20
ENDBRANCH  18  19
ENDBRANCH  17  18
ENDBRANCH  16  17
ENDBRANCH  15  16
ENDBRANCH   1  15
TORSDOF 22
ENDMDL
MODEL 5
REMARK VINA RESULT:    -3.150      2.702      5.422
REMARK INTER + INTRA:         -11.459
REMARK INTER:                  -7.402
REMARK INTRA:                  -4.058
REMARK UNBOUND:                -4.258
REMARK SMILES CCCCCCCCCCCCCCCCCCCCCCCC(=O)[O-]
REMARK SMILES IDX 13 1 14 2 15 3 16 4 17 5 18 6 19 7 20 8 21 9 22 10 23 11
REMARK SMILES IDX 24 12 25 13 26 14 12 15 11 16 10 17 9 18 8 19 7 20 6 21 5 22
REMARK SMILES IDX 4 23 3 24 2 25 1 26
REMARK H PARENT
REMARK Flexibility Score: inf
ROOT
ATOM      1  C   UNL     1      49.082  31.748  86.248  1.00  0.00     0.000 C 
ENDROOT
BRANCH   1   2
ATOM      2  C   UNL     1      48.024  31.039  87.119  1.00  0.00     0.000 C 
BRANCH   2   3
ATOM      3  C   UNL     1      47.564  31.893  88.314  1.00  0.00     0.000 C 
BRANCH   3   4
ATOM      4  C   UNL     1      46.386  31.263  89.074  1.00  0.00     0.000 C 
BRANCH   4   5
ATOM      5  C   UNL     1      46.603  31.200  90.603  1.00  0.00     0.000 C 
BRANCH   5   6
ATOM      6  C   UNL     1      47.475  30.007  91.036  1.00  0.00     0.000 C 
BRANCH   6   7
ATOM      7  C   UNL     1      48.938  30.406  91.343  1.00  0.00     0.000 C 
BRANCH   7   8
ATOM      8  C   UNL     1      49.976  29.384  90.842  1.00  0.00     0.000 C 
BRANCH   8   9
ATOM      9  C   UNL     1      50.602  29.720  89.478  1.00  0.00     0.000 C 
BRANCH   9  10
ATOM     10  C   UNL     1      51.055  31.188  89.375  1.00  0.00     0.006 C 
BRANCH  10  11
ATOM     11  C   UNL     1      52.538  31.363  89.729  1.00  0.00     0.053 C 
BRANCH  11  12
ATOM     12  C   UNL     1      52.731  32.277  90.900  1.00  0.00     0.041 C 
ATOM     13  O   UNL     1      53.713  33.064  90.934  1.00  0.00    -0.550 OA
ATOM     14  O   UNL     1      51.841  32.240  91.965  1.00  0.00    -0.550 OA
ENDBRANCH  11  12
ENDBRANCH  10  11
ENDBRANCH   9  10
ENDBRANCH   8   9
ENDBRANCH   7   8
ENDBRANCH   6   7
ENDBRANCH   5   6
ENDBRANCH   4   5
ENDBRANCH   3   4
ENDBRANCH   2   3
ENDBRANCH   1   2
BRANCH   1  15
ATOM     15  C   UNL     1      48.526  32.915  85.410  1.00  0.00     0.000 C 
BRANCH  15  16
ATOM     16  C   UNL     1      49.191  34.281  85.660  1.00  0.00     0.000 C 
BRANCH  16  17
ATOM     17  C   UNL     1      48.727  35.018  86.931  1.00  0.00     0.000 C 
BRANCH  17  18
ATOM     18  C   UNL     1      49.894  35.572  87.765  1.00  0.00    -0.000 C 
BRANCH  18  19
ATOM     19  C   UNL     1      50.950  34.501  88.092  1.00  0.00    -0.000 C 
BRANCH  19  20
ATOM     20  C   UNL     1      52.411  34.933  87.854  1.00  0.00    -0.000 C 
BRANCH  20  21
ATOM     21  C   UNL     1      53.327  33.851  87.243  1.00  0.00    -0.000 C 
BRANCH  21  22
ATOM     22  C   UNL     1      52.874  33.311  85.874  1.00  0.00    -0.000 C 
BRANCH  22  23
ATOM     23  C   UNL     1      52.880  34.384  84.776  1.00  0.00    -0.000 C 
BRANCH  23  24
ATOM     24  C   UNL     1      52.899  33.742  83.383  1.00  0.00    -0.000 C 
BRANCH  24  25
ATOM     25  C   UNL     1      51.503  33.760  82.750  1.00  0.00    -0.003 C 
ATOM     26  C   UNL     1      50.947  32.347  82.604  1.00  0.00     0.004 C 
ENDBRANCH  24  25
ENDBRANCH  23  24
ENDBRANCH  22  23
ENDBRANCH  21  22
ENDBRANCH  20  21
ENDBRANCH  19  20
ENDBRANCH  18  19
ENDBRANCH  17  18
ENDBRANCH  16  17
ENDBRANCH  15  16
ENDBRANCH   1  15
TORSDOF 22
ENDMDL
MODEL 6
REMARK VINA RESULT:    -3.150      2.649      5.013
REMARK INTER + INTRA:         -11.458
REMARK INTER:                  -7.276
REMARK INTRA:                  -4.182
REMARK UNBOUND:                -4.258
REMARK SMILES CCCCCCCCCCCCCCCCCCCCCCCC(=O)[O-]
REMARK SMILES IDX 13 1 14 2 15 3 16 4 17 5 18 6 19 7 20 8 21 9 22 10 23 11
REMARK SMILES IDX 24 12 25 13 26 14 12 15 11 16 10 17 9 18 8 19 7 20 6 21 5 22
REMARK SMILES IDX 4 23 3 24 2 25 1 26
REMARK H PARENT
REMARK Flexibility Score: inf
ROOT
ATOM      1  C   UNL     1      48.683  33.764  87.025  1.00  0.00     0.000 C 
ENDROOT
BRANCH   1   2
ATOM      2  C   UNL     1      48.076  32.854  88.114  1.00  0.00     0.000 C 
BRANCH   2   3
ATOM      3  C   UNL     1      47.486  31.552  87.545  1.00  0.00     0.000 C 
BRANCH   3   4
ATOM      4  C   UNL     1      46.570  30.830  88.545  1.00  0.00     0.000 C 
BRANCH   4   5
ATOM      5  C   UNL     1      46.322  31.632  89.843  1.00  0.00     0.000 C 
BRANCH   5   6
ATOM      6  C   UNL     1      46.720  30.856  91.113  1.00  0.00     0.000 C 
BRANCH   6   7
ATOM      7  C   UNL     1      47.672  29.672  90.825  1.00  0.00     0.000 C 
BRANCH   7   8
ATOM      8  C   UNL     1      49.163  30.021  90.998  1.00  0.00     0.000 C 
BRANCH   8   9
ATOM      9  C   UNL     1      50.042  29.712  89.774  1.00  0.00     0.000 C 
BRANCH   9  10
ATOM     10  C   UNL     1      50.947  30.892  89.378  1.00  0.00     0.006 C 
BRANCH  10  11
ATOM     11  C   UNL     1      50.950  32.001  90.438  1.00  0.00     0.053 C 
BRANCH  11  12
ATOM     12  C   UNL     1      52.277  32.119  91.122  1.00  0.00     0.041 C 
ATOM     13  O   UNL     1      52.469  31.559  92.233  1.00  0.00    -0.550 OA
ATOM     14  O   UNL     1      53.293  32.870  90.546  1.00  0.00    -0.550 OA
ENDBRANCH  11  12
ENDBRANCH  10  11
ENDBRANCH   9  10
ENDBRANCH   8   9
ENDBRANCH   7   8
ENDBRANCH   6   7
ENDBRANCH   5   6
ENDBRANCH   4   5
ENDBRANCH   3   4
ENDBRANCH   2   3
ENDBRANCH   1   2
BRANCH   1  15
ATOM     15  C   UNL     1      49.110  35.154  87.534  1.00  0.00     0.000 C 
BRANCH  15  16
ATOM     16  C   UNL     1      50.623  35.342  87.748  1.00  0.00     0.000 C 
BRANCH  16  17
ATOM     17  C   UNL     1      51.486  34.090  87.494  1.00  0.00     0.000 C 
BRANCH  17  18
ATOM     18  C   UNL     1      52.833  34.413  86.827  1.00  0.00    -0.000 C 
BRANCH  18  19
ATOM     19  C   UNL     1      53.137  33.495  85.629  1.00  0.00    -0.000 C 
BRANCH  19  20
ATOM     20  C   UNL     1      53.158  34.198  84.258  1.00  0.00    -0.000 C 
BRANCH  20  21
ATOM     21  C   UNL     1      51.963  33.880  83.334  1.00  0.00    -0.000 C 
BRANCH  21  22
ATOM     22  C   UNL     1      50.762  33.213  84.030  1.00  0.00    -0.000 C 
BRANCH  22  23
ATOM     23  C   UNL     1      50.468  31.804  83.496  1.00  0.00    -0.000 C 
BRANCH  23  24
ATOM     24  C   UNL     1      49.561  31.030  84.461  1.00  0.00    -0.000 C 
BRANCH  24  25
ATOM     25  C   UNL     1      50.320  30.639  85.735  1.00  0.00    -0.003 C 
ATOM     26  C   UNL     1      50.095  29.170  86.080  1.00  0.00     0.004 C 
ENDBRANCH  24  25
ENDBRANCH  23  24
ENDBRANCH  22  23
ENDBRANCH  21  22
ENDBRANCH  20  21
ENDBRANCH  19  20
ENDBRANCH  18  19
ENDBRANCH  17  18
ENDBRANCH  16  17
ENDBRANCH  15  16
ENDBRANCH   1  15
TORSDOF 22
ENDMDL
MODEL 7
REMARK VINA RESULT:    -3.142      3.073      5.151
REMARK INTER + INTRA:         -11.440
REMARK INTER:                  -7.120
REMARK INTRA:                  -4.320
REMARK UNBOUND:                -4.258
REMARK SMILES CCCCCCCCCCCCCCCCCCCCCCCC(=O)[O-]
REMARK SMILES IDX 13 1 14 2 15 3 16 4 17 5 18 6 19 7 20 8 21 9 22 10 23 11
REMARK SMILES IDX 24 12 25 13 26 14 12 15 11 16 10 17 9 18 8 19 7 20 6 21 5 22
REMARK SMILES IDX 4 23 3 24 2 25 1 26
REMARK H PARENT
REMARK Flexibility Score: inf
ROOT
ATOM      1  C   UNL     1      49.717  33.581  87.983  1.00  0.00     0.000 C 
ENDROOT
BRANCH   1   2
ATOM      2  C   UNL     1      48.222  33.222  87.856  1.00  0.00     0.000 C 
BRANCH   2   3
ATOM      3  C   UNL     1      47.993  31.805  87.302  1.00  0.00     0.000 C 
BRANCH   3   4
ATOM      4  C   UNL     1      49.265  30.943  87.335  1.00  0.00     0.000 C 
BRANCH   4   5
ATOM      5  C   UNL     1      49.110  29.649  88.166  1.00  0.00     0.000 C 
BRANCH   5   6
ATOM      6  C   UNL     1      47.833  29.639  89.028  1.00  0.00     0.000 C 
BRANCH   6   7
ATOM      7  C   UNL     1      48.129  29.614  90.546  1.00  0.00     0.000 C 
BRANCH   7   8
ATOM      8  C   UNL     1      48.632  30.961  91.101  1.00  0.00     0.000 C 
BRANCH   8   9
ATOM      9  C   UNL     1      50.073  30.938  91.636  1.00  0.00     0.000 C 
BRANCH   9  10
ATOM     10  C   UNL     1      51.082  31.564  90.657  1.00  0.00     0.006 C 
BRANCH  10  11
ATOM     11  C   UNL     1      52.314  32.130  91.378  1.00  0.00     0.053 C 
BRANCH  11  12
ATOM     12  C   UNL     1      53.592  31.665  90.752  1.00  0.00     0.041 C 
ATOM     13  O   UNL     1      53.602  31.255  89.561  1.00  0.00    -0.550 OA
ATOM     14  O   UNL     1      54.767  31.659  91.492  1.00  0.00    -0.550 OA
ENDBRANCH  11  12
ENDBRANCH  10  11
ENDBRANCH   9  10
ENDBRANCH   8   9
ENDBRANCH   7   8
ENDBRANCH   6   7
ENDBRANCH   5   6
ENDBRANCH   4   5
ENDBRANCH   3   4
ENDBRANCH   2   3
ENDBRANCH   1   2
BRANCH   1  15
ATOM     15  C   UNL     1      50.036  35.056  87.675  1.00  0.00     0.000 C 
BRANCH  15  16
ATOM     16  C   UNL     1      51.474  35.501  88.000  1.00  0.00     0.000 C 
BRANCH  16  17
ATOM     17  C   UNL     1      52.412  34.387  88.503  1.00  0.00     0.000 C 
BRANCH  17  18
ATOM     18  C   UNL     1      53.692  34.252  87.661  1.00  0.00    -0.000 C 
BRANCH  18  19
ATOM     19  C   UNL     1      53.404  33.844  86.205  1.00  0.00    -0.000 C 
BRANCH  19  20
ATOM     20  C   UNL     1      52.713  32.476  86.036  1.00  0.00    -0.000 C 
BRANCH  20  21
ATOM     21  C   UNL     1      51.592  32.429  84.976  1.00  0.00    -0.000 C 
BRANCH  21  22
ATOM     22  C   UNL     1      51.872  33.237  83.695  1.00  0.00    -0.000 C 
BRANCH  22  23
ATOM     23  C   UNL     1      50.689  34.120  83.275  1.00  0.00    -0.000 C 
BRANCH  23  24
ATOM     24  C   UNL     1      49.551  34.037  84.299  1.00  0.00    -0.000 C 
BRANCH  24  25
ATOM     25  C   UNL     1      48.197  33.855  83.605  1.00  0.00    -0.003 C 
ATOM     26  C   UNL     1      47.714  32.411  83.710  1.00  0.00     0.004 C 
ENDBRANCH  24  25
ENDBRANCH  23  24
ENDBRANCH  22  23
ENDBRANCH  21  22
ENDBRANCH  20  21
ENDBRANCH  19  20
ENDBRANCH  18  19
ENDBRANCH  17  18
ENDBRANCH  16  17
ENDBRANCH  15  16
ENDBRANCH   1  15
TORSDOF 22
ENDMDL
MODEL 8
REMARK VINA RESULT:    -3.120      3.305      6.856
REMARK INTER + INTRA:         -11.390
REMARK INTER:                  -7.253
REMARK INTRA:                  -4.137
REMARK UNBOUND:                -4.258
REMARK SMILES CCCCCCCCCCCCCCCCCCCCCCCC(=O)[O-]
REMARK SMILES IDX 13 1 14 2 15 3 16 4 17 5 18 6 19 7 20 8 21 9 22 10 23 11
REMARK SMILES IDX 24 12 25 13 26 14 12 15 11 16 10 17 9 18 8 19 7 20 6 21 5 22
REMARK SMILES IDX 4 23 3 24 2 25 1 26
REMARK H PARENT
REMARK Flexibility Score: inf
ROOT
ATOM      1  C   UNL     1      49.875  30.178  86.556  1.00  0.00     0.000 C 
ENDROOT
BRANCH   1   2
ATOM      2  C   UNL     1      49.600  31.255  85.486  1.00  0.00     0.000 C 
BRANCH   2   3
ATOM      3  C   UNL     1      48.436  32.188  85.863  1.00  0.00     0.000 C 
BRANCH   3   4
ATOM      4  C   UNL     1      48.032  32.065  87.340  1.00  0.00     0.000 C 
BRANCH   4   5
ATOM      5  C   UNL     1      48.416  33.300  88.187  1.00  0.00     0.000 C 
BRANCH   5   6
ATOM      6  C   UNL     1      48.606  34.573  87.341  1.00  0.00     0.000 C 
BRANCH   6   7
ATOM      7  C   UNL     1      49.915  35.328  87.669  1.00  0.00     0.000 C 
BRANCH   7   8
ATOM      8  C   UNL     1      51.121  34.399  87.911  1.00  0.00     0.000 C 
BRANCH   8   9
ATOM      9  C   UNL     1      52.428  34.856  87.243  1.00  0.00     0.000 C 
BRANCH   9  10
ATOM     10  C   UNL     1      52.980  33.822  86.245  1.00  0.00     0.006 C 
BRANCH  10  11
ATOM     11  C   UNL     1      52.974  34.349  84.803  1.00  0.00     0.053 C 
BRANCH  11  12
ATOM     12  C   UNL     1      51.837  33.787  84.006  1.00  0.00     0.041 C 
ATOM     13  O   UNL     1      52.023  32.800  83.246  1.00  0.00    -0.550 OA
ATOM     14  O   UNL     1      50.579  34.370  84.082  1.00  0.00    -0.550 OA
ENDBRANCH  11  12
ENDBRANCH  10  11
ENDBRANCH   9  10
ENDBRANCH   8   9
ENDBRANCH   7   8
ENDBRANCH   6   7
ENDBRANCH   5   6
ENDBRANCH   4   5
ENDBRANCH   3   4
ENDBRANCH   2   3
ENDBRANCH   1   2
BRANCH   1  15
ATOM     15  C   UNL     1      51.339  30.123  87.031  1.00  0.00     0.000 C 
BRANCH  15  16
ATOM     16  C   UNL     1      51.672  31.008  88.246  1.00  0.00     0.000 C 
BRANCH  16  17
ATOM     17  C   UNL     1      53.162  31.057  88.638  1.00  0.00     0.000 C 
BRANCH  17  18
ATOM     18  C   UNL     1      53.381  31.305  90.139  1.00  0.00    -0.000 C 
BRANCH  18  19
ATOM     19  C   UNL     1      52.298  32.209  90.756  1.00  0.00    -0.000 C 
BRANCH  19  20
ATOM     20  C   UNL     1      51.865  31.825  92.185  1.00  0.00    -0.000 C 
BRANCH  20  21
ATOM     21  C   UNL     1      50.621  30.916  92.274  1.00  0.00    -0.000 C 
BRANCH  21  22
ATOM     22  C   UNL     1      49.545  31.175  91.203  1.00  0.00    -0.000 C 
BRANCH  22  23
ATOM     23  C   UNL     1      49.055  29.888  90.524  1.00  0.00    -0.000 C 
BRANCH  23  24
ATOM     24  C   UNL     1      47.523  29.844  90.473  1.00  0.00    -0.000 C 
BRANCH  24  25
ATOM     25  C   UNL     1      46.921  31.197  90.868  1.00  0.00    -0.003 C 
ATOM     26  C   UNL     1      45.480  31.041  91.343  1.00  0.00     0.004 C 
ENDBRANCH  24  25
ENDBRANCH  23  24
ENDBRANCH  22  23
ENDBRANCH  21  22
ENDBRANCH  20  21
ENDBRANCH  19  20
ENDBRANCH  18  19
ENDBRANCH  17  18
ENDBRANCH  16  17
ENDBRANCH  15  16
ENDBRANCH   1  15
TORSDOF 22
ENDMDL
MODEL 9
REMARK VINA RESULT:    -3.120      1.138      3.094
REMARK INTER + INTRA:         -11.390
REMARK INTER:                  -7.566
REMARK INTRA:                  -3.824
REMARK UNBOUND:                -4.258
REMARK SMILES CCCCCCCCCCCCCCCCCCCCCCCC(=O)[O-]
REMARK SMILES IDX 13 1 14 2 15 3 16 4 17 5 18 6 19 7 20 8 21 9 22 10 23 11
REMARK SMILES IDX 24 12 25 13 26 14 12 15 11 16 10 17 9 18 8 19 7 20 6 21 5 22
REMARK SMILES IDX 4 23 3 24 2 25 1 26
REMARK H PARENT
REMARK Flexibility Score: inf
ROOT
ATOM      1  C   UNL     1      51.342  34.630  86.889  1.00  0.00     0.000 C 
ENDROOT
BRANCH   1   2
ATOM      2  C   UNL     1      52.238  33.559  87.546  1.00  0.00     0.000 C 
BRANCH   2   3
ATOM      3  C   UNL     1      52.051  33.476  89.071  1.00  0.00     0.000 C 
BRANCH   3   4
ATOM      4  C   UNL     1      51.559  32.096  89.534  1.00  0.00     0.000 C 
BRANCH   4   5
ATOM      5  C   UNL     1      51.574  31.920  91.070  1.00  0.00     0.000 C 
BRANCH   5   6
ATOM      6  C   UNL     1      50.315  31.212  91.605  1.00  0.00     0.000 C 
BRANCH   6   7
ATOM      7  C   UNL     1      49.522  30.472  90.502  1.00  0.00     0.000 C 
BRANCH   7   8
ATOM      8  C   UNL     1      48.150  29.950  90.971  1.00  0.00     0.000 C 
BRANCH   8   9
ATOM      9  C   UNL     1      46.973  30.319  90.053  1.00  0.00     0.000 C 
BRANCH   9  10
ATOM     10  C   UNL     1      46.192  31.549  90.551  1.00  0.00     0.006 C 
BRANCH  10  11
ATOM     11  C   UNL     1      44.725  31.219  90.855  1.00  0.00     0.053 C 
BRANCH  11  12
ATOM     12  C   UNL     1      44.514  30.883  92.299  1.00  0.00     0.041 C 
ATOM     13  O   UNL     1      44.167  31.778  93.114  1.00  0.00    -0.550 OA
ATOM     14  O   UNL     1      44.727  29.587  92.750  1.00  0.00    -0.550 OA
ENDBRANCH  11  12
ENDBRANCH  10  11
ENDBRANCH   9  10
ENDBRANCH   8   9
ENDBRANCH   7   8
ENDBRANCH   6   7
ENDBRANCH   5   6
ENDBRANCH   4   5
ENDBRANCH   3   4
ENDBRANCH   2   3
ENDBRANCH   1   2
BRANCH   1  15
ATOM     15  C   UNL     1      50.155  35.078  87.763  1.00  0.00     0.000 C 
BRANCH  15  16
ATOM     16  C   UNL     1      48.787  34.489  87.368  1.00  0.00     0.000 C 
BRANCH  16  17
ATOM     17  C   UNL     1      48.468  33.105  87.964  1.00  0.00     0.000 C 
BRANCH  17  18
ATOM     18  C   UNL     1      47.804  32.154  86.955  1.00  0.00    -0.000 C 
BRANCH  18  19
ATOM     19  C   UNL     1      48.650  30.898  86.678  1.00  0.00    -0.000 C 
BRANCH  19  20
ATOM     20  C   UNL     1      50.082  31.175  86.178  1.00  0.00    -0.000 C 
BRANCH  20  21
ATOM     21  C   UNL     1      50.431  30.565  84.804  1.00  0.00    -0.000 C 
BRANCH  21  22
ATOM     22  C   UNL     1      50.466  31.568  83.636  1.00  0.00    -0.000 C 
BRANCH  22  23
ATOM     23  C   UNL     1      49.970  32.966  84.032  1.00  0.00    -0.000 C 
BRANCH  23  24
ATOM     24  C   UNL     1      50.753  34.056  83.290  1.00  0.00    -0.000 C 
BRANCH  24  25
ATOM     25  C   UNL     1      52.129  33.543  82.851  1.00  0.00    -0.003 C 
ATOM     26  C   UNL     1      53.229  34.062  83.772  1.00  0.00     0.004 C 
ENDBRANCH  24  25
ENDBRANCH  23  24
ENDBRANCH  22  23
ENDBRANCH  21  22
ENDBRANCH  20  21
ENDBRANCH  19  20
ENDBRANCH  18  19
ENDBRANCH  17  18
ENDBRANCH  16  17
ENDBRANCH  15  16
ENDBRANCH   1  15
TORSDOF 22
ENDMDL
