MODEL 1
REMARK VINA RESULT:    -3.128      0.000      0.000
REMARK INTER + INTRA:          -6.810
REMARK INTER:                  -5.322
REMARK INTRA:                  -1.488
REMARK UNBOUND:                -1.488
REMARK SMILES CCCCCCCCCCCCCC(=O)[O-]
REMARK SMILES IDX 8 1 9 2 10 3 11 4 12 5 13 6 14 7 15 8 16 9 7 10 6 11 5 12
REMARK SMILES IDX 4 13 3 14 2 15 1 16
REMARK H PARENT
REMARK Flexibility Score: inf
ROOT
ATOM      1  C   UNL     1       7.607 -36.039  15.433  1.00  0.00     0.000 C 
ENDROOT
BRANCH   1   2
ATOM      2  C   UNL     1       6.705 -35.406  16.502  1.00  0.00     0.000 C 
BRANCH   2   3
ATOM      3  C   UNL     1       7.345 -35.396  17.902  1.00  0.00     0.000 C 
BRANCH   3   4
ATOM      4  C   UNL     1       7.370 -34.022  18.595  1.00  0.00     0.000 C 
BRANCH   4   5
ATOM      5  C   UNL     1       7.472 -32.852  17.602  1.00  0.00     0.006 C 
BRANCH   5   6
ATOM      6  C   UNL     1       8.912 -32.620  17.126  1.00  0.00     0.053 C 
BRANCH   6   7
ATOM      7  C   UNL     1       9.617 -31.603  17.973  1.00  0.00     0.041 C 
ATOM      8  O   UNL     1       9.509 -31.637  19.227  1.00  0.00    -0.550 OA
ATOM      9  O   UNL     1      10.364 -30.597  17.373  1.00  0.00    -0.550 OA
ENDBRANCH   6   7
ENDBRANCH   5   6
ENDBRANCH   4   5
ENDBRANCH   3   4
ENDBRANCH   2   3
ENDBRANCH   1   2
BRANCH   1  10
ATOM     10  C   UNL     1       7.277 -35.486  14.039  1.00  0.00     0.000 C 
BRANCH  10  11
ATOM     11  C   UNL     1       6.509 -34.156  14.096  1.00  0.00    -0.000 C 
BRANCH  11  12
ATOM     12  C   UNL     1       7.368 -32.958  13.666  1.00  0.00    -0.000 C 
BRANCH  12  13
ATOM     13  C   UNL     1       8.599 -33.420  12.876  1.00  0.00    -0.000 C 
BRANCH  13  14
ATOM     14  C   UNL     1       9.793 -32.486  13.121  1.00  0.00    -0.000 C 
BRANCH  14  15
ATOM     15  C   UNL     1      11.124 -33.244  13.236  1.00  0.00    -0.003 C 
ATOM     16  C   UNL     1      10.952 -34.760  13.139  1.00  0.00     0.004 C 
ENDBRANCH  14  15
ENDBRANCH  13  14
ENDBRANCH  12  13
ENDBRANCH  11  12
ENDBRANCH  10  11
ENDBRANCH   1  10
TORSDOF 12
ENDMDL
MODEL 2
REMARK VINA RESULT:    -3.086      1.260      1.962
REMARK INTER + INTRA:          -6.739
REMARK INTER:                  -5.139
REMARK INTRA:                  -1.600
REMARK UNBOUND:                -1.488
REMARK SMILES CCCCCCCCCCCCCC(=O)[O-]
REMARK SMILES IDX 8 1 9 2 10 3 11 4 12 5 13 6 14 7 15 8 16 9 7 10 6 11 5 12
REMARK SMILES IDX 4 13 3 14 2 15 1 16
REMARK H PARENT
REMARK Flexibility Score: inf
ROOT
ATOM      1  C   UNL     1       5.878 -36.281  16.089  1.00  0.00     0.000 C 
ENDROOT
BRANCH   1   2
ATOM      2  C   UNL     1       6.962 -36.663  17.107  1.00  0.00     0.000 C 
BRANCH   2   3
ATOM      3  C   UNL     1       7.701 -35.444  17.687  1.00  0.00     0.000 C 
BRANCH   3   4
ATOM      4  C   UNL     1       8.237 -34.451  16.639  1.00  0.00     0.000 C 
BRANCH   4   5
ATOM      5  C   UNL     1       7.713 -33.020  16.846  1.00  0.00     0.006 C 
BRANCH   5   6
ATOM      6  C   UNL     1       7.936 -32.523  18.280  1.00  0.00     0.053 C 
BRANCH   6   7
ATOM      7  C   UNL     1       9.217 -31.755  18.406  1.00  0.00     0.041 C 
ATOM      8  O   UNL     1       9.630 -31.391  19.538  1.00  0.00    -0.550 OA
ATOM      9  O   UNL     1       9.935 -31.412  17.267  1.00  0.00    -0.550 OA
ENDBRANCH   6   7
ENDBRANCH   5   6
ENDBRANCH   4   5
ENDBRANCH   3   4
ENDBRANCH   2   3
ENDBRANCH   1   2
BRANCH   1  10
ATOM     10  C   UNL     1       5.935 -37.197  14.857  1.00  0.00     0.000 C 
BRANCH  10  11
ATOM     11  C   UNL     1       6.584 -36.516  13.642  1.00  0.00    -0.000 C 
BRANCH  11  12
ATOM     12  C   UNL     1       8.119 -36.547  13.696  1.00  0.00    -0.000 C 
BRANCH  12  13
ATOM     13  C   UNL     1       8.719 -35.328  12.986  1.00  0.00    -0.000 C 
BRANCH  13  14
ATOM     14  C   UNL     1       7.797 -34.107  13.114  1.00  0.00    -0.000 C 
BRANCH  14  15
ATOM     15  C   UNL     1       8.556 -32.777  12.994  1.00  0.00    -0.003 C 
ATOM     16  C   UNL     1       9.940 -32.824  13.641  1.00  0.00     0.004 C 
ENDBRANCH  14  15
ENDBRANCH  13  14
ENDBRANCH  12  13
ENDBRANCH  11  12
ENDBRANCH  10  11
ENDBRANCH   1  10
TORSDOF 12
ENDMDL
MODEL 3
REMARK VINA RESULT:    -2.964      2.177      4.816
REMARK INTER + INTRA:          -6.532
REMARK INTER:                  -5.104
REMARK INTRA:                  -1.427
REMARK UNBOUND:                -1.488
REMARK SMILES CCCCCCCCCCCCCC(=O)[O-]
REMARK SMILES IDX 8 1 9 2 10 3 11 4 12 5 13 6 14 7 15 8 16 9 7 10 6 11 5 12
REMARK SMILES IDX 4 13 3 14 2 15 1 16
REMARK H PARENT
REMARK Flexibility Score: inf
ROOT
ATOM      1  C   UNL     1       8.431 -32.911  17.383  1.00  0.00     0.000 C 
ENDROOT
BRANCH   1   2
ATOM      2  C   UNL     1       8.533 -32.595  15.884  1.00  0.00     0.000 C 
BRANCH   2   3
ATOM      3  C   UNL     1       7.250 -32.940  15.107  1.00  0.00     0.000 C 
BRANCH   3   4
ATOM      4  C   UNL     1       7.401 -32.947  13.574  1.00  0.00     0.000 C 
BRANCH   4   5
ATOM      5  C   UNL     1       8.825 -32.596  13.111  1.00  0.00     0.006 C 
BRANCH   5   6
ATOM      6  C   UNL     1       9.682 -33.846  12.875  1.00  0.00     0.053 C 
BRANCH   6   7
ATOM      7  C   UNL     1      11.139 -33.562  13.080  1.00  0.00     0.041 C 
ATOM      8  O   UNL     1      11.996 -34.462  12.876  1.00  0.00    -0.550 OA
ATOM      9  O   UNL     1      11.548 -32.313  13.530  1.00  0.00    -0.550 OA
ENDBRANCH   6   7
ENDBRANCH   5   6
ENDBRANCH   4   5
ENDBRANCH   3   4
ENDBRANCH   2   3
ENDBRANCH   1   2
BRANCH   1  10
ATOM     10  C   UNL     1       7.158 -33.714  17.688  1.00  0.00     0.000 C 
BRANCH  10  11
ATOM     11  C   UNL     1       7.460 -35.127  18.212  1.00  0.00    -0.000 C 
BRANCH  11  12
ATOM     12  C   UNL     1       7.109 -36.223  17.194  1.00  0.00    -0.000 C 
BRANCH  12  13
ATOM     13  C   UNL     1       5.969 -35.771  16.272  1.00  0.00    -0.000 C 
BRANCH  13  14
ATOM     14  C   UNL     1       6.086 -36.429  14.890  1.00  0.00    -0.000 C 
BRANCH  14  15
ATOM     15  C   UNL     1       7.543 -36.570  14.423  1.00  0.00    -0.003 C 
ATOM     16  C   UNL     1       7.722 -37.656  13.361  1.00  0.00     0.004 C 
ENDBRANCH  14  15
ENDBRANCH  13  14
ENDBRANCH  12  13
ENDBRANCH  11  12
ENDBRANCH  10  11
ENDBRANCH   1  10
TORSDOF 12
ENDMDL
MODEL 4
REMARK VINA RESULT:    -2.889      2.272      4.679
REMARK INTER + INTRA:          -6.403
REMARK INTER:                  -4.931
REMARK INTRA:                  -1.472
REMARK UNBOUND:                -1.488
REMARK SMILES CCCCCCCCCCCCCC(=O)[O-]
REMARK SMILES IDX 8 1 9 2 10 3 11 4 12 5 13 6 14 7 15 8 16 9 7 10 6 11 5 12
REMARK SMILES IDX 4 13 3 14 2 15 1 16
REMARK H PARENT
REMARK Flexibility Score: inf
ROOT
ATOM      1  C   UNL     1       6.008 -36.104  15.577  1.00  0.00     0.000 C 
ENDROOT
BRANCH   1   2
ATOM      2  C   UNL     1       6.400 -37.230  14.610  1.00  0.00     0.000 C 
BRANCH   2   3
ATOM      3  C   UNL     1       6.617 -36.736  13.168  1.00  0.00     0.000 C 
BRANCH   3   4
ATOM      4  C   UNL     1       7.642 -35.597  13.019  1.00  0.00     0.000 C 
BRANCH   4   5
ATOM      5  C   UNL     1       9.057 -36.002  13.467  1.00  0.00     0.006 C 
BRANCH   5   6
ATOM      6  C   UNL     1       9.714 -34.931  14.348  1.00  0.00     0.053 C 
BRANCH   6   7
ATOM      7  C   UNL     1      10.097 -33.720  13.553  1.00  0.00     0.041 C 
ATOM      8  O   UNL     1      11.171 -33.705  12.898  1.00  0.00    -0.550 OA
ATOM      9  O   UNL     1       9.281 -32.595  13.564  1.00  0.00    -0.550 OA
ENDBRANCH   6   7
ENDBRANCH   5   6
ENDBRANCH   4   5
ENDBRANCH   3   4
ENDBRANCH   2   3
ENDBRANCH   1   2
BRANCH   1  10
ATOM     10  C   UNL     1       6.719 -36.271  16.929  1.00  0.00     0.000 C 
BRANCH  10  11
ATOM     11  C   UNL     1       7.376 -34.970  17.418  1.00  0.00    -0.000 C 
BRANCH  11  12
ATOM     12  C   UNL     1       7.083 -33.776  16.496  1.00  0.00    -0.000 C 
BRANCH  12  13
ATOM     13  C   UNL     1       7.974 -32.579  16.847  1.00  0.00    -0.000 C 
BRANCH  13  14
ATOM     14  C   UNL     1       8.134 -32.439  18.368  1.00  0.00    -0.000 C 
BRANCH  14  15
ATOM     15  C   UNL     1       9.396 -31.656  18.760  1.00  0.00    -0.003 C 
ATOM     16  C   UNL     1      10.080 -30.996  17.563  1.00  0.00     0.004 C 
ENDBRANCH  14  15
ENDBRANCH  13  14
ENDBRANCH  12  13
ENDBRANCH  11  12
ENDBRANCH  10  11
ENDBRANCH   1  10
TORSDOF 12
ENDMDL
MODEL 5
REMARK VINA RESULT:    -2.804     11.514     14.354
REMARK INTER + INTRA:          -6.258
REMARK INTER:                  -5.761
REMARK INTRA:                  -0.497
REMARK UNBOUND:                -1.488
REMARK SMILES CCCCCCCCCCCCCC(=O)[O-]
REMARK SMILES IDX 8 1 9 2 10 3 11 4 12 5 13 6 14 7 15 8 16 9 7 10 6 11 5 12
REMARK SMILES IDX 4 13 3 14 2 15 1 16
REMARK H PARENT
REMARK Flexibility Score: inf
ROOT
ATOM      1  C   UNL     1      21.459 -26.619  13.998  1.00  0.00     0.000 C 
ENDROOT
BRANCH   1   2
ATOM      2  C   UNL     1      21.839 -28.036  13.547  1.00  0.00     0.000 C 
BRANCH   2   3
ATOM      3  C   UNL     1      20.660 -28.807  12.926  1.00  0.00     0.000 C 
BRANCH   3   4
ATOM      4  C   UNL     1      20.472 -30.241  13.454  1.00  0.00     0.000 C 
BRANCH   4   5
ATOM      5  C   UNL     1      19.104 -30.840  13.087  1.00  0.00     0.006 C 
BRANCH   5   6
ATOM      6  C   UNL     1      18.569 -31.774  14.180  1.00  0.00     0.053 C 
BRANCH   6   7
ATOM      7  C   UNL     1      17.072 -31.756  14.238  1.00  0.00     0.041 C 
ATOM      8  O   UNL     1      16.396 -31.733  13.176  1.00  0.00    -0.550 OA
ATOM      9  O   UNL     1      16.424 -31.730  15.467  1.00  0.00    -0.550 OA
ENDBRANCH   6   7
ENDBRANCH   5   6
ENDBRANCH   4   5
ENDBRANCH   3   4
ENDBRANCH   2   3
ENDBRANCH   1   2
BRANCH   1  10
ATOM     10  C   UNL     1      20.443 -25.990  13.032  1.00  0.00     0.000 C 
BRANCH  10  11
ATOM     11  C   UNL     1      20.635 -24.473  12.875  1.00  0.00    -0.000 C 
BRANCH  11  12
ATOM     12  C   UNL     1      19.613 -23.660  13.684  1.00  0.00    -0.000 C 
BRANCH  12  13
ATOM     13  C   UNL     1      20.089 -23.459  15.128  1.00  0.00    -0.000 C 
BRANCH  13  14
ATOM     14  C   UNL     1      20.581 -22.022  15.351  1.00  0.00    -0.000 C 
BRANCH  14  15
ATOM     15  C   UNL     1      19.580 -20.970  14.848  1.00  0.00    -0.003 C 
ATOM     16  C   UNL     1      20.129 -19.546  14.926  1.00  0.00     0.004 C 
ENDBRANCH  14  15
ENDBRANCH  13  14
ENDBRANCH  12  13
ENDBRANCH  11  12
ENDBRANCH  10  11
ENDBRANCH   1  10
TORSDOF 12
ENDMDL
MODEL 6
REMARK VINA RESULT:    -2.794      1.672      4.075
REMARK INTER + INTRA:          -6.243
REMARK INTER:                  -4.496
REMARK INTRA:                  -1.747
REMARK UNBOUND:                -1.488
REMARK SMILES CCCCCCCCCCCCCC(=O)[O-]
REMARK SMILES IDX 8 1 9 2 10 3 11 4 12 5 13 6 14 7 15 8 16 9 7 10 6 11 5 12
REMARK SMILES IDX 4 13 3 14 2 15 1 16
REMARK H PARENT
REMARK Flexibility Score: inf
ROOT
ATOM      1  C   UNL     1       9.551 -32.907  13.772  1.00  0.00     0.000 C 
ENDROOT
BRANCH   1   2
ATOM      2  C   UNL     1       8.307 -32.841  12.876  1.00  0.00     0.000 C 
BRANCH   2   3
ATOM      3  C   UNL     1       7.020 -33.276  13.599  1.00  0.00     0.000 C 
BRANCH   3   4
ATOM      4  C   UNL     1       6.947 -32.886  15.086  1.00  0.00     0.000 C 
BRANCH   4   5
ATOM      5  C   UNL     1       6.895 -34.103  16.024  1.00  0.00     0.006 C 
BRANCH   5   6
ATOM      6  C   UNL     1       8.133 -34.193  16.926  1.00  0.00     0.053 C 
BRANCH   6   7
ATOM      7  C   UNL     1       8.211 -33.035  17.874  1.00  0.00     0.041 C 
ATOM      8  O   UNL     1       7.333 -32.883  18.763  1.00  0.00    -0.550 OA
ATOM      9  O   UNL     1       9.236 -32.105  17.752  1.00  0.00    -0.550 OA
ENDBRANCH   6   7
ENDBRANCH   5   6
ENDBRANCH   4   5
ENDBRANCH   3   4
ENDBRANCH   2   3
ENDBRANCH   1   2
BRANCH   1  10
ATOM     10  C   UNL     1      10.449 -34.089  13.378  1.00  0.00     0.000 C 
BRANCH  10  11
ATOM     11  C   UNL     1       9.951 -35.427  13.948  1.00  0.00    -0.000 C 
BRANCH  11  12
ATOM     12  C   UNL     1       9.853 -36.526  12.879  1.00  0.00    -0.000 C 
BRANCH  12  13
ATOM     13  C   UNL     1       8.749 -37.533  13.226  1.00  0.00    -0.000 C 
BRANCH  13  14
ATOM     14  C   UNL     1       7.461 -36.812  13.650  1.00  0.00    -0.000 C 
BRANCH  14  15
ATOM     15  C   UNL     1       6.393 -37.778  14.187  1.00  0.00    -0.003 C 
ATOM     16  C   UNL     1       6.211 -37.676  15.701  1.00  0.00     0.004 C 
ENDBRANCH  14  15
ENDBRANCH  13  14
ENDBRANCH  12  13
ENDBRANCH  11  12
ENDBRANCH  10  11
ENDBRANCH   1  10
TORSDOF 12
ENDMDL
MODEL 7
REMARK VINA RESULT:    -2.443      2.759      4.886
REMARK INTER + INTRA:          -5.645
REMARK INTER:                  -4.416
REMARK INTRA:                  -1.229
REMARK UNBOUND:                -1.488
REMARK SMILES CCCCCCCCCCCCCC(=O)[O-]
REMARK SMILES IDX 8 1 9 2 10 3 11 4 12 5 13 6 14 7 15 8 16 9 7 10 6 11 5 12
REMARK SMILES IDX 4 13 3 14 2 15 1 16
REMARK H PARENT
REMARK Flexibility Score: inf
ROOT
ATOM      1  C   UNL     1       6.310 -36.010  16.251  1.00  0.00     0.000 C 
ENDROOT
BRANCH   1   2
ATOM      2  C   UNL     1       6.400 -37.373  15.550  1.00  0.00     0.000 C 
BRANCH   2   3
ATOM      3  C   UNL     1       6.249 -37.274  14.021  1.00  0.00     0.000 C 
BRANCH   3   4
ATOM      4  C   UNL     1       7.520 -37.608  13.220  1.00  0.00     0.000 C 
BRANCH   4   5
ATOM      5  C   UNL     1       8.629 -36.556  13.390  1.00  0.00     0.006 C 
BRANCH   5   6
ATOM      6  C   UNL     1      10.004 -37.089  12.968  1.00  0.00     0.053 C 
BRANCH   6   7
ATOM      7  C   UNL     1      11.073 -36.052  13.130  1.00  0.00     0.041 C 
ATOM      8  O   UNL     1      12.222 -36.380  13.526  1.00  0.00    -0.550 OA
ATOM      9  O   UNL     1      10.788 -34.715  12.876  1.00  0.00    -0.550 OA
ENDBRANCH   6   7
ENDBRANCH   5   6
ENDBRANCH   4   5
ENDBRANCH   3   4
ENDBRANCH   2   3
ENDBRANCH   1   2
BRANCH   1  10
ATOM     10  C   UNL     1       7.580 -35.728  17.067  1.00  0.00     0.000 C 
BRANCH  10  11
ATOM     11  C   UNL     1       7.347 -34.707  18.193  1.00  0.00    -0.000 C 
BRANCH  11  12
ATOM     12  C   UNL     1       7.343 -33.257  17.685  1.00  0.00    -0.000 C 
BRANCH  12  13
ATOM     13  C   UNL     1       8.442 -33.038  16.638  1.00  0.00    -0.000 C 
BRANCH  13  14
ATOM     14  C   UNL     1       7.858 -32.470  15.337  1.00  0.00    -0.000 C 
BRANCH  14  15
ATOM     15  C   UNL     1       7.946 -33.461  14.167  1.00  0.00    -0.003 C 
ATOM     16  C   UNL     1       6.768 -33.341  13.200  1.00  0.00     0.004 C 
ENDBRANCH  14  15
ENDBRANCH  13  14
ENDBRANCH  12  13
ENDBRANCH  11  12
ENDBRANCH  10  11
ENDBRANCH   1  10
TORSDOF 12
ENDMDL
MODEL 8
REMARK VINA RESULT:    -2.350      1.396      3.967
REMARK INTER + INTRA:          -5.486
REMARK INTER:                  -4.295
REMARK INTRA:                  -1.191
REMARK UNBOUND:                -1.488
REMARK SMILES CCCCCCCCCCCCCC(=O)[O-]
REMARK SMILES IDX 8 1 9 2 10 3 11 4 12 5 13 6 14 7 15 8 16 9 7 10 6 11 5 12
REMARK SMILES IDX 4 13 3 14 2 15 1 16
REMARK H PARENT
REMARK Flexibility Score: inf
ROOT
ATOM      1  C   UNL     1       9.680 -34.811  13.767  1.00  0.00     0.000 C 
ENDROOT
BRANCH   1   2
ATOM      2  C   UNL     1       8.834 -33.856  12.912  1.00  0.00     0.000 C 
BRANCH   2   3
ATOM      3  C   UNL     1       7.975 -32.896  13.755  1.00  0.00     0.000 C 
BRANCH   3   4
ATOM      4  C   UNL     1       7.837 -33.281  15.239  1.00  0.00     0.000 C 
BRANCH   4   5
ATOM      5  C   UNL     1       8.226 -32.139  16.193  1.00  0.00     0.006 C 
BRANCH   5   6
ATOM      6  C   UNL     1       8.877 -32.658  17.482  1.00  0.00     0.053 C 
BRANCH   6   7
ATOM      7  C   UNL     1       9.596 -31.567  18.216  1.00  0.00     0.041 C 
ATOM      8  O   UNL     1       9.363 -31.364  19.436  1.00  0.00    -0.550 OA
ATOM      9  O   UNL     1      10.497 -30.753  17.541  1.00  0.00    -0.550 OA
ENDBRANCH   6   7
ENDBRANCH   5   6
ENDBRANCH   4   5
ENDBRANCH   3   4
ENDBRANCH   2   3
ENDBRANCH   1   2
BRANCH   1  10
ATOM     10  C   UNL     1       9.790 -36.191  13.100  1.00  0.00     0.000 C 
BRANCH  10  11
ATOM     11  C   UNL     1       8.668 -37.149  13.531  1.00  0.00    -0.000 C 
BRANCH  11  12
ATOM     12  C   UNL     1       7.319 -36.811  12.879  1.00  0.00    -0.000 C 
BRANCH  12  13
ATOM     13  C   UNL     1       6.209 -36.707  13.933  1.00  0.00    -0.000 C 
BRANCH  13  14
ATOM     14  C   UNL     1       6.361 -37.799  15.001  1.00  0.00    -0.000 C 
BRANCH  14  15
ATOM     15  C   UNL     1       5.980 -37.308  16.406  1.00  0.00    -0.003 C 
ATOM     16  C   UNL     1       6.843 -36.138  16.880  1.00  0.00     0.004 C 
ENDBRANCH  14  15
ENDBRANCH  13  14
ENDBRANCH  12  13
ENDBRANCH  11  12
ENDBRANCH  10  11
ENDBRANCH   1  10
TORSDOF 12
ENDMDL
MODEL 9
REMARK VINA RESULT:    -2.058      1.619      2.908
REMARK INTER + INTRA:          -4.990
REMARK INTER:                  -3.784
REMARK INTRA:                  -1.206
REMARK UNBOUND:                -1.488
REMARK SMILES CCCCCCCCCCCCCC(=O)[O-]
REMARK SMILES IDX 8 1 9 2 10 3 11 4 12 5 13 6 14 7 15 8 16 9 7 10 6 11 5 12
REMARK SMILES IDX 4 13 3 14 2 15 1 16
REMARK H PARENT
REMARK Flexibility Score: inf
ROOT
ATOM      1  C   UNL     1       8.098 -33.129  14.933  1.00  0.00     0.000 C 
ENDROOT
BRANCH   1   2
ATOM      2  C   UNL     1       8.863 -34.386  15.373  1.00  0.00     0.000 C 
BRANCH   2   3
ATOM      3  C   UNL     1       8.244 -35.066  16.608  1.00  0.00     0.000 C 
BRANCH   3   4
ATOM      4  C   UNL     1       7.114 -34.271  17.288  1.00  0.00     0.000 C 
BRANCH   4   5
ATOM      5  C   UNL     1       7.620 -33.354  18.414  1.00  0.00     0.006 C 
BRANCH   5   6
ATOM      6  C   UNL     1       8.059 -31.981  17.888  1.00  0.00     0.053 C 
BRANCH   6   7
ATOM      7  C   UNL     1       9.375 -31.562  18.470  1.00  0.00     0.041 C 
ATOM      8  O   UNL     1      10.267 -31.069  17.731  1.00  0.00    -0.550 OA
ATOM      9  O   UNL     1       9.627 -31.749  19.823  1.00  0.00    -0.550 OA
ENDBRANCH   6   7
ENDBRANCH   5   6
ENDBRANCH   4   5
ENDBRANCH   3   4
ENDBRANCH   2   3
ENDBRANCH   1   2
BRANCH   1  10
ATOM     10  C   UNL     1       7.524 -33.304  13.519  1.00  0.00     0.000 C 
BRANCH  10  11
ATOM     11  C   UNL     1       6.056 -33.760  13.527  1.00  0.00    -0.000 C 
BRANCH  11  12
ATOM     12  C   UNL     1       5.875 -35.179  12.967  1.00  0.00    -0.000 C 
BRANCH  12  13
ATOM     13  C   UNL     1       5.955 -36.226  14.085  1.00  0.00    -0.000 C 
BRANCH  13  14
ATOM     14  C   UNL     1       6.795 -37.434  13.648  1.00  0.00    -0.000 C 
BRANCH  14  15
ATOM     15  C   UNL     1       8.164 -37.029  13.080  1.00  0.00    -0.003 C 
ATOM     16  C   UNL     1       9.220 -38.122  13.244  1.00  0.00     0.004 C 
ENDBRANCH  14  15
ENDBRANCH  13  14
ENDBRANCH  12  13
ENDBRANCH  11  12
ENDBRANCH  10  11
ENDBRANCH   1  10
TORSDOF 12
ENDMDL
