MODEL 1
REMARK VINA RESULT:    -3.850      0.000      0.000
REMARK INTER + INTRA:         -14.609
REMARK INTER:                 -10.151
REMARK INTRA:                  -4.458
REMARK UNBOUND:                -4.458
REMARK SMILES CCCCCCCCCCCCCCCCCCCCCCCCCCCCCC(=O)[O-]
REMARK SMILES IDX 16 1 17 2 18 3 19 4 20 5 21 6 22 7 23 8 24 9 25 10 26 11
REMARK SMILES IDX 27 12 28 13 29 14 30 15 31 16 32 17 15 18 14 19 13 20 12 21
REMARK SMILES IDX 11 22 10 23 9 24 8 25 7 26 6 27 5 28 4 29 3 30 2 31 1 32
REMARK H PARENT
REMARK Flexibility Score: inf
ROOT
ATOM      1  C   UNL     1       0.788   9.037  35.106  1.00  0.00     0.000 C 
ENDROOT
BRANCH   1   2
ATOM      2  C   UNL     1       0.276   9.541  36.464  1.00  0.00     0.000 C 
BRANCH   2   3
ATOM      3  C   UNL     1      -1.256   9.460  36.537  1.00  0.00     0.000 C 
BRANCH   3   4
ATOM      4  C   UNL     1      -1.792   9.639  37.967  1.00  0.00     0.000 C 
BRANCH   4   5
ATOM      5  C   UNL     1      -0.698   9.473  39.037  1.00  0.00     0.000 C 
BRANCH   5   6
ATOM      6  C   UNL     1      -1.017   8.348  40.034  1.00  0.00     0.000 C 
BRANCH   6   7
ATOM      7  C   UNL     1      -2.507   7.972  40.045  1.00  0.00     0.000 C 
BRANCH   7   8
ATOM      8  C   UNL     1      -2.706   6.520  39.585  1.00  0.00     0.000 C 
BRANCH   8   9
ATOM      9  C   UNL     1      -1.400   5.851  39.122  1.00  0.00     0.000 C 
BRANCH   9  10
ATOM     10  C   UNL     1      -1.386   5.394  37.651  1.00  0.00     0.000 C 
BRANCH  10  11
ATOM     11  C   UNL     1      -0.139   5.875  36.888  1.00  0.00     0.000 C 
BRANCH  11  12
ATOM     12  C   UNL     1       1.045   6.210  37.816  1.00  0.00     0.000 C 
BRANCH  12  13
ATOM     13  C   UNL     1       2.410   6.354  37.115  1.00  0.00     0.006 C 
BRANCH  13  14
ATOM     14  C   UNL     1       3.419   5.277  37.535  1.00  0.00     0.053 C 
BRANCH  14  15
ATOM     15  C   UNL     1       3.670   4.320  36.411  1.00  0.00     0.041 C 
ATOM     16  O   UNL     1       2.999   3.258  36.318  1.00  0.00    -0.550 OA
ATOM     17  O   UNL     1       4.655   4.595  35.470  1.00  0.00    -0.550 OA
ENDBRANCH  14  15
ENDBRANCH  13  14
ENDBRANCH  12  13
ENDBRANCH  11  12
ENDBRANCH  10  11
ENDBRANCH   9  10
ENDBRANCH   8   9
ENDBRANCH   7   8
ENDBRANCH   6   7
ENDBRANCH   5   6
ENDBRANCH   4   5
ENDBRANCH   3   4
ENDBRANCH   2   3
ENDBRANCH   1   2
BRANCH   1  18
ATOM     18  C   UNL     1       1.543  10.123  34.323  1.00  0.00     0.000 C 
BRANCH  18  19
ATOM     19  C   UNL     1       1.770   9.740  32.851  1.00  0.00     0.000 C 
BRANCH  19  20
ATOM     20  C   UNL     1       1.745   8.217  32.617  1.00  0.00     0.000 C 
BRANCH  20  21
ATOM     21  C   UNL     1       1.815   7.788  31.141  1.00  0.00     0.000 C 
BRANCH  21  22
ATOM     22  C   UNL     1       2.174   8.950  30.198  1.00  0.00     0.000 C 
BRANCH  22  23
ATOM     23  C   UNL     1       3.491   8.708  29.444  1.00  0.00     0.000 C 
BRANCH  23  24
ATOM     24  C   UNL     1       3.260   8.244  27.995  1.00  0.00    -0.000 C 
BRANCH  24  25
ATOM     25  C   UNL     1       3.332   6.714  27.842  1.00  0.00    -0.000 C 
BRANCH  25  26
ATOM     26  C   UNL     1       1.964   6.004  27.810  1.00  0.00    -0.000 C 
BRANCH  26  27
ATOM     27  C   UNL     1       1.975   4.548  28.320  1.00  0.00    -0.000 C 
BRANCH  27  28
ATOM     28  C   UNL     1       1.711   4.383  29.830  1.00  0.00    -0.000 C 
BRANCH  28  29
ATOM     29  C   UNL     1       2.838   3.683  30.614  1.00  0.00    -0.000 C 
BRANCH  29  30
ATOM     30  C   UNL     1       2.422   3.299  32.042  1.00  0.00    -0.000 C 
BRANCH  30  31
ATOM     31  C   UNL     1       2.258   4.546  32.919  1.00  0.00    -0.003 C 
ATOM     32  C   UNL     1       0.863   4.607  33.535  1.00  0.00     0.004 C 
ENDBRANCH  30  31
ENDBRANCH  29  30
ENDBRANCH  28  29
ENDBRANCH  27  28
ENDBRANCH  26  27
ENDBRANCH  25  26
ENDBRANCH  24  25
ENDBRANCH  23  24
ENDBRANCH  22  23
ENDBRANCH  21  22
ENDBRANCH  20  21
ENDBRANCH  19  20
ENDBRANCH  18  19
ENDBRANCH   1  18
TORSDOF 28
ENDMDL
MODEL 2
REMARK VINA RESULT:    -3.847      2.044      3.997
REMARK INTER + INTRA:         -14.604
REMARK INTER:                 -10.477
REMARK INTRA:                  -4.126
REMARK UNBOUND:                -4.458
REMARK SMILES CCCCCCCCCCCCCCCCCCCCCCCCCCCCCC(=O)[O-]
REMARK SMILES IDX 16 1 17 2 18 3 19 4 20 5 21 6 22 7 23 8 24 9 25 10 26 11
REMARK SMILES IDX 27 12 28 13 29 14 30 15 31 16 32 17 15 18 14 19 13 20 12 21
REMARK SMILES IDX 11 22 10 23 9 24 8 25 7 26 6 27 5 28 4 29 3 30 2 31 1 32
REMARK H PARENT
REMARK Flexibility Score: inf
ROOT
ATOM      1  C   UNL     1       2.013   7.540  38.419  1.00  0.00     0.000 C 
ENDROOT
BRANCH   1   2
ATOM      2  C   UNL     1       1.988   8.987  38.933  1.00  0.00     0.000 C 
BRANCH   2   3
ATOM      3  C   UNL     1       0.660   9.298  39.638  1.00  0.00     0.000 C 
BRANCH   3   4
ATOM      4  C   UNL     1      -0.323  10.069  38.742  1.00  0.00     0.000 C 
BRANCH   4   5
ATOM      5  C   UNL     1      -1.604   9.270  38.440  1.00  0.00     0.000 C 
BRANCH   5   6
ATOM      6  C   UNL     1      -1.512   7.813  38.917  1.00  0.00     0.000 C 
BRANCH   6   7
ATOM      7  C   UNL     1      -2.654   7.429  39.872  1.00  0.00     0.000 C 
BRANCH   7   8
ATOM      8  C   UNL     1      -2.340   7.880  41.306  1.00  0.00     0.000 C 
BRANCH   8   9
ATOM      9  C   UNL     1      -1.791   6.743  42.187  1.00  0.00     0.000 C 
BRANCH   9  10
ATOM     10  C   UNL     1      -2.166   5.322  41.728  1.00  0.00     0.000 C 
BRANCH  10  11
ATOM     11  C   UNL     1      -0.941   4.404  41.569  1.00  0.00     0.000 C 
BRANCH  11  12
ATOM     12  C   UNL     1      -0.152   4.667  40.272  1.00  0.00     0.000 C 
BRANCH  12  13
ATOM     13  C   UNL     1      -0.754   4.043  38.998  1.00  0.00     0.006 C 
BRANCH  13  14
ATOM     14  C   UNL     1      -0.019   4.460  37.718  1.00  0.00     0.053 C 
BRANCH  14  15
ATOM     15  C   UNL     1      -0.965   4.510  36.558  1.00  0.00     0.041 C 
ATOM     16  O   UNL     1      -0.609   4.080  35.428  1.00  0.00    -0.550 OA
ATOM     17  O   UNL     1      -2.237   5.043  36.720  1.00  0.00    -0.550 OA
ENDBRANCH  14  15
ENDBRANCH  13  14
ENDBRANCH  12  13
ENDBRANCH  11  12
ENDBRANCH  10  11
ENDBRANCH   9  10
ENDBRANCH   8   9
ENDBRANCH   7   8
ENDBRANCH   6   7
ENDBRANCH   5   6
ENDBRANCH   4   5
ENDBRANCH   3   4
ENDBRANCH   2   3
ENDBRANCH   1   2
BRANCH   1  18
ATOM     18  C   UNL     1       2.260   7.459  36.904  1.00  0.00     0.000 C 
BRANCH  18  19
ATOM     19  C   UNL     1       0.976   7.671  36.084  1.00  0.00     0.000 C 
BRANCH  19  20
ATOM     20  C   UNL     1       0.956   9.021  35.342  1.00  0.00     0.000 C 
BRANCH  20  21
ATOM     21  C   UNL     1       1.140   8.925  33.817  1.00  0.00     0.000 C 
BRANCH  21  22
ATOM     22  C   UNL     1       1.878   7.646  33.386  1.00  0.00     0.000 C 
BRANCH  22  23
ATOM     23  C   UNL     1       1.449   7.162  31.992  1.00  0.00     0.000 C 
BRANCH  23  24
ATOM     24  C   UNL     1       2.367   7.696  30.878  1.00  0.00    -0.000 C 
BRANCH  24  25
ATOM     25  C   UNL     1       1.898   9.053  30.321  1.00  0.00    -0.000 C 
BRANCH  25  26
ATOM     26  C   UNL     1       2.678   9.549  29.087  1.00  0.00    -0.000 C 
BRANCH  26  27
ATOM     27  C   UNL     1       4.102   8.976  28.944  1.00  0.00    -0.000 C 
BRANCH  27  28
ATOM     28  C   UNL     1       4.462   8.464  27.535  1.00  0.00    -0.000 C 
BRANCH  28  29
ATOM     29  C   UNL     1       4.480   6.931  27.385  1.00  0.00    -0.000 C 
BRANCH  29  30
ATOM     30  C   UNL     1       3.231   6.386  26.677  1.00  0.00    -0.000 C 
BRANCH  30  31
ATOM     31  C   UNL     1       2.160   5.972  27.694  1.00  0.00    -0.003 C 
ATOM     32  C   UNL     1       2.662   4.848  28.596  1.00  0.00     0.004 C 
ENDBRANCH  30  31
ENDBRANCH  29  30
ENDBRANCH  28  29
ENDBRANCH  27  28
ENDBRANCH  26  27
ENDBRANCH  25  26
ENDBRANCH  24  25
ENDBRANCH  23  24
ENDBRANCH  22  23
ENDBRANCH  21  22
ENDBRANCH  20  21
ENDBRANCH  19  20
ENDBRANCH  18  19
ENDBRANCH   1  18
TORSDOF 28
ENDMDL
MODEL 3
REMARK VINA RESULT:    -3.821      2.674      6.271
REMARK INTER + INTRA:         -14.534
REMARK INTER:                  -9.371
REMARK INTRA:                  -5.163
REMARK UNBOUND:                -4.458
REMARK SMILES CCCCCCCCCCCCCCCCCCCCCCCCCCCCCC(=O)[O-]
REMARK SMILES IDX 16 1 17 2 18 3 19 4 20 5 21 6 22 7 23 8 24 9 25 10 26 11
REMARK SMILES IDX 27 12 28 13 29 14 30 15 31 16 32 17 15 18 14 19 13 20 12 21
REMARK SMILES IDX 11 22 10 23 9 24 8 25 7 26 6 27 5 28 4 29 3 30 2 31 1 32
REMARK H PARENT
REMARK Flexibility Score: inf
ROOT
ATOM      1  C   UNL     1      -0.716   9.374  39.310  1.00  0.00     0.000 C 
ENDROOT
BRANCH   1   2
ATOM      2  C   UNL     1      -1.119   8.243  40.268  1.00  0.00     0.000 C 
BRANCH   2   3
ATOM      3  C   UNL     1      -2.585   7.840  40.056  1.00  0.00     0.000 C 
BRANCH   3   4
ATOM      4  C   UNL     1      -2.744   6.361  39.665  1.00  0.00     0.000 C 
BRANCH   4   5
ATOM      5  C   UNL     1      -1.440   5.559  39.832  1.00  0.00     0.000 C 
BRANCH   5   6
ATOM      6  C   UNL     1      -1.235   4.532  38.708  1.00  0.00     0.000 C 
BRANCH   6   7
ATOM      7  C   UNL     1      -1.915   4.947  37.394  1.00  0.00     0.000 C 
BRANCH   7   8
ATOM      8  C   UNL     1      -1.309   4.190  36.203  1.00  0.00     0.000 C 
BRANCH   8   9
ATOM      9  C   UNL     1       0.061   3.566  36.523  1.00  0.00     0.000 C 
BRANCH   9  10
ATOM     10  C   UNL     1       1.094   3.639  35.383  1.00  0.00     0.000 C 
BRANCH  10  11
ATOM     11  C   UNL     1       0.992   4.941  34.568  1.00  0.00     0.000 C 
BRANCH  11  12
ATOM     12  C   UNL     1       2.227   5.198  33.684  1.00  0.00     0.000 C 
BRANCH  12  13
ATOM     13  C   UNL     1       1.935   5.850  32.319  1.00  0.00     0.006 C 
BRANCH  13  14
ATOM     14  C   UNL     1       1.570   7.337  32.427  1.00  0.00     0.053 C 
BRANCH  14  15
ATOM     15  C   UNL     1       1.904   8.057  31.158  1.00  0.00     0.041 C 
ATOM     16  O   UNL     1       1.993   7.424  30.072  1.00  0.00    -0.550 OA
ATOM     17  O   UNL     1       2.129   9.428  31.174  1.00  0.00    -0.550 OA
ENDBRANCH  14  15
ENDBRANCH  13  14
ENDBRANCH  12  13
ENDBRANCH  11  12
ENDBRANCH  10  11
ENDBRANCH   9  10
ENDBRANCH   8   9
ENDBRANCH   7   8
ENDBRANCH   6   7
ENDBRANCH   5   6
ENDBRANCH   4   5
ENDBRANCH   3   4
ENDBRANCH   2   3
ENDBRANCH   1   2
BRANCH   1  18
ATOM     18  C   UNL     1      -1.808   9.685  38.274  1.00  0.00     0.000 C 
BRANCH  18  19
ATOM     19  C   UNL     1      -1.326   9.483  36.828  1.00  0.00     0.000 C 
BRANCH  19  20
ATOM     20  C   UNL     1      -0.515   8.187  36.642  1.00  0.00     0.000 C 
BRANCH  20  21
ATOM     21  C   UNL     1       0.858   8.373  35.972  1.00  0.00     0.000 C 
BRANCH  21  22
ATOM     22  C   UNL     1       2.023   7.895  36.856  1.00  0.00     0.000 C 
BRANCH  22  23
ATOM     23  C   UNL     1       1.598   6.795  37.842  1.00  0.00     0.000 C 
BRANCH  23  24
ATOM     24  C   UNL     1       2.800   6.159  38.563  1.00  0.00    -0.000 C 
BRANCH  24  25
ATOM     25  C   UNL     1       3.228   4.819  37.937  1.00  0.00    -0.000 C 
BRANCH  25  26
ATOM     26  C   UNL     1       4.201   4.943  36.748  1.00  0.00    -0.000 C 
BRANCH  26  27
ATOM     27  C   UNL     1       4.788   3.609  36.246  1.00  0.00    -0.000 C 
BRANCH  27  28
ATOM     28  C   UNL     1       5.353   3.642  34.812  1.00  0.00    -0.000 C 
BRANCH  28  29
ATOM     29  C   UNL     1       6.698   2.914  34.626  1.00  0.00    -0.000 C 
BRANCH  29  30
ATOM     30  C   UNL     1       7.346   2.506  35.958  1.00  0.00    -0.000 C 
BRANCH  30  31
ATOM     31  C   UNL     1       8.605   3.337  36.233  1.00  0.00    -0.003 C 
ATOM     32  C   UNL     1       9.695   2.487  36.880  1.00  0.00     0.004 C 
ENDBRANCH  30  31
ENDBRANCH  29  30
ENDBRANCH  28  29
ENDBRANCH  27  28
ENDBRANCH  26  27
ENDBRANCH  25  26
ENDBRANCH  24  25
ENDBRANCH  23  24
ENDBRANCH  22  23
ENDBRANCH  21  22
ENDBRANCH  20  21
ENDBRANCH  19  20
ENDBRANCH  18  19
ENDBRANCH   1  18
TORSDOF 28
ENDMDL
MODEL 4
REMARK VINA RESULT:    -3.764      3.058      8.230
REMARK INTER + INTRA:         -14.383
REMARK INTER:                  -7.912
REMARK INTRA:                  -6.471
REMARK UNBOUND:                -4.458
REMARK SMILES CCCCCCCCCCCCCCCCCCCCCCCCCCCCCC(=O)[O-]
REMARK SMILES IDX 16 1 17 2 18 3 19 4 20 5 21 6 22 7 23 8 24 9 25 10 26 11
REMARK SMILES IDX 27 12 28 13 29 14 30 15 31 16 32 17 15 18 14 19 13 20 12 21
REMARK SMILES IDX 11 22 10 23 9 24 8 25 7 26 6 27 5 28 4 29 3 30 2 31 1 32
REMARK H PARENT
REMARK Flexibility Score: inf
ROOT
ATOM      1  C   UNL     1       1.654   9.923  39.391  1.00  0.00     0.000 C 
ENDROOT
BRANCH   1   2
ATOM      2  C   UNL     1       2.432   9.561  38.117  1.00  0.00     0.000 C 
BRANCH   2   3
ATOM      3  C   UNL     1       1.495   8.976  37.049  1.00  0.00     0.000 C 
BRANCH   3   4
ATOM      4  C   UNL     1       1.868   7.538  36.655  1.00  0.00     0.000 C 
BRANCH   4   5
ATOM      5  C   UNL     1       2.604   6.786  37.779  1.00  0.00     0.000 C 
BRANCH   5   6
ATOM      6  C   UNL     1       3.265   5.490  37.284  1.00  0.00     0.000 C 
BRANCH   6   7
ATOM      7  C   UNL     1       4.205   4.868  38.328  1.00  0.00     0.000 C 
BRANCH   7   8
ATOM      8  C   UNL     1       4.229   3.338  38.197  1.00  0.00     0.000 C 
BRANCH   8   9
ATOM      9  C   UNL     1       3.805   2.847  36.801  1.00  0.00     0.000 C 
BRANCH   9  10
ATOM     10  C   UNL     1       2.798   1.682  36.796  1.00  0.00     0.000 C 
BRANCH  10  11
ATOM     11  C   UNL     1       1.806   1.756  35.621  1.00  0.00     0.000 C 
BRANCH  11  12
ATOM     12  C   UNL     1       1.711   3.162  34.998  1.00  0.00     0.000 C 
BRANCH  12  13
ATOM     13  C   UNL     1       2.275   3.288  33.571  1.00  0.00     0.006 C 
BRANCH  13  14
ATOM     14  C   UNL     1       2.695   4.720  33.213  1.00  0.00     0.053 C 
BRANCH  14  15
ATOM     15  C   UNL     1       1.512   5.523  32.769  1.00  0.00     0.041 C 
ATOM     16  O   UNL     1       1.413   6.739  33.083  1.00  0.00    -0.550 OA
ATOM     17  O   UNL     1       0.508   4.925  32.016  1.00  0.00    -0.550 OA
ENDBRANCH  14  15
ENDBRANCH  13  14
ENDBRANCH  12  13
ENDBRANCH  11  12
ENDBRANCH  10  11
ENDBRANCH   9  10
ENDBRANCH   8   9
ENDBRANCH   7   8
ENDBRANCH   6   7
ENDBRANCH   5   6
ENDBRANCH   4   5
ENDBRANCH   3   4
ENDBRANCH   2   3
ENDBRANCH   1   2
BRANCH   1  18
ATOM     18  C   UNL     1       0.156   9.601  39.277  1.00  0.00     0.000 C 
BRANCH  18  19
ATOM     19  C   UNL     1      -0.335   8.667  40.397  1.00  0.00     0.000 C 
BRANCH  19  20
ATOM     20  C   UNL     1       0.735   7.652  40.842  1.00  0.00     0.000 C 
BRANCH  20  21
ATOM     21  C   UNL     1       0.776   7.378  42.356  1.00  0.00     0.000 C 
BRANCH  21  22
ATOM     22  C   UNL     1       0.308   5.957  42.717  1.00  0.00     0.000 C 
BRANCH  22  23
ATOM     23  C   UNL     1      -1.223   5.831  42.741  1.00  0.00     0.000 C 
BRANCH  23  24
ATOM     24  C   UNL     1      -1.702   4.425  42.337  1.00  0.00    -0.000 C 
BRANCH  24  25
ATOM     25  C   UNL     1      -2.578   4.436  41.071  1.00  0.00    -0.000 C 
BRANCH  25  26
ATOM     26  C   UNL     1      -2.578   5.769  40.297  1.00  0.00    -0.000 C 
BRANCH  26  27
ATOM     27  C   UNL     1      -2.448   5.632  38.766  1.00  0.00    -0.000 C 
BRANCH  27  28
ATOM     28  C   UNL     1      -1.017   5.790  38.216  1.00  0.00    -0.000 C 
BRANCH  28  29
ATOM     29  C   UNL     1      -0.466   4.558  37.472  1.00  0.00    -0.000 C 
BRANCH  29  30
ATOM     30  C   UNL     1       0.079   3.481  38.422  1.00  0.00    -0.000 C 
BRANCH  30  31
ATOM     31  C   UNL     1       0.784   4.117  39.625  1.00  0.00    -0.003 C 
ATOM     32  C   UNL     1       1.364   3.051  40.551  1.00  0.00     0.004 C 
ENDBRANCH  30  31
ENDBRANCH  29  30
ENDBRANCH  28  29
ENDBRANCH  27  28
ENDBRANCH  26  27
ENDBRANCH  25  26
ENDBRANCH  24  25
ENDBRANCH  23  24
ENDBRANCH  22  23
ENDBRANCH  21  22
ENDBRANCH  20  21
ENDBRANCH  19  20
ENDBRANCH  18  19
ENDBRANCH   1  18
TORSDOF 28
ENDMDL
MODEL 5
REMARK VINA RESULT:    -3.685      2.972      7.065
REMARK INTER + INTRA:         -14.174
REMARK INTER:                  -8.666
REMARK INTRA:                  -5.508
REMARK UNBOUND:                -4.458
REMARK SMILES CCCCCCCCCCCCCCCCCCCCCCCCCCCCCC(=O)[O-]
REMARK SMILES IDX 16 1 17 2 18 3 19 4 20 5 21 6 22 7 23 8 24 9 25 10 26 11
REMARK SMILES IDX 27 12 28 13 29 14 30 15 31 16 32 17 15 18 14 19 13 20 12 21
REMARK SMILES IDX 11 22 10 23 9 24 8 25 7 26 6 27 5 28 4 29 3 30 2 31 1 32
REMARK H PARENT
REMARK Flexibility Score: inf
ROOT
ATOM      1  C   UNL     1      -0.928   9.373  36.569  1.00  0.00     0.000 C 
ENDROOT
BRANCH   1   2
ATOM      2  C   UNL     1       0.605   9.461  36.613  1.00  0.00     0.000 C 
BRANCH   2   3
ATOM      3  C   UNL     1       1.234   8.684  35.447  1.00  0.00     0.000 C 
BRANCH   3   4
ATOM      4  C   UNL     1       1.052   7.163  35.579  1.00  0.00     0.000 C 
BRANCH   4   5
ATOM      5  C   UNL     1       1.966   6.371  34.627  1.00  0.00     0.000 C 
BRANCH   5   6
ATOM      6  C   UNL     1       1.722   6.723  33.151  1.00  0.00     0.000 C 
BRANCH   6   7
ATOM      7  C   UNL     1       1.298   5.506  32.314  1.00  0.00     0.000 C 
BRANCH   7   8
ATOM      8  C   UNL     1       1.236   4.241  33.182  1.00  0.00     0.000 C 
BRANCH   8   9
ATOM      9  C   UNL     1      -0.200   3.735  33.406  1.00  0.00     0.000 C 
BRANCH   9  10
ATOM     10  C   UNL     1      -0.407   2.900  34.683  1.00  0.00     0.000 C 
BRANCH  10  11
ATOM     11  C   UNL     1       0.650   3.191  35.764  1.00  0.00     0.000 C 
BRANCH  11  12
ATOM     12  C   UNL     1       0.046   3.767  37.059  1.00  0.00     0.000 C 
BRANCH  12  13
ATOM     13  C   UNL     1      -1.351   4.399  36.909  1.00  0.00     0.006 C 
BRANCH  13  14
ATOM     14  C   UNL     1      -1.527   5.677  37.741  1.00  0.00     0.053 C 
BRANCH  14  15
ATOM     15  C   UNL     1      -2.233   5.377  39.027  1.00  0.00     0.041 C 
ATOM     16  O   UNL     1      -3.179   6.111  39.418  1.00  0.00    -0.550 OA
ATOM     17  O   UNL     1      -1.839   4.293  39.801  1.00  0.00    -0.550 OA
ENDBRANCH  14  15
ENDBRANCH  13  14
ENDBRANCH  12  13
ENDBRANCH  11  12
ENDBRANCH  10  11
ENDBRANCH   9  10
ENDBRANCH   8   9
ENDBRANCH   7   8
ENDBRANCH   6   7
ENDBRANCH   5   6
ENDBRANCH   4   5
ENDBRANCH   3   4
ENDBRANCH   2   3
ENDBRANCH   1   2
BRANCH   1  18
ATOM     18  C   UNL     1      -1.552   9.294  37.971  1.00  0.00     0.000 C 
BRANCH  18  19
ATOM     19  C   UNL     1      -0.539   9.602  39.088  1.00  0.00     0.000 C 
BRANCH  19  20
ATOM     20  C   UNL     1      -0.596   8.586  40.244  1.00  0.00     0.000 C 
BRANCH  20  21
ATOM     21  C   UNL     1       0.769   8.026  40.682  1.00  0.00     0.000 C 
BRANCH  21  22
ATOM     22  C   UNL     1       0.714   6.531  41.039  1.00  0.00     0.000 C 
BRANCH  22  23
ATOM     23  C   UNL     1       1.393   5.648  39.981  1.00  0.00     0.000 C 
BRANCH  23  24
ATOM     24  C   UNL     1       2.012   6.474  38.839  1.00  0.00    -0.000 C 
BRANCH  24  25
ATOM     25  C   UNL     1       3.219   5.776  38.187  1.00  0.00    -0.000 C 
BRANCH  25  26
ATOM     26  C   UNL     1       3.350   4.275  38.511  1.00  0.00    -0.000 C 
BRANCH  26  27
ATOM     27  C   UNL     1       4.108   3.445  37.455  1.00  0.00    -0.000 C 
BRANCH  27  28
ATOM     28  C   UNL     1       5.426   4.069  36.956  1.00  0.00    -0.000 C 
BRANCH  28  29
ATOM     29  C   UNL     1       6.008   3.429  35.681  1.00  0.00    -0.000 C 
BRANCH  29  30
ATOM     30  C   UNL     1       5.346   3.949  34.396  1.00  0.00    -0.000 C 
BRANCH  30  31
ATOM     31  C   UNL     1       4.399   2.898  33.804  1.00  0.00    -0.003 C 
ATOM     32  C   UNL     1       4.578   2.786  32.292  1.00  0.00     0.004 C 
ENDBRANCH  30  31
ENDBRANCH  29  30
ENDBRANCH  28  29
ENDBRANCH  27  28
ENDBRANCH  26  27
ENDBRANCH  25  26
ENDBRANCH  24  25
ENDBRANCH  23  24
ENDBRANCH  22  23
ENDBRANCH  21  22
ENDBRANCH  20  21
ENDBRANCH  19  20
ENDBRANCH  18  19
ENDBRANCH   1  18
TORSDOF 28
ENDMDL
MODEL 6
REMARK VINA RESULT:    -3.684      2.861      8.640
REMARK INTER + INTRA:         -14.174
REMARK INTER:                  -8.969
REMARK INTRA:                  -5.205
REMARK UNBOUND:                -4.458
REMARK SMILES CCCCCCCCCCCCCCCCCCCCCCCCCCCCCC(=O)[O-]
REMARK SMILES IDX 16 1 17 2 18 3 19 4 20 5 21 6 22 7 23 8 24 9 25 10 26 11
REMARK SMILES IDX 27 12 28 13 29 14 30 15 31 16 32 17 15 18 14 19 13 20 12 21
REMARK SMILES IDX 11 22 10 23 9 24 8 25 7 26 6 27 5 28 4 29 3 30 2 31 1 32
REMARK H PARENT
REMARK Flexibility Score: inf
ROOT
ATOM      1  C   UNL     1       1.561   9.771  39.712  1.00  0.00     0.000 C 
ENDROOT
BRANCH   1   2
ATOM      2  C   UNL     1       2.127   9.782  38.285  1.00  0.00     0.000 C 
BRANCH   2   3
ATOM      3  C   UNL     1       0.998   9.729  37.245  1.00  0.00     0.000 C 
BRANCH   3   4
ATOM      4  C   UNL     1       1.116   8.520  36.301  1.00  0.00     0.000 C 
BRANCH   4   5
ATOM      5  C   UNL     1       2.128   7.473  36.801  1.00  0.00     0.000 C 
BRANCH   5   6
ATOM      6  C   UNL     1       1.879   6.082  36.199  1.00  0.00     0.000 C 
BRANCH   6   7
ATOM      7  C   UNL     1       3.174   5.277  36.010  1.00  0.00     0.000 C 
BRANCH   7   8
ATOM      8  C   UNL     1       2.869   3.868  35.482  1.00  0.00     0.000 C 
BRANCH   8   9
ATOM      9  C   UNL     1       1.999   3.877  34.212  1.00  0.00     0.000 C 
BRANCH   9  10
ATOM     10  C   UNL     1       2.549   4.724  33.050  1.00  0.00     0.000 C 
BRANCH  10  11
ATOM     11  C   UNL     1       1.461   5.559  32.353  1.00  0.00     0.000 C 
BRANCH  11  12
ATOM     12  C   UNL     1       1.465   7.038  32.784  1.00  0.00     0.000 C 
BRANCH  12  13
ATOM     13  C   UNL     1       2.154   8.007  31.805  1.00  0.00     0.006 C 
BRANCH  13  14
ATOM     14  C   UNL     1       1.859   7.688  30.333  1.00  0.00     0.053 C 
BRANCH  14  15
ATOM     15  C   UNL     1       2.407   8.757  29.440  1.00  0.00     0.041 C 
ATOM     16  O   UNL     1       3.597   9.149  29.572  1.00  0.00    -0.550 OA
ATOM     17  O   UNL     1       1.599   9.332  28.466  1.00  0.00    -0.550 OA
ENDBRANCH  14  15
ENDBRANCH  13  14
ENDBRANCH  12  13
ENDBRANCH  11  12
ENDBRANCH  10  11
ENDBRANCH   9  10
ENDBRANCH   8   9
ENDBRANCH   7   8
ENDBRANCH   6   7
ENDBRANCH   5   6
ENDBRANCH   4   5
ENDBRANCH   3   4
ENDBRANCH   2   3
ENDBRANCH   1   2
BRANCH   1  18
ATOM     18  C   UNL     1       0.086   9.340  39.756  1.00  0.00     0.000 C 
BRANCH  18  19
ATOM     19  C   UNL     1      -0.238   8.468  40.981  1.00  0.00     0.000 C 
BRANCH  19  20
ATOM     20  C   UNL     1       0.760   7.311  41.173  1.00  0.00     0.000 C 
BRANCH  20  21
ATOM     21  C   UNL     1       0.834   6.751  42.605  1.00  0.00     0.000 C 
BRANCH  21  22
ATOM     22  C   UNL     1       0.630   5.227  42.661  1.00  0.00     0.000 C 
BRANCH  22  23
ATOM     23  C   UNL     1      -0.847   4.838  42.832  1.00  0.00     0.000 C 
BRANCH  23  24
ATOM     24  C   UNL     1      -1.267   3.700  41.884  1.00  0.00    -0.000 C 
BRANCH  24  25
ATOM     25  C   UNL     1      -2.398   4.113  40.926  1.00  0.00    -0.000 C 
BRANCH  25  26
ATOM     26  C   UNL     1      -2.508   5.629  40.670  1.00  0.00    -0.000 C 
BRANCH  26  27
ATOM     27  C   UNL     1      -2.599   6.034  39.185  1.00  0.00    -0.000 C 
BRANCH  27  28
ATOM     28  C   UNL     1      -1.291   5.882  38.385  1.00  0.00    -0.000 C 
BRANCH  28  29
ATOM     29  C   UNL     1      -1.191   4.598  37.539  1.00  0.00    -0.000 C 
BRANCH  29  30
ATOM     30  C   UNL     1      -0.016   3.699  37.955  1.00  0.00    -0.000 C 
BRANCH  30  31
ATOM     31  C   UNL     1       0.856   4.389  39.010  1.00  0.00    -0.003 C 
ATOM     32  C   UNL     1       1.893   3.427  39.583  1.00  0.00     0.004 C 
ENDBRANCH  30  31
ENDBRANCH  29  30
ENDBRANCH  28  29
ENDBRANCH  27  28
ENDBRANCH  26  27
ENDBRANCH  25  26
ENDBRANCH  24  25
ENDBRANCH  23  24
ENDBRANCH  22  23
ENDBRANCH  21  22
ENDBRANCH  20  21
ENDBRANCH  19  20
ENDBRANCH  18  19
ENDBRANCH   1  18
TORSDOF 28
ENDMDL
MODEL 7
REMARK VINA RESULT:    -3.655      2.711      7.123
REMARK INTER + INTRA:         -14.097
REMARK INTER:                  -8.786
REMARK INTRA:                  -5.312
REMARK UNBOUND:                -4.458
REMARK SMILES CCCCCCCCCCCCCCCCCCCCCCCCCCCCCC(=O)[O-]
REMARK SMILES IDX 16 1 17 2 18 3 19 4 20 5 21 6 22 7 23 8 24 9 25 10 26 11
REMARK SMILES IDX 27 12 28 13 29 14 30 15 31 16 32 17 15 18 14 19 13 20 12 21
REMARK SMILES IDX 11 22 10 23 9 24 8 25 7 26 6 27 5 28 4 29 3 30 2 31 1 32
REMARK H PARENT
REMARK Flexibility Score: inf
ROOT
ATOM      1  C   UNL     1      -0.638   6.823  41.655  1.00  0.00     0.000 C 
ENDROOT
BRANCH   1   2
ATOM      2  C   UNL     1       0.723   7.340  41.167  1.00  0.00     0.000 C 
BRANCH   2   3
ATOM      3  C   UNL     1       0.972   8.776  41.653  1.00  0.00     0.000 C 
BRANCH   3   4
ATOM      4  C   UNL     1       1.214   9.761  40.498  1.00  0.00     0.000 C 
BRANCH   4   5
ATOM      5  C   UNL     1       1.926   9.107  39.300  1.00  0.00     0.000 C 
BRANCH   5   6
ATOM      6  C   UNL     1       2.082  10.070  38.113  1.00  0.00     0.000 C 
BRANCH   6   7
ATOM      7  C   UNL     1       2.234   9.337  36.771  1.00  0.00     0.000 C 
BRANCH   7   8
ATOM      8  C   UNL     1       1.381  10.006  35.683  1.00  0.00     0.000 C 
BRANCH   8   9
ATOM      9  C   UNL     1       0.904   9.020  34.602  1.00  0.00     0.000 C 
BRANCH   9  10
ATOM     10  C   UNL     1       1.867   7.853  34.312  1.00  0.00     0.000 C 
BRANCH  10  11
ATOM     11  C   UNL     1       1.564   7.147  32.979  1.00  0.00     0.000 C 
BRANCH  11  12
ATOM     12  C   UNL     1       1.105   5.688  33.158  1.00  0.00     0.000 C 
BRANCH  12  13
ATOM     13  C   UNL     1       1.383   4.759  31.961  1.00  0.00     0.006 C 
BRANCH  13  14
ATOM     14  C   UNL     1       0.105   4.218  31.307  1.00  0.00     0.053 C 
BRANCH  14  15
ATOM     15  C   UNL     1      -0.228   2.860  31.842  1.00  0.00     0.041 C 
ATOM     16  O   UNL     1       0.030   1.829  31.165  1.00  0.00    -0.550 OA
ATOM     17  O   UNL     1      -0.837   2.731  33.084  1.00  0.00    -0.550 OA
ENDBRANCH  14  15
ENDBRANCH  13  14
ENDBRANCH  12  13
ENDBRANCH  11  12
ENDBRANCH  10  11
ENDBRANCH   9  10
ENDBRANCH   8   9
ENDBRANCH   7   8
ENDBRANCH   6   7
ENDBRANCH   5   6
ENDBRANCH   4   5
ENDBRANCH   3   4
ENDBRANCH   2   3
ENDBRANCH   1   2
BRANCH   1  18
ATOM     18  C   UNL     1      -1.793   7.768  41.287  1.00  0.00     0.000 C 
BRANCH  18  19
ATOM     19  C   UNL     1      -2.305   7.544  39.854  1.00  0.00     0.000 C 
BRANCH  19  20
ATOM     20  C   UNL     1      -1.849   8.644  38.876  1.00  0.00     0.000 C 
BRANCH  20  21
ATOM     21  C   UNL     1      -1.197   8.128  37.581  1.00  0.00     0.000 C 
BRANCH  21  22
ATOM     22  C   UNL     1      -0.509   6.764  37.761  1.00  0.00     0.000 C 
BRANCH  22  23
ATOM     23  C   UNL     1      -1.174   5.656  36.929  1.00  0.00     0.000 C 
BRANCH  23  24
ATOM     24  C   UNL     1      -0.943   4.256  37.526  1.00  0.00    -0.000 C 
BRANCH  24  25
ATOM     25  C   UNL     1      -1.043   4.241  39.062  1.00  0.00    -0.000 C 
BRANCH  25  26
ATOM     26  C   UNL     1       0.198   3.678  39.784  1.00  0.00    -0.000 C 
BRANCH  26  27
ATOM     27  C   UNL     1       0.973   2.599  39.001  1.00  0.00    -0.000 C 
BRANCH  27  28
ATOM     28  C   UNL     1       2.291   3.077  38.361  1.00  0.00    -0.000 C 
BRANCH  28  29
ATOM     29  C   UNL     1       2.531   2.586  36.921  1.00  0.00    -0.000 C 
BRANCH  29  30
ATOM     30  C   UNL     1       2.262   3.670  35.867  1.00  0.00    -0.000 C 
BRANCH  30  31
ATOM     31  C   UNL     1       3.340   4.760  35.915  1.00  0.00    -0.003 C 
ATOM     32  C   UNL     1       4.349   4.587  34.782  1.00  0.00     0.004 C 
ENDBRANCH  30  31
ENDBRANCH  29  30
ENDBRANCH  28  29
ENDBRANCH  27  28
ENDBRANCH  26  27
ENDBRANCH  25  26
ENDBRANCH  24  25
ENDBRANCH  23  24
ENDBRANCH  22  23
ENDBRANCH  21  22
ENDBRANCH  20  21
ENDBRANCH  19  20
ENDBRANCH  18  19
ENDBRANCH   1  18
TORSDOF 28
ENDMDL
MODEL 8
REMARK VINA RESULT:    -3.653      2.966      9.136
REMARK INTER + INTRA:         -14.091
REMARK INTER:                  -9.667
REMARK INTRA:                  -4.424
REMARK UNBOUND:                -4.458
REMARK SMILES CCCCCCCCCCCCCCCCCCCCCCCCCCCCCC(=O)[O-]
REMARK SMILES IDX 16 1 17 2 18 3 19 4 20 5 21 6 22 7 23 8 24 9 25 10 26 11
REMARK SMILES IDX 27 12 28 13 29 14 30 15 31 16 32 17 15 18 14 19 13 20 12 21
REMARK SMILES IDX 11 22 10 23 9 24 8 25 7 26 6 27 5 28 4 29 3 30 2 31 1 32
REMARK H PARENT
REMARK Flexibility Score: inf
ROOT
ATOM      1  C   UNL     1       0.057   3.660  36.868  1.00  0.00     0.000 C 
ENDROOT
BRANCH   1   2
ATOM      2  C   UNL     1       1.374   3.394  37.611  1.00  0.00     0.000 C 
BRANCH   2   3
ATOM      3  C   UNL     1       2.583   3.720  36.721  1.00  0.00     0.000 C 
BRANCH   3   4
ATOM      4  C   UNL     1       3.090   2.498  35.937  1.00  0.00     0.000 C 
BRANCH   4   5
ATOM      5  C   UNL     1       2.523   2.435  34.507  1.00  0.00     0.000 C 
BRANCH   5   6
ATOM      6  C   UNL     1       2.995   3.609  33.636  1.00  0.00     0.000 C 
BRANCH   6   7
ATOM      7  C   UNL     1       1.883   4.636  33.372  1.00  0.00     0.000 C 
BRANCH   7   8
ATOM      8  C   UNL     1       2.431   6.068  33.457  1.00  0.00     0.000 C 
BRANCH   8   9
ATOM      9  C   UNL     1       1.372   7.138  33.136  1.00  0.00     0.000 C 
BRANCH   9  10
ATOM     10  C   UNL     1       1.892   8.359  32.356  1.00  0.00     0.000 C 
BRANCH  10  11
ATOM     11  C   UNL     1       1.917   8.129  30.835  1.00  0.00     0.000 C 
BRANCH  11  12
ATOM     12  C   UNL     1       2.712   9.207  30.073  1.00  0.00     0.000 C 
BRANCH  12  13
ATOM     13  C   UNL     1       1.934   9.933  28.959  1.00  0.00     0.006 C 
BRANCH  13  14
ATOM     14  C   UNL     1       2.659   9.912  27.606  1.00  0.00     0.053 C 
BRANCH  14  15
ATOM     15  C   UNL     1       2.283   8.693  26.824  1.00  0.00     0.041 C 
ATOM     16  O   UNL     1       2.756   7.567  27.134  1.00  0.00    -0.550 OA
ATOM     17  O   UNL     1       1.419   8.800  25.741  1.00  0.00    -0.550 OA
ENDBRANCH  14  15
ENDBRANCH  13  14
ENDBRANCH  12  13
ENDBRANCH  11  12
ENDBRANCH  10  11
ENDBRANCH   9  10
ENDBRANCH   8   9
ENDBRANCH   7   8
ENDBRANCH   6   7
ENDBRANCH   5   6
ENDBRANCH   4   5
ENDBRANCH   3   4
ENDBRANCH   2   3
ENDBRANCH   1   2
BRANCH   1  18
ATOM     18  C   UNL     1      -0.941   4.469  37.712  1.00  0.00     0.000 C 
BRANCH  18  19
ATOM     19  C   UNL     1      -0.818   4.174  39.217  1.00  0.00     0.000 C 
BRANCH  19  20
ATOM     20  C   UNL     1      -2.036   4.660  40.024  1.00  0.00     0.000 C 
BRANCH  20  21
ATOM     21  C   UNL     1      -2.801   5.839  39.395  1.00  0.00     0.000 C 
BRANCH  21  22
ATOM     22  C   UNL     1      -2.514   7.178  40.097  1.00  0.00     0.000 C 
BRANCH  22  23
ATOM     23  C   UNL     1      -2.119   8.286  39.109  1.00  0.00     0.000 C 
BRANCH  23  24
ATOM     24  C   UNL     1      -0.950   9.143  39.626  1.00  0.00    -0.000 C 
BRANCH  24  25
ATOM     25  C   UNL     1      -0.145   8.443  40.736  1.00  0.00    -0.000 C 
BRANCH  25  26
ATOM     26  C   UNL     1       1.279   8.016  40.330  1.00  0.00    -0.000 C 
BRANCH  26  27
ATOM     27  C   UNL     1       1.345   6.868  39.303  1.00  0.00    -0.000 C 
BRANCH  27  28
ATOM     28  C   UNL     1       2.545   6.923  38.337  1.00  0.00    -0.000 C 
BRANCH  28  29
ATOM     29  C   UNL     1       2.278   7.658  37.010  1.00  0.00    -0.000 C 
BRANCH  29  30
ATOM     30  C   UNL     1       0.781   7.827  36.711  1.00  0.00    -0.000 C 
BRANCH  30  31
ATOM     31  C   UNL     1       0.463   9.267  36.295  1.00  0.00    -0.003 C 
ATOM     32  C   UNL     1      -0.950   9.378  35.729  1.00  0.00     0.004 C 
ENDBRANCH  30  31
ENDBRANCH  29  30
ENDBRANCH  28  29
ENDBRANCH  27  28
ENDBRANCH  26  27
ENDBRANCH  25  26
ENDBRANCH  24  25
ENDBRANCH  23  24
ENDBRANCH  22  23
ENDBRANCH  21  22
ENDBRANCH  20  21
ENDBRANCH  19  20
ENDBRANCH  18  19
ENDBRANCH   1  18
TORSDOF 28
ENDMDL
MODEL 9
REMARK VINA RESULT:    -3.633      1.753      5.109
REMARK INTER + INTRA:         -14.038
REMARK INTER:                  -9.565
REMARK INTRA:                  -4.473
REMARK UNBOUND:                -4.458
REMARK SMILES CCCCCCCCCCCCCCCCCCCCCCCCCCCCCC(=O)[O-]
REMARK SMILES IDX 16 1 17 2 18 3 19 4 20 5 21 6 22 7 23 8 24 9 25 10 26 11
REMARK SMILES IDX 27 12 28 13 29 14 30 15 31 16 32 17 15 18 14 19 13 20 12 21
REMARK SMILES IDX 11 22 10 23 9 24 8 25 7 26 6 27 5 28 4 29 3 30 2 31 1 32
REMARK H PARENT
REMARK Flexibility Score: inf
ROOT
ATOM      1  C   UNL     1      -1.557   4.545  39.179  1.00  0.00     0.000 C 
ENDROOT
BRANCH   1   2
ATOM      2  C   UNL     1      -1.945   5.310  40.452  1.00  0.00     0.000 C 
BRANCH   2   3
ATOM      3  C   UNL     1      -0.771   6.158  40.964  1.00  0.00     0.000 C 
BRANCH   3   4
ATOM      4  C   UNL     1      -1.120   7.652  41.073  1.00  0.00     0.000 C 
BRANCH   4   5
ATOM      5  C   UNL     1      -0.738   8.444  39.809  1.00  0.00     0.000 C 
BRANCH   5   6
ATOM      6  C   UNL     1      -1.954   8.755  38.922  1.00  0.00     0.000 C 
BRANCH   6   7
ATOM      7  C   UNL     1      -1.671   9.865  37.898  1.00  0.00     0.000 C 
BRANCH   7   8
ATOM      8  C   UNL     1      -1.103   9.276  36.598  1.00  0.00     0.000 C 
BRANCH   8   9
ATOM      9  C   UNL     1       0.410   9.514  36.441  1.00  0.00     0.000 C 
BRANCH   9  10
ATOM     10  C   UNL     1       1.225   8.278  36.018  1.00  0.00     0.000 C 
BRANCH  10  11
ATOM     11  C   UNL     1       2.046   7.680  37.174  1.00  0.00     0.000 C 
BRANCH  11  12
ATOM     12  C   UNL     1       2.685   6.323  36.823  1.00  0.00     0.000 C 
BRANCH  12  13
ATOM     13  C   UNL     1       3.154   5.485  38.028  1.00  0.00     0.006 C 
BRANCH  13  14
ATOM     14  C   UNL     1       2.018   5.141  39.001  1.00  0.00     0.053 C 
BRANCH  14  15
ATOM     15  C   UNL     1       2.096   3.705  39.418  1.00  0.00     0.041 C 
ATOM     16  O   UNL     1       2.753   2.878  38.731  1.00  0.00    -0.550 OA
ATOM     17  O   UNL     1       1.432   3.275  40.560  1.00  0.00    -0.550 OA
ENDBRANCH  14  15
ENDBRANCH  13  14
ENDBRANCH  12  13
ENDBRANCH  11  12
ENDBRANCH  10  11
ENDBRANCH   9  10
ENDBRANCH   8   9
ENDBRANCH   7   8
ENDBRANCH   6   7
ENDBRANCH   5   6
ENDBRANCH   4   5
ENDBRANCH   3   4
ENDBRANCH   2   3
ENDBRANCH   1   2
BRANCH   1  18
ATOM     18  C   UNL     1      -2.020   5.259  37.899  1.00  0.00     0.000 C 
BRANCH  18  19
ATOM     19  C   UNL     1      -0.907   5.356  36.841  1.00  0.00     0.000 C 
BRANCH  19  20
ATOM     20  C   UNL     1      -0.824   4.106  35.945  1.00  0.00     0.000 C 
BRANCH  20  21
ATOM     21  C   UNL     1       0.556   3.425  35.911  1.00  0.00     0.000 C 
BRANCH  21  22
ATOM     22  C   UNL     1       1.038   3.125  34.481  1.00  0.00     0.000 C 
BRANCH  22  23
ATOM     23  C   UNL     1       0.108   3.720  33.411  1.00  0.00     0.000 C 
BRANCH  23  24
ATOM     24  C   UNL     1       0.823   4.753  32.522  1.00  0.00    -0.000 C 
BRANCH  24  25
ATOM     25  C   UNL     1       1.953   5.493  33.260  1.00  0.00    -0.000 C 
BRANCH  25  26
ATOM     26  C   UNL     1       2.278   6.894  32.705  1.00  0.00    -0.000 C 
BRANCH  26  27
ATOM     27  C   UNL     1       1.486   7.294  31.443  1.00  0.00    -0.000 C 
BRANCH  27  28
ATOM     28  C   UNL     1       2.334   7.881  30.298  1.00  0.00    -0.000 C 
BRANCH  28  29
ATOM     29  C   UNL     1       2.291   7.082  28.981  1.00  0.00    -0.000 C 
BRANCH  29  30
ATOM     30  C   UNL     1       3.614   7.143  28.203  1.00  0.00    -0.000 C 
BRANCH  30  31
ATOM     31  C   UNL     1       3.699   8.425  27.366  1.00  0.00    -0.003 C 
ATOM     32  C   UNL     1       4.498   9.504  28.092  1.00  0.00     0.004 C 
ENDBRANCH  30  31
ENDBRANCH  29  30
ENDBRANCH  28  29
ENDBRANCH  27  28
ENDBRANCH  26  27
ENDBRANCH  25  26
ENDBRANCH  24  25
ENDBRANCH  23  24
ENDBRANCH  22  23
ENDBRANCH  21  22
ENDBRANCH  20  21
ENDBRANCH  19  20
ENDBRANCH  18  19
ENDBRANCH   1  18
TORSDOF 28
ENDMDL
