MODEL 1
REMARK VINA RESULT:    -5.259      0.000      0.000
REMARK INTER + INTRA:         -10.614
REMARK INTER:                  -9.256
REMARK INTRA:                  -1.358
REMARK UNBOUND:                -1.358
REMARK SMILES CCCCCCCCCCCCCCC(=O)[O-]
REMARK SMILES IDX 9 1 10 2 11 3 12 4 13 5 14 6 15 7 16 8 17 9 8 10 7 11 6 12
REMARK SMILES IDX 5 13 4 14 3 15 2 16 1 17
REMARK H PARENT
REMARK Flexibility Score: inf
ROOT
ATOM      1  C   UNL     1      75.509  11.481  18.991  1.00  0.00     0.000 C 
ENDROOT
BRANCH   1   2
ATOM      2  C   UNL     1      74.161  12.015  19.501  1.00  0.00     0.000 C 
BRANCH   2   3
ATOM      3  C   UNL     1      73.643  13.147  18.602  1.00  0.00     0.000 C 
BRANCH   3   4
ATOM      4  C   UNL     1      74.727  13.704  17.664  1.00  0.00     0.000 C 
BRANCH   4   5
ATOM      5  C   UNL     1      75.267  15.068  18.126  1.00  0.00     0.006 C 
BRANCH   5   6
ATOM      6  C   UNL     1      76.129  15.744  17.052  1.00  0.00     0.053 C 
BRANCH   6   7
ATOM      7  C   UNL     1      75.318  16.639  16.166  1.00  0.00     0.041 C 
ATOM      8  O   UNL     1      74.864  17.727  16.610  1.00  0.00    -0.550 OA
ATOM      9  O   UNL     1      75.090  16.287  14.841  1.00  0.00    -0.550 OA
ENDBRANCH   6   7
ENDBRANCH   5   6
ENDBRANCH   4   5
ENDBRANCH   3   4
ENDBRANCH   2   3
ENDBRANCH   1   2
BRANCH   1  10
ATOM     10  C   UNL     1      76.515  11.225  20.124  1.00  0.00     0.000 C 
BRANCH  10  11
ATOM     11  C   UNL     1      77.524  12.374  20.290  1.00  0.00    -0.000 C 
BRANCH  11  12
ATOM     12  C   UNL     1      78.136  12.821  18.951  1.00  0.00    -0.000 C 
BRANCH  12  13
ATOM     13  C   UNL     1      78.937  14.129  19.076  1.00  0.00    -0.000 C 
BRANCH  13  14
ATOM     14  C   UNL     1      79.603  14.285  20.453  1.00  0.00    -0.000 C 
BRANCH  14  15
ATOM     15  C   UNL     1      80.936  15.052  20.383  1.00  0.00    -0.000 C 
BRANCH  15  16
ATOM     16  C   UNL     1      82.116  14.230  20.922  1.00  0.00    -0.003 C 
ATOM     17  C   UNL     1      83.305  14.197  19.961  1.00  0.00     0.004 C 
ENDBRANCH  15  16
ENDBRANCH  14  15
ENDBRANCH  13  14
ENDBRANCH  12  13
ENDBRANCH  11  12
ENDBRANCH  10  11
ENDBRANCH   1  10
TORSDOF 13
ENDMDL
MODEL 2
REMARK VINA RESULT:    -5.151      1.177      1.807
REMARK INTER + INTRA:         -10.424
REMARK INTER:                  -8.902
REMARK INTRA:                  -1.521
REMARK UNBOUND:                -1.358
REMARK SMILES CCCCCCCCCCCCCCC(=O)[O-]
REMARK SMILES IDX 9 1 10 2 11 3 12 4 13 5 14 6 15 7 16 8 17 9 8 10 7 11 6 12
REMARK SMILES IDX 5 13 4 14 3 15 2 16 1 17
REMARK H PARENT
REMARK Flexibility Score: inf
ROOT
ATOM      1  C   UNL     1      74.312  11.925  19.243  1.00  0.00     0.000 C 
ENDROOT
BRANCH   1   2
ATOM      2  C   UNL     1      74.011  13.292  18.610  1.00  0.00     0.000 C 
BRANCH   2   3
ATOM      3  C   UNL     1      75.133  13.711  17.649  1.00  0.00     0.000 C 
BRANCH   3   4
ATOM      4  C   UNL     1      75.857  14.989  18.101  1.00  0.00     0.000 C 
BRANCH   4   5
ATOM      5  C   UNL     1      77.093  15.306  17.241  1.00  0.00     0.006 C 
BRANCH   5   6
ATOM      6  C   UNL     1      76.733  15.508  15.763  1.00  0.00     0.053 C 
BRANCH   6   7
ATOM      7  C   UNL     1      75.927  16.753  15.549  1.00  0.00     0.041 C 
ATOM      8  O   UNL     1      76.317  17.850  16.030  1.00  0.00    -0.550 OA
ATOM      9  O   UNL     1      74.763  16.708  14.791  1.00  0.00    -0.550 OA
ENDBRANCH   6   7
ENDBRANCH   5   6
ENDBRANCH   4   5
ENDBRANCH   3   4
ENDBRANCH   2   3
ENDBRANCH   1   2
BRANCH   1  10
ATOM     10  C   UNL     1      75.542  11.954  20.165  1.00  0.00     0.000 C 
BRANCH  10  11
ATOM     11  C   UNL     1      76.570  10.865  19.813  1.00  0.00    -0.000 C 
BRANCH  11  12
ATOM     12  C   UNL     1      77.941  11.449  19.433  1.00  0.00    -0.000 C 
BRANCH  12  13
ATOM     13  C   UNL     1      78.166  12.855  20.018  1.00  0.00    -0.000 C 
BRANCH  13  14
ATOM     14  C   UNL     1      79.530  13.447  19.627  1.00  0.00    -0.000 C 
BRANCH  14  15
ATOM     15  C   UNL     1      80.014  14.524  20.615  1.00  0.00    -0.000 C 
BRANCH  15  16
ATOM     16  C   UNL     1      80.853  15.614  19.932  1.00  0.00    -0.003 C 
ATOM     17  C   UNL     1      80.006  16.778  19.415  1.00  0.00     0.004 C 
ENDBRANCH  15  16
ENDBRANCH  14  15
ENDBRANCH  13  14
ENDBRANCH  12  13
ENDBRANCH  11  12
ENDBRANCH  10  11
ENDBRANCH   1  10
TORSDOF 13
ENDMDL
MODEL 3
REMARK VINA RESULT:    -5.124      2.282      3.324
REMARK INTER + INTRA:         -10.376
REMARK INTER:                  -8.641
REMARK INTRA:                  -1.735
REMARK UNBOUND:                -1.358
REMARK SMILES CCCCCCCCCCCCCCC(=O)[O-]
REMARK SMILES IDX 9 1 10 2 11 3 12 4 13 5 14 6 15 7 16 8 17 9 8 10 7 11 6 12
REMARK SMILES IDX 5 13 4 14 3 15 2 16 1 17
REMARK H PARENT
REMARK Flexibility Score: inf
ROOT
ATOM      1  C   UNL     1      73.856  13.219  17.813  1.00  0.00     0.000 C 
ENDROOT
BRANCH   1   2
ATOM      2  C   UNL     1      74.961  12.780  16.840  1.00  0.00     0.000 C 
BRANCH   2   3
ATOM      3  C   UNL     1      75.422  13.958  15.967  1.00  0.00     0.000 C 
BRANCH   3   4
ATOM      4  C   UNL     1      74.652  15.255  16.263  1.00  0.00     0.000 C 
BRANCH   4   5
ATOM      5  C   UNL     1      74.797  16.299  15.143  1.00  0.00     0.006 C 
BRANCH   5   6
ATOM      6  C   UNL     1      75.360  17.629  15.661  1.00  0.00     0.053 C 
BRANCH   6   7
ATOM      7  C   UNL     1      76.754  17.876  15.169  1.00  0.00     0.041 C 
ATOM      8  O   UNL     1      76.991  18.845  14.400  1.00  0.00    -0.550 OA
ATOM      9  O   UNL     1      77.795  17.056  15.585  1.00  0.00    -0.550 OA
ENDBRANCH   6   7
ENDBRANCH   5   6
ENDBRANCH   4   5
ENDBRANCH   3   4
ENDBRANCH   2   3
ENDBRANCH   1   2
BRANCH   1  10
ATOM     10  C   UNL     1      74.106  12.742  19.252  1.00  0.00     0.000 C 
BRANCH  10  11
ATOM     11  C   UNL     1      75.004  11.494  19.313  1.00  0.00    -0.000 C 
BRANCH  11  12
ATOM     12  C   UNL     1      76.149  11.640  20.330  1.00  0.00    -0.000 C 
BRANCH  12  13
ATOM     13  C   UNL     1      77.347  10.731  20.004  1.00  0.00    -0.000 C 
BRANCH  13  14
ATOM     14  C   UNL     1      78.507  11.494  19.344  1.00  0.00    -0.000 C 
BRANCH  14  15
ATOM     15  C   UNL     1      78.476  13.002  19.653  1.00  0.00    -0.000 C 
BRANCH  15  16
ATOM     16  C   UNL     1      78.313  13.858  18.388  1.00  0.00    -0.003 C 
ATOM     17  C   UNL     1      77.554  15.160  18.646  1.00  0.00     0.004 C 
ENDBRANCH  15  16
ENDBRANCH  14  15
ENDBRANCH  13  14
ENDBRANCH  12  13
ENDBRANCH  11  12
ENDBRANCH  10  11
ENDBRANCH   1  10
TORSDOF 13
ENDMDL
MODEL 4
REMARK VINA RESULT:    -5.029      2.950      5.700
REMARK INTER + INTRA:         -10.209
REMARK INTER:                  -8.394
REMARK INTRA:                  -1.815
REMARK UNBOUND:                -1.358
REMARK SMILES CCCCCCCCCCCCCCC(=O)[O-]
REMARK SMILES IDX 9 1 10 2 11 3 12 4 13 5 14 6 15 7 16 8 17 9 8 10 7 11 6 12
REMARK SMILES IDX 5 13 4 14 3 15 2 16 1 17
REMARK H PARENT
REMARK Flexibility Score: inf
ROOT
ATOM      1  C   UNL     1      76.466  11.177  20.051  1.00  0.00     0.000 C 
ENDROOT
BRANCH   1   2
ATOM      2  C   UNL     1      77.430  12.369  20.131  1.00  0.00     0.000 C 
BRANCH   2   3
ATOM      3  C   UNL     1      78.380  12.389  18.923  1.00  0.00     0.000 C 
BRANCH   3   4
ATOM      4  C   UNL     1      78.382  13.741  18.191  1.00  0.00     0.000 C 
BRANCH   4   5
ATOM      5  C   UNL     1      78.101  14.925  19.132  1.00  0.00     0.006 C 
BRANCH   5   6
ATOM      6  C   UNL     1      79.322  15.841  19.288  1.00  0.00     0.053 C 
BRANCH   6   7
ATOM      7  C   UNL     1      80.381  15.221  20.147  1.00  0.00     0.041 C 
ATOM      8  O   UNL     1      80.061  14.585  21.186  1.00  0.00    -0.550 OA
ATOM      9  O   UNL     1      81.718  15.316  19.782  1.00  0.00    -0.550 OA
ENDBRANCH   6   7
ENDBRANCH   5   6
ENDBRANCH   4   5
ENDBRANCH   3   4
ENDBRANCH   2   3
ENDBRANCH   1   2
BRANCH   1  10
ATOM     10  C   UNL     1      75.411  11.337  18.945  1.00  0.00     0.000 C 
BRANCH  10  11
ATOM     11  C   UNL     1      74.318  12.355  19.313  1.00  0.00    -0.000 C 
BRANCH  11  12
ATOM     12  C   UNL     1      74.373  13.621  18.440  1.00  0.00    -0.000 C 
BRANCH  12  13
ATOM     13  C   UNL     1      74.833  13.326  17.002  1.00  0.00    -0.000 C 
BRANCH  13  14
ATOM     14  C   UNL     1      75.046  14.605  16.175  1.00  0.00    -0.000 C 
BRANCH  14  15
ATOM     15  C   UNL     1      75.309  15.841  17.053  1.00  0.00    -0.000 C 
BRANCH  15  16
ATOM     16  C   UNL     1      74.867  17.147  16.376  1.00  0.00    -0.003 C 
ATOM     17  C   UNL     1      75.670  17.465  15.115  1.00  0.00     0.004 C 
ENDBRANCH  15  16
ENDBRANCH  14  15
ENDBRANCH  13  14
ENDBRANCH  12  13
ENDBRANCH  11  12
ENDBRANCH  10  11
ENDBRANCH   1  10
TORSDOF 13
ENDMDL
MODEL 5
REMARK VINA RESULT:    -5.015      3.160      6.050
REMARK INTER + INTRA:         -10.184
REMARK INTER:                  -8.976
REMARK INTRA:                  -1.208
REMARK UNBOUND:                -1.358
REMARK SMILES CCCCCCCCCCCCCCC(=O)[O-]
REMARK SMILES IDX 9 1 10 2 11 3 12 4 13 5 14 6 15 7 16 8 17 9 8 10 7 11 6 12
REMARK SMILES IDX 5 13 4 14 3 15 2 16 1 17
REMARK H PARENT
REMARK Flexibility Score: inf
ROOT
ATOM      1  C   UNL     1      75.498  11.990  20.146  1.00  0.00     0.000 C 
ENDROOT
BRANCH   1   2
ATOM      2  C   UNL     1      76.521  10.998  19.573  1.00  0.00     0.000 C 
BRANCH   2   3
ATOM      3  C   UNL     1      77.832  11.711  19.209  1.00  0.00     0.000 C 
BRANCH   3   4
ATOM      4  C   UNL     1      78.088  12.960  20.068  1.00  0.00     0.000 C 
BRANCH   4   5
ATOM      5  C   UNL     1      79.261  13.807  19.546  1.00  0.00     0.006 C 
BRANCH   5   6
ATOM      6  C   UNL     1      79.994  14.539  20.678  1.00  0.00     0.053 C 
BRANCH   6   7
ATOM      7  C   UNL     1      81.470  14.614  20.432  1.00  0.00     0.041 C 
ATOM      8  O   UNL     1      82.279  14.226  21.315  1.00  0.00    -0.550 OA
ATOM      9  O   UNL     1      81.951  15.083  19.215  1.00  0.00    -0.550 OA
ENDBRANCH   6   7
ENDBRANCH   5   6
ENDBRANCH   4   5
ENDBRANCH   3   4
ENDBRANCH   2   3
ENDBRANCH   1   2
BRANCH   1  10
ATOM     10  C   UNL     1      74.177  12.003  19.361  1.00  0.00     0.000 C 
BRANCH  10  11
ATOM     11  C   UNL     1      74.230  12.922  18.129  1.00  0.00    -0.000 C 
BRANCH  11  12
ATOM     12  C   UNL     1      74.889  14.279  18.433  1.00  0.00    -0.000 C 
BRANCH  12  13
ATOM     13  C   UNL     1      75.695  14.823  17.240  1.00  0.00    -0.000 C 
BRANCH  13  14
ATOM     14  C   UNL     1      74.859  14.912  15.952  1.00  0.00    -0.000 C 
BRANCH  14  15
ATOM     15  C   UNL     1      74.836  16.331  15.357  1.00  0.00    -0.000 C 
BRANCH  15  16
ATOM     16  C   UNL     1      75.302  17.397  16.360  1.00  0.00    -0.003 C 
ATOM     17  C   UNL     1      76.617  18.063  15.951  1.00  0.00     0.004 C 
ENDBRANCH  15  16
ENDBRANCH  14  15
ENDBRANCH  13  14
ENDBRANCH  12  13
ENDBRANCH  11  12
ENDBRANCH  10  11
ENDBRANCH   1  10
TORSDOF 13
ENDMDL
MODEL 6
REMARK VINA RESULT:    -4.963      2.626      5.035
REMARK INTER + INTRA:         -10.092
REMARK INTER:                  -8.234
REMARK INTRA:                  -1.859
REMARK UNBOUND:                -1.358
REMARK SMILES CCCCCCCCCCCCCCC(=O)[O-]
REMARK SMILES IDX 9 1 10 2 11 3 12 4 13 5 14 6 15 7 16 8 17 9 8 10 7 11 6 12
REMARK SMILES IDX 5 13 4 14 3 15 2 16 1 17
REMARK H PARENT
REMARK Flexibility Score: inf
ROOT
ATOM      1  C   UNL     1      76.858  14.474  16.389  1.00  0.00     0.000 C 
ENDROOT
BRANCH   1   2
ATOM      2  C   UNL     1      75.724  14.989  15.489  1.00  0.00     0.000 C 
BRANCH   2   3
ATOM      3  C   UNL     1      75.016  16.191  16.133  1.00  0.00     0.000 C 
BRANCH   3   4
ATOM      4  C   UNL     1      75.062  17.450  15.252  1.00  0.00     0.000 C 
BRANCH   4   5
ATOM      5  C   UNL     1      76.499  17.918  14.964  1.00  0.00     0.006 C 
BRANCH   5   6
ATOM      6  C   UNL     1      77.195  18.458  16.220  1.00  0.00     0.053 C 
BRANCH   6   7
ATOM      7  C   UNL     1      78.555  17.859  16.407  1.00  0.00     0.041 C 
ATOM      8  O   UNL     1      79.189  17.407  15.417  1.00  0.00    -0.550 OA
ATOM      9  O   UNL     1      79.136  17.831  17.669  1.00  0.00    -0.550 OA
ENDBRANCH   6   7
ENDBRANCH   5   6
ENDBRANCH   4   5
ENDBRANCH   3   4
ENDBRANCH   2   3
ENDBRANCH   1   2
BRANCH   1  10
ATOM     10  C   UNL     1      76.771  15.015  17.824  1.00  0.00     0.000 C 
BRANCH  10  11
ATOM     11  C   UNL     1      77.901  14.487  18.725  1.00  0.00    -0.000 C 
BRANCH  11  12
ATOM     12  C   UNL     1      77.940  12.951  18.784  1.00  0.00    -0.000 C 
BRANCH  12  13
ATOM     13  C   UNL     1      77.473  12.401  20.144  1.00  0.00    -0.000 C 
BRANCH  13  14
ATOM     14  C   UNL     1      76.594  11.147  20.004  1.00  0.00    -0.000 C 
BRANCH  14  15
ATOM     15  C   UNL     1      75.477  11.319  18.960  1.00  0.00    -0.000 C 
BRANCH  15  16
ATOM     16  C   UNL     1      74.285  12.123  19.501  1.00  0.00    -0.003 C 
ATOM     17  C   UNL     1      73.719  13.109  18.478  1.00  0.00     0.004 C 
ENDBRANCH  15  16
ENDBRANCH  14  15
ENDBRANCH  13  14
ENDBRANCH  12  13
ENDBRANCH  11  12
ENDBRANCH  10  11
ENDBRANCH   1  10
TORSDOF 13
ENDMDL
MODEL 7
REMARK VINA RESULT:    -4.928      2.699      5.011
REMARK INTER + INTRA:         -10.031
REMARK INTER:                  -7.621
REMARK INTRA:                  -2.410
REMARK UNBOUND:                -1.358
REMARK SMILES CCCCCCCCCCCCCCC(=O)[O-]
REMARK SMILES IDX 9 1 10 2 11 3 12 4 13 5 14 6 15 7 16 8 17 9 8 10 7 11 6 12
REMARK SMILES IDX 5 13 4 14 3 15 2 16 1 17
REMARK H PARENT
REMARK Flexibility Score: inf
ROOT
ATOM      1  C   UNL     1      75.429  11.994  19.980  1.00  0.00     0.000 C 
ENDROOT
BRANCH   1   2
ATOM      2  C   UNL     1      76.350  10.890  19.438  1.00  0.00     0.000 C 
BRANCH   2   3
ATOM      3  C   UNL     1      77.813  11.358  19.415  1.00  0.00     0.000 C 
BRANCH   3   4
ATOM      4  C   UNL     1      77.997  12.763  20.011  1.00  0.00     0.000 C 
BRANCH   4   5
ATOM      5  C   UNL     1      79.133  13.549  19.334  1.00  0.00     0.006 C 
BRANCH   5   6
ATOM      6  C   UNL     1      78.719  14.986  18.993  1.00  0.00     0.053 C 
BRANCH   6   7
ATOM      7  C   UNL     1      79.755  15.982  19.417  1.00  0.00     0.041 C 
ATOM      8  O   UNL     1      79.685  17.176  19.021  1.00  0.00    -0.550 OA
ATOM      9  O   UNL     1      80.778  15.601  20.276  1.00  0.00    -0.550 OA
ENDBRANCH   6   7
ENDBRANCH   5   6
ENDBRANCH   4   5
ENDBRANCH   3   4
ENDBRANCH   2   3
ENDBRANCH   1   2
BRANCH   1  10
ATOM     10  C   UNL     1      74.017  11.941  19.377  1.00  0.00     0.000 C 
BRANCH  10  11
ATOM     11  C   UNL     1      73.747  13.097  18.398  1.00  0.00    -0.000 C 
BRANCH  11  12
ATOM     12  C   UNL     1      74.880  14.138  18.388  1.00  0.00    -0.000 C 
BRANCH  12  13
ATOM     13  C   UNL     1      75.397  14.433  16.969  1.00  0.00    -0.000 C 
BRANCH  13  14
ATOM     14  C   UNL     1      75.198  13.248  16.009  1.00  0.00    -0.000 C 
BRANCH  14  15
ATOM     15  C   UNL     1      76.387  12.272  16.017  1.00  0.00    -0.000 C 
BRANCH  15  16
ATOM     16  C   UNL     1      77.742  12.996  15.981  1.00  0.00    -0.003 C 
ATOM     17  C   UNL     1      78.924  12.037  15.840  1.00  0.00     0.004 C 
ENDBRANCH  15  16
ENDBRANCH  14  15
ENDBRANCH  13  14
ENDBRANCH  12  13
ENDBRANCH  11  12
ENDBRANCH  10  11
ENDBRANCH   1  10
TORSDOF 13
ENDMDL
MODEL 8
REMARK VINA RESULT:    -4.919      2.273      4.260
REMARK INTER + INTRA:         -10.015
REMARK INTER:                  -8.531
REMARK INTRA:                  -1.485
REMARK UNBOUND:                -1.358
REMARK SMILES CCCCCCCCCCCCCCC(=O)[O-]
REMARK SMILES IDX 9 1 10 2 11 3 12 4 13 5 14 6 15 7 16 8 17 9 8 10 7 11 6 12
REMARK SMILES IDX 5 13 4 14 3 15 2 16 1 17
REMARK H PARENT
REMARK Flexibility Score: inf
ROOT
ATOM      1  C   UNL     1      75.549  15.203  17.303  1.00  0.00     0.000 C 
ENDROOT
BRANCH   1   2
ATOM      2  C   UNL     1      74.761  15.047  15.994  1.00  0.00     0.000 C 
BRANCH   2   3
ATOM      3  C   UNL     1      74.665  16.387  15.248  1.00  0.00     0.000 C 
BRANCH   3   4
ATOM      4  C   UNL     1      75.315  17.545  16.022  1.00  0.00     0.000 C 
BRANCH   4   5
ATOM      5  C   UNL     1      76.496  18.175  15.263  1.00  0.00     0.006 C 
BRANCH   5   6
ATOM      6  C   UNL     1      77.851  17.671  15.779  1.00  0.00     0.053 C 
BRANCH   6   7
ATOM      7  C   UNL     1      78.492  16.712  14.823  1.00  0.00     0.041 C 
ATOM      8  O   UNL     1      78.302  15.473  14.947  1.00  0.00    -0.550 OA
ATOM      9  O   UNL     1      79.271  17.188  13.776  1.00  0.00    -0.550 OA
ENDBRANCH   6   7
ENDBRANCH   5   6
ENDBRANCH   4   5
ENDBRANCH   3   4
ENDBRANCH   2   3
ENDBRANCH   1   2
BRANCH   1  10
ATOM     10  C   UNL     1      74.801  14.633  18.519  1.00  0.00     0.000 C 
BRANCH  10  11
ATOM     11  C   UNL     1      74.021  13.349  18.185  1.00  0.00    -0.000 C 
BRANCH  11  12
ATOM     12  C   UNL     1      74.059  12.322  19.329  1.00  0.00    -0.000 C 
BRANCH  12  13
ATOM     13  C   UNL     1      75.273  11.381  19.237  1.00  0.00    -0.000 C 
BRANCH  13  14
ATOM     14  C   UNL     1      76.333  11.674  20.311  1.00  0.00    -0.000 C 
BRANCH  14  15
ATOM     15  C   UNL     1      77.756  11.766  19.732  1.00  0.00    -0.000 C 
BRANCH  15  16
ATOM     16  C   UNL     1      78.440  13.101  20.062  1.00  0.00    -0.003 C 
ATOM     17  C   UNL     1      78.583  14.013  18.843  1.00  0.00     0.004 C 
ENDBRANCH  15  16
ENDBRANCH  14  15
ENDBRANCH  13  14
ENDBRANCH  12  13
ENDBRANCH  11  12
ENDBRANCH  10  11
ENDBRANCH   1  10
TORSDOF 13
ENDMDL
MODEL 9
REMARK VINA RESULT:    -4.890      2.293      3.688
REMARK INTER + INTRA:          -9.965
REMARK INTER:                  -7.905
REMARK INTRA:                  -2.059
REMARK UNBOUND:                -1.358
REMARK SMILES CCCCCCCCCCCCCCC(=O)[O-]
REMARK SMILES IDX 9 1 10 2 11 3 12 4 13 5 14 6 15 7 16 8 17 9 8 10 7 11 6 12
REMARK SMILES IDX 5 13 4 14 3 15 2 16 1 17
REMARK H PARENT
REMARK Flexibility Score: inf
ROOT
ATOM      1  C   UNL     1      75.465  11.435  19.253  1.00  0.00     0.000 C 
ENDROOT
BRANCH   1   2
ATOM      2  C   UNL     1      74.227  12.331  19.414  1.00  0.00     0.000 C 
BRANCH   2   3
ATOM      3  C   UNL     1      73.824  12.955  18.069  1.00  0.00     0.000 C 
BRANCH   3   4
ATOM      4  C   UNL     1      74.925  13.847  17.473  1.00  0.00     0.000 C 
BRANCH   4   5
ATOM      5  C   UNL     1      75.022  13.725  15.943  1.00  0.00     0.006 C 
BRANCH   5   6
ATOM      6  C   UNL     1      75.952  14.784  15.336  1.00  0.00     0.053 C 
BRANCH   6   7
ATOM      7  C   UNL     1      75.481  16.176  15.627  1.00  0.00     0.041 C 
ATOM      8  O   UNL     1      74.391  16.588  15.148  1.00  0.00    -0.550 OA
ATOM      9  O   UNL     1      76.228  17.006  16.453  1.00  0.00    -0.550 OA
ENDBRANCH   6   7
ENDBRANCH   5   6
ENDBRANCH   4   5
ENDBRANCH   3   4
ENDBRANCH   2   3
ENDBRANCH   1   2
BRANCH   1  10
ATOM     10  C   UNL     1      76.491  11.629  20.380  1.00  0.00     0.000 C 
BRANCH  10  11
ATOM     11  C   UNL     1      77.630  12.585  19.985  1.00  0.00    -0.000 C 
BRANCH  11  12
ATOM     12  C   UNL     1      78.518  12.015  18.866  1.00  0.00    -0.000 C 
BRANCH  12  13
ATOM     13  C   UNL     1      78.436  12.841  17.571  1.00  0.00    -0.000 C 
BRANCH  13  14
ATOM     14  C   UNL     1      78.480  11.966  16.307  1.00  0.00    -0.000 C 
BRANCH  14  15
ATOM     15  C   UNL     1      77.275  11.014  16.203  1.00  0.00    -0.000 C 
BRANCH  15  16
ATOM     16  C   UNL     1      77.695   9.537  16.159  1.00  0.00    -0.003 C 
ATOM     17  C   UNL     1      77.362   8.787  17.449  1.00  0.00     0.004 C 
ENDBRANCH  15  16
ENDBRANCH  14  15
ENDBRANCH  13  14
ENDBRANCH  12  13
ENDBRANCH  11  12
ENDBRANCH  10  11
ENDBRANCH   1  10
TORSDOF 13
ENDMDL
