MODEL 1
REMARK VINA RESULT:    -0.586      0.000      0.000
REMARK INTER + INTRA:          -0.846
REMARK INTER:                  -0.706
REMARK INTRA:                  -0.140
REMARK UNBOUND:                -0.140
REMARK SMILES O=c1c(O)c(-c2ccc(O)c(O)c2)oc2cc(O)cc(O)c12
REMARK SMILES IDX 5 1 3 2 2 3 1 4 22 5 20 6 19 7 17 8 16 9 15 10 14 11 6 12
REMARK SMILES IDX 7 13 8 14 9 15 13 16 11 17 10 18 12 20 4 22 21 24 18 26
REMARK H PARENT 10 19 12 21 4 23 21 25 18 27
REMARK Flexibility Score: inf
ROOT
ATOM      1  C   UNL     1     -18.911   9.218  26.407  1.00  0.00     0.180 A 
ATOM      2  C   UNL     1     -17.526   9.134  26.647  1.00  0.00     0.208 A 
ATOM      3  C   UNL     1     -16.641   9.248  25.562  1.00  0.00     0.238 A 
ATOM      4  O   UNL     1     -15.399   9.164  25.764  1.00  0.00    -0.285 OA
ATOM      5  C   UNL     1     -17.153   9.461  24.266  1.00  0.00     0.111 A 
ATOM      6  C   UNL     1     -16.330   9.589  23.121  1.00  0.00     0.134 A 
ATOM      7  C   UNL     1     -16.915   9.810  21.865  1.00  0.00     0.093 A 
ATOM      8  C   UNL     1     -18.302   9.904  21.732  1.00  0.00     0.123 A 
ATOM      9  C   UNL     1     -19.120   9.777  22.859  1.00  0.00     0.094 A 
ATOM     10  C   UNL     1     -18.556   9.556  24.119  1.00  0.00     0.146 A 
ATOM     11  O   UNL     1     -19.356   9.434  25.172  1.00  0.00    -0.452 OA
ENDROOT
BRANCH   1  12
ATOM     12  C   UNL     1     -19.907   9.089  27.495  1.00  0.00     0.025 A 
ATOM     13  C   UNL     1     -20.828  10.123  27.713  1.00  0.00     0.016 A 
ATOM     14  C   UNL     1     -21.788  10.014  28.720  1.00  0.00     0.051 A 
ATOM     15  C   UNL     1     -21.859   8.867  29.518  1.00  0.00     0.157 A 
ATOM     16  C   UNL     1     -19.989   7.926  28.280  1.00  0.00     0.062 A 
ATOM     17  C   UNL     1     -20.951   7.806  29.291  1.00  0.00     0.158 A 
BRANCH  15  18
ATOM     18  O   UNL     1     -22.837   8.824  30.514  1.00  0.00    -0.504 OA
ATOM     19  H   UNL     1     -22.926   8.076  31.186  1.00  0.00     0.293 HD
ENDBRANCH  15  18
BRANCH  17  20
ATOM     20  O   UNL     1     -20.972   6.623  30.033  1.00  0.00    -0.504 OA
ATOM     21  H   UNL     1     -20.226   5.943  30.033  1.00  0.00     0.293 HD
ENDBRANCH  17  20
ENDBRANCH   1  12
BRANCH   2  22
ATOM     22  O   UNL     1     -17.043   8.972  27.948  1.00  0.00    -0.502 OA
ATOM     23  H   UNL     1     -16.078   9.152  28.195  1.00  0.00     0.293 HD
ENDBRANCH   2  22
BRANCH   6  24
ATOM     24  O   UNL     1     -14.941   9.501  23.220  1.00  0.00    -0.507 OA
ATOM     25  H   UNL     1     -14.334   9.732  22.443  1.00  0.00     0.293 HD
ENDBRANCH   6  24
BRANCH   8  26
ATOM     26  O   UNL     1     -18.858  10.125  20.473  1.00  0.00    -0.508 OA
ATOM     27  H   UNL     1     -19.171  11.045  20.186  1.00  0.00     0.293 HD
ENDBRANCH   8  26
TORSDOF 6
ENDMDL
