MODEL 1
REMARK VINA RESULT:    -3.571      0.000      0.000
REMARK INTER + INTRA:          -4.822
REMARK INTER:                  -4.406
REMARK INTRA:                  -0.416
REMARK UNBOUND:                -0.416
REMARK SMILES C=CC[C@H](C)C(=O)CC
REMARK SMILES IDX 4 1 5 2 6 3 7 4 8 5 9 6 3 7 2 8 1 9
REMARK H PARENT
REMARK Flexibility Score: inf
ROOT
ATOM      1  C   UNL     1      26.126  -3.447  52.724  1.00  0.00     0.057 C 
ATOM      2  C   UNL     1      26.538  -2.100  52.118  1.00  0.00     0.016 C 
ENDROOT
BRANCH   1   3
ATOM      3  C   UNL     1      26.348  -4.558  51.718  1.00  0.00     0.135 C 
ATOM      4  O   UNL     1      25.513  -4.765  50.849  1.00  0.00    -0.299 OA
BRANCH   3   5
ATOM      5  C   UNL     1      27.576  -5.427  51.778  1.00  0.00     0.072 C 
ATOM      6  C   UNL     1      28.161  -5.440  53.187  1.00  0.00     0.012 C 
ENDBRANCH   3   5
ENDBRANCH   1   3
BRANCH   1   7
ATOM      7  C   UNL     1      24.657  -3.403  53.192  1.00  0.00     0.038 C 
BRANCH   7   8
ATOM      8  C   UNL     1      24.522  -3.687  54.665  1.00  0.00    -0.034 C 
ATOM      9  C   UNL     1      25.328  -4.548  55.293  1.00  0.00     0.004 C 
ENDBRANCH   7   8
ENDBRANCH   1   7
TORSDOF 4
ENDMDL
MODEL 2
REMARK VINA RESULT:    -3.461      1.673      2.058
REMARK INTER + INTRA:          -4.687
REMARK INTER:                  -4.364
REMARK INTRA:                  -0.323
REMARK UNBOUND:                -0.416
REMARK SMILES C=CC[C@H](C)C(=O)CC
REMARK SMILES IDX 4 1 5 2 6 3 7 4 8 5 9 6 3 7 2 8 1 9
REMARK H PARENT
REMARK Flexibility Score: inf
ROOT
ATOM      1  C   UNL     1      26.558  -3.427  51.741  1.00  0.00     0.057 C 
ATOM      2  C   UNL     1      25.686  -4.521  51.116  1.00  0.00     0.016 C 
ENDROOT
BRANCH   1   3
ATOM      3  C   UNL     1      27.781  -4.045  52.387  1.00  0.00     0.135 C 
ATOM      4  O   UNL     1      28.503  -3.360  53.098  1.00  0.00    -0.299 OA
BRANCH   3   5
ATOM      5  C   UNL     1      28.137  -5.490  52.156  1.00  0.00     0.072 C 
ATOM      6  C   UNL     1      29.365  -5.608  51.261  1.00  0.00     0.012 C 
ENDBRANCH   3   5
ENDBRANCH   1   3
BRANCH   1   7
ATOM      7  C   UNL     1      25.745  -2.603  52.760  1.00  0.00     0.038 C 
BRANCH   7   8
ATOM      8  C   UNL     1      24.648  -3.414  53.399  1.00  0.00    -0.034 C 
ATOM      9  C   UNL     1      24.724  -3.827  54.667  1.00  0.00     0.004 C 
ENDBRANCH   7   8
ENDBRANCH   1   7
TORSDOF 4
ENDMDL
MODEL 3
REMARK VINA RESULT:    -3.389      1.058      2.571
REMARK INTER + INTRA:          -4.597
REMARK INTER:                  -4.173
REMARK INTRA:                  -0.424
REMARK UNBOUND:                -0.416
REMARK SMILES C=CC[C@H](C)C(=O)CC
REMARK SMILES IDX 4 1 5 2 6 3 7 4 8 5 9 6 3 7 2 8 1 9
REMARK H PARENT
REMARK Flexibility Score: inf
ROOT
ATOM      1  C   UNL     1      27.238  -5.339  52.414  1.00  0.00     0.057 C 
ATOM      2  C   UNL     1      28.660  -5.537  51.876  1.00  0.00     0.016 C 
ENDROOT
BRANCH   1   3
ATOM      3  C   UNL     1      26.511  -4.300  51.584  1.00  0.00     0.135 C 
ATOM      4  O   UNL     1      25.469  -4.598  51.017  1.00  0.00    -0.299 OA
BRANCH   3   5
ATOM      5  C   UNL     1      27.058  -2.906  51.430  1.00  0.00     0.072 C 
ATOM      6  C   UNL     1      26.237  -1.910  52.243  1.00  0.00     0.012 C 
ENDBRANCH   3   5
ENDBRANCH   1   3
BRANCH   1   7
ATOM      7  C   UNL     1      27.273  -4.939  53.903  1.00  0.00     0.038 C 
BRANCH   7   8
ATOM      8  C   UNL     1      25.956  -5.193  54.590  1.00  0.00    -0.034 C 
ATOM      9  C   UNL     1      25.214  -4.197  55.081  1.00  0.00     0.004 C 
ENDBRANCH   7   8
ENDBRANCH   1   7
TORSDOF 4
ENDMDL
MODEL 4
REMARK VINA RESULT:    -3.352      1.472      3.204
REMARK INTER + INTRA:          -4.552
REMARK INTER:                  -4.065
REMARK INTRA:                  -0.487
REMARK UNBOUND:                -0.416
REMARK SMILES C=CC[C@H](C)C(=O)CC
REMARK SMILES IDX 4 1 5 2 6 3 7 4 8 5 9 6 3 7 2 8 1 9
REMARK H PARENT
REMARK Flexibility Score: inf
ROOT
ATOM      1  C   UNL     1      25.854  -3.945  51.911  1.00  0.00     0.057 C 
ATOM      2  C   UNL     1      26.803  -2.878  51.354  1.00  0.00     0.016 C 
ENDROOT
BRANCH   1   3
ATOM      3  C   UNL     1      25.393  -3.555  53.300  1.00  0.00     0.135 C 
ATOM      4  O   UNL     1      24.919  -2.444  53.492  1.00  0.00    -0.299 OA
BRANCH   3   5
ATOM      5  C   UNL     1      25.525  -4.507  54.459  1.00  0.00     0.072 C 
ATOM      6  C   UNL     1      26.604  -4.035  55.427  1.00  0.00     0.012 C 
ENDBRANCH   3   5
ENDBRANCH   1   3
BRANCH   1   7
ATOM      7  C   UNL     1      26.539  -5.328  51.918  1.00  0.00     0.038 C 
BRANCH   7   8
ATOM      8  C   UNL     1      28.041  -5.217  51.864  1.00  0.00    -0.034 C 
ATOM      9  C   UNL     1      28.821  -5.766  52.799  1.00  0.00     0.004 C 
ENDBRANCH   7   8
ENDBRANCH   1   7
TORSDOF 4
ENDMDL
MODEL 5
REMARK VINA RESULT:    -3.272      1.943      3.867
REMARK INTER + INTRA:          -4.453
REMARK INTER:                  -3.968
REMARK INTRA:                  -0.485
REMARK UNBOUND:                -0.416
REMARK SMILES C=CC[C@H](C)C(=O)CC
REMARK SMILES IDX 4 1 5 2 6 3 7 4 8 5 9 6 3 7 2 8 1 9
REMARK H PARENT
REMARK Flexibility Score: inf
ROOT
ATOM      1  C   UNL     1      26.947  -4.587  53.749  1.00  0.00     0.057 C 
ATOM      2  C   UNL     1      28.326  -5.092  54.187  1.00  0.00     0.016 C 
ENDROOT
BRANCH   1   3
ATOM      3  C   UNL     1      25.916  -4.904  54.813  1.00  0.00     0.135 C 
ATOM      4  O   UNL     1      26.088  -5.859  55.558  1.00  0.00    -0.299 OA
BRANCH   3   5
ATOM      5  C   UNL     1      24.669  -4.073  54.960  1.00  0.00     0.072 C 
ATOM      6  C   UNL     1      24.954  -2.610  54.638  1.00  0.00     0.012 C 
ENDBRANCH   3   5
ENDBRANCH   1   3
BRANCH   1   7
ATOM      7  C   UNL     1      26.552  -5.201  52.389  1.00  0.00     0.038 C 
BRANCH   7   8
ATOM      8  C   UNL     1      26.105  -4.153  51.403  1.00  0.00    -0.034 C 
ATOM      9  C   UNL     1      26.669  -2.944  51.356  1.00  0.00     0.004 C 
ENDBRANCH   7   8
ENDBRANCH   1   7
TORSDOF 4
ENDMDL
MODEL 6
REMARK VINA RESULT:    -3.255      1.395      3.280
REMARK INTER + INTRA:          -4.432
REMARK INTER:                  -4.047
REMARK INTRA:                  -0.385
REMARK UNBOUND:                -0.416
REMARK SMILES C=CC[C@H](C)C(=O)CC
REMARK SMILES IDX 4 1 5 2 6 3 7 4 8 5 9 6 3 7 2 8 1 9
REMARK H PARENT
REMARK Flexibility Score: inf
ROOT
ATOM      1  C   UNL     1      27.065  -2.833  51.573  1.00  0.00     0.057 C 
ATOM      2  C   UNL     1      26.621  -1.467  52.109  1.00  0.00     0.016 C 
ENDROOT
BRANCH   1   3
ATOM      3  C   UNL     1      26.049  -3.893  51.951  1.00  0.00     0.135 C 
ATOM      4  O   UNL     1      25.694  -4.715  51.118  1.00  0.00    -0.299 OA
BRANCH   3   5
ATOM      5  C   UNL     1      25.453  -3.941  53.332  1.00  0.00     0.072 C 
ATOM      6  C   UNL     1      26.156  -4.990  54.188  1.00  0.00     0.012 C 
ENDBRANCH   3   5
ENDBRANCH   1   3
BRANCH   1   7
ATOM      7  C   UNL     1      28.469  -3.192  52.103  1.00  0.00     0.038 C 
BRANCH   7   8
ATOM      8  C   UNL     1      29.134  -4.256  51.268  1.00  0.00    -0.034 C 
ATOM      9  C   UNL     1      29.385  -5.476  51.752  1.00  0.00     0.004 C 
ENDBRANCH   7   8
ENDBRANCH   1   7
TORSDOF 4
ENDMDL
MODEL 7
REMARK VINA RESULT:    -3.244      1.927      3.073
REMARK INTER + INTRA:          -4.419
REMARK INTER:                  -3.948
REMARK INTRA:                  -0.471
REMARK UNBOUND:                -0.416
REMARK SMILES C=CC[C@H](C)C(=O)CC
REMARK SMILES IDX 4 1 5 2 6 3 7 4 8 5 9 6 3 7 2 8 1 9
REMARK H PARENT
REMARK Flexibility Score: inf
ROOT
ATOM      1  C   UNL     1      27.300  -5.436  52.346  1.00  0.00     0.057 C 
ATOM      2  C   UNL     1      27.258  -5.251  53.867  1.00  0.00     0.016 C 
ENDROOT
BRANCH   1   3
ATOM      3  C   UNL     1      28.686  -5.115  51.823  1.00  0.00     0.135 C 
ATOM      4  O   UNL     1      29.192  -5.828  50.968  1.00  0.00    -0.299 OA
BRANCH   3   5
ATOM      5  C   UNL     1      29.463  -3.938  52.352  1.00  0.00     0.072 C 
ATOM      6  C   UNL     1      29.597  -2.856  51.287  1.00  0.00     0.012 C 
ENDBRANCH   3   5
ENDBRANCH   1   3
BRANCH   1   7
ATOM      7  C   UNL     1      26.230  -4.561  51.663  1.00  0.00     0.038 C 
BRANCH   7   8
ATOM      8  C   UNL     1      25.752  -3.447  52.559  1.00  0.00    -0.034 C 
ATOM      9  C   UNL     1      26.095  -2.174  52.343  1.00  0.00     0.004 C 
ENDBRANCH   7   8
ENDBRANCH   1   7
TORSDOF 4
ENDMDL
MODEL 8
REMARK VINA RESULT:    -3.234      1.559      2.675
REMARK INTER + INTRA:          -4.406
REMARK INTER:                  -3.969
REMARK INTRA:                  -0.437
REMARK UNBOUND:                -0.416
REMARK SMILES C=CC[C@H](C)C(=O)CC
REMARK SMILES IDX 4 1 5 2 6 3 7 4 8 5 9 6 3 7 2 8 1 9
REMARK H PARENT
REMARK Flexibility Score: inf
ROOT
ATOM      1  C   UNL     1      26.350  -4.045  52.338  1.00  0.00     0.057 C 
ATOM      2  C   UNL     1      25.733  -4.749  51.124  1.00  0.00     0.016 C 
ENDROOT
BRANCH   1   3
ATOM      3  C   UNL     1      27.726  -3.517  51.987  1.00  0.00     0.135 C 
ATOM      4  O   UNL     1      28.599  -4.292  51.622  1.00  0.00    -0.299 OA
BRANCH   3   5
ATOM      5  C   UNL     1      28.047  -2.049  52.095  1.00  0.00     0.072 C 
ATOM      6  C   UNL     1      26.771  -1.227  52.244  1.00  0.00     0.012 C 
ENDBRANCH   3   5
ENDBRANCH   1   3
BRANCH   1   7
ATOM      7  C   UNL     1      26.412  -5.003  53.546  1.00  0.00     0.038 C 
BRANCH   7   8
ATOM      8  C   UNL     1      25.621  -4.487  54.720  1.00  0.00    -0.034 C 
ATOM      9  C   UNL     1      24.561  -3.690  54.559  1.00  0.00     0.004 C 
ENDBRANCH   7   8
ENDBRANCH   1   7
TORSDOF 4
ENDMDL
MODEL 9
REMARK VINA RESULT:    -3.233      1.516      2.523
REMARK INTER + INTRA:          -4.405
REMARK INTER:                  -3.944
REMARK INTRA:                  -0.461
REMARK UNBOUND:                -0.416
REMARK SMILES C=CC[C@H](C)C(=O)CC
REMARK SMILES IDX 4 1 5 2 6 3 7 4 8 5 9 6 3 7 2 8 1 9
REMARK H PARENT
REMARK Flexibility Score: inf
ROOT
ATOM      1  C   UNL     1      27.607  -5.269  54.020  1.00  0.00     0.057 C 
ATOM      2  C   UNL     1      28.253  -3.953  54.465  1.00  0.00     0.016 C 
ENDROOT
BRANCH   1   3
ATOM      3  C   UNL     1      27.594  -5.354  52.507  1.00  0.00     0.135 C 
ATOM      4  O   UNL     1      28.602  -5.707  51.911  1.00  0.00    -0.299 OA
BRANCH   3   5
ATOM      5  C   UNL     1      26.363  -4.995  51.718  1.00  0.00     0.072 C 
ATOM      6  C   UNL     1      26.357  -3.510  51.371  1.00  0.00     0.012 C 
ENDBRANCH   3   5
ENDBRANCH   1   3
BRANCH   1   7
ATOM      7  C   UNL     1      26.182  -5.396  54.598  1.00  0.00     0.038 C 
BRANCH   7   8
ATOM      8  C   UNL     1      25.669  -4.086  55.136  1.00  0.00    -0.034 C 
ATOM      9  C   UNL     1      24.506  -3.566  54.734  1.00  0.00     0.004 C 
ENDBRANCH   7   8
ENDBRANCH   1   7
TORSDOF 4
ENDMDL
