MODEL 1
REMARK VINA RESULT:    -3.294      0.000      0.000
REMARK INTER + INTRA:          -3.583
REMARK INTER:                  -3.583
REMARK INTRA:                   0.000
REMARK UNBOUND:                 0.000
REMARK SMILES [NH3+]CC(=O)[O-]
REMARK SMILES IDX 2 1 1 2 3 6 4 7 5 8
REMARK H PARENT 1 3 1 4 1 5
REMARK Flexibility Score: inf
ROOT
ATOM      1  C   UNL     1     -16.493 -61.810 -10.787  1.00  0.00     0.312 C 
ENDROOT
BRANCH   1   2
ATOM      2  N   UNL     1     -17.680 -61.071 -11.213  1.00  0.00    -0.353 N 
ATOM      3  H   UNL     1     -18.074 -60.555 -10.392  1.00  0.00     0.344 HD
ATOM      4  H   UNL     1     -17.425 -60.381 -11.957  1.00  0.00     0.344 HD
ATOM      5  H   UNL     1     -18.404 -61.734 -11.575  1.00  0.00     0.344 HD
ENDBRANCH   1   2
BRANCH   1   6
ATOM      6  C   UNL     1     -16.289 -63.022 -11.643  1.00  0.00     0.096 C 
ATOM      7  O   UNL     1     -16.010 -62.894 -12.864  1.00  0.00    -0.544 OA
ATOM      8  O   UNL     1     -16.356 -64.290 -11.081  1.00  0.00    -0.544 OA
ENDBRANCH   1   6
TORSDOF 2
ENDMDL
MODEL 2
REMARK VINA RESULT:    -3.239      0.096      1.451
REMARK INTER + INTRA:          -3.523
REMARK INTER:                  -3.523
REMARK INTRA:                   0.000
REMARK UNBOUND:                 0.000
REMARK SMILES [NH3+]CC(=O)[O-]
REMARK SMILES IDX 2 1 1 2 3 6 4 7 5 8
REMARK H PARENT 1 3 1 4 1 5
REMARK Flexibility Score: inf
ROOT
ATOM      1  C   UNL     1     -16.510 -61.782 -10.729  1.00  0.00     0.312 C 
ENDROOT
BRANCH   1   2
ATOM      2  N   UNL     1     -17.698 -61.060 -11.180  1.00  0.00    -0.353 N 
ATOM      3  H   UNL     1     -17.795 -60.179 -10.624  1.00  0.00     0.344 HD
ATOM      4  H   UNL     1     -17.605 -60.813 -12.192  1.00  0.00     0.344 HD
ATOM      5  H   UNL     1     -18.551 -61.648 -11.035  1.00  0.00     0.344 HD
ENDBRANCH   1   2
BRANCH   1   6
ATOM      6  C   UNL     1     -16.262 -62.982 -11.589  1.00  0.00     0.096 C 
ATOM      7  O   UNL     1     -16.334 -64.139 -11.098  1.00  0.00    -0.544 OA
ATOM      8  O   UNL     1     -16.002 -62.823 -12.945  1.00  0.00    -0.544 OA
ENDBRANCH   1   6
TORSDOF 2
ENDMDL
MODEL 3
REMARK VINA RESULT:    -3.235      2.391      2.563
REMARK INTER + INTRA:          -3.519
REMARK INTER:                  -3.519
REMARK INTRA:                   0.000
REMARK UNBOUND:                 0.000
REMARK SMILES [NH3+]CC(=O)[O-]
REMARK SMILES IDX 2 1 1 2 3 6 4 7 5 8
REMARK H PARENT 1 3 1 4 1 5
REMARK Flexibility Score: inf
ROOT
ATOM      1  C   UNL     1     -16.342 -63.449 -11.495  1.00  0.00     0.312 C 
ENDROOT
BRANCH   1   2
ATOM      2  N   UNL     1     -14.973 -63.847 -11.815  1.00  0.00    -0.353 N 
ATOM      3  H   UNL     1     -14.991 -64.529 -12.608  1.00  0.00     0.344 HD
ATOM      4  H   UNL     1     -14.413 -63.010 -12.100  1.00  0.00     0.344 HD
ATOM      5  H   UNL     1     -14.530 -64.305 -10.985  1.00  0.00     0.344 HD
ENDBRANCH   1   2
BRANCH   1   6
ATOM      6  C   UNL     1     -16.383 -62.031 -11.016  1.00  0.00     0.096 C 
ATOM      7  O   UNL     1     -16.203 -61.084 -11.826  1.00  0.00    -0.544 OA
ATOM      8  O   UNL     1     -16.671 -61.755  -9.686  1.00  0.00    -0.544 OA
ENDBRANCH   1   6
TORSDOF 2
ENDMDL
MODEL 4
REMARK VINA RESULT:    -2.943     12.745     13.259
REMARK INTER + INTRA:          -3.201
REMARK INTER:                  -3.201
REMARK INTRA:                   0.000
REMARK UNBOUND:                 0.000
REMARK SMILES [NH3+]CC(=O)[O-]
REMARK SMILES IDX 2 1 1 2 3 6 4 7 5 8
REMARK H PARENT 1 3 1 4 1 5
REMARK Flexibility Score: inf
ROOT
ATOM      1  C   UNL     1     -18.597 -68.020  -0.060  1.00  0.00     0.312 C 
ENDROOT
BRANCH   1   2
ATOM      2  N   UNL     1     -17.495 -68.776   0.531  1.00  0.00    -0.353 N 
ATOM      3  H   UNL     1     -17.429 -69.709   0.061  1.00  0.00     0.344 HD
ATOM      4  H   UNL     1     -16.593 -68.263   0.392  1.00  0.00     0.344 HD
ATOM      5  H   UNL     1     -17.666 -68.922   1.552  1.00  0.00     0.344 HD
ENDBRANCH   1   2
BRANCH   1   6
ATOM      6  C   UNL     1     -19.655 -68.945  -0.576  1.00  0.00     0.096 C 
ATOM      7  O   UNL     1     -20.137 -69.836   0.172  1.00  0.00    -0.544 OA
ATOM      8  O   UNL     1     -20.147 -68.789  -1.866  1.00  0.00    -0.544 OA
ENDBRANCH   1   6
TORSDOF 2
ENDMDL
MODEL 5
REMARK VINA RESULT:    -2.924     13.213     13.665
REMARK INTER + INTRA:          -3.180
REMARK INTER:                  -3.180
REMARK INTRA:                   0.000
REMARK UNBOUND:                 0.000
REMARK SMILES [NH3+]CC(=O)[O-]
REMARK SMILES IDX 2 1 1 2 3 6 4 7 5 8
REMARK H PARENT 1 3 1 4 1 5
REMARK Flexibility Score: inf
ROOT
ATOM      1  C   UNL     1     -18.418 -69.118   0.579  1.00  0.00     0.312 C 
ENDROOT
BRANCH   1   2
ATOM      2  N   UNL     1     -17.067 -69.657   0.730  1.00  0.00    -0.353 N 
ATOM      3  H   UNL     1     -16.424 -68.888   1.028  1.00  0.00     0.344 HD
ATOM      4  H   UNL     1     -17.060 -70.407   1.460  1.00  0.00     0.344 HD
ATOM      5  H   UNL     1     -16.732 -70.045  -0.181  1.00  0.00     0.344 HD
ENDBRANCH   1   2
BRANCH   1   6
ATOM      6  C   UNL     1     -18.399 -67.622   0.625  1.00  0.00     0.096 C 
ATOM      7  O   UNL     1     -17.845 -66.968  -0.297  1.00  0.00    -0.544 OA
ATOM      8  O   UNL     1     -19.038 -66.950   1.659  1.00  0.00    -0.544 OA
ENDBRANCH   1   6
TORSDOF 2
ENDMDL
MODEL 6
REMARK VINA RESULT:    -2.885     12.693     13.025
REMARK INTER + INTRA:          -3.138
REMARK INTER:                  -3.138
REMARK INTRA:                   0.000
REMARK UNBOUND:                 0.000
REMARK SMILES [NH3+]CC(=O)[O-]
REMARK SMILES IDX 2 1 1 2 3 6 4 7 5 8
REMARK H PARENT 1 3 1 4 1 5
REMARK Flexibility Score: inf
ROOT
ATOM      1  C   UNL     1     -20.083 -68.320   0.013  1.00  0.00     0.312 C 
ENDROOT
BRANCH   1   2
ATOM      2  N   UNL     1     -20.608 -68.844  -1.246  1.00  0.00    -0.353 N 
ATOM      3  H   UNL     1     -19.814 -69.203  -1.825  1.00  0.00     0.344 HD
ATOM      4  H   UNL     1     -21.272 -69.630  -1.058  1.00  0.00     0.344 HD
ATOM      5  H   UNL     1     -21.096 -68.085  -1.775  1.00  0.00     0.344 HD
ENDBRANCH   1   2
BRANCH   1   6
ATOM      6  C   UNL     1     -18.586 -68.292  -0.009  1.00  0.00     0.096 C 
ATOM      7  O   UNL     1     -17.978 -67.240  -0.341  1.00  0.00    -0.544 OA
ATOM      8  O   UNL     1     -17.864 -69.410   0.387  1.00  0.00    -0.544 OA
ENDBRANCH   1   6
TORSDOF 2
ENDMDL
MODEL 7
REMARK VINA RESULT:    -2.854     12.634     13.087
REMARK INTER + INTRA:          -3.104
REMARK INTER:                  -3.104
REMARK INTRA:                   0.000
REMARK UNBOUND:                 0.000
REMARK SMILES [NH3+]CC(=O)[O-]
REMARK SMILES IDX 2 1 1 2 3 6 4 7 5 8
REMARK H PARENT 1 3 1 4 1 5
REMARK Flexibility Score: inf
ROOT
ATOM      1  C   UNL     1     -18.745 -67.056   1.415  1.00  0.00     0.312 C 
ENDROOT
BRANCH   1   2
ATOM      2  N   UNL     1     -18.254 -65.691   1.592  1.00  0.00    -0.353 N 
ATOM      3  H   UNL     1     -18.978 -65.019   1.249  1.00  0.00     0.344 HD
ATOM      4  H   UNL     1     -18.072 -65.504   2.606  1.00  0.00     0.344 HD
ATOM      5  H   UNL     1     -17.375 -65.552   1.042  1.00  0.00     0.344 HD
ENDBRANCH   1   2
BRANCH   1   6
ATOM      6  C   UNL     1     -18.051 -67.722   0.268  1.00  0.00     0.096 C 
ATOM      7  O   UNL     1     -17.758 -67.063  -0.764  1.00  0.00    -0.544 OA
ATOM      8  O   UNL     1     -17.682 -69.058   0.359  1.00  0.00    -0.544 OA
ENDBRANCH   1   6
TORSDOF 2
ENDMDL
MODEL 8
REMARK VINA RESULT:    -2.791      5.971      6.301
REMARK INTER + INTRA:          -3.035
REMARK INTER:                  -3.035
REMARK INTRA:                   0.000
REMARK UNBOUND:                 0.000
REMARK SMILES [NH3+]CC(=O)[O-]
REMARK SMILES IDX 2 1 1 2 3 6 4 7 5 8
REMARK H PARENT 1 3 1 4 1 5
REMARK Flexibility Score: inf
ROOT
ATOM      1  C   UNL     1     -18.388 -67.547 -10.819  1.00  0.00     0.312 C 
ENDROOT
BRANCH   1   2
ATOM      2  N   UNL     1     -16.933 -67.687 -10.821  1.00  0.00    -0.353 N 
ATOM      3  H   UNL     1     -16.640 -68.203 -11.683  1.00  0.00     0.344 HD
ATOM      4  H   UNL     1     -16.481 -66.744 -10.821  1.00  0.00     0.344 HD
ATOM      5  H   UNL     1     -16.624 -68.229  -9.981  1.00  0.00     0.344 HD
ENDBRANCH   1   2
BRANCH   1   6
ATOM      6  C   UNL     1     -19.012 -68.504 -11.786  1.00  0.00     0.096 C 
ATOM      7  O   UNL     1     -18.321 -69.019 -12.703  1.00  0.00    -0.544 OA
ATOM      8  O   UNL     1     -20.345 -68.867 -11.642  1.00  0.00    -0.544 OA
ENDBRANCH   1   6
TORSDOF 2
ENDMDL
MODEL 9
REMARK VINA RESULT:    -2.746     17.276     17.584
REMARK INTER + INTRA:          -2.987
REMARK INTER:                  -2.987
REMARK INTRA:                   0.000
REMARK UNBOUND:                 0.000
REMARK SMILES [NH3+]CC(=O)[O-]
REMARK SMILES IDX 2 1 1 2 3 6 4 7 5 8
REMARK H PARENT 1 3 1 4 1 5
REMARK Flexibility Score: inf
ROOT
ATOM      1  C   UNL     1     -10.963 -70.764   2.908  1.00  0.00     0.312 C 
ENDROOT
BRANCH   1   2
ATOM      2  N   UNL     1     -11.640 -69.469   2.947  1.00  0.00    -0.353 N 
ATOM      3  H   UNL     1     -12.290 -69.446   3.767  1.00  0.00     0.344 HD
ATOM      4  H   UNL     1     -10.937 -68.700   3.050  1.00  0.00     0.344 HD
ATOM      5  H   UNL     1     -12.194 -69.328   2.071  1.00  0.00     0.344 HD
ENDBRANCH   1   2
BRANCH   1   6
ATOM      6  C   UNL     1     -11.959 -71.881   2.920  1.00  0.00     0.096 C 
ATOM      7  O   UNL     1     -13.189 -71.634   2.803  1.00  0.00    -0.544 OA
ATOM      8  O   UNL     1     -11.527 -73.198   3.006  1.00  0.00    -0.544 OA
ENDBRANCH   1   6
TORSDOF 2
ENDMDL
