MODEL 1
REMARK VINA RESULT:    -1.418      0.000      0.000
REMARK INTER + INTRA:          -1.641
REMARK INTER:                  -1.542
REMARK INTRA:                  -0.098
REMARK UNBOUND:                -0.098
REMARK SMILES C=C(C)[C@H]1CC=C(C)[C@@H](O)C1
REMARK SMILES IDX 8 1 7 2 6 3 5 4 4 5 11 6 9 7 10 8 2 10 1 11 3 12
REMARK H PARENT 10 9
REMARK Flexibility Score: inf
ROOT
ATOM      1  C   UNL     1     -41.033  21.458   9.124  1.00  0.00     0.042 C 
ATOM      2  C   UNL     1     -41.115  22.458   7.999  1.00  0.00    -0.049 C 
ATOM      3  C   UNL     1     -41.958  22.205   6.975  1.00  0.00    -0.025 C 
ATOM      4  C   UNL     1     -42.123  23.130   5.796  1.00  0.00     0.035 C 
ATOM      5  C   UNL     1     -41.723  24.573   6.142  1.00  0.00     0.021 C 
ATOM      6  C   UNL     1     -40.341  24.579   6.809  1.00  0.00     0.044 C 
ATOM      7  C   UNL     1     -40.375  23.783   8.127  1.00  0.00     0.140 C 
ENDROOT
BRANCH   7   8
ATOM      8  O   UNL     1     -39.060  23.544   8.558  1.00  0.00    -0.389 OA
ATOM      9  H   UNL     1     -38.458  23.878   7.841  1.00  0.00     0.211 HD
ENDBRANCH   7   8
BRANCH   5  10
ATOM     10  C   UNL     1     -41.755  25.468   4.909  1.00  0.00    -0.077 C 
ATOM     11  C   UNL     1     -41.457  24.962   3.702  1.00  0.00     0.008 C 
ATOM     12  C   UNL     1     -42.108  26.932   5.008  1.00  0.00     0.039 C 
ENDBRANCH   5  10
TORSDOF 2
ENDMDL
MODEL 2
REMARK VINA RESULT:    -0.079     16.883     18.058
REMARK INTER + INTRA:          -0.185
REMARK INTER:                  -0.097
REMARK INTRA:                  -0.088
REMARK UNBOUND:                -0.098
REMARK SMILES C=C(C)[C@H]1CC=C(C)[C@@H](O)C1
REMARK SMILES IDX 8 1 7 2 6 3 5 4 4 5 11 6 9 7 10 8 2 10 1 11 3 12
REMARK H PARENT 10 9
REMARK Flexibility Score: inf
ROOT
ATOM      1  C   UNL     1     -25.214  28.110   5.356  1.00  0.00     0.042 C 
ATOM      2  C   UNL     1     -25.056  29.349   6.200  1.00  0.00    -0.049 C 
ATOM      3  C   UNL     1     -25.698  30.473   5.818  1.00  0.00    -0.025 C 
ATOM      4  C   UNL     1     -25.614  31.771   6.581  1.00  0.00     0.035 C 
ATOM      5  C   UNL     1     -25.249  31.543   8.056  1.00  0.00     0.021 C 
ATOM      6  C   UNL     1     -24.017  30.632   8.147  1.00  0.00     0.044 C 
ATOM      7  C   UNL     1     -24.319  29.254   7.530  1.00  0.00     0.140 C 
ENDROOT
BRANCH   7   8
ATOM      8  O   UNL     1     -23.115  28.554   7.348  1.00  0.00    -0.389 OA
ATOM      9  H   UNL     1     -22.453  28.954   7.971  1.00  0.00     0.211 HD
ENDBRANCH   7   8
BRANCH   5  10
ATOM     10  C   UNL     1     -25.024  32.863   8.782  1.00  0.00    -0.077 C 
ATOM     11  C   UNL     1     -26.071  33.630   9.125  1.00  0.00     0.008 C 
ATOM     12  C   UNL     1     -23.635  33.347   9.124  1.00  0.00     0.039 C 
ENDBRANCH   5  10
TORSDOF 2
ENDMDL
MODEL 3
REMARK VINA RESULT:     1.417      2.458      3.610
REMARK INTER + INTRA:           1.443
REMARK INTER:                   1.530
REMARK INTRA:                  -0.087
REMARK UNBOUND:                -0.098
REMARK SMILES C=C(C)[C@H]1CC=C(C)[C@@H](O)C1
REMARK SMILES IDX 8 1 7 2 6 3 5 4 4 5 11 6 9 7 10 8 2 10 1 11 3 12
REMARK H PARENT 10 9
REMARK Flexibility Score: inf
ROOT
ATOM      1  C   UNL     1     -42.125  22.428   8.910  1.00  0.00     0.042 C 
ATOM      2  C   UNL     1     -40.904  23.115   8.355  1.00  0.00    -0.049 C 
ATOM      3  C   UNL     1     -39.694  22.768   8.844  1.00  0.00    -0.025 C 
ATOM      4  C   UNL     1     -38.404  23.387   8.368  1.00  0.00     0.035 C 
ATOM      5  C   UNL     1     -38.537  23.965   6.950  1.00  0.00     0.021 C 
ATOM      6  C   UNL     1     -39.779  24.863   6.875  1.00  0.00     0.044 C 
ATOM      7  C   UNL     1     -41.054  24.048   7.161  1.00  0.00     0.140 C 
ENDROOT
BRANCH   7   8
ATOM      8  O   UNL     1     -42.125  24.928   7.387  1.00  0.00    -0.389 OA
ATOM      9  H   UNL     1     -42.346  25.342   6.512  1.00  0.00     0.211 HD
ENDBRANCH   7   8
BRANCH   5  10
ATOM     10  C   UNL     1     -37.277  24.713   6.535  1.00  0.00    -0.077 C 
ATOM     11  C   UNL     1     -36.590  24.325   5.450  1.00  0.00     0.008 C 
ATOM     12  C   UNL     1     -36.766  25.892   7.327  1.00  0.00     0.039 C 
ENDBRANCH   5  10
TORSDOF 2
ENDMDL
