MODEL 1
REMARK VINA RESULT:    -4.776      0.000      0.000
REMARK INTER + INTRA:          -5.541
REMARK INTER:                  -5.335
REMARK INTRA:                  -0.206
REMARK UNBOUND:                -0.206
REMARK SMILES CC(C)c1ccc(C(=O)[O-])cc1
REMARK SMILES IDX 7 1 6 2 11 3 5 4 12 5 4 6 8 7 9 8 10 9 2 10 1 11 3 12
REMARK H PARENT
REMARK Flexibility Score: inf
ROOT
ATOM      1  C   UNL     1      29.579  58.500 -11.775  1.00  0.00    -0.003 A 
ATOM      2  C   UNL     1      29.533  57.629 -12.876  1.00  0.00     0.010 A 
ATOM      3  C   UNL     1      30.830  58.871 -11.252  1.00  0.00     0.010 A 
ATOM      4  C   UNL     1      30.712  57.138 -13.443  1.00  0.00     0.004 A 
ATOM      5  C   UNL     1      32.010  58.380 -11.819  1.00  0.00     0.004 A 
ATOM      6  C   UNL     1      31.965  57.509 -12.921  1.00  0.00    -0.045 A 
ENDROOT
BRANCH   1   7
ATOM      7  C   UNL     1      28.333  59.022 -11.172  1.00  0.00     0.071 C 
ATOM      8  O   UNL     1      28.252  60.227 -10.811  1.00  0.00    -0.545 OA
ATOM      9  O   UNL     1      27.234  58.191 -10.995  1.00  0.00    -0.545 OA
ENDBRANCH   1   7
BRANCH   6  10
ATOM     10  C   UNL     1      33.254  56.984 -13.526  1.00  0.00     0.013 C 
ATOM     11  C   UNL     1      34.082  56.222 -12.484  1.00  0.00     0.012 C 
ATOM     12  C   UNL     1      34.070  58.119 -14.157  1.00  0.00     0.012 C 
ENDBRANCH   6  10
TORSDOF 2
ENDMDL
MODEL 2
REMARK VINA RESULT:    -4.767      0.057      1.398
REMARK INTER + INTRA:          -5.530
REMARK INTER:                  -5.327
REMARK INTRA:                  -0.203
REMARK UNBOUND:                -0.206
REMARK SMILES CC(C)c1ccc(C(=O)[O-])cc1
REMARK SMILES IDX 7 1 6 2 11 3 5 4 12 5 4 6 8 7 9 8 10 9 2 10 1 11 3 12
REMARK H PARENT
REMARK Flexibility Score: inf
ROOT
ATOM      1  C   UNL     1      29.589  58.501 -11.756  1.00  0.00    -0.003 A 
ATOM      2  C   UNL     1      30.836  58.914 -11.257  1.00  0.00     0.010 A 
ATOM      3  C   UNL     1      29.553  57.588 -12.823  1.00  0.00     0.010 A 
ATOM      4  C   UNL     1      32.021  58.425 -11.814  1.00  0.00     0.004 A 
ATOM      5  C   UNL     1      30.737  57.098 -13.380  1.00  0.00     0.004 A 
ATOM      6  C   UNL     1      31.985  57.511 -12.882  1.00  0.00    -0.045 A 
ENDROOT
BRANCH   1   7
ATOM      7  C   UNL     1      28.332  59.015 -11.169  1.00  0.00     0.071 C 
ATOM      8  O   UNL     1      28.207  60.238 -10.895  1.00  0.00    -0.545 OA
ATOM      9  O   UNL     1      27.271  58.156 -10.912  1.00  0.00    -0.545 OA
ENDBRANCH   1   7
BRANCH   6  10
ATOM     10  C   UNL     1      33.263  56.972 -13.497  1.00  0.00     0.013 C 
ATOM     11  C   UNL     1      34.102  56.221 -12.456  1.00  0.00     0.012 C 
ATOM     12  C   UNL     1      34.076  58.093 -14.156  1.00  0.00     0.012 C 
ENDBRANCH   6  10
TORSDOF 2
ENDMDL
MODEL 3
REMARK VINA RESULT:    -4.462      1.357      2.396
REMARK INTER + INTRA:          -5.190
REMARK INTER:                  -4.977
REMARK INTRA:                  -0.213
REMARK UNBOUND:                -0.206
REMARK SMILES CC(C)c1ccc(C(=O)[O-])cc1
REMARK SMILES IDX 7 1 6 2 11 3 5 4 12 5 4 6 8 7 9 8 10 9 2 10 1 11 3 12
REMARK H PARENT
REMARK Flexibility Score: inf
ROOT
ATOM      1  C   UNL     1      29.430  59.406 -10.366  1.00  0.00    -0.003 A 
ATOM      2  C   UNL     1      30.777  59.225 -10.008  1.00  0.00     0.010 A 
ATOM      3  C   UNL     1      28.974  58.882 -11.588  1.00  0.00     0.010 A 
ATOM      4  C   UNL     1      31.649  58.534 -10.854  1.00  0.00     0.004 A 
ATOM      5  C   UNL     1      29.847  58.191 -12.433  1.00  0.00     0.004 A 
ATOM      6  C   UNL     1      31.194  58.009 -12.077  1.00  0.00    -0.045 A 
ENDROOT
BRANCH   1   7
ATOM      7  C   UNL     1      28.503  60.136  -9.474  1.00  0.00     0.071 C 
ATOM      8  O   UNL     1      28.943  60.962  -8.630  1.00  0.00    -0.545 OA
ATOM      9  O   UNL     1      27.133  59.922  -9.555  1.00  0.00    -0.545 OA
ENDBRANCH   1   7
BRANCH   6  10
ATOM     10  C   UNL     1      32.129  57.257 -13.005  1.00  0.00     0.013 C 
ATOM     11  C   UNL     1      33.036  58.223 -13.777  1.00  0.00     0.012 C 
ATOM     12  C   UNL     1      31.347  56.350 -13.963  1.00  0.00     0.012 C 
ENDBRANCH   6  10
TORSDOF 2
ENDMDL
MODEL 4
REMARK VINA RESULT:    -4.455      2.934      5.056
REMARK INTER + INTRA:          -5.182
REMARK INTER:                  -4.972
REMARK INTRA:                  -0.210
REMARK UNBOUND:                -0.206
REMARK SMILES CC(C)c1ccc(C(=O)[O-])cc1
REMARK SMILES IDX 7 1 6 2 11 3 5 4 12 5 4 6 8 7 9 8 10 9 2 10 1 11 3 12
REMARK H PARENT
REMARK Flexibility Score: inf
ROOT
ATOM      1  C   UNL     1      31.852  57.634 -12.309  1.00  0.00    -0.003 A 
ATOM      2  C   UNL     1      30.666  57.397 -13.024  1.00  0.00     0.010 A 
ATOM      3  C   UNL     1      31.805  58.449 -11.165  1.00  0.00     0.010 A 
ATOM      4  C   UNL     1      29.459  57.963 -12.604  1.00  0.00     0.004 A 
ATOM      5  C   UNL     1      30.599  59.014 -10.744  1.00  0.00     0.004 A 
ATOM      6  C   UNL     1      29.411  58.778 -11.459  1.00  0.00    -0.045 A 
ENDROOT
BRANCH   1   7
ATOM      7  C   UNL     1      33.132  57.037 -12.750  1.00  0.00     0.071 C 
ATOM      8  O   UNL     1      33.659  57.385 -13.839  1.00  0.00    -0.545 OA
ATOM      9  O   UNL     1      33.770  56.083 -11.967  1.00  0.00    -0.545 OA
ENDBRANCH   1   7
BRANCH   6  10
ATOM     10  C   UNL     1      28.109  59.400 -10.991  1.00  0.00     0.013 C 
ATOM     11  C   UNL     1      28.343  60.349  -9.809  1.00  0.00     0.012 C 
ATOM     12  C   UNL     1      27.078  58.321 -10.636  1.00  0.00     0.012 C 
ENDBRANCH   6  10
TORSDOF 2
ENDMDL
MODEL 5
REMARK VINA RESULT:    -4.370     22.720     24.272
REMARK INTER + INTRA:          -5.087
REMARK INTER:                  -4.883
REMARK INTRA:                  -0.204
REMARK UNBOUND:                -0.206
REMARK SMILES CC(C)c1ccc(C(=O)[O-])cc1
REMARK SMILES IDX 7 1 6 2 11 3 5 4 12 5 4 6 8 7 9 8 10 9 2 10 1 11 3 12
REMARK H PARENT
REMARK Flexibility Score: inf
ROOT
ATOM      1  C   UNL     1      18.320  42.588   0.145  1.00  0.00    -0.003 A 
ATOM      2  C   UNL     1      18.301  43.901  -0.356  1.00  0.00     0.010 A 
ATOM      3  C   UNL     1      17.202  42.115   0.854  1.00  0.00     0.010 A 
ATOM      4  C   UNL     1      17.189  44.723  -0.152  1.00  0.00     0.004 A 
ATOM      5  C   UNL     1      16.090  42.936   1.057  1.00  0.00     0.004 A 
ATOM      6  C   UNL     1      16.070  44.249   0.557  1.00  0.00    -0.045 A 
ENDROOT
BRANCH   1   7
ATOM      7  C   UNL     1      19.494  41.715  -0.069  1.00  0.00     0.071 C 
ATOM      8  O   UNL     1      20.414  41.657   0.789  1.00  0.00    -0.545 OA
ATOM      9  O   UNL     1      19.599  40.945  -1.221  1.00  0.00    -0.545 OA
ENDBRANCH   1   7
BRANCH   6  10
ATOM     10  C   UNL     1      14.856  45.130   0.786  1.00  0.00     0.013 C 
ATOM     11  C   UNL     1      14.085  44.692   2.037  1.00  0.00     0.012 C 
ATOM     12  C   UNL     1      13.944  45.146  -0.446  1.00  0.00     0.012 C 
ENDBRANCH   6  10
TORSDOF 2
ENDMDL
MODEL 6
REMARK VINA RESULT:    -4.370      1.558      2.462
REMARK INTER + INTRA:          -5.087
REMARK INTER:                  -4.870
REMARK INTRA:                  -0.216
REMARK UNBOUND:                -0.206
REMARK SMILES CC(C)c1ccc(C(=O)[O-])cc1
REMARK SMILES IDX 7 1 6 2 11 3 5 4 12 5 4 6 8 7 9 8 10 9 2 10 1 11 3 12
REMARK H PARENT
REMARK Flexibility Score: inf
ROOT
ATOM      1  C   UNL     1      29.919  59.508 -10.300  1.00  0.00    -0.003 A 
ATOM      2  C   UNL     1      31.315  59.494 -10.456  1.00  0.00     0.010 A 
ATOM      3  C   UNL     1      29.118  58.906 -11.286  1.00  0.00     0.010 A 
ATOM      4  C   UNL     1      31.899  58.891 -11.574  1.00  0.00     0.004 A 
ATOM      5  C   UNL     1      29.702  58.303 -12.404  1.00  0.00     0.004 A 
ATOM      6  C   UNL     1      31.098  58.288 -12.561  1.00  0.00    -0.045 A 
ENDROOT
BRANCH   1   7
ATOM      7  C   UNL     1      29.296  60.145  -9.119  1.00  0.00     0.071 C 
ATOM      8  O   UNL     1      30.000  60.492  -8.134  1.00  0.00    -0.545 OA
ATOM      9  O   UNL     1      27.926  60.369  -9.079  1.00  0.00    -0.545 OA
ENDBRANCH   1   7
BRANCH   6  10
ATOM     10  C   UNL     1      31.718  57.630 -13.779  1.00  0.00     0.013 C 
ATOM     11  C   UNL     1      31.332  56.148 -13.862  1.00  0.00     0.012 C 
ATOM     12  C   UNL     1      33.241  57.805 -13.788  1.00  0.00     0.012 C 
ENDBRANCH   6  10
TORSDOF 2
ENDMDL
MODEL 7
REMARK VINA RESULT:    -4.363      1.595      2.150
REMARK INTER + INTRA:          -5.079
REMARK INTER:                  -4.863
REMARK INTRA:                  -0.216
REMARK UNBOUND:                -0.206
REMARK SMILES CC(C)c1ccc(C(=O)[O-])cc1
REMARK SMILES IDX 7 1 6 2 11 3 5 4 12 5 4 6 8 7 9 8 10 9 2 10 1 11 3 12
REMARK H PARENT
REMARK Flexibility Score: inf
ROOT
ATOM      1  C   UNL     1      30.017  59.492 -10.290  1.00  0.00    -0.003 A 
ATOM      2  C   UNL     1      29.172  58.960 -11.280  1.00  0.00     0.010 A 
ATOM      3  C   UNL     1      31.409  59.400 -10.463  1.00  0.00     0.010 A 
ATOM      4  C   UNL     1      29.708  58.350 -12.417  1.00  0.00     0.004 A 
ATOM      5  C   UNL     1      31.944  58.789 -11.600  1.00  0.00     0.004 A 
ATOM      6  C   UNL     1      31.100  58.257 -12.590  1.00  0.00    -0.045 A 
ENDROOT
BRANCH   1   7
ATOM      7  C   UNL     1      29.454  60.140  -9.085  1.00  0.00     0.071 C 
ATOM      8  O   UNL     1      30.186  60.386  -8.090  1.00  0.00    -0.545 OA
ATOM      9  O   UNL     1      28.110  60.488  -9.035  1.00  0.00    -0.545 OA
ENDBRANCH   1   7
BRANCH   6  10
ATOM     10  C   UNL     1      31.696  57.597 -13.819  1.00  0.00     0.013 C 
ATOM     11  C   UNL     1      31.335  56.107 -13.876  1.00  0.00     0.012 C 
ATOM     12  C   UNL     1      33.216  57.798 -13.873  1.00  0.00     0.012 C 
ENDBRANCH   6  10
TORSDOF 2
ENDMDL
MODEL 8
REMARK VINA RESULT:    -4.236      2.880      5.109
REMARK INTER + INTRA:          -4.937
REMARK INTER:                  -4.720
REMARK INTRA:                  -0.217
REMARK UNBOUND:                -0.206
REMARK SMILES CC(C)c1ccc(C(=O)[O-])cc1
REMARK SMILES IDX 7 1 6 2 11 3 5 4 12 5 4 6 8 7 9 8 10 9 2 10 1 11 3 12
REMARK H PARENT
REMARK Flexibility Score: inf
ROOT
ATOM      1  C   UNL     1      31.182  57.975 -12.457  1.00  0.00    -0.003 A 
ATOM      2  C   UNL     1      31.868  58.486 -11.341  1.00  0.00     0.010 A 
ATOM      3  C   UNL     1      29.792  58.164 -12.545  1.00  0.00     0.010 A 
ATOM      4  C   UNL     1      31.179  59.170 -10.336  1.00  0.00     0.004 A 
ATOM      5  C   UNL     1      29.103  58.848 -11.540  1.00  0.00     0.004 A 
ATOM      6  C   UNL     1      29.788  59.359 -10.424  1.00  0.00    -0.045 A 
ENDROOT
BRANCH   1   7
ATOM      7  C   UNL     1      31.908  57.251 -13.523  1.00  0.00     0.071 C 
ATOM      8  O   UNL     1      33.081  57.583 -13.839  1.00  0.00    -0.545 OA
ATOM      9  O   UNL     1      31.305  56.193 -14.192  1.00  0.00    -0.545 OA
ENDBRANCH   1   7
BRANCH   6  10
ATOM     10  C   UNL     1      29.026  60.100  -9.341  1.00  0.00     0.013 C 
ATOM     11  C   UNL     1      28.021  61.085  -9.949  1.00  0.00     0.012 C 
ATOM     12  C   UNL     1      29.985  60.813  -8.380  1.00  0.00     0.012 C 
ENDBRANCH   6  10
TORSDOF 2
ENDMDL
MODEL 9
REMARK VINA RESULT:    -4.184     12.191     13.551
REMARK INTER + INTRA:          -4.879
REMARK INTER:                  -4.669
REMARK INTRA:                  -0.211
REMARK UNBOUND:                -0.206
REMARK SMILES CC(C)c1ccc(C(=O)[O-])cc1
REMARK SMILES IDX 7 1 6 2 11 3 5 4 12 5 4 6 8 7 9 8 10 9 2 10 1 11 3 12
REMARK H PARENT
REMARK Flexibility Score: inf
ROOT
ATOM      1  C   UNL     1      33.135  59.242   1.593  1.00  0.00    -0.003 A 
ATOM      2  C   UNL     1      33.151  60.622   1.324  1.00  0.00     0.010 A 
ATOM      3  C   UNL     1      32.514  58.377   0.676  1.00  0.00     0.010 A 
ATOM      4  C   UNL     1      32.559  61.125   0.162  1.00  0.00     0.004 A 
ATOM      5  C   UNL     1      31.922  58.880  -0.486  1.00  0.00     0.004 A 
ATOM      6  C   UNL     1      31.938  60.259  -0.757  1.00  0.00    -0.045 A 
ENDROOT
BRANCH   1   7
ATOM      7  C   UNL     1      33.761  58.705   2.821  1.00  0.00     0.071 C 
ATOM      8  O   UNL     1      33.974  57.470   2.944  1.00  0.00    -0.545 OA
ATOM      9  O   UNL     1      34.124  59.557   3.858  1.00  0.00    -0.545 OA
ENDBRANCH   1   7
BRANCH   6  10
ATOM     10  C   UNL     1      31.291  60.791  -2.022  1.00  0.00     0.013 C 
ATOM     11  C   UNL     1      29.762  60.750  -1.919  1.00  0.00     0.012 C 
ATOM     12  C   UNL     1      31.782  60.026  -3.257  1.00  0.00     0.012 C 
ENDBRANCH   6  10
TORSDOF 2
ENDMDL
