MODEL 1
REMARK VINA RESULT:    -4.999      0.000      0.000
REMARK INTER + INTRA:          -5.145
REMARK INTER:                  -5.145
REMARK INTRA:                   0.000
REMARK UNBOUND:                 0.000
REMARK SMILES Oc1ccc2[nH]ccc2c1
REMARK SMILES IDX 3 1 4 2 5 3 9 4 8 5 7 6 6 7 10 8 2 9 1 11
REMARK H PARENT 6 10 1 12
REMARK Flexibility Score: inf
ROOT
ATOM      1  C   UNL     1       6.504   5.009  11.876  1.00  0.00     0.048 A 
ATOM      2  C   UNL     1       7.768   5.620  11.962  1.00  0.00     0.030 A 
ATOM      3  C   UNL     1       7.894   6.743  12.776  1.00  0.00     0.046 A 
ATOM      4  C   UNL     1       6.832   7.247  13.477  1.00  0.00     0.003 A 
ATOM      5  C   UNL     1       7.282   8.345  14.176  1.00  0.00     0.028 A 
ATOM      6  C   UNL     1       8.632   8.453  13.854  1.00  0.00     0.083 A 
ATOM      7  N   UNL     1       9.002   7.471  12.999  1.00  0.00    -0.361 N 
ATOM      8  C   UNL     1       5.566   6.667  13.415  1.00  0.00     0.056 A 
ATOM      9  C   UNL     1       5.404   5.528  12.598  1.00  0.00     0.116 A 
ATOM     10  H   UNL     1       9.952   7.315  12.597  1.00  0.00     0.166 HD
ENDROOT
BRANCH   9  11
ATOM     11  O   UNL     1       4.163   4.904  12.496  1.00  0.00    -0.508 OA
ATOM     12  H   UNL     1       3.809   4.575  11.604  1.00  0.00     0.293 HD
ENDBRANCH   9  11
TORSDOF 1
ENDMDL
MODEL 2
REMARK VINA RESULT:    -4.466      2.485      3.619
REMARK INTER + INTRA:          -4.597
REMARK INTER:                  -4.597
REMARK INTRA:                   0.000
REMARK UNBOUND:                 0.000
REMARK SMILES Oc1ccc2[nH]ccc2c1
REMARK SMILES IDX 3 1 4 2 5 3 9 4 8 5 7 6 6 7 10 8 2 9 1 11
REMARK H PARENT 6 10 1 12
REMARK Flexibility Score: inf
ROOT
ATOM      1  C   UNL     1       8.251   7.142  13.364  1.00  0.00     0.048 A 
ATOM      2  C   UNL     1       7.761   6.083  12.577  1.00  0.00     0.030 A 
ATOM      3  C   UNL     1       6.384   5.873  12.555  1.00  0.00     0.046 A 
ATOM      4  C   UNL     1       5.523   6.663  13.269  1.00  0.00     0.003 A 
ATOM      5  C   UNL     1       4.247   6.199  13.035  1.00  0.00     0.028 A 
ATOM      6  C   UNL     1       4.405   5.123  12.167  1.00  0.00     0.083 A 
ATOM      7  N   UNL     1       5.712   4.928  11.876  1.00  0.00    -0.361 N 
ATOM      8  C   UNL     1       5.974   7.719  14.058  1.00  0.00     0.056 A 
ATOM      9  C   UNL     1       7.364   7.959  14.103  1.00  0.00     0.116 A 
ATOM     10  H   UNL     1       6.113   4.192  11.252  1.00  0.00     0.166 HD
ENDROOT
BRANCH   9  11
ATOM     11  O   UNL     1       7.876   9.000  14.874  1.00  0.00    -0.508 OA
ATOM     12  H   UNL     1       8.402   9.759  14.455  1.00  0.00     0.293 HD
ENDBRANCH   9  11
TORSDOF 1
ENDMDL
MODEL 3
REMARK VINA RESULT:    -4.188     21.987     23.390
REMARK INTER + INTRA:          -4.310
REMARK INTER:                  -4.310
REMARK INTRA:                   0.000
REMARK UNBOUND:                 0.000
REMARK SMILES Oc1ccc2[nH]ccc2c1
REMARK SMILES IDX 3 1 4 2 5 3 9 4 8 5 7 6 6 7 10 8 2 9 1 11
REMARK H PARENT 6 10 1 12
REMARK Flexibility Score: inf
ROOT
ATOM      1  C   UNL     1      -1.000  21.163  31.287  1.00  0.00     0.048 A 
ATOM      2  C   UNL     1      -0.889  20.037  32.123  1.00  0.00     0.030 A 
ATOM      3  C   UNL     1      -0.796  18.785  31.519  1.00  0.00     0.046 A 
ATOM      4  C   UNL     1      -0.809  18.640  30.157  1.00  0.00     0.003 A 
ATOM      5  C   UNL     1      -0.701  17.294  29.885  1.00  0.00     0.028 A 
ATOM      6  C   UNL     1      -0.626  16.676  31.130  1.00  0.00     0.083 A 
ATOM      7  N   UNL     1      -0.683  17.591  32.125  1.00  0.00    -0.361 N 
ATOM      8  C   UNL     1      -0.918  19.733  29.301  1.00  0.00     0.056 A 
ATOM      9  C   UNL     1      -1.015  21.016  29.880  1.00  0.00     0.116 A 
ATOM     10  H   UNL     1      -0.648  17.404  33.151  1.00  0.00     0.166 HD
ENDROOT
BRANCH   9  11
ATOM     11  O   UNL     1      -1.125  22.148  29.076  1.00  0.00    -0.508 OA
ATOM     12  H   UNL     1      -0.697  23.028  29.340  1.00  0.00     0.293 HD
ENDBRANCH   9  11
TORSDOF 1
ENDMDL
MODEL 4
REMARK VINA RESULT:    -4.151     21.923     23.210
REMARK INTER + INTRA:          -4.272
REMARK INTER:                  -4.272
REMARK INTRA:                   0.000
REMARK UNBOUND:                 0.000
REMARK SMILES Oc1ccc2[nH]ccc2c1
REMARK SMILES IDX 3 1 4 2 5 3 9 4 8 5 7 6 6 7 10 8 2 9 1 11
REMARK H PARENT 6 10 1 12
REMARK Flexibility Score: inf
ROOT
ATOM      1  C   UNL     1      -0.571  17.328  30.012  1.00  0.00     0.048 A 
ATOM      2  C   UNL     1      -0.648  18.529  29.282  1.00  0.00     0.030 A 
ATOM      3  C   UNL     1      -0.838  19.712  29.994  1.00  0.00     0.046 A 
ATOM      4  C   UNL     1      -0.946  19.721  31.359  1.00  0.00     0.003 A 
ATOM      5  C   UNL     1      -1.125  21.030  31.750  1.00  0.00     0.028 A 
ATOM      6  C   UNL     1      -1.114  21.766  30.569  1.00  0.00     0.083 A 
ATOM      7  N   UNL     1      -0.937  20.956  29.499  1.00  0.00    -0.361 N 
ATOM      8  C   UNL     1      -0.875  18.551  32.112  1.00  0.00     0.056 A 
ATOM      9  C   UNL     1      -0.684  17.335  31.422  1.00  0.00     0.116 A 
ATOM     10  H   UNL     1      -0.891  21.244  28.497  1.00  0.00     0.166 HD
ENDROOT
BRANCH   9  11
ATOM     11  O   UNL     1      -0.604  16.132  32.120  1.00  0.00    -0.508 OA
ATOM     12  H   UNL     1      -0.225  16.091  33.059  1.00  0.00     0.293 HD
ENDBRANCH   9  11
TORSDOF 1
ENDMDL
MODEL 5
REMARK VINA RESULT:    -3.991     12.414     13.196
REMARK INTER + INTRA:          -4.108
REMARK INTER:                  -4.108
REMARK INTRA:                   0.000
REMARK UNBOUND:                 0.000
REMARK SMILES Oc1ccc2[nH]ccc2c1
REMARK SMILES IDX 3 1 4 2 5 3 9 4 8 5 7 6 6 7 10 8 2 9 1 11
REMARK H PARENT 6 10 1 12
REMARK Flexibility Score: inf
ROOT
ATOM      1  C   UNL     1       1.512  16.477  17.655  1.00  0.00     0.048 A 
ATOM      2  C   UNL     1       0.489  15.831  16.937  1.00  0.00     0.030 A 
ATOM      3  C   UNL     1      -0.016  16.469  15.806  1.00  0.00     0.046 A 
ATOM      4  C   UNL     1       0.460  17.685  15.394  1.00  0.00     0.003 A 
ATOM      5  C   UNL     1      -0.239  18.038  14.260  1.00  0.00     0.028 A 
ATOM      6  C   UNL     1      -1.125  16.988  14.038  1.00  0.00     0.083 A 
ATOM      7  N   UNL     1      -0.984  16.031  14.984  1.00  0.00    -0.361 N 
ATOM      8  C   UNL     1       1.471  18.353  16.081  1.00  0.00     0.056 A 
ATOM      9  C   UNL     1       2.003  17.734  17.232  1.00  0.00     0.116 A 
ATOM     10  H   UNL     1      -1.520  15.139  15.058  1.00  0.00     0.166 HD
ENDROOT
BRANCH   9  11
ATOM     11  O   UNL     1       3.017  18.352  17.961  1.00  0.00    -0.508 OA
ATOM     12  H   UNL     1       2.892  19.275  18.362  1.00  0.00     0.293 HD
ENDBRANCH   9  11
TORSDOF 1
ENDMDL
MODEL 6
REMARK VINA RESULT:    -3.940     11.168     12.342
REMARK INTER + INTRA:          -4.055
REMARK INTER:                  -4.055
REMARK INTRA:                   0.000
REMARK UNBOUND:                 0.000
REMARK SMILES Oc1ccc2[nH]ccc2c1
REMARK SMILES IDX 3 1 4 2 5 3 9 4 8 5 7 6 6 7 10 8 2 9 1 11
REMARK H PARENT 6 10 1 12
REMARK Flexibility Score: inf
ROOT
ATOM      1  C   UNL     1       1.244  17.912  16.109  1.00  0.00     0.048 A 
ATOM      2  C   UNL     1       0.451  16.911  15.520  1.00  0.00     0.030 A 
ATOM      3  C   UNL     1       0.447  15.650  16.114  1.00  0.00     0.046 A 
ATOM      4  C   UNL     1       1.185  15.381  17.235  1.00  0.00     0.003 A 
ATOM      5  C   UNL     1       0.965  14.062  17.566  1.00  0.00     0.028 A 
ATOM      6  C   UNL     1       0.080  13.588  16.602  1.00  0.00     0.083 A 
ATOM      7  N   UNL     1      -0.235  14.563  15.718  1.00  0.00    -0.361 N 
ATOM      8  C   UNL     1       1.981  16.348  17.843  1.00  0.00     0.056 A 
ATOM      9  C   UNL     1       2.009  17.636  17.267  1.00  0.00     0.116 A 
ATOM     10  H   UNL     1      -0.874  14.481  14.897  1.00  0.00     0.166 HD
ENDROOT
BRANCH   9  11
ATOM     11  O   UNL     1       2.785  18.646  17.831  1.00  0.00    -0.508 OA
ATOM     12  H   UNL     1       3.750  18.788  17.553  1.00  0.00     0.293 HD
ENDBRANCH   9  11
TORSDOF 1
ENDMDL
MODEL 7
REMARK VINA RESULT:    -3.847      2.961      3.716
REMARK INTER + INTRA:          -3.960
REMARK INTER:                  -3.960
REMARK INTRA:                   0.000
REMARK UNBOUND:                 0.000
REMARK SMILES Oc1ccc2[nH]ccc2c1
REMARK SMILES IDX 3 1 4 2 5 3 9 4 8 5 7 6 6 7 10 8 2 9 1 11
REMARK H PARENT 6 10 1 12
REMARK Flexibility Score: inf
ROOT
ATOM      1  C   UNL     1       8.000   6.552  13.274  1.00  0.00     0.048 A 
ATOM      2  C   UNL     1       6.711   6.173  12.858  1.00  0.00     0.030 A 
ATOM      3  C   UNL     1       5.816   7.183  12.510  1.00  0.00     0.046 A 
ATOM      4  C   UNL     1       6.167   8.505  12.565  1.00  0.00     0.003 A 
ATOM      5  C   UNL     1       5.073   9.239  12.162  1.00  0.00     0.028 A 
ATOM      6  C   UNL     1       4.089   8.297  11.875  1.00  0.00     0.083 A 
ATOM      7  N   UNL     1       4.549   7.042  12.088  1.00  0.00    -0.361 N 
ATOM      8  C   UNL     1       7.434   8.915  12.973  1.00  0.00     0.056 A 
ATOM      9  C   UNL     1       8.364   7.918  13.333  1.00  0.00     0.116 A 
ATOM     10  H   UNL     1       4.023   6.150  11.953  1.00  0.00     0.166 HD
ENDROOT
BRANCH   9  11
ATOM     11  O   UNL     1       9.647   8.266  13.749  1.00  0.00    -0.508 OA
ATOM     12  H   UNL     1       9.905   9.232  13.916  1.00  0.00     0.293 HD
ENDBRANCH   9  11
TORSDOF 1
ENDMDL
MODEL 8
REMARK VINA RESULT:    -3.797     10.156     11.370
REMARK INTER + INTRA:          -3.908
REMARK INTER:                  -3.908
REMARK INTRA:                   0.000
REMARK UNBOUND:                 0.000
REMARK SMILES Oc1ccc2[nH]ccc2c1
REMARK SMILES IDX 3 1 4 2 5 3 9 4 8 5 7 6 6 7 10 8 2 9 1 11
REMARK H PARENT 6 10 1 12
REMARK Flexibility Score: inf
ROOT
ATOM      1  C   UNL     1       0.947  15.643  16.297  1.00  0.00     0.048 A 
ATOM      2  C   UNL     1      -0.034  15.634  17.306  1.00  0.00     0.030 A 
ATOM      3  C   UNL     1      -0.245  14.443  17.998  1.00  0.00     0.046 A 
ATOM      4  C   UNL     1       0.472  13.311  17.717  1.00  0.00     0.003 A 
ATOM      5  C   UNL     1       0.029  12.321  18.566  1.00  0.00     0.028 A 
ATOM      6  C   UNL     1      -0.960  12.921  19.340  1.00  0.00     0.083 A 
ATOM      7  N   UNL     1      -1.123  14.219  18.989  1.00  0.00    -0.361 N 
ATOM      8  C   UNL     1       1.450  13.285  16.725  1.00  0.00     0.056 A 
ATOM      9  C   UNL     1       1.688  14.474  16.004  1.00  0.00     0.116 A 
ATOM     10  H   UNL     1      -1.795  14.900  19.405  1.00  0.00     0.166 HD
ENDROOT
BRANCH   9  11
ATOM     11  O   UNL     1       2.653  14.511  15.001  1.00  0.00    -0.508 OA
ATOM     12  H   UNL     1       3.319  15.272  14.935  1.00  0.00     0.293 HD
ENDBRANCH   9  11
TORSDOF 1
ENDMDL
MODEL 9
REMARK VINA RESULT:    -3.156      2.605      4.078
REMARK INTER + INTRA:          -3.248
REMARK INTER:                  -3.248
REMARK INTRA:                   0.000
REMARK UNBOUND:                 0.000
REMARK SMILES Oc1ccc2[nH]ccc2c1
REMARK SMILES IDX 3 1 4 2 5 3 9 4 8 5 7 6 6 7 10 8 2 9 1 11
REMARK H PARENT 6 10 1 12
REMARK Flexibility Score: inf
ROOT
ATOM      1  C   UNL     1       7.313   8.399  14.071  1.00  0.00     0.048 A 
ATOM      2  C   UNL     1       6.041   7.802  13.996  1.00  0.00     0.030 A 
ATOM      3  C   UNL     1       5.906   6.655  13.217  1.00  0.00     0.046 A 
ATOM      4  C   UNL     1       6.967   6.114  12.542  1.00  0.00     0.003 A 
ATOM      5  C   UNL     1       6.506   5.000  11.875  1.00  0.00     0.028 A 
ATOM      6  C   UNL     1       5.153   4.921  12.191  1.00  0.00     0.083 A 
ATOM      7  N   UNL     1       4.791   5.934  13.012  1.00  0.00    -0.361 N 
ATOM      8  C   UNL     1       8.239   6.680  12.593  1.00  0.00     0.056 A 
ATOM      9  C   UNL     1       8.411   7.843  13.373  1.00  0.00     0.116 A 
ATOM     10  H   UNL     1       3.840   6.115  13.402  1.00  0.00     0.166 HD
ENDROOT
BRANCH   9  11
ATOM     11  O   UNL     1       9.659   8.454  13.464  1.00  0.00    -0.508 OA
ATOM     12  H   UNL     1      10.244   8.587  12.646  1.00  0.00     0.293 HD
ENDBRANCH   9  11
TORSDOF 1
ENDMDL
