MODEL 1
REMARK VINA RESULT:    -5.188      0.000      0.000
REMARK INTER + INTRA:         -10.494
REMARK INTER:                  -9.131
REMARK INTRA:                  -1.363
REMARK UNBOUND:                -1.363
REMARK SMILES CCCCCCCCCCCCCCC(=O)[O-]
REMARK SMILES IDX 9 1 10 2 11 3 12 4 13 5 14 6 15 7 16 8 17 9 8 10 7 11 6 12
REMARK SMILES IDX 5 13 4 14 3 15 2 16 1 17
REMARK H PARENT
REMARK Flexibility Score: inf
ROOT
ATOM      1  C   UNL     1       1.151  44.729  10.279  1.00  0.00     0.000 C 
ENDROOT
BRANCH   1   2
ATOM      2  C   UNL     1       1.667  43.929   9.074  1.00  0.00     0.000 C 
BRANCH   2   3
ATOM      3  C   UNL     1       2.837  43.000   9.435  1.00  0.00     0.000 C 
BRANCH   3   4
ATOM      4  C   UNL     1       3.790  43.623  10.466  1.00  0.00     0.000 C 
BRANCH   4   5
ATOM      5  C   UNL     1       3.994  42.684  11.662  1.00  0.00     0.006 C 
BRANCH   5   6
ATOM      6  C   UNL     1       2.978  41.538  11.641  1.00  0.00     0.053 C 
BRANCH   6   7
ATOM      7  C   UNL     1       3.474  40.382  12.450  1.00  0.00     0.041 C 
ATOM      8  O   UNL     1       4.677  40.336  12.818  1.00  0.00    -0.550 OA
ATOM      9  O   UNL     1       2.620  39.330  12.757  1.00  0.00    -0.550 OA
ENDBRANCH   6   7
ENDBRANCH   5   6
ENDBRANCH   4   5
ENDBRANCH   3   4
ENDBRANCH   2   3
ENDBRANCH   1   2
BRANCH   1  10
ATOM     10  C   UNL     1       0.142  45.799   9.835  1.00  0.00     0.000 C 
BRANCH  10  11
ATOM     11  C   UNL     1       0.607  46.590   8.598  1.00  0.00    -0.000 C 
BRANCH  11  12
ATOM     12  C   UNL     1       1.513  47.798   8.897  1.00  0.00    -0.000 C 
BRANCH  12  13
ATOM     13  C   UNL     1       2.423  48.172   7.713  1.00  0.00    -0.000 C 
BRANCH  13  14
ATOM     14  C   UNL     1       3.913  47.961   8.024  1.00  0.00    -0.000 C 
BRANCH  14  15
ATOM     15  C   UNL     1       4.153  46.821   9.029  1.00  0.00    -0.000 C 
BRANCH  15  16
ATOM     16  C   UNL     1       5.522  46.925   9.719  1.00  0.00    -0.003 C 
ATOM     17  C   UNL     1       6.340  48.120   9.232  1.00  0.00     0.004 C 
ENDBRANCH  15  16
ENDBRANCH  14  15
ENDBRANCH  13  14
ENDBRANCH  12  13
ENDBRANCH  11  12
ENDBRANCH  10  11
ENDBRANCH   1  10
TORSDOF 13
ENDMDL
MODEL 2
REMARK VINA RESULT:    -5.113      3.185      6.284
REMARK INTER + INTRA:         -10.362
REMARK INTER:                  -8.921
REMARK INTRA:                  -1.441
REMARK UNBOUND:                -1.363
REMARK SMILES CCCCCCCCCCCCCCC(=O)[O-]
REMARK SMILES IDX 9 1 10 2 11 3 12 4 13 5 14 6 15 7 16 8 17 9 8 10 7 11 6 12
REMARK SMILES IDX 5 13 4 14 3 15 2 16 1 17
REMARK H PARENT
REMARK Flexibility Score: inf
ROOT
ATOM      1  C   UNL     1       0.696  45.801   9.950  1.00  0.00     0.000 C 
ENDROOT
BRANCH   1   2
ATOM      2  C   UNL     1       0.687  46.077   8.439  1.00  0.00     0.000 C 
BRANCH   2   3
ATOM      3  C   UNL     1       1.632  47.220   8.039  1.00  0.00     0.000 C 
BRANCH   3   4
ATOM      4  C   UNL     1       2.728  47.477   9.085  1.00  0.00     0.000 C 
BRANCH   4   5
ATOM      5  C   UNL     1       4.111  47.545   8.425  1.00  0.00     0.006 C 
BRANCH   5   6
ATOM      6  C   UNL     1       5.195  47.006   9.363  1.00  0.00     0.053 C 
BRANCH   6   7
ATOM      7  C   UNL     1       6.439  47.829   9.255  1.00  0.00     0.041 C 
ATOM      8  O   UNL     1       7.559  47.323   9.527  1.00  0.00    -0.550 OA
ATOM      9  O   UNL     1       6.357  49.171   8.903  1.00  0.00    -0.550 OA
ENDBRANCH   6   7
ENDBRANCH   5   6
ENDBRANCH   4   5
ENDBRANCH   3   4
ENDBRANCH   2   3
ENDBRANCH   1   2
BRANCH   1  10
ATOM     10  C   UNL     1       1.108  44.351  10.240  1.00  0.00     0.000 C 
BRANCH  10  11
ATOM     11  C   UNL     1       1.858  43.691   9.068  1.00  0.00    -0.000 C 
BRANCH  11  12
ATOM     12  C   UNL     1       3.295  43.239   9.382  1.00  0.00    -0.000 C 
BRANCH  12  13
ATOM     13  C   UNL     1       3.799  43.746  10.745  1.00  0.00    -0.000 C 
BRANCH  13  14
ATOM     14  C   UNL     1       4.049  42.604  11.744  1.00  0.00    -0.000 C 
BRANCH  14  15
ATOM     15  C   UNL     1       2.829  41.679  11.903  1.00  0.00    -0.000 C 
BRANCH  15  16
ATOM     16  C   UNL     1       3.210  40.296  12.456  1.00  0.00    -0.003 C 
ATOM     17  C   UNL     1       4.690  40.193  12.821  1.00  0.00     0.004 C 
ENDBRANCH  15  16
ENDBRANCH  14  15
ENDBRANCH  13  14
ENDBRANCH  12  13
ENDBRANCH  11  12
ENDBRANCH  10  11
ENDBRANCH   1  10
TORSDOF 13
ENDMDL
MODEL 3
REMARK VINA RESULT:    -4.977      3.331      5.649
REMARK INTER + INTRA:         -10.123
REMARK INTER:                  -8.482
REMARK INTRA:                  -1.641
REMARK UNBOUND:                -1.363
REMARK SMILES CCCCCCCCCCCCCCC(=O)[O-]
REMARK SMILES IDX 9 1 10 2 11 3 12 4 13 5 14 6 15 7 16 8 17 9 8 10 7 11 6 12
REMARK SMILES IDX 5 13 4 14 3 15 2 16 1 17
REMARK H PARENT
REMARK Flexibility Score: inf
ROOT
ATOM      1  C   UNL     1      -0.332  47.552   7.832  1.00  0.00     0.000 C 
ENDROOT
BRANCH   1   2
ATOM      2  C   UNL     1       0.842  48.352   8.415  1.00  0.00     0.000 C 
BRANCH   2   3
ATOM      3  C   UNL     1       2.210  47.791   7.997  1.00  0.00     0.000 C 
BRANCH   3   4
ATOM      4  C   UNL     1       3.050  47.327   9.197  1.00  0.00     0.000 C 
BRANCH   4   5
ATOM      5  C   UNL     1       4.416  46.801   8.739  1.00  0.00     0.006 C 
BRANCH   5   6
ATOM      6  C   UNL     1       5.456  46.925   9.856  1.00  0.00     0.053 C 
BRANCH   6   7
ATOM      7  C   UNL     1       6.602  47.778   9.415  1.00  0.00     0.041 C 
ATOM      8  O   UNL     1       7.781  47.340   9.480  1.00  0.00    -0.550 OA
ATOM      9  O   UNL     1       6.374  49.077   8.978  1.00  0.00    -0.550 OA
ENDBRANCH   6   7
ENDBRANCH   5   6
ENDBRANCH   4   5
ENDBRANCH   3   4
ENDBRANCH   2   3
ENDBRANCH   1   2
BRANCH   1  10
ATOM     10  C   UNL     1      -0.253  46.077   8.252  1.00  0.00     0.000 C 
BRANCH  10  11
ATOM     11  C   UNL     1      -0.137  45.890   9.776  1.00  0.00    -0.000 C 
BRANCH  11  12
ATOM     12  C   UNL     1       0.768  44.728  10.225  1.00  0.00    -0.000 C 
BRANCH  12  13
ATOM     13  C   UNL     1       1.360  43.938   9.045  1.00  0.00    -0.000 C 
BRANCH  13  14
ATOM     14  C   UNL     1       2.756  43.372   9.354  1.00  0.00    -0.000 C 
BRANCH  14  15
ATOM     15  C   UNL     1       2.816  42.652  10.712  1.00  0.00    -0.000 C 
BRANCH  15  16
ATOM     16  C   UNL     1       4.090  42.991  11.501  1.00  0.00    -0.003 C 
ATOM     17  C   UNL     1       3.998  44.334  12.223  1.00  0.00     0.004 C 
ENDBRANCH  15  16
ENDBRANCH  14  15
ENDBRANCH  13  14
ENDBRANCH  12  13
ENDBRANCH  11  12
ENDBRANCH  10  11
ENDBRANCH   1  10
TORSDOF 13
ENDMDL
MODEL 4
REMARK VINA RESULT:    -4.936      0.868      1.240
REMARK INTER + INTRA:         -10.050
REMARK INTER:                  -8.394
REMARK INTRA:                  -1.656
REMARK UNBOUND:                -1.363
REMARK SMILES CCCCCCCCCCCCCCC(=O)[O-]
REMARK SMILES IDX 9 1 10 2 11 3 12 4 13 5 14 6 15 7 16 8 17 9 8 10 7 11 6 12
REMARK SMILES IDX 5 13 4 14 3 15 2 16 1 17
REMARK H PARENT
REMARK Flexibility Score: inf
ROOT
ATOM      1  C   UNL     1       0.347  45.507   9.865  1.00  0.00     0.000 C 
ENDROOT
BRANCH   1   2
ATOM      2  C   UNL     1       1.284  44.386  10.339  1.00  0.00     0.000 C 
BRANCH   2   3
ATOM      3  C   UNL     1       1.895  43.591   9.175  1.00  0.00     0.000 C 
BRANCH   3   4
ATOM      4  C   UNL     1       3.266  42.990   9.523  1.00  0.00     0.000 C 
BRANCH   4   5
ATOM      5  C   UNL     1       3.698  43.394  10.939  1.00  0.00     0.006 C 
BRANCH   5   6
ATOM      6  C   UNL     1       4.117  42.169  11.756  1.00  0.00     0.053 C 
BRANCH   6   7
ATOM      7  C   UNL     1       2.916  41.383  12.177  1.00  0.00     0.041 C 
ATOM      8  O   UNL     1       1.845  41.974  12.476  1.00  0.00    -0.550 OA
ATOM      9  O   UNL     1       2.992  40.001  12.287  1.00  0.00    -0.550 OA
ENDBRANCH   6   7
ENDBRANCH   5   6
ENDBRANCH   4   5
ENDBRANCH   3   4
ENDBRANCH   2   3
ENDBRANCH   1   2
BRANCH   1  10
ATOM     10  C   UNL     1       0.352  45.616   8.334  1.00  0.00     0.000 C 
BRANCH  10  11
ATOM     11  C   UNL     1       0.422  47.070   7.832  1.00  0.00    -0.000 C 
BRANCH  11  12
ATOM     12  C   UNL     1       1.468  47.955   8.535  1.00  0.00    -0.000 C 
BRANCH  12  13
ATOM     13  C   UNL     1       2.597  48.412   7.593  1.00  0.00    -0.000 C 
BRANCH  13  14
ATOM     14  C   UNL     1       3.962  47.817   7.977  1.00  0.00    -0.000 C 
BRANCH  14  15
ATOM     15  C   UNL     1       3.868  46.829   9.152  1.00  0.00    -0.000 C 
BRANCH  15  16
ATOM     16  C   UNL     1       5.219  46.626   9.857  1.00  0.00    -0.003 C 
ATOM     17  C   UNL     1       6.290  47.603   9.374  1.00  0.00     0.004 C 
ENDBRANCH  15  16
ENDBRANCH  14  15
ENDBRANCH  13  14
ENDBRANCH  12  13
ENDBRANCH  11  12
ENDBRANCH  10  11
ENDBRANCH   1  10
TORSDOF 13
ENDMDL
MODEL 5
REMARK VINA RESULT:    -4.933      1.080      2.126
REMARK INTER + INTRA:         -10.045
REMARK INTER:                  -8.478
REMARK INTRA:                  -1.567
REMARK UNBOUND:                -1.363
REMARK SMILES CCCCCCCCCCCCCCC(=O)[O-]
REMARK SMILES IDX 9 1 10 2 11 3 12 4 13 5 14 6 15 7 16 8 17 9 8 10 7 11 6 12
REMARK SMILES IDX 5 13 4 14 3 15 2 16 1 17
REMARK H PARENT
REMARK Flexibility Score: inf
ROOT
ATOM      1  C   UNL     1       0.029  45.975   8.142  1.00  0.00     0.000 C 
ENDROOT
BRANCH   1   2
ATOM      2  C   UNL     1       0.046  45.844   9.672  1.00  0.00     0.000 C 
BRANCH   2   3
ATOM      3  C   UNL     1       1.084  44.827  10.170  1.00  0.00     0.000 C 
BRANCH   3   4
ATOM      4  C   UNL     1       1.511  43.834   9.078  1.00  0.00     0.000 C 
BRANCH   4   5
ATOM      5  C   UNL     1       2.781  43.078   9.489  1.00  0.00     0.006 C 
BRANCH   5   6
ATOM      6  C   UNL     1       3.098  43.300  10.970  1.00  0.00     0.053 C 
BRANCH   6   7
ATOM      7  C   UNL     1       2.696  42.106  11.777  1.00  0.00     0.041 C 
ATOM      8  O   UNL     1       3.393  41.057  11.747  1.00  0.00    -0.550 OA
ATOM      9  O   UNL     1       1.525  42.132  12.523  1.00  0.00    -0.550 OA
ENDBRANCH   6   7
ENDBRANCH   5   6
ENDBRANCH   4   5
ENDBRANCH   3   4
ENDBRANCH   2   3
ENDBRANCH   1   2
BRANCH   1  10
ATOM     10  C   UNL     1       0.159  47.445   7.716  1.00  0.00     0.000 C 
BRANCH  10  11
ATOM     11  C   UNL     1       1.265  48.198   8.478  1.00  0.00    -0.000 C 
BRANCH  11  12
ATOM     12  C   UNL     1       2.469  48.633   7.622  1.00  0.00    -0.000 C 
BRANCH  12  13
ATOM     13  C   UNL     1       3.707  47.743   7.833  1.00  0.00    -0.000 C 
BRANCH  13  14
ATOM     14  C   UNL     1       3.670  46.989   9.173  1.00  0.00    -0.000 C 
BRANCH  14  15
ATOM     15  C   UNL     1       5.074  46.745   9.754  1.00  0.00    -0.000 C 
BRANCH  15  16
ATOM     16  C   UNL     1       6.071  47.847   9.361  1.00  0.00    -0.003 C 
ATOM     17  C   UNL     1       7.526  47.402   9.495  1.00  0.00     0.004 C 
ENDBRANCH  15  16
ENDBRANCH  14  15
ENDBRANCH  13  14
ENDBRANCH  12  13
ENDBRANCH  11  12
ENDBRANCH  10  11
ENDBRANCH   1  10
TORSDOF 13
ENDMDL
MODEL 6
REMARK VINA RESULT:    -4.929      3.336      5.493
REMARK INTER + INTRA:         -10.038
REMARK INTER:                  -8.288
REMARK INTRA:                  -1.750
REMARK UNBOUND:                -1.363
REMARK SMILES CCCCCCCCCCCCCCC(=O)[O-]
REMARK SMILES IDX 9 1 10 2 11 3 12 4 13 5 14 6 15 7 16 8 17 9 8 10 7 11 6 12
REMARK SMILES IDX 5 13 4 14 3 15 2 16 1 17
REMARK H PARENT
REMARK Flexibility Score: inf
ROOT
ATOM      1  C   UNL     1       3.757  42.804  11.231  1.00  0.00     0.000 C 
ENDROOT
BRANCH   1   2
ATOM      2  C   UNL     1       3.624  43.078   9.726  1.00  0.00     0.000 C 
BRANCH   2   3
ATOM      3  C   UNL     1       4.090  44.489   9.336  1.00  0.00     0.000 C 
BRANCH   3   4
ATOM      4  C   UNL     1       4.668  45.271  10.526  1.00  0.00     0.000 C 
BRANCH   4   5
ATOM      5  C   UNL     1       4.496  46.783  10.324  1.00  0.00     0.006 C 
BRANCH   5   6
ATOM      6  C   UNL     1       5.061  47.224   8.971  1.00  0.00     0.053 C 
BRANCH   6   7
ATOM      7  C   UNL     1       6.341  47.975   9.156  1.00  0.00     0.041 C 
ATOM      8  O   UNL     1       7.387  47.367   9.506  1.00  0.00    -0.550 OA
ATOM      9  O   UNL     1       6.369  49.354   8.992  1.00  0.00    -0.550 OA
ENDBRANCH   6   7
ENDBRANCH   5   6
ENDBRANCH   4   5
ENDBRANCH   3   4
ENDBRANCH   2   3
ENDBRANCH   1   2
BRANCH   1  10
ATOM     10  C   UNL     1       2.378  42.766  11.906  1.00  0.00     0.000 C 
BRANCH  10  11
ATOM     11  C   UNL     1       1.718  44.154  12.006  1.00  0.00    -0.000 C 
BRANCH  11  12
ATOM     12  C   UNL     1       0.520  44.378  11.066  1.00  0.00    -0.000 C 
BRANCH  12  13
ATOM     13  C   UNL     1       0.705  45.591  10.137  1.00  0.00    -0.000 C 
BRANCH  13  14
ATOM     14  C   UNL     1       0.641  45.209   8.649  1.00  0.00    -0.000 C 
BRANCH  14  15
ATOM     15  C   UNL     1       0.366  46.419   7.738  1.00  0.00    -0.000 C 
BRANCH  15  16
ATOM     16  C   UNL     1       1.531  47.422   7.727  1.00  0.00    -0.003 C 
ATOM     17  C   UNL     1       1.143  48.785   8.298  1.00  0.00     0.004 C 
ENDBRANCH  15  16
ENDBRANCH  14  15
ENDBRANCH  13  14
ENDBRANCH  12  13
ENDBRANCH  11  12
ENDBRANCH  10  11
ENDBRANCH   1  10
TORSDOF 13
ENDMDL
MODEL 7
REMARK VINA RESULT:    -4.906      2.314      5.889
REMARK INTER + INTRA:          -9.997
REMARK INTER:                  -8.666
REMARK INTRA:                  -1.332
REMARK UNBOUND:                -1.363
REMARK SMILES CCCCCCCCCCCCCCC(=O)[O-]
REMARK SMILES IDX 9 1 10 2 11 3 12 4 13 5 14 6 15 7 16 8 17 9 8 10 7 11 6 12
REMARK SMILES IDX 5 13 4 14 3 15 2 16 1 17
REMARK H PARENT
REMARK Flexibility Score: inf
ROOT
ATOM      1  C   UNL     1       0.157  45.670   8.176  1.00  0.00     0.000 C 
ENDROOT
BRANCH   1   2
ATOM      2  C   UNL     1       0.315  47.106   7.655  1.00  0.00     0.000 C 
BRANCH   2   3
ATOM      3  C   UNL     1       1.324  47.927   8.473  1.00  0.00     0.000 C 
BRANCH   3   4
ATOM      4  C   UNL     1       2.545  48.357   7.646  1.00  0.00     0.000 C 
BRANCH   4   5
ATOM      5  C   UNL     1       3.819  47.663   8.147  1.00  0.00     0.006 C 
BRANCH   5   6
ATOM      6  C   UNL     1       3.566  46.942   9.474  1.00  0.00     0.053 C 
BRANCH   6   7
ATOM      7  C   UNL     1       4.841  46.379  10.016  1.00  0.00     0.041 C 
ATOM      8  O   UNL     1       5.950  46.820   9.614  1.00  0.00    -0.550 OA
ATOM      9  O   UNL     1       4.807  45.332  10.929  1.00  0.00    -0.550 OA
ENDBRANCH   6   7
ENDBRANCH   5   6
ENDBRANCH   4   5
ENDBRANCH   3   4
ENDBRANCH   2   3
ENDBRANCH   1   2
BRANCH   1  10
ATOM     10  C   UNL     1       0.204  45.634   9.710  1.00  0.00     0.000 C 
BRANCH  10  11
ATOM     11  C   UNL     1       1.097  44.507  10.260  1.00  0.00    -0.000 C 
BRANCH  11  12
ATOM     12  C   UNL     1       1.841  43.682   9.194  1.00  0.00    -0.000 C 
BRANCH  12  13
ATOM     13  C   UNL     1       2.811  42.654   9.801  1.00  0.00    -0.000 C 
BRANCH  13  14
ATOM     14  C   UNL     1       2.586  42.448  11.308  1.00  0.00    -0.000 C 
BRANCH  14  15
ATOM     15  C   UNL     1       3.635  41.517  11.942  1.00  0.00    -0.000 C 
BRANCH  15  16
ATOM     16  C   UNL     1       3.009  40.238  12.521  1.00  0.00    -0.003 C 
ATOM     17  C   UNL     1       4.053  39.185  12.891  1.00  0.00     0.004 C 
ENDBRANCH  15  16
ENDBRANCH  14  15
ENDBRANCH  13  14
ENDBRANCH  12  13
ENDBRANCH  11  12
ENDBRANCH  10  11
ENDBRANCH   1  10
TORSDOF 13
ENDMDL
MODEL 8
REMARK VINA RESULT:    -4.885      3.458      5.824
REMARK INTER + INTRA:          -9.961
REMARK INTER:                  -8.614
REMARK INTRA:                  -1.347
REMARK UNBOUND:                -1.363
REMARK SMILES CCCCCCCCCCCCCCC(=O)[O-]
REMARK SMILES IDX 9 1 10 2 11 3 12 4 13 5 14 6 15 7 16 8 17 9 8 10 7 11 6 12
REMARK SMILES IDX 5 13 4 14 3 15 2 16 1 17
REMARK H PARENT
REMARK Flexibility Score: inf
ROOT
ATOM      1  C   UNL     1       2.593  42.480  10.833  1.00  0.00     0.000 C 
ENDROOT
BRANCH   1   2
ATOM      2  C   UNL     1       4.073  42.854  10.665  1.00  0.00     0.000 C 
BRANCH   2   3
ATOM      3  C   UNL     1       4.359  44.321  11.019  1.00  0.00     0.000 C 
BRANCH   3   4
ATOM      4  C   UNL     1       4.344  45.241   9.788  1.00  0.00     0.000 C 
BRANCH   4   5
ATOM      5  C   UNL     1       4.647  46.692  10.184  1.00  0.00     0.006 C 
BRANCH   5   6
ATOM      6  C   UNL     1       5.009  47.532   8.956  1.00  0.00     0.053 C 
BRANCH   6   7
ATOM      7  C   UNL     1       6.357  48.156   9.126  1.00  0.00     0.041 C 
ATOM      8  O   UNL     1       7.322  47.473   9.560  1.00  0.00    -0.550 OA
ATOM      9  O   UNL     1       6.538  49.506   8.854  1.00  0.00    -0.550 OA
ENDBRANCH   6   7
ENDBRANCH   5   6
ENDBRANCH   4   5
ENDBRANCH   3   4
ENDBRANCH   2   3
ENDBRANCH   1   2
BRANCH   1  10
ATOM     10  C   UNL     1       1.973  43.216  12.029  1.00  0.00     0.000 C 
BRANCH  10  11
ATOM     11  C   UNL     1       0.890  44.231  11.618  1.00  0.00    -0.000 C 
BRANCH  11  12
ATOM     12  C   UNL     1       0.819  44.537  10.111  1.00  0.00    -0.000 C 
BRANCH  12  13
ATOM     13  C   UNL     1       0.294  45.952   9.810  1.00  0.00    -0.000 C 
BRANCH  13  14
ATOM     14  C   UNL     1       1.100  46.657   8.707  1.00  0.00    -0.000 C 
BRANCH  14  15
ATOM     15  C   UNL     1       0.268  46.914   7.438  1.00  0.00    -0.000 C 
BRANCH  15  16
ATOM     16  C   UNL     1      -0.944  45.975   7.332  1.00  0.00    -0.003 C 
ATOM     17  C   UNL     1      -0.734  44.851   6.318  1.00  0.00     0.004 C 
ENDBRANCH  15  16
ENDBRANCH  14  15
ENDBRANCH  13  14
ENDBRANCH  12  13
ENDBRANCH  11  12
ENDBRANCH  10  11
ENDBRANCH   1  10
TORSDOF 13
ENDMDL
MODEL 9
REMARK VINA RESULT:    -4.871      3.427      5.521
REMARK INTER + INTRA:          -9.936
REMARK INTER:                  -8.360
REMARK INTRA:                  -1.576
REMARK UNBOUND:                -1.363
REMARK SMILES CCCCCCCCCCCCCCC(=O)[O-]
REMARK SMILES IDX 9 1 10 2 11 3 12 4 13 5 14 6 15 7 16 8 17 9 8 10 7 11 6 12
REMARK SMILES IDX 5 13 4 14 3 15 2 16 1 17
REMARK H PARENT
REMARK Flexibility Score: inf
ROOT
ATOM      1  C   UNL     1       1.380  43.679  11.351  1.00  0.00     0.000 C 
ENDROOT
BRANCH   1   2
ATOM      2  C   UNL     1       1.010  44.688  10.254  1.00  0.00     0.000 C 
BRANCH   2   3
ATOM      3  C   UNL     1       1.241  44.137   8.838  1.00  0.00     0.000 C 
BRANCH   3   4
ATOM      4  C   UNL     1       0.356  44.822   7.785  1.00  0.00     0.000 C 
BRANCH   4   5
ATOM      5  C   UNL     1      -0.232  46.131   8.330  1.00  0.00     0.006 C 
BRANCH   5   6
ATOM      6  C   UNL     1       0.299  47.338   7.551  1.00  0.00     0.053 C 
BRANCH   6   7
ATOM      7  C   UNL     1       1.556  47.853   8.176  1.00  0.00     0.041 C 
ATOM      8  O   UNL     1       1.605  48.072   9.415  1.00  0.00    -0.550 OA
ATOM      9  O   UNL     1       2.660  48.141   7.383  1.00  0.00    -0.550 OA
ENDBRANCH   6   7
ENDBRANCH   5   6
ENDBRANCH   4   5
ENDBRANCH   3   4
ENDBRANCH   2   3
ENDBRANCH   1   2
BRANCH   1  10
ATOM     10  C   UNL     1       2.384  42.642  10.827  1.00  0.00     0.000 C 
BRANCH  10  11
ATOM     11  C   UNL     1       3.749  42.713  11.536  1.00  0.00    -0.000 C 
BRANCH  11  12
ATOM     12  C   UNL     1       4.040  44.037  12.264  1.00  0.00    -0.000 C 
BRANCH  12  13
ATOM     13  C   UNL     1       4.951  44.978  11.457  1.00  0.00    -0.000 C 
BRANCH  13  14
ATOM     14  C   UNL     1       4.157  46.011  10.640  1.00  0.00    -0.000 C 
BRANCH  14  15
ATOM     15  C   UNL     1       4.859  46.393   9.325  1.00  0.00    -0.000 C 
BRANCH  15  16
ATOM     16  C   UNL     1       5.661  47.698   9.446  1.00  0.00    -0.003 C 
ATOM     17  C   UNL     1       7.172  47.467   9.433  1.00  0.00     0.004 C 
ENDBRANCH  15  16
ENDBRANCH  14  15
ENDBRANCH  13  14
ENDBRANCH  12  13
ENDBRANCH  11  12
ENDBRANCH  10  11
ENDBRANCH   1  10
TORSDOF 13
ENDMDL
