MODEL 1
REMARK VINA RESULT:    -4.645      0.000      0.000
REMARK INTER + INTRA:         -11.120
REMARK INTER:                  -8.991
REMARK INTRA:                  -2.129
REMARK UNBOUND:                -2.129
REMARK SMILES CCCCCCCCCCCCCCCCCC(=O)[O-]
REMARK SMILES IDX 10 1 11 2 12 3 13 4 14 5 15 6 16 7 17 8 18 9 19 10 20 11
REMARK SMILES IDX 9 12 8 13 7 14 6 15 5 16 4 17 3 18 2 19 1 20
REMARK H PARENT
REMARK Flexibility Score: inf
ROOT
ATOM      1  C   UNL     1      53.986  24.146  51.428  1.00  0.00     0.000 C 
ENDROOT
BRANCH   1   2
ATOM      2  C   UNL     1      55.422  24.665  51.624  1.00  0.00     0.000 C 
BRANCH   2   3
ATOM      3  C   UNL     1      56.500  23.567  51.726  1.00  0.00     0.000 C 
BRANCH   3   4
ATOM      4  C   UNL     1      55.969  22.155  52.050  1.00  0.00     0.000 C 
BRANCH   4   5
ATOM      5  C   UNL     1      56.883  21.309  52.954  1.00  0.00     0.000 C 
BRANCH   5   6
ATOM      6  C   UNL     1      56.245  20.986  54.312  1.00  0.00     0.000 C 
BRANCH   6   7
ATOM      7  C   UNL     1      55.169  22.022  54.673  1.00  0.00     0.006 C 
BRANCH   7   8
ATOM      8  C   UNL     1      55.479  22.745  55.991  1.00  0.00     0.053 C 
BRANCH   8   9
ATOM      9  C   UNL     1      56.937  23.063  56.124  1.00  0.00     0.041 C 
ATOM     10  O   UNL     1      57.465  23.932  55.381  1.00  0.00    -0.550 OA
ATOM     11  O   UNL     1      57.720  22.376  57.043  1.00  0.00    -0.550 OA
ENDBRANCH   8   9
ENDBRANCH   7   8
ENDBRANCH   6   7
ENDBRANCH   5   6
ENDBRANCH   4   5
ENDBRANCH   3   4
ENDBRANCH   2   3
ENDBRANCH   1   2
BRANCH   1  12
ATOM     12  C   UNL     1      53.361  24.615  50.102  1.00  0.00     0.000 C 
BRANCH  12  13
ATOM     13  C   UNL     1      53.669  23.666  48.934  1.00  0.00    -0.000 C 
BRANCH  13  14
ATOM     14  C   UNL     1      53.760  24.402  47.586  1.00  0.00    -0.000 C 
BRANCH  14  15
ATOM     15  C   UNL     1      55.177  24.921  47.279  1.00  0.00    -0.000 C 
BRANCH  15  16
ATOM     16  C   UNL     1      56.313  24.188  48.016  1.00  0.00    -0.000 C 
BRANCH  16  17
ATOM     17  C   UNL     1      57.243  23.417  47.064  1.00  0.00    -0.000 C 
BRANCH  17  18
ATOM     18  C   UNL     1      57.161  21.892  47.255  1.00  0.00    -0.000 C 
BRANCH  18  19
ATOM     19  C   UNL     1      56.279  21.438  48.431  1.00  0.00    -0.003 C 
ATOM     20  C   UNL     1      56.440  19.954  48.763  1.00  0.00     0.004 C 
ENDBRANCH  18  19
ENDBRANCH  17  18
ENDBRANCH  16  17
ENDBRANCH  15  16
ENDBRANCH  14  15
ENDBRANCH  13  14
ENDBRANCH  12  13
ENDBRANCH   1  12
TORSDOF 16
ENDMDL
MODEL 2
REMARK VINA RESULT:    -4.622      3.587      4.416
REMARK INTER + INTRA:         -11.075
REMARK INTER:                  -8.930
REMARK INTRA:                  -2.145
REMARK UNBOUND:                -2.129
REMARK SMILES CCCCCCCCCCCCCCCCCC(=O)[O-]
REMARK SMILES IDX 10 1 11 2 12 3 13 4 14 5 15 6 16 7 17 8 18 9 19 10 20 11
REMARK SMILES IDX 9 12 8 13 7 14 6 15 5 16 4 17 3 18 2 19 1 20
REMARK H PARENT
REMARK Flexibility Score: inf
ROOT
ATOM      1  C   UNL     1      54.536  22.089  51.514  1.00  0.00     0.000 C 
ENDROOT
BRANCH   1   2
ATOM      2  C   UNL     1      55.772  21.658  52.324  1.00  0.00     0.000 C 
BRANCH   2   3
ATOM      3  C   UNL     1      55.492  21.317  53.802  1.00  0.00     0.000 C 
BRANCH   3   4
ATOM      4  C   UNL     1      54.000  21.236  54.184  1.00  0.00     0.000 C 
BRANCH   4   5
ATOM      5  C   UNL     1      53.478  22.419  55.019  1.00  0.00     0.000 C 
BRANCH   5   6
ATOM      6  C   UNL     1      52.008  22.751  54.730  1.00  0.00     0.000 C 
BRANCH   6   7
ATOM      7  C   UNL     1      51.467  21.888  53.580  1.00  0.00     0.006 C 
BRANCH   7   8
ATOM      8  C   UNL     1      50.136  22.420  53.030  1.00  0.00     0.053 C 
BRANCH   8   9
ATOM      9  C   UNL     1      49.096  22.531  54.103  1.00  0.00     0.041 C 
ATOM     10  O   UNL     1      48.722  21.505  54.730  1.00  0.00    -0.550 OA
ATOM     11  O   UNL     1      48.516  23.761  54.387  1.00  0.00    -0.550 OA
ENDBRANCH   8   9
ENDBRANCH   7   8
ENDBRANCH   6   7
ENDBRANCH   5   6
ENDBRANCH   4   5
ENDBRANCH   3   4
ENDBRANCH   2   3
ENDBRANCH   1   2
BRANCH   1  12
ATOM     12  C   UNL     1      54.296  23.609  51.560  1.00  0.00     0.000 C 
BRANCH  12  13
ATOM     13  C   UNL     1      53.064  24.038  50.750  1.00  0.00    -0.000 C 
BRANCH  13  14
ATOM     14  C   UNL     1      53.439  24.772  49.451  1.00  0.00    -0.000 C 
BRANCH  14  15
ATOM     15  C   UNL     1      53.834  23.815  48.311  1.00  0.00    -0.000 C 
BRANCH  15  16
ATOM     16  C   UNL     1      54.850  24.386  47.305  1.00  0.00    -0.000 C 
BRANCH  16  17
ATOM     17  C   UNL     1      56.283  23.887  47.553  1.00  0.00    -0.000 C 
BRANCH  17  18
ATOM     18  C   UNL     1      56.337  22.672  48.497  1.00  0.00    -0.000 C 
BRANCH  18  19
ATOM     19  C   UNL     1      56.679  21.338  47.810  1.00  0.00    -0.003 C 
ATOM     20  C   UNL     1      56.435  20.123  48.705  1.00  0.00     0.004 C 
ENDBRANCH  18  19
ENDBRANCH  17  18
ENDBRANCH  16  17
ENDBRANCH  15  16
ENDBRANCH  14  15
ENDBRANCH  13  14
ENDBRANCH  12  13
ENDBRANCH   1  12
TORSDOF 16
ENDMDL
MODEL 3
REMARK VINA RESULT:    -4.613      3.253      3.871
REMARK INTER + INTRA:         -11.057
REMARK INTER:                  -8.783
REMARK INTRA:                  -2.274
REMARK UNBOUND:                -2.129
REMARK SMILES CCCCCCCCCCCCCCCCCC(=O)[O-]
REMARK SMILES IDX 10 1 11 2 12 3 13 4 14 5 15 6 16 7 17 8 18 9 19 10 20 11
REMARK SMILES IDX 9 12 8 13 7 14 6 15 5 16 4 17 3 18 2 19 1 20
REMARK H PARENT
REMARK Flexibility Score: inf
ROOT
ATOM      1  C   UNL     1      55.712  24.358  51.524  1.00  0.00     0.000 C 
ENDROOT
BRANCH   1   2
ATOM      2  C   UNL     1      56.224  23.900  52.902  1.00  0.00     0.000 C 
BRANCH   2   3
ATOM      3  C   UNL     1      56.655  22.421  52.973  1.00  0.00     0.000 C 
BRANCH   3   4
ATOM      4  C   UNL     1      55.702  21.498  53.760  1.00  0.00     0.000 C 
BRANCH   4   5
ATOM      5  C   UNL     1      54.277  21.395  53.186  1.00  0.00     0.000 C 
BRANCH   5   6
ATOM      6  C   UNL     1      53.224  21.077  54.257  1.00  0.00     0.000 C 
BRANCH   6   7
ATOM      7  C   UNL     1      52.236  22.242  54.418  1.00  0.00     0.006 C 
BRANCH   7   8
ATOM      8  C   UNL     1      51.493  22.557  53.112  1.00  0.00     0.053 C 
BRANCH   8   9
ATOM      9  C   UNL     1      50.015  22.358  53.251  1.00  0.00     0.041 C 
ATOM     10  O   UNL     1      49.534  21.914  54.326  1.00  0.00    -0.550 OA
ATOM     11  O   UNL     1      49.171  22.630  52.181  1.00  0.00    -0.550 OA
ENDBRANCH   8   9
ENDBRANCH   7   8
ENDBRANCH   6   7
ENDBRANCH   5   6
ENDBRANCH   4   5
ENDBRANCH   3   4
ENDBRANCH   2   3
ENDBRANCH   1   2
BRANCH   1  12
ATOM     12  C   UNL     1      54.216  24.721  51.538  1.00  0.00     0.000 C 
BRANCH  12  13
ATOM     13  C   UNL     1      53.435  24.053  50.395  1.00  0.00    -0.000 C 
BRANCH  13  14
ATOM     14  C   UNL     1      53.656  24.753  49.043  1.00  0.00    -0.000 C 
BRANCH  14  15
ATOM     15  C   UNL     1      54.132  23.792  47.938  1.00  0.00    -0.000 C 
BRANCH  15  16
ATOM     16  C   UNL     1      55.602  23.963  47.515  1.00  0.00    -0.000 C 
BRANCH  16  17
ATOM     17  C   UNL     1      56.563  23.068  48.316  1.00  0.00    -0.000 C 
BRANCH  17  18
ATOM     18  C   UNL     1      56.793  21.697  47.655  1.00  0.00    -0.000 C 
BRANCH  18  19
ATOM     19  C   UNL     1      56.451  20.489  48.545  1.00  0.00    -0.003 C 
ATOM     20  C   UNL     1      55.642  20.867  49.785  1.00  0.00     0.004 C 
ENDBRANCH  18  19
ENDBRANCH  17  18
ENDBRANCH  16  17
ENDBRANCH  15  16
ENDBRANCH  14  15
ENDBRANCH  13  14
ENDBRANCH  12  13
ENDBRANCH   1  12
TORSDOF 16
ENDMDL
MODEL 4
REMARK VINA RESULT:    -4.513      3.426      4.117
REMARK INTER + INTRA:         -10.864
REMARK INTER:                  -9.046
REMARK INTRA:                  -1.817
REMARK UNBOUND:                -2.129
REMARK SMILES CCCCCCCCCCCCCCCCCC(=O)[O-]
REMARK SMILES IDX 10 1 11 2 12 3 13 4 14 5 15 6 16 7 17 8 18 9 19 10 20 11
REMARK SMILES IDX 9 12 8 13 7 14 6 15 5 16 4 17 3 18 2 19 1 20
REMARK H PARENT
REMARK Flexibility Score: inf
ROOT
ATOM      1  C   UNL     1      53.466  23.605  50.448  1.00  0.00     0.000 C 
ENDROOT
BRANCH   1   2
ATOM      2  C   UNL     1      54.731  23.221  51.236  1.00  0.00     0.000 C 
BRANCH   2   3
ATOM      3  C   UNL     1      54.734  21.784  51.795  1.00  0.00     0.000 C 
BRANCH   3   4
ATOM      4  C   UNL     1      54.954  21.674  53.318  1.00  0.00     0.000 C 
BRANCH   4   5
ATOM      5  C   UNL     1      53.671  21.480  54.147  1.00  0.00     0.000 C 
BRANCH   5   6
ATOM      6  C   UNL     1      53.114  22.799  54.700  1.00  0.00     0.000 C 
BRANCH   6   7
ATOM      7  C   UNL     1      51.588  22.862  54.535  1.00  0.00     0.006 C 
BRANCH   7   8
ATOM      8  C   UNL     1      51.122  22.253  53.205  1.00  0.00     0.053 C 
BRANCH   8   9
ATOM      9  C   UNL     1      49.628  22.221  53.100  1.00  0.00     0.041 C 
ATOM     10  O   UNL     1      48.934  21.843  54.079  1.00  0.00    -0.550 OA
ATOM     11  O   UNL     1      49.005  22.577  51.910  1.00  0.00    -0.550 OA
ENDBRANCH   8   9
ENDBRANCH   7   8
ENDBRANCH   6   7
ENDBRANCH   5   6
ENDBRANCH   4   5
ENDBRANCH   3   4
ENDBRANCH   2   3
ENDBRANCH   1   2
BRANCH   1  12
ATOM     12  C   UNL     1      53.717  24.740  49.438  1.00  0.00     0.000 C 
BRANCH  12  13
ATOM     13  C   UNL     1      53.742  24.243  47.984  1.00  0.00    -0.000 C 
BRANCH  13  14
ATOM     14  C   UNL     1      54.997  24.706  47.225  1.00  0.00    -0.000 C 
BRANCH  14  15
ATOM     15  C   UNL     1      56.307  24.312  47.932  1.00  0.00    -0.000 C 
BRANCH  15  16
ATOM     16  C   UNL     1      57.303  23.521  47.063  1.00  0.00    -0.000 C 
BRANCH  16  17
ATOM     17  C   UNL     1      57.115  21.999  47.175  1.00  0.00    -0.000 C 
BRANCH  17  18
ATOM     18  C   UNL     1      56.258  21.590  48.386  1.00  0.00    -0.000 C 
BRANCH  18  19
ATOM     19  C   UNL     1      56.552  20.184  48.937  1.00  0.00    -0.003 C 
ATOM     20  C   UNL     1      56.010  19.066  48.047  1.00  0.00     0.004 C 
ENDBRANCH  18  19
ENDBRANCH  17  18
ENDBRANCH  16  17
ENDBRANCH  15  16
ENDBRANCH  14  15
ENDBRANCH  13  14
ENDBRANCH  12  13
ENDBRANCH   1  12
TORSDOF 16
ENDMDL
MODEL 5
REMARK VINA RESULT:    -4.492      2.546      3.248
REMARK INTER + INTRA:         -10.823
REMARK INTER:                  -8.479
REMARK INTRA:                  -2.345
REMARK UNBOUND:                -2.129
REMARK SMILES CCCCCCCCCCCCCCCCCC(=O)[O-]
REMARK SMILES IDX 10 1 11 2 12 3 13 4 14 5 15 6 16 7 17 8 18 9 19 10 20 11
REMARK SMILES IDX 9 12 8 13 7 14 6 15 5 16 4 17 3 18 2 19 1 20
REMARK H PARENT
REMARK Flexibility Score: inf
ROOT
ATOM      1  C   UNL     1      54.622  21.990  51.474  1.00  0.00     0.000 C 
ENDROOT
BRANCH   1   2
ATOM      2  C   UNL     1      55.935  21.415  52.033  1.00  0.00     0.000 C 
BRANCH   2   3
ATOM      3  C   UNL     1      56.672  22.333  53.030  1.00  0.00     0.000 C 
BRANCH   3   4
ATOM      4  C   UNL     1      56.596  21.893  54.506  1.00  0.00     0.000 C 
BRANCH   4   5
ATOM      5  C   UNL     1      55.244  22.155  55.194  1.00  0.00     0.000 C 
BRANCH   5   6
ATOM      6  C   UNL     1      54.774  23.609  55.052  1.00  0.00     0.000 C 
BRANCH   6   7
ATOM      7  C   UNL     1      53.304  23.671  54.612  1.00  0.00     0.006 C 
BRANCH   7   8
ATOM      8  C   UNL     1      52.531  22.399  54.989  1.00  0.00     0.053 C 
BRANCH   8   9
ATOM      9  C   UNL     1      51.892  21.761  53.794  1.00  0.00     0.041 C 
ATOM     10  O   UNL     1      51.065  22.407  53.098  1.00  0.00    -0.550 OA
ATOM     11  O   UNL     1      52.184  20.442  53.468  1.00  0.00    -0.550 OA
ENDBRANCH   8   9
ENDBRANCH   7   8
ENDBRANCH   6   7
ENDBRANCH   5   6
ENDBRANCH   4   5
ENDBRANCH   3   4
ENDBRANCH   2   3
ENDBRANCH   1   2
BRANCH   1  12
ATOM     12  C   UNL     1      54.667  23.519  51.306  1.00  0.00     0.000 C 
BRANCH  12  13
ATOM     13  C   UNL     1      53.343  24.096  50.782  1.00  0.00    -0.000 C 
BRANCH  13  14
ATOM     14  C   UNL     1      53.520  24.879  49.470  1.00  0.00    -0.000 C 
BRANCH  14  15
ATOM     15  C   UNL     1      53.810  23.970  48.261  1.00  0.00    -0.000 C 
BRANCH  15  16
ATOM     16  C   UNL     1      54.923  24.471  47.321  1.00  0.00    -0.000 C 
BRANCH  16  17
ATOM     17  C   UNL     1      56.261  23.747  47.540  1.00  0.00    -0.000 C 
BRANCH  17  18
ATOM     18  C   UNL     1      56.116  22.464  48.378  1.00  0.00    -0.000 C 
BRANCH  18  19
ATOM     19  C   UNL     1      56.849  21.237  47.807  1.00  0.00    -0.003 C 
ATOM     20  C   UNL     1      56.492  19.936  48.526  1.00  0.00     0.004 C 
ENDBRANCH  18  19
ENDBRANCH  17  18
ENDBRANCH  16  17
ENDBRANCH  15  16
ENDBRANCH  14  15
ENDBRANCH  13  14
ENDBRANCH  12  13
ENDBRANCH   1  12
TORSDOF 16
ENDMDL
MODEL 6
REMARK VINA RESULT:    -4.487      1.225      2.138
REMARK INTER + INTRA:         -10.814
REMARK INTER:                  -9.081
REMARK INTRA:                  -1.733
REMARK UNBOUND:                -2.129
REMARK SMILES CCCCCCCCCCCCCCCCCC(=O)[O-]
REMARK SMILES IDX 10 1 11 2 12 3 13 4 14 5 15 6 16 7 17 8 18 9 19 10 20 11
REMARK SMILES IDX 9 12 8 13 7 14 6 15 5 16 4 17 3 18 2 19 1 20
REMARK H PARENT
REMARK Flexibility Score: inf
ROOT
ATOM      1  C   UNL     1      55.399  23.301  51.741  1.00  0.00     0.000 C 
ENDROOT
BRANCH   1   2
ATOM      2  C   UNL     1      55.082  21.808  51.935  1.00  0.00     0.000 C 
BRANCH   2   3
ATOM      3  C   UNL     1      54.013  21.506  53.005  1.00  0.00     0.000 C 
BRANCH   3   4
ATOM      4  C   UNL     1      54.537  21.436  54.454  1.00  0.00     0.000 C 
BRANCH   4   5
ATOM      5  C   UNL     1      55.929  20.798  54.611  1.00  0.00     0.000 C 
BRANCH   5   6
ATOM      6  C   UNL     1      56.988  21.792  55.108  1.00  0.00     0.000 C 
BRANCH   6   7
ATOM      7  C   UNL     1      56.442  22.644  56.264  1.00  0.00     0.006 C 
BRANCH   7   8
ATOM      8  C   UNL     1      56.968  22.178  57.629  1.00  0.00     0.053 C 
BRANCH   8   9
ATOM      9  C   UNL     1      58.457  22.318  57.728  1.00  0.00     0.041 C 
ATOM     10  O   UNL     1      59.161  21.339  58.089  1.00  0.00    -0.550 OA
ATOM     11  O   UNL     1      59.062  23.538  57.454  1.00  0.00    -0.550 OA
ENDBRANCH   8   9
ENDBRANCH   7   8
ENDBRANCH   6   7
ENDBRANCH   5   6
ENDBRANCH   4   5
ENDBRANCH   3   4
ENDBRANCH   2   3
ENDBRANCH   1   2
BRANCH   1  12
ATOM     12  C   UNL     1      54.135  24.180  51.724  1.00  0.00     0.000 C 
BRANCH  12  13
ATOM     13  C   UNL     1      53.234  23.897  50.512  1.00  0.00    -0.000 C 
BRANCH  13  14
ATOM     14  C   UNL     1      53.518  24.844  49.334  1.00  0.00    -0.000 C 
BRANCH  14  15
ATOM     15  C   UNL     1      53.938  24.101  48.052  1.00  0.00    -0.000 C 
BRANCH  15  16
ATOM     16  C   UNL     1      55.270  24.566  47.436  1.00  0.00    -0.000 C 
BRANCH  16  17
ATOM     17  C   UNL     1      56.440  23.622  47.759  1.00  0.00    -0.000 C 
BRANCH  17  18
ATOM     18  C   UNL     1      55.976  22.271  48.331  1.00  0.00    -0.000 C 
BRANCH  18  19
ATOM     19  C   UNL     1      56.781  21.054  47.841  1.00  0.00    -0.003 C 
ATOM     20  C   UNL     1      56.784  19.896  48.839  1.00  0.00     0.004 C 
ENDBRANCH  18  19
ENDBRANCH  17  18
ENDBRANCH  16  17
ENDBRANCH  15  16
ENDBRANCH  14  15
ENDBRANCH  13  14
ENDBRANCH  12  13
ENDBRANCH   1  12
TORSDOF 16
ENDMDL
MODEL 7
REMARK VINA RESULT:    -4.424      1.343      3.887
REMARK INTER + INTRA:         -10.691
REMARK INTER:                  -7.811
REMARK INTRA:                  -2.880
REMARK UNBOUND:                -2.129
REMARK SMILES CCCCCCCCCCCCCCCCCC(=O)[O-]
REMARK SMILES IDX 10 1 11 2 12 3 13 4 14 5 15 6 16 7 17 8 18 9 19 10 20 11
REMARK SMILES IDX 9 12 8 13 7 14 6 15 5 16 4 17 3 18 2 19 1 20
REMARK H PARENT
REMARK Flexibility Score: inf
ROOT
ATOM      1  C   UNL     1      56.373  21.507  47.709  1.00  0.00     0.000 C 
ENDROOT
BRANCH   1   2
ATOM      2  C   UNL     1      56.542  20.825  49.078  1.00  0.00     0.000 C 
BRANCH   2   3
ATOM      3  C   UNL     1      55.226  20.566  49.839  1.00  0.00     0.000 C 
BRANCH   3   4
ATOM      4  C   UNL     1      55.140  21.213  51.237  1.00  0.00     0.000 C 
BRANCH   4   5
ATOM      5  C   UNL     1      56.251  22.230  51.552  1.00  0.00     0.000 C 
BRANCH   5   6
ATOM      6  C   UNL     1      56.439  22.461  53.058  1.00  0.00     0.000 C 
BRANCH   6   7
ATOM      7  C   UNL     1      55.875  21.284  53.868  1.00  0.00     0.006 C 
BRANCH   7   8
ATOM      8  C   UNL     1      56.626  21.077  55.191  1.00  0.00     0.053 C 
BRANCH   8   9
ATOM      9  C   UNL     1      56.630  22.320  56.029  1.00  0.00     0.041 C 
ATOM     10  O   UNL     1      57.705  22.945  56.225  1.00  0.00    -0.550 OA
ATOM     11  O   UNL     1      55.455  22.767  56.618  1.00  0.00    -0.550 OA
ENDBRANCH   8   9
ENDBRANCH   7   8
ENDBRANCH   6   7
ENDBRANCH   5   6
ENDBRANCH   4   5
ENDBRANCH   3   4
ENDBRANCH   2   3
ENDBRANCH   1   2
BRANCH   1  12
ATOM     12  C   UNL     1      56.968  22.926  47.675  1.00  0.00     0.000 C 
BRANCH  12  13
ATOM     13  C   UNL     1      55.992  23.990  48.202  1.00  0.00    -0.000 C 
BRANCH  13  14
ATOM     14  C   UNL     1      54.522  23.621  47.941  1.00  0.00    -0.000 C 
BRANCH  14  15
ATOM     15  C   UNL     1      53.589  24.010  49.103  1.00  0.00    -0.000 C 
BRANCH  15  16
ATOM     16  C   UNL     1      54.176  25.029  50.096  1.00  0.00    -0.000 C 
BRANCH  16  17
ATOM     17  C   UNL     1      53.696  24.802  51.540  1.00  0.00    -0.000 C 
BRANCH  17  18
ATOM     18  C   UNL     1      52.760  23.587  51.673  1.00  0.00    -0.000 C 
BRANCH  18  19
ATOM     19  C   UNL     1      52.567  23.079  53.113  1.00  0.00    -0.003 C 
ATOM     20  C   UNL     1      53.246  23.964  54.157  1.00  0.00     0.004 C 
ENDBRANCH  18  19
ENDBRANCH  17  18
ENDBRANCH  16  17
ENDBRANCH  15  16
ENDBRANCH  14  15
ENDBRANCH  13  14
ENDBRANCH  12  13
ENDBRANCH   1  12
TORSDOF 16
ENDMDL
MODEL 8
REMARK VINA RESULT:    -4.420      3.328      5.006
REMARK INTER + INTRA:         -10.684
REMARK INTER:                  -8.743
REMARK INTRA:                  -1.942
REMARK UNBOUND:                -2.129
REMARK SMILES CCCCCCCCCCCCCCCCCC(=O)[O-]
REMARK SMILES IDX 10 1 11 2 12 3 13 4 14 5 15 6 16 7 17 8 18 9 19 10 20 11
REMARK SMILES IDX 9 12 8 13 7 14 6 15 5 16 4 17 3 18 2 19 1 20
REMARK H PARENT
REMARK Flexibility Score: inf
ROOT
ATOM      1  C   UNL     1      56.613  20.522  48.740  1.00  0.00     0.000 C 
ENDROOT
BRANCH   1   2
ATOM      2  C   UNL     1      55.371  20.635  49.641  1.00  0.00     0.000 C 
BRANCH   2   3
ATOM      3  C   UNL     1      55.640  21.217  51.044  1.00  0.00     0.000 C 
BRANCH   3   4
ATOM      4  C   UNL     1      54.388  21.411  51.924  1.00  0.00     0.000 C 
BRANCH   4   5
ATOM      5  C   UNL     1      54.646  21.368  53.440  1.00  0.00     0.000 C 
BRANCH   5   6
ATOM      6  C   UNL     1      53.371  21.114  54.256  1.00  0.00     0.000 C 
BRANCH   6   7
ATOM      7  C   UNL     1      52.138  21.060  53.342  1.00  0.00     0.006 C 
BRANCH   7   8
ATOM      8  C   UNL     1      51.417  22.413  53.258  1.00  0.00     0.053 C 
BRANCH   8   9
ATOM      9  C   UNL     1      49.949  22.280  53.526  1.00  0.00     0.041 C 
ATOM     10  O   UNL     1      49.112  22.689  52.680  1.00  0.00    -0.550 OA
ATOM     11  O   UNL     1      49.506  21.734  54.725  1.00  0.00    -0.550 OA
ENDBRANCH   8   9
ENDBRANCH   7   8
ENDBRANCH   6   7
ENDBRANCH   5   6
ENDBRANCH   4   5
ENDBRANCH   3   4
ENDBRANCH   2   3
ENDBRANCH   1   2
BRANCH   1  12
ATOM     12  C   UNL     1      56.745  21.701  47.759  1.00  0.00     0.000 C 
BRANCH  12  13
ATOM     13  C   UNL     1      56.375  23.047  48.400  1.00  0.00    -0.000 C 
BRANCH  13  14
ATOM     14  C   UNL     1      55.266  23.782  47.627  1.00  0.00    -0.000 C 
BRANCH  14  15
ATOM     15  C   UNL     1      53.877  23.626  48.275  1.00  0.00    -0.000 C 
BRANCH  15  16
ATOM     16  C   UNL     1      53.367  24.870  49.026  1.00  0.00    -0.000 C 
BRANCH  16  17
ATOM     17  C   UNL     1      53.399  24.700  50.554  1.00  0.00    -0.000 C 
BRANCH  17  18
ATOM     18  C   UNL     1      54.746  25.114  51.173  1.00  0.00    -0.000 C 
BRANCH  18  19
ATOM     19  C   UNL     1      54.810  25.005  52.706  1.00  0.00    -0.003 C 
ATOM     20  C   UNL     1      56.214  24.699  53.227  1.00  0.00     0.004 C 
ENDBRANCH  18  19
ENDBRANCH  17  18
ENDBRANCH  16  17
ENDBRANCH  15  16
ENDBRANCH  14  15
ENDBRANCH  13  14
ENDBRANCH  12  13
ENDBRANCH   1  12
TORSDOF 16
ENDMDL
MODEL 9
REMARK VINA RESULT:    -4.375      2.293      4.807
REMARK INTER + INTRA:         -10.596
REMARK INTER:                  -8.545
REMARK INTRA:                  -2.051
REMARK UNBOUND:                -2.129
REMARK SMILES CCCCCCCCCCCCCCCCCC(=O)[O-]
REMARK SMILES IDX 10 1 11 2 12 3 13 4 14 5 15 6 16 7 17 8 18 9 19 10 20 11
REMARK SMILES IDX 9 12 8 13 7 14 6 15 5 16 4 17 3 18 2 19 1 20
REMARK H PARENT
REMARK Flexibility Score: inf
ROOT
ATOM      1  C   UNL     1      55.121  23.627  47.670  1.00  0.00     0.000 C 
ENDROOT
BRANCH   1   2
ATOM      2  C   UNL     1      56.199  22.865  48.462  1.00  0.00     0.000 C 
BRANCH   2   3
ATOM      3  C   UNL     1      56.229  21.343  48.216  1.00  0.00     0.000 C 
BRANCH   3   4
ATOM      4  C   UNL     1      56.037  20.471  49.473  1.00  0.00     0.000 C 
BRANCH   4   5
ATOM      5  C   UNL     1      55.258  21.144  50.618  1.00  0.00     0.000 C 
BRANCH   5   6
ATOM      6  C   UNL     1      56.156  21.983  51.537  1.00  0.00     0.000 C 
BRANCH   6   7
ATOM      7  C   UNL     1      56.064  21.493  52.990  1.00  0.00     0.006 C 
BRANCH   7   8
ATOM      8  C   UNL     1      56.426  22.593  53.998  1.00  0.00     0.053 C 
BRANCH   8   9
ATOM      9  C   UNL     1      56.406  22.085  55.408  1.00  0.00     0.041 C 
ATOM     10  O   UNL     1      56.719  20.891  55.654  1.00  0.00    -0.550 OA
ATOM     11  O   UNL     1      56.010  22.921  56.444  1.00  0.00    -0.550 OA
ENDBRANCH   8   9
ENDBRANCH   7   8
ENDBRANCH   6   7
ENDBRANCH   5   6
ENDBRANCH   4   5
ENDBRANCH   3   4
ENDBRANCH   2   3
ENDBRANCH   1   2
BRANCH   1  12
ATOM     12  C   UNL     1      53.786  23.728  48.428  1.00  0.00     0.000 C 
BRANCH  12  13
ATOM     13  C   UNL     1      53.902  24.543  49.725  1.00  0.00    -0.000 C 
BRANCH  13  14
ATOM     14  C   UNL     1      53.040  23.969  50.862  1.00  0.00    -0.000 C 
BRANCH  14  15
ATOM     15  C   UNL     1      53.528  24.391  52.260  1.00  0.00    -0.000 C 
BRANCH  15  16
ATOM     16  C   UNL     1      52.996  23.533  53.422  1.00  0.00    -0.000 C 
BRANCH  16  17
ATOM     17  C   UNL     1      52.346  22.222  52.948  1.00  0.00    -0.000 C 
BRANCH  17  18
ATOM     18  C   UNL     1      51.349  21.646  53.970  1.00  0.00    -0.000 C 
BRANCH  18  19
ATOM     19  C   UNL     1      49.949  22.285  53.932  1.00  0.00    -0.003 C 
ATOM     20  C   UNL     1      49.408  22.459  52.513  1.00  0.00     0.004 C 
ENDBRANCH  18  19
ENDBRANCH  17  18
ENDBRANCH  16  17
ENDBRANCH  15  16
ENDBRANCH  14  15
ENDBRANCH  13  14
ENDBRANCH  12  13
ENDBRANCH   1  12
TORSDOF 16
ENDMDL
