MODEL 1
REMARK VINA RESULT:    -4.212      0.000      0.000
REMARK INTER + INTRA:          -8.378
REMARK INTER:                  -7.414
REMARK INTRA:                  -0.964
REMARK UNBOUND:                -0.964
REMARK SMILES CCCCCCC=CCCCCCCCC(=O)[O-]
REMARK SMILES IDX 10 1 11 2 12 3 13 4 14 5 15 6 16 7 17 8 18 9 9 10 8 11 7 12
REMARK SMILES IDX 6 13 5 14 4 15 3 16 2 17 1 18
REMARK H PARENT
REMARK Flexibility Score: inf
ROOT
ATOM      1  C   UNL     1      17.191  -3.285  -3.457  1.00  0.00     0.004 C 
ENDROOT
BRANCH   1   2
ATOM      2  C   UNL     1      18.076  -4.525  -3.242  1.00  0.00     0.000 C 
BRANCH   2   3
ATOM      3  C   UNL     1      17.306  -5.847  -3.394  1.00  0.00     0.000 C 
BRANCH   3   4
ATOM      4  C   UNL     1      15.811  -5.630  -3.675  1.00  0.00     0.000 C 
BRANCH   4   5
ATOM      5  C   UNL     1      14.913  -6.209  -2.568  1.00  0.00     0.006 C 
BRANCH   5   6
ATOM      6  C   UNL     1      14.644  -5.193  -1.450  1.00  0.00     0.053 C 
BRANCH   6   7
ATOM      7  C   UNL     1      15.481  -5.466  -0.238  1.00  0.00     0.041 C 
ATOM      8  O   UNL     1      16.592  -4.894  -0.093  1.00  0.00    -0.550 OA
ATOM      9  O   UNL     1      15.047  -6.380   0.715  1.00  0.00    -0.550 OA
ENDBRANCH   6   7
ENDBRANCH   5   6
ENDBRANCH   4   5
ENDBRANCH   3   4
ENDBRANCH   2   3
ENDBRANCH   1   2
BRANCH   1  10
ATOM     10  C   UNL     1      17.980  -2.014  -3.820  1.00  0.00     0.027 C 
BRANCH  10  11
ATOM     11  C   UNL     1      17.770  -1.598  -5.256  1.00  0.00    -0.031 C 
ATOM     12  C   UNL     1      18.740  -1.136  -6.068  1.00  0.00    -0.031 C 
BRANCH  12  13
ATOM     13  C   UNL     1      20.164  -0.872  -5.641  1.00  0.00     0.027 C 
BRANCH  13  14
ATOM     14  C   UNL     1      20.306   0.485  -4.938  1.00  0.00     0.004 C 
BRANCH  14  15
ATOM     15  C   UNL     1      21.721   0.701  -4.375  1.00  0.00     0.000 C 
BRANCH  15  16
ATOM     16  C   UNL     1      21.710   1.188  -2.917  1.00  0.00    -0.000 C 
BRANCH  16  17
ATOM     17  C   UNL     1      22.197   2.638  -2.775  1.00  0.00    -0.003 C 
ATOM     18  C   UNL     1      21.023   3.612  -2.753  1.00  0.00     0.004 C 
ENDBRANCH  16  17
ENDBRANCH  15  16
ENDBRANCH  14  15
ENDBRANCH  13  14
ENDBRANCH  12  13
ENDBRANCH  10  11
ENDBRANCH   1  10
TORSDOF 13
ENDMDL
MODEL 2
REMARK VINA RESULT:    -4.195     10.134     13.426
REMARK INTER + INTRA:          -8.348
REMARK INTER:                  -6.108
REMARK INTRA:                  -2.240
REMARK UNBOUND:                -0.964
REMARK SMILES CCCCCCC=CCCCCCCCC(=O)[O-]
REMARK SMILES IDX 10 1 11 2 12 3 13 4 14 5 15 6 16 7 17 8 18 9 9 10 8 11 7 12
REMARK SMILES IDX 6 13 5 14 4 15 3 16 2 17 1 18
REMARK H PARENT
REMARK Flexibility Score: inf
ROOT
ATOM      1  C   UNL     1      32.467  -0.493  -0.784  1.00  0.00     0.004 C 
ENDROOT
BRANCH   1   2
ATOM      2  C   UNL     1      31.096   0.205  -0.785  1.00  0.00     0.000 C 
BRANCH   2   3
ATOM      3  C   UNL     1      30.306  -0.024   0.514  1.00  0.00     0.000 C 
BRANCH   3   4
ATOM      4  C   UNL     1      29.077  -0.924   0.308  1.00  0.00     0.000 C 
BRANCH   4   5
ATOM      5  C   UNL     1      27.983  -0.243  -0.533  1.00  0.00     0.006 C 
BRANCH   5   6
ATOM      6  C   UNL     1      26.850  -1.211  -0.901  1.00  0.00     0.053 C 
BRANCH   6   7
ATOM      7  C   UNL     1      25.866  -1.365   0.217  1.00  0.00     0.041 C 
ATOM      8  O   UNL     1      25.077  -0.426   0.501  1.00  0.00    -0.550 OA
ATOM      9  O   UNL     1      25.842  -2.534   0.967  1.00  0.00    -0.550 OA
ENDBRANCH   6   7
ENDBRANCH   5   6
ENDBRANCH   4   5
ENDBRANCH   3   4
ENDBRANCH   2   3
ENDBRANCH   1   2
BRANCH   1  10
ATOM     10  C   UNL     1      32.879  -1.050   0.591  1.00  0.00     0.027 C 
BRANCH  10  11
ATOM     11  C   UNL     1      33.694  -2.316   0.476  1.00  0.00    -0.031 C 
ATOM     12  C   UNL     1      33.265  -3.538   0.846  1.00  0.00    -0.031 C 
BRANCH  12  13
ATOM     13  C   UNL     1      31.941  -3.817   1.517  1.00  0.00     0.027 C 
BRANCH  13  14
ATOM     14  C   UNL     1      30.863  -4.225   0.503  1.00  0.00     0.004 C 
BRANCH  14  15
ATOM     15  C   UNL     1      31.431  -5.107  -0.622  1.00  0.00     0.000 C 
BRANCH  15  16
ATOM     16  C   UNL     1      30.967  -4.657  -2.017  1.00  0.00    -0.000 C 
BRANCH  16  17
ATOM     17  C   UNL     1      30.401  -3.229  -2.018  1.00  0.00    -0.003 C 
ATOM     18  C   UNL     1      29.933  -2.825  -3.414  1.00  0.00     0.004 C 
ENDBRANCH  16  17
ENDBRANCH  15  16
ENDBRANCH  14  15
ENDBRANCH  13  14
ENDBRANCH  12  13
ENDBRANCH  10  11
ENDBRANCH   1  10
TORSDOF 13
ENDMDL
MODEL 3
REMARK VINA RESULT:    -4.187      9.714     12.813
REMARK INTER + INTRA:          -8.333
REMARK INTER:                  -6.228
REMARK INTRA:                  -2.105
REMARK UNBOUND:                -0.964
REMARK SMILES CCCCCCC=CCCCCCCCC(=O)[O-]
REMARK SMILES IDX 10 1 11 2 12 3 13 4 14 5 15 6 16 7 17 8 18 9 9 10 8 11 7 12
REMARK SMILES IDX 6 13 5 14 4 15 3 16 2 17 1 18
REMARK H PARENT
REMARK Flexibility Score: inf
ROOT
ATOM      1  C   UNL     1      29.857   0.191   0.447  1.00  0.00     0.004 C 
ENDROOT
BRANCH   1   2
ATOM      2  C   UNL     1      29.494  -1.303   0.464  1.00  0.00     0.000 C 
BRANCH   2   3
ATOM      3  C   UNL     1      28.956  -1.805  -0.886  1.00  0.00     0.000 C 
BRANCH   3   4
ATOM      4  C   UNL     1      28.100  -0.754  -1.608  1.00  0.00     0.000 C 
BRANCH   4   5
ATOM      5  C   UNL     1      26.606  -1.120  -1.624  1.00  0.00     0.006 C 
BRANCH   5   6
ATOM      6  C   UNL     1      25.817  -0.383  -0.533  1.00  0.00     0.053 C 
BRANCH   6   7
ATOM      7  C   UNL     1      25.374  -1.311   0.555  1.00  0.00     0.041 C 
ATOM      8  O   UNL     1      25.898  -2.450   0.670  1.00  0.00    -0.550 OA
ATOM      9  O   UNL     1      24.357  -0.932   1.423  1.00  0.00    -0.550 OA
ENDBRANCH   6   7
ENDBRANCH   5   6
ENDBRANCH   4   5
ENDBRANCH   3   4
ENDBRANCH   2   3
ENDBRANCH   1   2
BRANCH   1  10
ATOM     10  C   UNL     1      31.349   0.465   0.179  1.00  0.00     0.027 C 
BRANCH  10  11
ATOM     11  C   UNL     1      31.616   0.827  -1.262  1.00  0.00    -0.031 C 
ATOM     12  C   UNL     1      32.478   0.175  -2.066  1.00  0.00    -0.031 C 
BRANCH  12  13
ATOM     13  C   UNL     1      33.378  -0.954  -1.626  1.00  0.00     0.027 C 
BRANCH  13  14
ATOM     14  C   UNL     1      32.629  -2.294  -1.580  1.00  0.00     0.004 C 
BRANCH  14  15
ATOM     15  C   UNL     1      33.216  -3.250  -0.528  1.00  0.00     0.000 C 
BRANCH  15  16
ATOM     16  C   UNL     1      32.796  -2.884   0.904  1.00  0.00    -0.000 C 
BRANCH  16  17
ATOM     17  C   UNL     1      31.994  -4.002   1.588  1.00  0.00    -0.003 C 
ATOM     18  C   UNL     1      31.008  -4.643   0.617  1.00  0.00     0.004 C 
ENDBRANCH  16  17
ENDBRANCH  15  16
ENDBRANCH  14  15
ENDBRANCH  13  14
ENDBRANCH  12  13
ENDBRANCH  10  11
ENDBRANCH   1  10
TORSDOF 13
ENDMDL
MODEL 4
REMARK VINA RESULT:    -4.110     10.108     13.013
REMARK INTER + INTRA:          -8.198
REMARK INTER:                  -6.273
REMARK INTRA:                  -1.925
REMARK UNBOUND:                -0.964
REMARK SMILES CCCCCCC=CCCCCCCCC(=O)[O-]
REMARK SMILES IDX 10 1 11 2 12 3 13 4 14 5 15 6 16 7 17 8 18 9 9 10 8 11 7 12
REMARK SMILES IDX 6 13 5 14 4 15 3 16 2 17 1 18
REMARK H PARENT
REMARK Flexibility Score: inf
ROOT
ATOM      1  C   UNL     1      29.542  -2.639   0.828  1.00  0.00     0.004 C 
ENDROOT
BRANCH   1   2
ATOM      2  C   UNL     1      29.952  -1.185   0.536  1.00  0.00     0.000 C 
BRANCH   2   3
ATOM      3  C   UNL     1      28.843  -0.377  -0.156  1.00  0.00     0.000 C 
BRANCH   3   4
ATOM      4  C   UNL     1      28.371  -1.023  -1.468  1.00  0.00     0.000 C 
BRANCH   4   5
ATOM      5  C   UNL     1      26.846  -1.220  -1.514  1.00  0.00     0.006 C 
BRANCH   5   6
ATOM      6  C   UNL     1      26.128  -0.433  -0.409  1.00  0.00     0.053 C 
BRANCH   6   7
ATOM      7  C   UNL     1      25.477  -1.343   0.587  1.00  0.00     0.041 C 
ATOM      8  O   UNL     1      25.951  -2.489   0.804  1.00  0.00    -0.550 OA
ATOM      9  O   UNL     1      24.327  -0.937   1.253  1.00  0.00    -0.550 OA
ENDBRANCH   6   7
ENDBRANCH   5   6
ENDBRANCH   4   5
ENDBRANCH   3   4
ENDBRANCH   2   3
ENDBRANCH   1   2
BRANCH   1  10
ATOM     10  C   UNL     1      30.622  -3.675   0.460  1.00  0.00     0.027 C 
BRANCH  10  11
ATOM     11  C   UNL     1      31.586  -3.927   1.593  1.00  0.00    -0.031 C 
ATOM     12  C   UNL     1      32.915  -3.719   1.527  1.00  0.00    -0.031 C 
BRANCH  12  13
ATOM     13  C   UNL     1      33.657  -3.291   0.283  1.00  0.00     0.027 C 
BRANCH  13  14
ATOM     14  C   UNL     1      33.974  -1.789   0.298  1.00  0.00     0.004 C 
BRANCH  14  15
ATOM     15  C   UNL     1      34.027  -1.194  -1.120  1.00  0.00     0.000 C 
BRANCH  15  16
ATOM     16  C   UNL     1      32.776  -0.368  -1.461  1.00  0.00    -0.000 C 
BRANCH  16  17
ATOM     17  C   UNL     1      31.923  -1.017  -2.562  1.00  0.00    -0.003 C 
ATOM     18  C   UNL     1      32.578  -2.292  -3.085  1.00  0.00     0.004 C 
ENDBRANCH  16  17
ENDBRANCH  15  16
ENDBRANCH  14  15
ENDBRANCH  13  14
ENDBRANCH  12  13
ENDBRANCH  10  11
ENDBRANCH   1  10
TORSDOF 13
ENDMDL
MODEL 5
REMARK VINA RESULT:    -4.033      9.176     12.285
REMARK INTER + INTRA:          -8.063
REMARK INTER:                  -5.671
REMARK INTRA:                  -2.392
REMARK UNBOUND:                -0.964
REMARK SMILES CCCCCCC=CCCCCCCCC(=O)[O-]
REMARK SMILES IDX 10 1 11 2 12 3 13 4 14 5 15 6 16 7 17 8 18 9 9 10 8 11 7 12
REMARK SMILES IDX 6 13 5 14 4 15 3 16 2 17 1 18
REMARK H PARENT
REMARK Flexibility Score: inf
ROOT
ATOM      1  C   UNL     1      31.172  -1.318  -3.311  1.00  0.00     0.004 C 
ENDROOT
BRANCH   1   2
ATOM      2  C   UNL     1      29.880  -0.671  -3.839  1.00  0.00     0.000 C 
BRANCH   2   3
ATOM      3  C   UNL     1      28.608  -1.339  -3.292  1.00  0.00     0.000 C 
BRANCH   3   4
ATOM      4  C   UNL     1      27.696  -0.352  -2.546  1.00  0.00     0.000 C 
BRANCH   4   5
ATOM      5  C   UNL     1      26.541  -1.056  -1.812  1.00  0.00     0.006 C 
BRANCH   5   6
ATOM      6  C   UNL     1      26.066  -0.263  -0.586  1.00  0.00     0.053 C 
BRANCH   6   7
ATOM      7  C   UNL     1      25.688  -1.167   0.547  1.00  0.00     0.041 C 
ATOM      8  O   UNL     1      26.495  -2.041   0.957  1.00  0.00    -0.550 OA
ATOM      9  O   UNL     1      24.430  -1.065   1.128  1.00  0.00    -0.550 OA
ENDBRANCH   6   7
ENDBRANCH   5   6
ENDBRANCH   4   5
ENDBRANCH   3   4
ENDBRANCH   2   3
ENDBRANCH   1   2
BRANCH   1  10
ATOM     10  C   UNL     1      32.058  -0.359  -2.494  1.00  0.00     0.027 C 
BRANCH  10  11
ATOM     11  C   UNL     1      31.311   0.877  -2.052  1.00  0.00    -0.031 C 
ATOM     12  C   UNL     1      30.850   1.086  -0.803  1.00  0.00    -0.031 C 
BRANCH  12  13
ATOM     13  C   UNL     1      30.927   0.080   0.320  1.00  0.00     0.027 C 
BRANCH  13  14
ATOM     14  C   UNL     1      29.629  -0.732   0.447  1.00  0.00     0.004 C 
BRANCH  14  15
ATOM     15  C   UNL     1      29.825  -2.203   0.043  1.00  0.00     0.000 C 
BRANCH  15  16
ATOM     16  C   UNL     1      30.313  -3.076   1.210  1.00  0.00    -0.000 C 
BRANCH  16  17
ATOM     17  C   UNL     1      31.764  -3.548   1.027  1.00  0.00    -0.003 C 
ATOM     18  C   UNL     1      32.161  -3.544  -0.446  1.00  0.00     0.004 C 
ENDBRANCH  16  17
ENDBRANCH  15  16
ENDBRANCH  14  15
ENDBRANCH  13  14
ENDBRANCH  12  13
ENDBRANCH  10  11
ENDBRANCH   1  10
TORSDOF 13
ENDMDL
MODEL 6
REMARK VINA RESULT:    -4.018      7.559      9.577
REMARK INTER + INTRA:          -8.036
REMARK INTER:                  -7.134
REMARK INTRA:                  -0.902
REMARK UNBOUND:                -0.964
REMARK SMILES CCCCCCC=CCCCCCCCC(=O)[O-]
REMARK SMILES IDX 10 1 11 2 12 3 13 4 14 5 15 6 16 7 17 8 18 9 9 10 8 11 7 12
REMARK SMILES IDX 6 13 5 14 4 15 3 16 2 17 1 18
REMARK H PARENT
REMARK Flexibility Score: inf
ROOT
ATOM      1  C   UNL     1      13.971  -0.021   5.318  1.00  0.00     0.004 C 
ENDROOT
BRANCH   1   2
ATOM      2  C   UNL     1      14.043  -1.426   4.696  1.00  0.00     0.000 C 
BRANCH   2   3
ATOM      3  C   UNL     1      13.945  -1.408   3.162  1.00  0.00     0.000 C 
BRANCH   3   4
ATOM      4  C   UNL     1      15.064  -2.217   2.489  1.00  0.00     0.000 C 
BRANCH   4   5
ATOM      5  C   UNL     1      14.630  -3.654   2.149  1.00  0.00     0.006 C 
BRANCH   5   6
ATOM      6  C   UNL     1      14.633  -3.917   0.637  1.00  0.00     0.053 C 
BRANCH   6   7
ATOM      7  C   UNL     1      15.614  -4.984   0.261  1.00  0.00     0.041 C 
ATOM      8  O   UNL     1      15.283  -6.197   0.312  1.00  0.00    -0.550 OA
ATOM      9  O   UNL     1      16.907  -4.639  -0.114  1.00  0.00    -0.550 OA
ENDBRANCH   6   7
ENDBRANCH   5   6
ENDBRANCH   4   5
ENDBRANCH   3   4
ENDBRANCH   2   3
ENDBRANCH   1   2
BRANCH   1  10
ATOM     10  C   UNL     1      15.293   0.444   5.958  1.00  0.00     0.027 C 
BRANCH  10  11
ATOM     11  C   UNL     1      15.167   0.655   7.448  1.00  0.00    -0.031 C 
ATOM     12  C   UNL     1      14.908   1.841   8.032  1.00  0.00    -0.031 C 
BRANCH  12  13
ATOM     13  C   UNL     1      14.797   3.155   7.297  1.00  0.00     0.027 C 
BRANCH  13  14
ATOM     14  C   UNL     1      16.124   3.928   7.310  1.00  0.00     0.004 C 
BRANCH  14  15
ATOM     15  C   UNL     1      16.466   4.516   5.930  1.00  0.00     0.000 C 
BRANCH  15  16
ATOM     16  C   UNL     1      15.770   3.769   4.781  1.00  0.00    -0.000 C 
BRANCH  16  17
ATOM     17  C   UNL     1      15.226   4.720   3.704  1.00  0.00    -0.003 C 
ATOM     18  C   UNL     1      16.243   4.920   2.584  1.00  0.00     0.004 C 
ENDBRANCH  16  17
ENDBRANCH  15  16
ENDBRANCH  14  15
ENDBRANCH  13  14
ENDBRANCH  12  13
ENDBRANCH  10  11
ENDBRANCH   1  10
TORSDOF 13
ENDMDL
MODEL 7
REMARK VINA RESULT:    -3.996      9.149     12.324
REMARK INTER + INTRA:          -7.997
REMARK INTER:                  -5.914
REMARK INTRA:                  -2.082
REMARK UNBOUND:                -0.964
REMARK SMILES CCCCCCC=CCCCCCCCC(=O)[O-]
REMARK SMILES IDX 10 1 11 2 12 3 13 4 14 5 15 6 16 7 17 8 18 9 9 10 8 11 7 12
REMARK SMILES IDX 6 13 5 14 4 15 3 16 2 17 1 18
REMARK H PARENT
REMARK Flexibility Score: inf
ROOT
ATOM      1  C   UNL     1      29.726   0.814  -2.650  1.00  0.00     0.004 C 
ENDROOT
BRANCH   1   2
ATOM      2  C   UNL     1      28.576   0.562  -3.640  1.00  0.00     0.000 C 
BRANCH   2   3
ATOM      3  C   UNL     1      27.302   0.038  -2.956  1.00  0.00     0.000 C 
BRANCH   3   4
ATOM      4  C   UNL     1      26.685   1.062  -1.991  1.00  0.00     0.000 C 
BRANCH   4   5
ATOM      5  C   UNL     1      26.516   0.503  -0.567  1.00  0.00     0.006 C 
BRANCH   5   6
ATOM      6  C   UNL     1      26.535  -1.032  -0.543  1.00  0.00     0.053 C 
BRANCH   6   7
ATOM      7  C   UNL     1      25.688  -1.580   0.564  1.00  0.00     0.041 C 
ATOM      8  O   UNL     1      25.913  -2.729   1.025  1.00  0.00    -0.550 OA
ATOM      9  O   UNL     1      24.627  -0.833   1.063  1.00  0.00    -0.550 OA
ENDBRANCH   6   7
ENDBRANCH   5   6
ENDBRANCH   4   5
ENDBRANCH   3   4
ENDBRANCH   2   3
ENDBRANCH   1   2
BRANCH   1  10
ATOM     10  C   UNL     1      30.048  -0.394  -1.750  1.00  0.00     0.027 C 
BRANCH  10  11
ATOM     11  C   UNL     1      30.306   0.009  -0.319  1.00  0.00    -0.031 C 
ATOM     12  C   UNL     1      31.477  -0.162   0.324  1.00  0.00    -0.031 C 
BRANCH  12  13
ATOM     13  C   UNL     1      32.680  -0.867  -0.255  1.00  0.00     0.027 C 
BRANCH  13  14
ATOM     14  C   UNL     1      32.797  -2.309   0.258  1.00  0.00     0.004 C 
BRANCH  14  15
ATOM     15  C   UNL     1      32.067  -3.309  -0.655  1.00  0.00     0.000 C 
BRANCH  15  16
ATOM     16  C   UNL     1      31.025  -4.149   0.101  1.00  0.00    -0.000 C 
BRANCH  16  17
ATOM     17  C   UNL     1      30.782  -3.641   1.530  1.00  0.00    -0.003 C 
ATOM     18  C   UNL     1      29.392  -3.027   1.665  1.00  0.00     0.004 C 
ENDBRANCH  16  17
ENDBRANCH  15  16
ENDBRANCH  14  15
ENDBRANCH  13  14
ENDBRANCH  12  13
ENDBRANCH  10  11
ENDBRANCH   1  10
TORSDOF 13
ENDMDL
MODEL 8
REMARK VINA RESULT:    -3.969     11.180     13.577
REMARK INTER + INTRA:          -7.951
REMARK INTER:                  -5.415
REMARK INTRA:                  -2.535
REMARK UNBOUND:                -0.964
REMARK SMILES CCCCCCC=CCCCCCCCC(=O)[O-]
REMARK SMILES IDX 10 1 11 2 12 3 13 4 14 5 15 6 16 7 17 8 18 9 9 10 8 11 7 12
REMARK SMILES IDX 6 13 5 14 4 15 3 16 2 17 1 18
REMARK H PARENT
REMARK Flexibility Score: inf
ROOT
ATOM      1  C   UNL     1      31.241  -4.337   0.153  1.00  0.00     0.004 C 
ENDROOT
BRANCH   1   2
ATOM      2  C   UNL     1      30.722  -3.930   1.543  1.00  0.00     0.000 C 
BRANCH   2   3
ATOM      3  C   UNL     1      29.523  -2.970   1.478  1.00  0.00     0.000 C 
BRANCH   3   4
ATOM      4  C   UNL     1      29.632  -1.967   0.319  1.00  0.00     0.000 C 
BRANCH   4   5
ATOM      5  C   UNL     1      28.386  -1.072   0.196  1.00  0.00     0.006 C 
BRANCH   5   6
ATOM      6  C   UNL     1      28.748   0.382  -0.136  1.00  0.00     0.053 C 
BRANCH   6   7
ATOM      7  C   UNL     1      27.540   1.185  -0.507  1.00  0.00     0.041 C 
ATOM      8  O   UNL     1      27.176   2.152   0.212  1.00  0.00    -0.550 OA
ATOM      9  O   UNL     1      26.795   0.844  -1.630  1.00  0.00    -0.550 OA
ENDBRANCH   6   7
ENDBRANCH   5   6
ENDBRANCH   4   5
ENDBRANCH   3   4
ENDBRANCH   2   3
ENDBRANCH   1   2
BRANCH   1  10
ATOM     10  C   UNL     1      32.723  -3.989  -0.083  1.00  0.00     0.027 C 
BRANCH  10  11
ATOM     11  C   UNL     1      33.208  -2.893   0.835  1.00  0.00    -0.031 C 
ATOM     12  C   UNL     1      33.487  -1.635   0.442  1.00  0.00    -0.031 C 
BRANCH  12  13
ATOM     13  C   UNL     1      33.447  -1.153  -0.989  1.00  0.00     0.027 C 
BRANCH  13  14
ATOM     14  C   UNL     1      32.328  -0.126  -1.213  1.00  0.00     0.004 C 
BRANCH  14  15
ATOM     15  C   UNL     1      31.531  -0.410  -2.497  1.00  0.00     0.000 C 
BRANCH  15  16
ATOM     16  C   UNL     1      31.683  -1.861  -2.979  1.00  0.00    -0.000 C 
BRANCH  16  17
ATOM     17  C   UNL     1      30.332  -2.580  -3.122  1.00  0.00    -0.003 C 
ATOM     18  C   UNL     1      29.211  -1.588  -3.417  1.00  0.00     0.004 C 
ENDBRANCH  16  17
ENDBRANCH  15  16
ENDBRANCH  14  15
ENDBRANCH  13  14
ENDBRANCH  12  13
ENDBRANCH  10  11
ENDBRANCH   1  10
TORSDOF 13
ENDMDL
MODEL 9
REMARK VINA RESULT:    -3.957     10.007     13.070
REMARK INTER + INTRA:          -7.929
REMARK INTER:                  -5.871
REMARK INTRA:                  -2.058
REMARK UNBOUND:                -0.964
REMARK SMILES CCCCCCC=CCCCCCCCC(=O)[O-]
REMARK SMILES IDX 10 1 11 2 12 3 13 4 14 5 15 6 16 7 17 8 18 9 9 10 8 11 7 12
REMARK SMILES IDX 6 13 5 14 4 15 3 16 2 17 1 18
REMARK H PARENT
REMARK Flexibility Score: inf
ROOT
ATOM      1  C   UNL     1      30.140  -0.975  -0.058  1.00  0.00     0.004 C 
ENDROOT
BRANCH   1   2
ATOM      2  C   UNL     1      29.496   0.257   0.600  1.00  0.00     0.000 C 
BRANCH   2   3
ATOM      3  C   UNL     1      28.625   1.069  -0.373  1.00  0.00     0.000 C 
BRANCH   3   4
ATOM      4  C   UNL     1      28.262   0.281  -1.641  1.00  0.00     0.000 C 
BRANCH   4   5
ATOM      5  C   UNL     1      26.771  -0.096  -1.694  1.00  0.00     0.006 C 
BRANCH   5   6
ATOM      6  C   UNL     1      26.514  -1.516  -1.173  1.00  0.00     0.053 C 
BRANCH   6   7
ATOM      7  C   UNL     1      25.956  -1.505   0.217  1.00  0.00     0.041 C 
ATOM      8  O   UNL     1      26.258  -2.419   1.028  1.00  0.00    -0.550 OA
ATOM      9  O   UNL     1      25.076  -0.503   0.605  1.00  0.00    -0.550 OA
ENDBRANCH   6   7
ENDBRANCH   5   6
ENDBRANCH   4   5
ENDBRANCH   3   4
ENDBRANCH   2   3
ENDBRANCH   1   2
BRANCH   1  10
ATOM     10  C   UNL     1      29.836  -2.298   0.669  1.00  0.00     0.027 C 
BRANCH  10  11
ATOM     11  C   UNL     1      30.392  -3.497  -0.061  1.00  0.00    -0.031 C 
ATOM     12  C   UNL     1      31.502  -4.167   0.304  1.00  0.00    -0.031 C 
BRANCH  12  13
ATOM     13  C   UNL     1      32.412  -3.769   1.441  1.00  0.00     0.027 C 
BRANCH  13  14
ATOM     14  C   UNL     1      33.707  -3.120   0.933  1.00  0.00     0.004 C 
BRANCH  14  15
ATOM     15  C   UNL     1      33.498  -1.651   0.527  1.00  0.00     0.000 C 
BRANCH  15  16
ATOM     16  C   UNL     1      34.097  -1.328  -0.851  1.00  0.00    -0.000 C 
BRANCH  16  17
ATOM     17  C   UNL     1      33.652  -2.321  -1.936  1.00  0.00    -0.003 C 
ATOM     18  C   UNL     1      32.496  -1.756  -2.756  1.00  0.00     0.004 C 
ENDBRANCH  16  17
ENDBRANCH  15  16
ENDBRANCH  14  15
ENDBRANCH  13  14
ENDBRANCH  12  13
ENDBRANCH  10  11
ENDBRANCH   1  10
TORSDOF 13
ENDMDL
