MODEL 1
REMARK VINA RESULT:    -3.394      0.000      0.000
REMARK INTER + INTRA:          -3.950
REMARK INTER:                  -3.890
REMARK INTRA:                  -0.061
REMARK UNBOUND:                -0.061
REMARK SMILES CC(C)[C@@H]([NH3+])C(=O)[O-]
REMARK SMILES IDX 4 1 5 2 6 6 7 7 8 8 2 9 1 10 3 11
REMARK H PARENT 5 3 5 4 5 5
REMARK Flexibility Score: inf
ROOT
ATOM      1  C   UNL     1      22.679 -11.501  30.669  1.00  0.00     0.230 C 
ENDROOT
BRANCH   1   2
ATOM      2  N   UNL     1      23.208 -12.268  29.531  1.00  0.00    -0.350 N 
ATOM      3  H   UNL     1      24.048 -12.810  29.837  1.00  0.00     0.345 HD
ATOM      4  H   UNL     1      22.489 -12.948  29.192  1.00  0.00     0.345 HD
ATOM      5  H   UNL     1      23.487 -11.640  28.743  1.00  0.00     0.345 HD
ENDBRANCH   1   2
BRANCH   1   6
ATOM      6  C   UNL     1      21.174 -11.618  30.735  1.00  0.00     0.099 C 
ATOM      7  O   UNL     1      20.559 -11.245  31.769  1.00  0.00    -0.544 OA
ATOM      8  O   UNL     1      20.458 -12.164  29.675  1.00  0.00    -0.544 OA
ENDBRANCH   1   6
BRANCH   1   9
ATOM      9  C   UNL     1      23.373 -11.902  32.005  1.00  0.00     0.047 C 
ATOM     10  C   UNL     1      23.323 -13.422  32.226  1.00  0.00     0.014 C 
ATOM     11  C   UNL     1      24.823 -11.401  32.121  1.00  0.00     0.014 C 
ENDBRANCH   1   9
TORSDOF 3
ENDMDL
MODEL 2
REMARK VINA RESULT:    -3.370      0.106      1.147
REMARK INTER + INTRA:          -3.924
REMARK INTER:                  -3.855
REMARK INTRA:                  -0.069
REMARK UNBOUND:                -0.061
REMARK SMILES CC(C)[C@@H]([NH3+])C(=O)[O-]
REMARK SMILES IDX 4 1 5 2 6 6 7 7 8 8 2 9 1 10 3 11
REMARK H PARENT 5 3 5 4 5 5
REMARK Flexibility Score: inf
ROOT
ATOM      1  C   UNL     1      22.591 -11.509  30.656  1.00  0.00     0.230 C 
ENDROOT
BRANCH   1   2
ATOM      2  N   UNL     1      23.142 -12.234  29.501  1.00  0.00    -0.350 N 
ATOM      3  H   UNL     1      24.187 -12.189  29.528  1.00  0.00     0.345 HD
ATOM      4  H   UNL     1      22.861 -13.240  29.542  1.00  0.00     0.345 HD
ATOM      5  H   UNL     1      22.816 -11.822  28.598  1.00  0.00     0.345 HD
ENDBRANCH   1   2
BRANCH   1   6
ATOM      6  C   UNL     1      21.094 -11.692  30.734  1.00  0.00     0.099 C 
ATOM      7  O   UNL     1      20.472 -12.205  29.766  1.00  0.00    -0.544 OA
ATOM      8  O   UNL     1      20.385 -11.272  31.854  1.00  0.00    -0.544 OA
ENDBRANCH   1   6
BRANCH   1   9
ATOM      9  C   UNL     1      23.315 -11.899  31.980  1.00  0.00     0.047 C 
ATOM     10  C   UNL     1      23.256 -13.415  32.222  1.00  0.00     0.014 C 
ATOM     11  C   UNL     1      24.772 -11.411  32.053  1.00  0.00     0.014 C 
ENDBRANCH   1   9
TORSDOF 3
ENDMDL
MODEL 3
REMARK VINA RESULT:    -3.177      2.471      3.151
REMARK INTER + INTRA:          -3.702
REMARK INTER:                  -3.666
REMARK INTRA:                  -0.036
REMARK UNBOUND:                -0.061
REMARK SMILES CC(C)[C@@H]([NH3+])C(=O)[O-]
REMARK SMILES IDX 4 1 5 2 6 6 7 7 8 8 2 9 1 10 3 11
REMARK H PARENT 5 3 5 4 5 5
REMARK Flexibility Score: inf
ROOT
ATOM      1  C   UNL     1      21.613 -13.030  29.335  1.00  0.00     0.230 C 
ENDROOT
BRANCH   1   2
ATOM      2  N   UNL     1      21.723 -12.711  27.903  1.00  0.00    -0.350 N 
ATOM      3  H   UNL     1      21.666 -13.595  27.345  1.00  0.00     0.345 HD
ATOM      4  H   UNL     1      20.932 -12.093  27.612  1.00  0.00     0.345 HD
ATOM      5  H   UNL     1      22.629 -12.239  27.684  1.00  0.00     0.345 HD
ENDBRANCH   1   2
BRANCH   1   6
ATOM      6  C   UNL     1      22.638 -14.068  29.729  1.00  0.00     0.099 C 
ATOM      7  O   UNL     1      23.635 -14.279  28.989  1.00  0.00    -0.544 OA
ATOM      8  O   UNL     1      22.476 -14.819  30.888  1.00  0.00    -0.544 OA
ENDBRANCH   1   6
BRANCH   1   9
ATOM      9  C   UNL     1      21.686 -11.747  30.217  1.00  0.00     0.047 C 
ATOM     10  C   UNL     1      20.718 -11.834  31.408  1.00  0.00     0.014 C 
ATOM     11  C   UNL     1      23.104 -11.420  30.715  1.00  0.00     0.014 C 
ENDBRANCH   1   9
TORSDOF 3
ENDMDL
MODEL 4
REMARK VINA RESULT:    -3.169      2.433      3.092
REMARK INTER + INTRA:          -3.693
REMARK INTER:                  -3.657
REMARK INTRA:                  -0.036
REMARK UNBOUND:                -0.061
REMARK SMILES CC(C)[C@@H]([NH3+])C(=O)[O-]
REMARK SMILES IDX 4 1 5 2 6 6 7 7 8 8 2 9 1 10 3 11
REMARK H PARENT 5 3 5 4 5 5
REMARK Flexibility Score: inf
ROOT
ATOM      1  C   UNL     1      21.198 -12.059  31.636  1.00  0.00     0.230 C 
ENDROOT
BRANCH   1   2
ATOM      2  N   UNL     1      19.876 -11.416  31.575  1.00  0.00    -0.350 N 
ATOM      3  H   UNL     1      19.282 -11.766  32.363  1.00  0.00     0.345 HD
ATOM      4  H   UNL     1      19.976 -10.381  31.681  1.00  0.00     0.345 HD
ATOM      5  H   UNL     1      19.389 -11.626  30.674  1.00  0.00     0.345 HD
ENDBRANCH   1   2
BRANCH   1   6
ATOM      6  C   UNL     1      21.056 -13.544  31.876  1.00  0.00     0.099 C 
ATOM      7  O   UNL     1      19.957 -14.115  31.652  1.00  0.00    -0.544 OA
ATOM      8  O   UNL     1      22.122 -14.286  32.374  1.00  0.00    -0.544 OA
ENDBRANCH   1   6
BRANCH   1   9
ATOM      9  C   UNL     1      22.056 -11.731  30.377  1.00  0.00     0.047 C 
ATOM     10  C   UNL     1      23.546 -11.613  30.733  1.00  0.00     0.014 C 
ATOM     11  C   UNL     1      21.868 -12.733  29.225  1.00  0.00     0.014 C 
ENDBRANCH   1   9
TORSDOF 3
ENDMDL
MODEL 5
REMARK VINA RESULT:    -3.168      4.620      5.433
REMARK INTER + INTRA:          -3.692
REMARK INTER:                  -3.646
REMARK INTRA:                  -0.046
REMARK UNBOUND:                -0.061
REMARK SMILES CC(C)[C@@H]([NH3+])C(=O)[O-]
REMARK SMILES IDX 4 1 5 2 6 6 7 7 8 8 2 9 1 10 3 11
REMARK H PARENT 5 3 5 4 5 5
REMARK Flexibility Score: inf
ROOT
ATOM      1  C   UNL     1      26.779 -12.480  31.535  1.00  0.00     0.230 C 
ENDROOT
BRANCH   1   2
ATOM      2  N   UNL     1      27.298 -11.296  32.237  1.00  0.00    -0.350 N 
ATOM      3  H   UNL     1      27.489 -11.540  33.237  1.00  0.00     0.345 HD
ATOM      4  H   UNL     1      28.198 -10.988  31.802  1.00  0.00     0.345 HD
ATOM      5  H   UNL     1      26.615 -10.506  32.212  1.00  0.00     0.345 HD
ENDBRANCH   1   2
BRANCH   1   6
ATOM      6  C   UNL     1      27.390 -13.742  32.099  1.00  0.00     0.099 C 
ATOM      7  O   UNL     1      27.498 -14.767  31.375  1.00  0.00    -0.544 OA
ATOM      8  O   UNL     1      27.808 -13.796  33.424  1.00  0.00    -0.544 OA
ENDBRANCH   1   6
BRANCH   1   9
ATOM      9  C   UNL     1      25.221 -12.513  31.535  1.00  0.00     0.047 C 
ATOM     10  C   UNL     1      24.637 -11.254  32.194  1.00  0.00     0.014 C 
ATOM     11  C   UNL     1      24.608 -12.708  30.138  1.00  0.00     0.014 C 
ENDBRANCH   1   9
TORSDOF 3
ENDMDL
MODEL 6
REMARK VINA RESULT:    -3.155      2.608      3.363
REMARK INTER + INTRA:          -3.676
REMARK INTER:                  -3.625
REMARK INTRA:                  -0.051
REMARK UNBOUND:                -0.061
REMARK SMILES CC(C)[C@@H]([NH3+])C(=O)[O-]
REMARK SMILES IDX 4 1 5 2 6 6 7 7 8 8 2 9 1 10 3 11
REMARK H PARENT 5 3 5 4 5 5
REMARK Flexibility Score: inf
ROOT
ATOM      1  C   UNL     1      23.409 -12.657  30.879  1.00  0.00     0.230 C 
ENDROOT
BRANCH   1   2
ATOM      2  N   UNL     1      23.188 -12.257  29.481  1.00  0.00    -0.350 N 
ATOM      3  H   UNL     1      22.832 -11.273  29.452  1.00  0.00     0.345 HD
ATOM      4  H   UNL     1      24.090 -12.290  28.952  1.00  0.00     0.345 HD
ATOM      5  H   UNL     1      22.490 -12.876  29.010  1.00  0.00     0.345 HD
ENDBRANCH   1   2
BRANCH   1   6
ATOM      6  C   UNL     1      24.617 -11.951  31.449  1.00  0.00     0.099 C 
ATOM      7  O   UNL     1      24.472 -11.088  32.355  1.00  0.00    -0.544 OA
ATOM      8  O   UNL     1      25.891 -12.221  30.962  1.00  0.00    -0.544 OA
ENDBRANCH   1   6
BRANCH   1   9
ATOM      9  C   UNL     1      22.129 -12.454  31.744  1.00  0.00     0.047 C 
ATOM     10  C   UNL     1      21.180 -11.428  31.105  1.00  0.00     0.014 C 
ATOM     11  C   UNL     1      21.370 -13.759  32.039  1.00  0.00     0.014 C 
ENDBRANCH   1   9
TORSDOF 3
ENDMDL
MODEL 7
REMARK VINA RESULT:    -3.071      2.728      3.464
REMARK INTER + INTRA:          -3.580
REMARK INTER:                  -3.552
REMARK INTRA:                  -0.028
REMARK UNBOUND:                -0.061
REMARK SMILES CC(C)[C@@H]([NH3+])C(=O)[O-]
REMARK SMILES IDX 4 1 5 2 6 6 7 7 8 8 2 9 1 10 3 11
REMARK H PARENT 5 3 5 4 5 5
REMARK Flexibility Score: inf
ROOT
ATOM      1  C   UNL     1      24.866 -12.254  31.582  1.00  0.00     0.230 C 
ENDROOT
BRANCH   1   2
ATOM      2  N   UNL     1      24.764 -10.999  32.341  1.00  0.00    -0.350 N 
ATOM      3  H   UNL     1      25.344 -10.263  31.876  1.00  0.00     0.345 HD
ATOM      4  H   UNL     1      23.772 -10.668  32.355  1.00  0.00     0.345 HD
ATOM      5  H   UNL     1      25.101 -11.116  33.323  1.00  0.00     0.345 HD
ENDBRANCH   1   2
BRANCH   1   6
ATOM      6  C   UNL     1      23.998 -12.201  30.347  1.00  0.00     0.099 C 
ATOM      7  O   UNL     1      24.331 -12.841  29.315  1.00  0.00    -0.544 OA
ATOM      8  O   UNL     1      22.844 -11.425  30.325  1.00  0.00    -0.544 OA
ENDBRANCH   1   6
BRANCH   1   9
ATOM      9  C   UNL     1      26.348 -12.613  31.261  1.00  0.00     0.047 C 
ATOM     10  C   UNL     1      27.321 -11.718  32.043  1.00  0.00     0.014 C 
ATOM     11  C   UNL     1      26.690 -14.094  31.498  1.00  0.00     0.014 C 
ENDBRANCH   1   9
TORSDOF 3
ENDMDL
MODEL 8
REMARK VINA RESULT:    -3.020      3.544      4.015
REMARK INTER + INTRA:          -3.522
REMARK INTER:                  -3.447
REMARK INTRA:                  -0.075
REMARK UNBOUND:                -0.061
REMARK SMILES CC(C)[C@@H]([NH3+])C(=O)[O-]
REMARK SMILES IDX 4 1 5 2 6 6 7 7 8 8 2 9 1 10 3 11
REMARK H PARENT 5 3 5 4 5 5
REMARK Flexibility Score: inf
ROOT
ATOM      1  C   UNL     1      24.572 -12.879  30.310  1.00  0.00     0.230 C 
ENDROOT
BRANCH   1   2
ATOM      2  N   UNL     1      24.408 -12.843  28.848  1.00  0.00    -0.350 N 
ATOM      3  H   UNL     1      23.894 -13.699  28.535  1.00  0.00     0.345 HD
ATOM      4  H   UNL     1      23.843 -12.008  28.572  1.00  0.00     0.345 HD
ATOM      5  H   UNL     1      25.331 -12.813  28.359  1.00  0.00     0.345 HD
ENDBRANCH   1   2
BRANCH   1   6
ATOM      6  C   UNL     1      26.014 -13.146  30.676  1.00  0.00     0.099 C 
ATOM      7  O   UNL     1      26.925 -12.403  30.224  1.00  0.00    -0.544 OA
ATOM      8  O   UNL     1      26.351 -14.225  31.485  1.00  0.00    -0.544 OA
ENDBRANCH   1   6
BRANCH   1   9
ATOM      9  C   UNL     1      24.008 -11.592  30.984  1.00  0.00     0.047 C 
ATOM     10  C   UNL     1      22.502 -11.439  30.719  1.00  0.00     0.014 C 
ATOM     11  C   UNL     1      24.287 -11.514  32.494  1.00  0.00     0.014 C 
ENDBRANCH   1   9
TORSDOF 3
ENDMDL
