MODEL 1
REMARK VINA RESULT:    -4.497      0.000      0.000
REMARK INTER + INTRA:          -9.449
REMARK INTER:                  -8.178
REMARK INTRA:                  -1.271
REMARK UNBOUND:                -1.271
REMARK SMILES CCCCCCCCCCCCCC[C@H](C)C(=O)[O-]
REMARK SMILES IDX 9 1 10 2 11 3 12 4 13 5 14 6 15 7 16 8 17 9 18 10 19 11 8 12
REMARK SMILES IDX 7 13 6 14 5 15 4 16 3 17 2 18 1 19
REMARK H PARENT
REMARK Flexibility Score: inf
ROOT
ATOM      1  C   UNL     1      68.155 -38.814   9.086  1.00  0.00     0.000 C 
ENDROOT
BRANCH   1   2
ATOM      2  C   UNL     1      68.647 -37.850  10.189  1.00  0.00     0.000 C 
BRANCH   2   3
ATOM      3  C   UNL     1      70.176 -37.677  10.172  1.00  0.00     0.000 C 
BRANCH   3   4
ATOM      4  C   UNL     1      70.838 -38.066  11.506  1.00  0.00     0.000 C 
BRANCH   4   5
ATOM      5  C   UNL     1      72.323 -38.472  11.407  1.00  0.00     0.001 C 
BRANCH   5   6
ATOM      6  C   UNL     1      73.326 -37.303  11.359  1.00  0.00     0.009 C 
BRANCH   6   7
ATOM      7  C   UNL     1      74.622 -37.586  10.565  1.00  0.00     0.032 C 
ATOM      8  C   UNL     1      75.875 -37.100  11.305  1.00  0.00     0.014 C 
BRANCH   7   9
ATOM      9  C   UNL     1      74.538 -36.922   9.218  1.00  0.00     0.044 C 
ATOM     10  O   UNL     1      73.428 -36.512   8.782  1.00  0.00    -0.550 OA
ATOM     11  O   UNL     1      75.684 -36.730   8.456  1.00  0.00    -0.550 OA
ENDBRANCH   7   9
ENDBRANCH   6   7
ENDBRANCH   5   6
ENDBRANCH   4   5
ENDBRANCH   3   4
ENDBRANCH   2   3
ENDBRANCH   1   2
BRANCH   1  12
ATOM     12  C   UNL     1      68.950 -38.714   7.772  1.00  0.00     0.000 C 
BRANCH  12  13
ATOM     13  C   UNL     1      68.121 -38.131   6.616  1.00  0.00    -0.000 C 
BRANCH  13  14
ATOM     14  C   UNL     1      67.990 -36.599   6.682  1.00  0.00    -0.000 C 
BRANCH  14  15
ATOM     15  C   UNL     1      69.289 -35.828   7.000  1.00  0.00    -0.000 C 
BRANCH  15  16
ATOM     16  C   UNL     1      69.098 -34.374   7.475  1.00  0.00    -0.000 C 
BRANCH  16  17
ATOM     17  C   UNL     1      69.768 -33.320   6.565  1.00  0.00    -0.000 C 
BRANCH  17  18
ATOM     18  C   UNL     1      71.135 -32.843   7.081  1.00  0.00    -0.003 C 
ATOM     19  C   UNL     1      72.300 -33.647   6.509  1.00  0.00     0.004 C 
ENDBRANCH  17  18
ENDBRANCH  16  17
ENDBRANCH  15  16
ENDBRANCH  14  15
ENDBRANCH  13  14
ENDBRANCH  12  13
ENDBRANCH   1  12
TORSDOF 14
ENDMDL
MODEL 2
REMARK VINA RESULT:    -4.497      1.709      4.736
REMARK INTER + INTRA:          -9.448
REMARK INTER:                  -8.021
REMARK INTRA:                  -1.427
REMARK UNBOUND:                -1.271
REMARK SMILES CCCCCCCCCCCCCC[C@H](C)C(=O)[O-]
REMARK SMILES IDX 9 1 10 2 11 3 12 4 13 5 14 6 15 7 16 8 17 9 18 10 19 11 8 12
REMARK SMILES IDX 7 13 6 14 5 15 4 16 3 17 2 18 1 19
REMARK H PARENT
REMARK Flexibility Score: inf
ROOT
ATOM      1  C   UNL     1      69.387 -33.885   7.134  1.00  0.00     0.000 C 
ENDROOT
BRANCH   1   2
ATOM      2  C   UNL     1      69.792 -35.360   7.356  1.00  0.00     0.000 C 
BRANCH   2   3
ATOM      3  C   UNL     1      68.574 -36.300   7.380  1.00  0.00     0.000 C 
BRANCH   3   4
ATOM      4  C   UNL     1      68.829 -37.591   8.179  1.00  0.00     0.000 C 
BRANCH   4   5
ATOM      5  C   UNL     1      68.198 -37.628   9.586  1.00  0.00     0.001 C 
BRANCH   5   6
ATOM      6  C   UNL     1      69.188 -37.841  10.748  1.00  0.00     0.009 C 
BRANCH   6   7
ATOM      7  C   UNL     1      70.491 -38.579  10.370  1.00  0.00     0.032 C 
ATOM      8  C   UNL     1      70.581 -39.969  11.015  1.00  0.00     0.014 C 
BRANCH   7   9
ATOM      9  C   UNL     1      71.675 -37.749  10.786  1.00  0.00     0.044 C 
ATOM     10  O   UNL     1      72.022 -36.753  10.096  1.00  0.00    -0.550 OA
ATOM     11  O   UNL     1      72.376 -38.055  11.945  1.00  0.00    -0.550 OA
ENDBRANCH   7   9
ENDBRANCH   6   7
ENDBRANCH   5   6
ENDBRANCH   4   5
ENDBRANCH   3   4
ENDBRANCH   2   3
ENDBRANCH   1   2
BRANCH   1  12
ATOM     12  C   UNL     1      70.515 -33.010   6.560  1.00  0.00     0.000 C 
BRANCH  12  13
ATOM     13  C   UNL     1      71.065 -33.545   5.227  1.00  0.00    -0.000 C 
BRANCH  13  14
ATOM     14  C   UNL     1      72.510 -33.096   4.948  1.00  0.00    -0.000 C 
BRANCH  14  15
ATOM     15  C   UNL     1      73.585 -34.199   5.051  1.00  0.00    -0.000 C 
BRANCH  15  16
ATOM     16  C   UNL     1      73.078 -35.578   5.518  1.00  0.00    -0.000 C 
BRANCH  16  17
ATOM     17  C   UNL     1      73.399 -35.901   6.995  1.00  0.00    -0.000 C 
BRANCH  17  18
ATOM     18  C   UNL     1      74.676 -36.736   7.178  1.00  0.00    -0.003 C 
ATOM     19  C   UNL     1      75.116 -36.839   8.636  1.00  0.00     0.004 C 
ENDBRANCH  17  18
ENDBRANCH  16  17
ENDBRANCH  15  16
ENDBRANCH  14  15
ENDBRANCH  13  14
ENDBRANCH  12  13
ENDBRANCH   1  12
TORSDOF 14
ENDMDL
MODEL 3
REMARK VINA RESULT:    -4.330      2.463      6.256
REMARK INTER + INTRA:          -9.144
REMARK INTER:                  -7.534
REMARK INTRA:                  -1.611
REMARK UNBOUND:                -1.271
REMARK SMILES CCCCCCCCCCCCCC[C@H](C)C(=O)[O-]
REMARK SMILES IDX 9 1 10 2 11 3 12 4 13 5 14 6 15 7 16 8 17 9 18 10 19 11 8 12
REMARK SMILES IDX 7 13 6 14 5 15 4 16 3 17 2 18 1 19
REMARK H PARENT
REMARK Flexibility Score: inf
ROOT
ATOM      1  C   UNL     1      72.444 -34.187   7.265  1.00  0.00     0.000 C 
ENDROOT
BRANCH   1   2
ATOM      2  C   UNL     1      71.427 -33.027   7.173  1.00  0.00     0.000 C 
BRANCH   2   3
ATOM      3  C   UNL     1      70.139 -33.440   6.441  1.00  0.00     0.000 C 
BRANCH   3   4
ATOM      4  C   UNL     1      69.148 -34.194   7.347  1.00  0.00     0.000 C 
BRANCH   4   5
ATOM      5  C   UNL     1      69.117 -35.723   7.155  1.00  0.00     0.001 C 
BRANCH   5   6
ATOM      6  C   UNL     1      68.349 -36.510   8.237  1.00  0.00     0.009 C 
BRANCH   6   7
ATOM      7  C   UNL     1      69.235 -37.324   9.206  1.00  0.00     0.032 C 
ATOM      8  C   UNL     1      70.730 -37.051   8.996  1.00  0.00     0.014 C 
BRANCH   7   9
ATOM      9  C   UNL     1      68.956 -38.791   9.026  1.00  0.00     0.044 C 
ATOM     10  O   UNL     1      68.537 -39.224   7.919  1.00  0.00    -0.550 OA
ATOM     11  O   UNL     1      69.183 -39.683  10.067  1.00  0.00    -0.550 OA
ENDBRANCH   7   9
ENDBRANCH   6   7
ENDBRANCH   5   6
ENDBRANCH   4   5
ENDBRANCH   3   4
ENDBRANCH   2   3
ENDBRANCH   1   2
BRANCH   1  12
ATOM     12  C   UNL     1      73.237 -34.424   5.967  1.00  0.00     0.000 C 
BRANCH  12  13
ATOM     13  C   UNL     1      73.383 -35.915   5.621  1.00  0.00    -0.000 C 
BRANCH  13  14
ATOM     14  C   UNL     1      73.723 -36.787   6.842  1.00  0.00    -0.000 C 
BRANCH  14  15
ATOM     15  C   UNL     1      75.199 -36.762   7.294  1.00  0.00    -0.000 C 
BRANCH  15  16
ATOM     16  C   UNL     1      75.425 -36.608   8.812  1.00  0.00    -0.000 C 
BRANCH  16  17
ATOM     17  C   UNL     1      74.353 -37.303   9.683  1.00  0.00    -0.000 C 
BRANCH  17  18
ATOM     18  C   UNL     1      74.627 -37.199  11.192  1.00  0.00    -0.003 C 
ATOM     19  C   UNL     1      76.040 -37.635  11.571  1.00  0.00     0.004 C 
ENDBRANCH  17  18
ENDBRANCH  16  17
ENDBRANCH  15  16
ENDBRANCH  14  15
ENDBRANCH  13  14
ENDBRANCH  12  13
ENDBRANCH   1  12
TORSDOF 14
ENDMDL
MODEL 4
REMARK VINA RESULT:    -4.285     11.454     14.369
REMARK INTER + INTRA:          -9.063
REMARK INTER:                  -7.094
REMARK INTRA:                  -1.970
REMARK UNBOUND:                -1.271
REMARK SMILES CCCCCCCCCCCCCC[C@H](C)C(=O)[O-]
REMARK SMILES IDX 9 1 10 2 11 3 12 4 13 5 14 6 15 7 16 8 17 9 18 10 19 11 8 12
REMARK SMILES IDX 7 13 6 14 5 15 4 16 3 17 2 18 1 19
REMARK H PARENT
REMARK Flexibility Score: inf
ROOT
ATOM      1  C   UNL     1      72.658 -31.585  20.039  1.00  0.00     0.000 C 
ENDROOT
BRANCH   1   2
ATOM      2  C   UNL     1      73.897 -30.661  20.013  1.00  0.00     0.000 C 
BRANCH   2   3
ATOM      3  C   UNL     1      73.697 -29.395  20.864  1.00  0.00     0.000 C 
BRANCH   3   4
ATOM      4  C   UNL     1      72.352 -28.697  20.594  1.00  0.00     0.000 C 
BRANCH   4   5
ATOM      5  C   UNL     1      72.415 -27.510  19.612  1.00  0.00     0.001 C 
BRANCH   5   6
ATOM      6  C   UNL     1      71.676 -27.718  18.275  1.00  0.00     0.009 C 
BRANCH   6   7
ATOM      7  C   UNL     1      72.481 -28.476  17.195  1.00  0.00     0.032 C 
ATOM      8  C   UNL     1      72.493 -27.735  15.851  1.00  0.00     0.014 C 
BRANCH   7   9
ATOM      9  C   UNL     1      71.899 -29.850  17.011  1.00  0.00     0.044 C 
ATOM     10  O   UNL     1      72.568 -30.749  16.435  1.00  0.00    -0.550 OA
ATOM     11  O   UNL     1      70.632 -30.149  17.498  1.00  0.00    -0.550 OA
ENDBRANCH   7   9
ENDBRANCH   6   7
ENDBRANCH   5   6
ENDBRANCH   4   5
ENDBRANCH   3   4
ENDBRANCH   2   3
ENDBRANCH   1   2
BRANCH   1  12
ATOM     12  C   UNL     1      72.790 -32.776  21.004  1.00  0.00     0.000 C 
BRANCH  12  13
ATOM     13  C   UNL     1      72.276 -32.457  22.418  1.00  0.00    -0.000 C 
BRANCH  13  14
ATOM     14  C   UNL     1      73.390 -32.468  23.480  1.00  0.00    -0.000 C 
BRANCH  14  15
ATOM     15  C   UNL     1      74.815 -32.741  22.954  1.00  0.00    -0.000 C 
BRANCH  15  16
ATOM     16  C   UNL     1      75.445 -34.074  23.406  1.00  0.00    -0.000 C 
BRANCH  16  17
ATOM     17  C   UNL     1      75.111 -35.272  22.488  1.00  0.00    -0.000 C 
BRANCH  17  18
ATOM     18  C   UNL     1      73.938 -36.126  22.996  1.00  0.00    -0.003 C 
ATOM     19  C   UNL     1      72.983 -36.547  21.881  1.00  0.00     0.004 C 
ENDBRANCH  17  18
ENDBRANCH  16  17
ENDBRANCH  15  16
ENDBRANCH  14  15
ENDBRANCH  13  14
ENDBRANCH  12  13
ENDBRANCH   1  12
TORSDOF 14
ENDMDL
MODEL 5
REMARK VINA RESULT:    -4.272      1.573      4.911
REMARK INTER + INTRA:          -9.040
REMARK INTER:                  -7.323
REMARK INTRA:                  -1.717
REMARK UNBOUND:                -1.271
REMARK SMILES CCCCCCCCCCCCCC[C@H](C)C(=O)[O-]
REMARK SMILES IDX 9 1 10 2 11 3 12 4 13 5 14 6 15 7 16 8 17 9 18 10 19 11 8 12
REMARK SMILES IDX 7 13 6 14 5 15 4 16 3 17 2 18 1 19
REMARK H PARENT
REMARK Flexibility Score: inf
ROOT
ATOM      1  C   UNL     1      68.638 -34.743   7.511  1.00  0.00     0.000 C 
ENDROOT
BRANCH   1   2
ATOM      2  C   UNL     1      69.716 -34.601   6.413  1.00  0.00     0.000 C 
BRANCH   2   3
ATOM      3  C   UNL     1      70.182 -33.146   6.239  1.00  0.00     0.000 C 
BRANCH   3   4
ATOM      4  C   UNL     1      71.715 -33.010   6.179  1.00  0.00     0.000 C 
BRANCH   4   5
ATOM      5  C   UNL     1      72.494 -33.945   7.126  1.00  0.00     0.001 C 
BRANCH   5   6
ATOM      6  C   UNL     1      73.228 -35.115   6.442  1.00  0.00     0.009 C 
BRANCH   6   7
ATOM      7  C   UNL     1      73.178 -36.456   7.209  1.00  0.00     0.032 C 
ATOM      8  C   UNL     1      72.319 -36.369   8.477  1.00  0.00     0.014 C 
BRANCH   7   9
ATOM      9  C   UNL     1      74.576 -36.878   7.570  1.00  0.00     0.044 C 
ATOM     10  O   UNL     1      75.271 -37.534   6.749  1.00  0.00    -0.550 OA
ATOM     11  O   UNL     1      75.121 -36.526   8.799  1.00  0.00    -0.550 OA
ENDBRANCH   7   9
ENDBRANCH   6   7
ENDBRANCH   5   6
ENDBRANCH   4   5
ENDBRANCH   3   4
ENDBRANCH   2   3
ENDBRANCH   1   2
BRANCH   1  12
ATOM     12  C   UNL     1      68.476 -36.178   8.043  1.00  0.00     0.000 C 
BRANCH  12  13
ATOM     13  C   UNL     1      67.841 -37.127   7.013  1.00  0.00    -0.000 C 
BRANCH  13  14
ATOM     14  C   UNL     1      68.373 -38.568   7.114  1.00  0.00    -0.000 C 
BRANCH  14  15
ATOM     15  C   UNL     1      69.679 -38.745   7.917  1.00  0.00    -0.000 C 
BRANCH  15  16
ATOM     16  C   UNL     1      69.575 -39.650   9.162  1.00  0.00    -0.000 C 
BRANCH  16  17
ATOM     17  C   UNL     1      69.805 -38.911  10.500  1.00  0.00    -0.000 C 
BRANCH  17  18
ATOM     18  C   UNL     1      71.047 -39.396  11.264  1.00  0.00    -0.003 C 
ATOM     19  C   UNL     1      72.027 -38.269  11.583  1.00  0.00     0.004 C 
ENDBRANCH  17  18
ENDBRANCH  16  17
ENDBRANCH  15  16
ENDBRANCH  14  15
ENDBRANCH  13  14
ENDBRANCH  12  13
ENDBRANCH   1  12
TORSDOF 14
ENDMDL
MODEL 6
REMARK VINA RESULT:    -4.256     11.663     14.484
REMARK INTER + INTRA:          -9.011
REMARK INTER:                  -7.337
REMARK INTRA:                  -1.674
REMARK UNBOUND:                -1.271
REMARK SMILES CCCCCCCCCCCCCC[C@H](C)C(=O)[O-]
REMARK SMILES IDX 9 1 10 2 11 3 12 4 13 5 14 6 15 7 16 8 17 9 18 10 19 11 8 12
REMARK SMILES IDX 7 13 6 14 5 15 4 16 3 17 2 18 1 19
REMARK H PARENT
REMARK Flexibility Score: inf
ROOT
ATOM      1  C   UNL     1      73.397 -31.676  20.412  1.00  0.00     0.000 C 
ENDROOT
BRANCH   1   2
ATOM      2  C   UNL     1      73.009 -31.228  18.985  1.00  0.00     0.000 C 
BRANCH   2   3
ATOM      3  C   UNL     1      71.488 -31.063  18.820  1.00  0.00     0.000 C 
BRANCH   3   4
ATOM      4  C   UNL     1      71.110 -30.042  17.731  1.00  0.00     0.000 C 
BRANCH   4   5
ATOM      5  C   UNL     1      72.264 -29.617  16.801  1.00  0.00     0.001 C 
BRANCH   5   6
ATOM      6  C   UNL     1      72.554 -28.104  16.755  1.00  0.00     0.009 C 
BRANCH   6   7
ATOM      7  C   UNL     1      72.313 -27.352  18.084  1.00  0.00     0.032 C 
ATOM      8  C   UNL     1      72.229 -25.833  17.886  1.00  0.00     0.014 C 
BRANCH   7   9
ATOM      9  C   UNL     1      73.420 -27.678  19.049  1.00  0.00     0.044 C 
ATOM     10  O   UNL     1      74.618 -27.681  18.661  1.00  0.00    -0.550 OA
ATOM     11  O   UNL     1      73.133 -27.950  20.382  1.00  0.00    -0.550 OA
ENDBRANCH   7   9
ENDBRANCH   6   7
ENDBRANCH   5   6
ENDBRANCH   4   5
ENDBRANCH   3   4
ENDBRANCH   2   3
ENDBRANCH   1   2
BRANCH   1  12
ATOM     12  C   UNL     1      72.328 -32.539  21.105  1.00  0.00     0.000 C 
BRANCH  12  13
ATOM     13  C   UNL     1      72.511 -32.605  22.631  1.00  0.00    -0.000 C 
BRANCH  13  14
ATOM     14  C   UNL     1      73.932 -32.225  23.084  1.00  0.00    -0.000 C 
BRANCH  14  15
ATOM     15  C   UNL     1      74.671 -33.284  23.930  1.00  0.00    -0.000 C 
BRANCH  15  16
ATOM     16  C   UNL     1      75.725 -34.119  23.175  1.00  0.00    -0.000 C 
BRANCH  16  17
ATOM     17  C   UNL     1      75.125 -35.159  22.201  1.00  0.00    -0.000 C 
BRANCH  17  18
ATOM     18  C   UNL     1      74.051 -36.052  22.842  1.00  0.00    -0.003 C 
ATOM     19  C   UNL     1      72.919 -36.405  21.879  1.00  0.00     0.004 C 
ENDBRANCH  17  18
ENDBRANCH  16  17
ENDBRANCH  15  16
ENDBRANCH  14  15
ENDBRANCH  13  14
ENDBRANCH  12  13
ENDBRANCH   1  12
TORSDOF 14
ENDMDL
MODEL 7
REMARK VINA RESULT:    -4.256      2.843      4.947
REMARK INTER + INTRA:          -9.010
REMARK INTER:                  -7.180
REMARK INTRA:                  -1.830
REMARK UNBOUND:                -1.271
REMARK SMILES CCCCCCCCCCCCCC[C@H](C)C(=O)[O-]
REMARK SMILES IDX 9 1 10 2 11 3 12 4 13 5 14 6 15 7 16 8 17 9 18 10 19 11 8 12
REMARK SMILES IDX 7 13 6 14 5 15 4 16 3 17 2 18 1 19
REMARK H PARENT
REMARK Flexibility Score: inf
ROOT
ATOM      1  C   UNL     1      73.319 -36.995   9.590  1.00  0.00     0.000 C 
ENDROOT
BRANCH   1   2
ATOM      2  C   UNL     1      72.821 -36.860  11.047  1.00  0.00     0.000 C 
BRANCH   2   3
ATOM      3  C   UNL     1      72.448 -38.219  11.663  1.00  0.00     0.000 C 
BRANCH   3   4
ATOM      4  C   UNL     1      70.947 -38.540  11.545  1.00  0.00     0.000 C 
BRANCH   4   5
ATOM      5  C   UNL     1      70.617 -39.929  10.962  1.00  0.00     0.001 C 
BRANCH   5   6
ATOM      6  C   UNL     1      69.658 -39.928   9.755  1.00  0.00     0.009 C 
BRANCH   6   7
ATOM      7  C   UNL     1      68.199 -40.321  10.079  1.00  0.00     0.032 C 
ATOM      8  C   UNL     1      67.760 -41.590   9.337  1.00  0.00     0.014 C 
BRANCH   7   9
ATOM      9  C   UNL     1      67.283 -39.182   9.724  1.00  0.00     0.044 C 
ATOM     10  O   UNL     1      67.515 -38.024  10.162  1.00  0.00    -0.550 OA
ATOM     11  O   UNL     1      66.192 -39.392   8.890  1.00  0.00    -0.550 OA
ENDBRANCH   7   9
ENDBRANCH   6   7
ENDBRANCH   5   6
ENDBRANCH   4   5
ENDBRANCH   3   4
ENDBRANCH   2   3
ENDBRANCH   1   2
BRANCH   1  12
ATOM     12  C   UNL     1      72.616 -36.048   8.602  1.00  0.00     0.000 C 
BRANCH  12  13
ATOM     13  C   UNL     1      71.509 -36.744   7.794  1.00  0.00    -0.000 C 
BRANCH  13  14
ATOM     14  C   UNL     1      70.112 -36.574   8.415  1.00  0.00    -0.000 C 
BRANCH  14  15
ATOM     15  C   UNL     1      69.134 -35.673   7.630  1.00  0.00    -0.000 C 
BRANCH  15  16
ATOM     16  C   UNL     1      69.780 -34.769   6.560  1.00  0.00    -0.000 C 
BRANCH  16  17
ATOM     17  C   UNL     1      69.894 -33.285   6.975  1.00  0.00    -0.000 C 
BRANCH  17  18
ATOM     18  C   UNL     1      71.310 -32.709   6.812  1.00  0.00    -0.003 C 
ATOM     19  C   UNL     1      72.188 -33.544   5.884  1.00  0.00     0.004 C 
ENDBRANCH  17  18
ENDBRANCH  16  17
ENDBRANCH  15  16
ENDBRANCH  14  15
ENDBRANCH  13  14
ENDBRANCH  12  13
ENDBRANCH   1  12
TORSDOF 14
ENDMDL
MODEL 8
REMARK VINA RESULT:    -4.226      8.990     10.682
REMARK INTER + INTRA:          -8.956
REMARK INTER:                  -7.919
REMARK INTRA:                  -1.037
REMARK UNBOUND:                -1.271
REMARK SMILES CCCCCCCCCCCCCC[C@H](C)C(=O)[O-]
REMARK SMILES IDX 9 1 10 2 11 3 12 4 13 5 14 6 15 7 16 8 17 9 18 10 19 11 8 12
REMARK SMILES IDX 7 13 6 14 5 15 4 16 3 17 2 18 1 19
REMARK H PARENT
REMARK Flexibility Score: inf
ROOT
ATOM      1  C   UNL     1      62.097 -32.945  16.036  1.00  0.00     0.000 C 
ENDROOT
BRANCH   1   2
ATOM      2  C   UNL     1      61.695 -34.370  15.594  1.00  0.00     0.000 C 
BRANCH   2   3
ATOM      3  C   UNL     1      62.698 -34.975  14.597  1.00  0.00     0.000 C 
BRANCH   3   4
ATOM      4  C   UNL     1      64.162 -34.662  14.954  1.00  0.00     0.000 C 
BRANCH   4   5
ATOM      5  C   UNL     1      65.213 -35.538  14.241  1.00  0.00     0.001 C 
BRANCH   5   6
ATOM      6  C   UNL     1      65.423 -35.231  12.745  1.00  0.00     0.009 C 
BRANCH   6   7
ATOM      7  C   UNL     1      64.893 -36.312  11.775  1.00  0.00     0.032 C 
ATOM      8  C   UNL     1      64.561 -37.626  12.494  1.00  0.00     0.014 C 
BRANCH   7   9
ATOM      9  C   UNL     1      65.915 -36.564  10.701  1.00  0.00     0.044 C 
ATOM     10  O   UNL     1      66.987 -37.166  10.976  1.00  0.00    -0.550 OA
ATOM     11  O   UNL     1      65.675 -36.161   9.393  1.00  0.00    -0.550 OA
ENDBRANCH   7   9
ENDBRANCH   6   7
ENDBRANCH   5   6
ENDBRANCH   4   5
ENDBRANCH   3   4
ENDBRANCH   2   3
ENDBRANCH   1   2
BRANCH   1  12
ATOM     12  C   UNL     1      61.515 -31.831  15.148  1.00  0.00     0.000 C 
BRANCH  12  13
ATOM     13  C   UNL     1      62.421 -31.484  13.955  1.00  0.00    -0.000 C 
BRANCH  13  14
ATOM     14  C   UNL     1      62.757 -29.985  13.870  1.00  0.00    -0.000 C 
BRANCH  14  15
ATOM     15  C   UNL     1      63.156 -29.311  15.200  1.00  0.00    -0.000 C 
BRANCH  15  16
ATOM     16  C   UNL     1      62.166 -28.255  15.732  1.00  0.00    -0.000 C 
BRANCH  16  17
ATOM     17  C   UNL     1      61.709 -27.229  14.671  1.00  0.00    -0.000 C 
BRANCH  17  18
ATOM     18  C   UNL     1      62.873 -26.537  13.943  1.00  0.00    -0.003 C 
ATOM     19  C   UNL     1      62.556 -26.216  12.485  1.00  0.00     0.004 C 
ENDBRANCH  17  18
ENDBRANCH  16  17
ENDBRANCH  15  16
ENDBRANCH  14  15
ENDBRANCH  13  14
ENDBRANCH  12  13
ENDBRANCH   1  12
TORSDOF 14
ENDMDL
MODEL 9
REMARK VINA RESULT:    -4.207     11.839     14.545
REMARK INTER + INTRA:          -8.921
REMARK INTER:                  -6.611
REMARK INTRA:                  -2.310
REMARK UNBOUND:                -1.271
REMARK SMILES CCCCCCCCCCCCCC[C@H](C)C(=O)[O-]
REMARK SMILES IDX 9 1 10 2 11 3 12 4 13 5 14 6 15 7 16 8 17 9 18 10 19 11 8 12
REMARK SMILES IDX 7 13 6 14 5 15 4 16 3 17 2 18 1 19
REMARK H PARENT
REMARK Flexibility Score: inf
ROOT
ATOM      1  C   UNL     1      72.094 -31.555  23.207  1.00  0.00     0.000 C 
ENDROOT
BRANCH   1   2
ATOM      2  C   UNL     1      71.652 -31.038  21.820  1.00  0.00     0.000 C 
BRANCH   2   3
ATOM      3  C   UNL     1      71.354 -32.185  20.839  1.00  0.00     0.000 C 
BRANCH   3   4
ATOM      4  C   UNL     1      72.296 -32.195  19.622  1.00  0.00     0.000 C 
BRANCH   4   5
ATOM      5  C   UNL     1      72.099 -31.030  18.630  1.00  0.00     0.001 C 
BRANCH   5   6
ATOM      6  C   UNL     1      73.190 -29.941  18.665  1.00  0.00     0.009 C 
BRANCH   6   7
ATOM      7  C   UNL     1      72.663 -28.491  18.736  1.00  0.00     0.032 C 
ATOM      8  C   UNL     1      71.231 -28.417  19.283  1.00  0.00     0.014 C 
BRANCH   7   9
ATOM      9  C   UNL     1      72.716 -27.872  17.366  1.00  0.00     0.044 C 
ATOM     10  O   UNL     1      73.129 -26.690  17.221  1.00  0.00    -0.550 OA
ATOM     11  O   UNL     1      72.337 -28.605  16.248  1.00  0.00    -0.550 OA
ENDBRANCH   7   9
ENDBRANCH   6   7
ENDBRANCH   5   6
ENDBRANCH   4   5
ENDBRANCH   3   4
ENDBRANCH   2   3
ENDBRANCH   1   2
BRANCH   1  12
ATOM     12  C   UNL     1      73.504 -31.099  23.620  1.00  0.00     0.000 C 
BRANCH  12  13
ATOM     13  C   UNL     1      74.374 -30.687  22.421  1.00  0.00    -0.000 C 
BRANCH  13  14
ATOM     14  C   UNL     1      75.522 -31.674  22.143  1.00  0.00    -0.000 C 
BRANCH  14  15
ATOM     15  C   UNL     1      75.096 -33.107  21.758  1.00  0.00    -0.000 C 
BRANCH  15  16
ATOM     16  C   UNL     1      75.504 -34.210  22.755  1.00  0.00    -0.000 C 
BRANCH  16  17
ATOM     17  C   UNL     1      74.312 -34.894  23.462  1.00  0.00    -0.000 C 
BRANCH  17  18
ATOM     18  C   UNL     1      73.085 -35.081  22.555  1.00  0.00    -0.003 C 
ATOM     19  C   UNL     1      73.093 -36.415  21.813  1.00  0.00     0.004 C 
ENDBRANCH  17  18
ENDBRANCH  16  17
ENDBRANCH  15  16
ENDBRANCH  14  15
ENDBRANCH  13  14
ENDBRANCH  12  13
ENDBRANCH   1  12
TORSDOF 14
ENDMDL
