MODEL 1
REMARK VINA RESULT:    -5.545      0.000      0.000
REMARK INTER + INTRA:          -5.545
REMARK INTER:                  -5.545
REMARK INTRA:                   0.000
REMARK UNBOUND:                 0.000
REMARK SMILES CC1=CC(=O)[C@H]2C[C@@H]1C2(C)C
REMARK SMILES IDX 1 1 2 2 3 3 4 4 5 5 6 6 7 7 8 8 9 9 10 10 11 11
REMARK H PARENT
REMARK Flexibility Score: inf
ROOT
ATOM      1  C   UNL     1       4.780  16.179  -9.117  1.00  0.00     0.040 C 
ATOM      2  C   UNL     1       4.120  15.379  -8.039  1.00  0.00    -0.066 C 
ATOM      3  C   UNL     1       4.116  15.779  -6.736  1.00  0.00     0.047 C 
ATOM      4  C   UNL     1       3.416  14.874  -5.767  1.00  0.00     0.159 C 
ATOM      5  O   UNL     1       3.381  15.110  -4.532  1.00  0.00    -0.295 OA
ATOM      6  C   UNL     1       2.750  13.644  -6.386  1.00  0.00     0.067 C 
ATOM      7  C   UNL     1       2.011  14.197  -7.624  1.00  0.00     0.021 C 
ATOM      8  C   UNL     1       3.358  14.080  -8.372  1.00  0.00     0.022 C 
ATOM      9  C   UNL     1       3.759  12.970  -7.359  1.00  0.00    -0.019 C 
ATOM     10  C   UNL     1       3.293  11.563  -7.810  1.00  0.00     0.012 C 
ATOM     11  C   UNL     1       5.250  12.874  -6.926  1.00  0.00     0.012 C 
ENDROOT
TORSDOF 0
ENDMDL
MODEL 2
REMARK VINA RESULT:    -5.520      1.863      3.007
REMARK INTER + INTRA:          -5.520
REMARK INTER:                  -5.520
REMARK INTRA:                   0.000
REMARK UNBOUND:                 0.000
REMARK SMILES CC1=CC(=O)[C@H]2C[C@@H]1C2(C)C
REMARK SMILES IDX 1 1 2 2 3 3 4 4 5 5 6 6 7 7 8 8 9 9 10 10 11 11
REMARK H PARENT
REMARK Flexibility Score: inf
ROOT
ATOM      1  C   UNL     1       2.282  15.615  -5.702  1.00  0.00     0.040 C 
ATOM      2  C   UNL     1       2.778  14.603  -6.686  1.00  0.00    -0.066 C 
ATOM      3  C   UNL     1       2.500  13.275  -6.566  1.00  0.00     0.047 C 
ATOM      4  C   UNL     1       3.066  12.380  -7.627  1.00  0.00     0.159 C 
ATOM      5  O   UNL     1       2.916  11.131  -7.604  1.00  0.00    -0.295 OA
ATOM      6  C   UNL     1       3.839  13.092  -8.738  1.00  0.00     0.067 C 
ATOM      7  C   UNL     1       2.942  14.292  -9.114  1.00  0.00     0.021 C 
ATOM      8  C   UNL     1       3.589  15.036  -7.924  1.00  0.00     0.022 C 
ATOM      9  C   UNL     1       4.824  14.104  -8.086  1.00  0.00    -0.019 C 
ATOM     10  C   UNL     1       5.855  14.661  -9.101  1.00  0.00     0.012 C 
ATOM     11  C   UNL     1       5.590  13.669  -6.804  1.00  0.00     0.012 C 
ENDROOT
TORSDOF 0
ENDMDL
MODEL 3
REMARK VINA RESULT:    -5.516      2.099      3.422
REMARK INTER + INTRA:          -5.516
REMARK INTER:                  -5.516
REMARK INTRA:                   0.000
REMARK UNBOUND:                 0.000
REMARK SMILES CC1=CC(=O)[C@H]2C[C@@H]1C2(C)C
REMARK SMILES IDX 1 1 2 2 3 3 4 4 5 5 6 6 7 7 8 8 9 9 10 10 11 11
REMARK H PARENT
REMARK Flexibility Score: inf
ROOT
ATOM      1  C   UNL     1       3.376  11.046  -8.911  1.00  0.00     0.040 C 
ATOM      2  C   UNL     1       3.813  12.466  -8.734  1.00  0.00    -0.066 C 
ATOM      3  C   UNL     1       5.051  12.898  -9.105  1.00  0.00     0.047 C 
ATOM      4  C   UNL     1       5.348  14.347  -8.865  1.00  0.00     0.159 C 
ATOM      5  O   UNL     1       6.469  14.856  -9.125  1.00  0.00    -0.295 OA
ATOM      6  C   UNL     1       4.192  15.163  -8.284  1.00  0.00     0.067 C 
ATOM      7  C   UNL     1       2.968  14.736  -9.122  1.00  0.00     0.021 C 
ATOM      8  C   UNL     1       2.846  13.526  -8.169  1.00  0.00     0.022 C 
ATOM      9  C   UNL     1       3.580  14.375  -7.091  1.00  0.00    -0.019 C 
ATOM     10  C   UNL     1       2.604  15.237  -6.252  1.00  0.00     0.012 C 
ATOM     11  C   UNL     1       4.546  13.645  -6.114  1.00  0.00     0.012 C 
ENDROOT
TORSDOF 0
ENDMDL
MODEL 4
REMARK VINA RESULT:    -5.341      2.143      3.239
REMARK INTER + INTRA:          -5.341
REMARK INTER:                  -5.341
REMARK INTRA:                   0.000
REMARK UNBOUND:                 0.000
REMARK SMILES CC1=CC(=O)[C@H]2C[C@@H]1C2(C)C
REMARK SMILES IDX 1 1 2 2 3 3 4 4 5 5 6 6 7 7 8 8 9 9 10 10 11 11
REMARK H PARENT
REMARK Flexibility Score: inf
ROOT
ATOM      1  C   UNL     1       6.408  14.301  -9.125  1.00  0.00     0.040 C 
ATOM      2  C   UNL     1       5.251  13.715  -8.378  1.00  0.00    -0.066 C 
ATOM      3  C   UNL     1       4.732  12.493  -8.685  1.00  0.00     0.047 C 
ATOM      4  C   UNL     1       3.573  12.037  -7.852  1.00  0.00     0.159 C 
ATOM      5  O   UNL     1       2.979  10.949  -8.064  1.00  0.00    -0.295 OA
ATOM      6  C   UNL     1       3.163  12.988  -6.726  1.00  0.00     0.067 C 
ATOM      7  C   UNL     1       4.500  13.390  -6.066  1.00  0.00     0.021 C 
ATOM      8  C   UNL     1       4.628  14.456  -7.178  1.00  0.00     0.022 C 
ATOM      9  C   UNL     1       3.078  14.431  -7.302  1.00  0.00    -0.019 C 
ATOM     10  C   UNL     1       2.391  15.417  -6.324  1.00  0.00     0.012 C 
ATOM     11  C   UNL     1       2.450  14.627  -8.712  1.00  0.00     0.012 C 
ENDROOT
TORSDOF 0
ENDMDL
MODEL 5
REMARK VINA RESULT:    -4.766      1.650      2.995
REMARK INTER + INTRA:          -4.766
REMARK INTER:                  -4.766
REMARK INTRA:                   0.000
REMARK UNBOUND:                 0.000
REMARK SMILES CC1=CC(=O)[C@H]2C[C@@H]1C2(C)C
REMARK SMILES IDX 1 1 2 2 3 3 4 4 5 5 6 6 7 7 8 8 9 9 10 10 11 11
REMARK H PARENT
REMARK Flexibility Score: inf
ROOT
ATOM      1  C   UNL     1       6.342  12.603  -5.375  1.00  0.00     0.040 C 
ATOM      2  C   UNL     1       5.574  13.193  -6.516  1.00  0.00    -0.066 C 
ATOM      3  C   UNL     1       5.214  14.507  -6.548  1.00  0.00     0.047 C 
ATOM      4  C   UNL     1       4.446  14.954  -7.755  1.00  0.00     0.159 C 
ATOM      5  O   UNL     1       4.020  16.131  -7.883  1.00  0.00    -0.295 OA
ATOM      6  C   UNL     1       4.216  13.879  -8.819  1.00  0.00     0.067 C 
ATOM      7  C   UNL     1       5.593  13.196  -8.969  1.00  0.00     0.021 C 
ATOM      8  C   UNL     1       5.203  12.338  -7.744  1.00  0.00     0.022 C 
ATOM      9  C   UNL     1       3.712  12.586  -8.116  1.00  0.00    -0.019 C 
ATOM     10  C   UNL     1       3.173  11.540  -9.124  1.00  0.00     0.012 C 
ATOM     11  C   UNL     1       2.680  12.727  -6.962  1.00  0.00     0.012 C 
ENDROOT
TORSDOF 0
ENDMDL
MODEL 6
REMARK VINA RESULT:    -4.537      2.141      3.661
REMARK INTER + INTRA:          -4.537
REMARK INTER:                  -4.537
REMARK INTRA:                   0.000
REMARK UNBOUND:                 0.000
REMARK SMILES CC1=CC(=O)[C@H]2C[C@@H]1C2(C)C
REMARK SMILES IDX 1 1 2 2 3 3 4 4 5 5 6 6 7 7 8 8 9 9 10 10 11 11
REMARK H PARENT
REMARK Flexibility Score: inf
ROOT
ATOM      1  C   UNL     1       6.386  12.565  -5.497  1.00  0.00     0.040 C 
ATOM      2  C   UNL     1       5.319  12.788  -6.523  1.00  0.00    -0.066 C 
ATOM      3  C   UNL     1       4.858  11.786  -7.322  1.00  0.00     0.047 C 
ATOM      4  C   UNL     1       3.788  12.159  -8.303  1.00  0.00     0.159 C 
ATOM      5  O   UNL     1       3.312  11.334  -9.125  1.00  0.00    -0.295 OA
ATOM      6  C   UNL     1       3.318  13.613  -8.236  1.00  0.00     0.067 C 
ATOM      7  C   UNL     1       3.132  13.880  -6.726  1.00  0.00     0.021 C 
ATOM      8  C   UNL     1       4.649  14.169  -6.679  1.00  0.00     0.022 C 
ATOM      9  C   UNL     1       4.568  14.537  -8.189  1.00  0.00    -0.019 C 
ATOM     10  C   UNL     1       4.210  16.027  -8.414  1.00  0.00     0.012 C 
ATOM     11  C   UNL     1       5.781  14.185  -9.097  1.00  0.00     0.012 C 
ENDROOT
TORSDOF 0
ENDMDL
MODEL 7
REMARK VINA RESULT:    -3.772      1.551      2.442
REMARK INTER + INTRA:          -3.772
REMARK INTER:                  -3.772
REMARK INTRA:                   0.000
REMARK UNBOUND:                 0.000
REMARK SMILES CC1=CC(=O)[C@H]2C[C@@H]1C2(C)C
REMARK SMILES IDX 1 1 2 2 3 3 4 4 5 5 6 6 7 7 8 8 9 9 10 10 11 11
REMARK H PARENT
REMARK Flexibility Score: inf
ROOT
ATOM      1  C   UNL     1       3.582  17.665  -5.770  1.00  0.00     0.040 C 
ATOM      2  C   UNL     1       3.721  16.220  -6.135  1.00  0.00    -0.066 C 
ATOM      3  C   UNL     1       4.784  15.468  -5.735  1.00  0.00     0.047 C 
ATOM      4  C   UNL     1       4.787  14.036  -6.179  1.00  0.00     0.159 C 
ATOM      5  O   UNL     1       5.733  13.251  -5.910  1.00  0.00    -0.295 OA
ATOM      6  C   UNL     1       3.561  13.598  -6.981  1.00  0.00     0.067 C 
ATOM      7  C   UNL     1       2.366  14.176  -6.191  1.00  0.00     0.021 C 
ATOM      8  C   UNL     1       2.622  15.501  -6.944  1.00  0.00     0.022 C 
ATOM      9  C   UNL     1       3.280  14.663  -8.078  1.00  0.00    -0.019 C 
ATOM     10  C   UNL     1       2.247  14.174  -9.125  1.00  0.00     0.012 C 
ATOM     11  C   UNL     1       4.490  15.277  -8.839  1.00  0.00     0.012 C 
ENDROOT
TORSDOF 0
ENDMDL
