MODEL 1
REMARK VINA RESULT:    -1.542      0.000      0.000
REMARK INTER + INTRA:          -1.542
REMARK INTER:                  -1.542
REMARK INTRA:                   0.000
REMARK UNBOUND:                 0.000
REMARK SMILES CC(=O)[O-]
REMARK SMILES IDX 1 1 2 2 3 3 4 4
REMARK H PARENT
REMARK Flexibility Score: inf
ROOT
ATOM      1  C   UNL     1      46.302  19.495 133.449  1.00  0.00     0.063 C 
ATOM      2  C   UNL     1      46.450  20.970 133.613  1.00  0.00     0.038 C 
ATOM      3  O   UNL     1      46.397  21.724 132.607  1.00  0.00    -0.550 OA
ATOM      4  O   UNL     1      46.594  21.518 134.880  1.00  0.00    -0.550 OA
ENDROOT
TORSDOF 0
ENDMDL
MODEL 2
REMARK VINA RESULT:    -1.520     12.922     13.498
REMARK INTER + INTRA:          -1.520
REMARK INTER:                  -1.520
REMARK INTRA:                   0.000
REMARK UNBOUND:                 0.000
REMARK SMILES CC(=O)[O-]
REMARK SMILES IDX 1 1 2 2 3 3 4 4
REMARK H PARENT
REMARK Flexibility Score: inf
ROOT
ATOM      1  C   UNL     1      54.064  19.454 145.955  1.00  0.00     0.063 C 
ATOM      2  C   UNL     1      52.997  20.236 145.266  1.00  0.00     0.038 C 
ATOM      3  O   UNL     1      52.678  21.377 145.689  1.00  0.00    -0.550 OA
ATOM      4  O   UNL     1      52.389  19.728 144.125  1.00  0.00    -0.550 OA
ENDROOT
TORSDOF 0
ENDMDL
MODEL 3
REMARK VINA RESULT:    -1.520      9.946     10.189
REMARK INTER + INTRA:          -1.520
REMARK INTER:                  -1.520
REMARK INTRA:                   0.000
REMARK UNBOUND:                 0.000
REMARK SMILES CC(=O)[O-]
REMARK SMILES IDX 1 1 2 2 3 3 4 4
REMARK H PARENT
REMARK Flexibility Score: inf
ROOT
ATOM      1  C   UNL     1      55.775  22.193 128.825  1.00  0.00     0.063 C 
ATOM      2  C   UNL     1      55.324  20.781 128.988  1.00  0.00     0.038 C 
ATOM      3  O   UNL     1      55.557  19.936 128.085  1.00  0.00    -0.550 OA
ATOM      4  O   UNL     1      54.694  20.382 130.160  1.00  0.00    -0.550 OA
ENDROOT
TORSDOF 0
ENDMDL
MODEL 4
REMARK VINA RESULT:    -1.505     10.076     10.381
REMARK INTER + INTRA:          -1.505
REMARK INTER:                  -1.505
REMARK INTRA:                   0.000
REMARK UNBOUND:                 0.000
REMARK SMILES CC(=O)[O-]
REMARK SMILES IDX 1 1 2 2 3 3 4 4
REMARK H PARENT
REMARK Flexibility Score: inf
ROOT
ATOM      1  C   UNL     1      54.199  20.801 129.530  1.00  0.00     0.063 C 
ATOM      2  C   UNL     1      55.396  20.713 128.645  1.00  0.00     0.038 C 
ATOM      3  O   UNL     1      56.240  21.647 128.630  1.00  0.00    -0.550 OA
ATOM      4  O   UNL     1      55.611  19.577 127.876  1.00  0.00    -0.550 OA
ENDROOT
TORSDOF 0
ENDMDL
MODEL 5
REMARK VINA RESULT:    -1.499      1.482      1.801
REMARK INTER + INTRA:          -1.499
REMARK INTER:                  -1.499
REMARK INTRA:                   0.000
REMARK UNBOUND:                 0.000
REMARK SMILES CC(=O)[O-]
REMARK SMILES IDX 1 1 2 2 3 3 4 4
REMARK H PARENT
REMARK Flexibility Score: inf
ROOT
ATOM      1  C   UNL     1      46.861  21.482 134.620  1.00  0.00     0.063 C 
ATOM      2  C   UNL     1      46.277  20.687 133.501  1.00  0.00     0.038 C 
ATOM      3  O   UNL     1      45.883  21.266 132.455  1.00  0.00    -0.550 OA
ATOM      4  O   UNL     1      46.216  19.303 133.588  1.00  0.00    -0.550 OA
ENDROOT
TORSDOF 0
ENDMDL
MODEL 6
REMARK VINA RESULT:    -1.482     14.038     14.463
REMARK INTER + INTRA:          -1.482
REMARK INTER:                  -1.482
REMARK INTRA:                   0.000
REMARK UNBOUND:                 0.000
REMARK SMILES CC(=O)[O-]
REMARK SMILES IDX 1 1 2 2 3 3 4 4
REMARK H PARENT
REMARK Flexibility Score: inf
ROOT
ATOM      1  C   UNL     1      50.076  23.504 146.307  1.00  0.00     0.063 C 
ATOM      2  C   UNL     1      49.192  23.841 147.459  1.00  0.00     0.038 C 
ATOM      3  O   UNL     1      48.336  23.012 147.861  1.00  0.00    -0.550 OA
ATOM      4  O   UNL     1      49.347  25.050 148.125  1.00  0.00    -0.550 OA
ENDROOT
TORSDOF 0
ENDMDL
MODEL 7
REMARK VINA RESULT:    -1.463      7.449      7.865
REMARK INTER + INTRA:          -1.463
REMARK INTER:                  -1.463
REMARK INTRA:                   0.000
REMARK UNBOUND:                 0.000
REMARK SMILES CC(=O)[O-]
REMARK SMILES IDX 1 1 2 2 3 3 4 4
REMARK H PARENT
REMARK Flexibility Score: inf
ROOT
ATOM      1  C   UNL     1      51.536  21.013 128.412  1.00  0.00     0.063 C 
ATOM      2  C   UNL     1      51.589  19.530 128.259  1.00  0.00     0.038 C 
ATOM      3  O   UNL     1      50.528  18.875 128.091  1.00  0.00    -0.550 OA
ATOM      4  O   UNL     1      52.813  18.875 128.249  1.00  0.00    -0.550 OA
ENDROOT
TORSDOF 0
ENDMDL
MODEL 8
REMARK VINA RESULT:    -1.429     24.984     25.334
REMARK INTER + INTRA:          -1.429
REMARK INTER:                  -1.429
REMARK INTRA:                   0.000
REMARK UNBOUND:                 0.000
REMARK SMILES CC(=O)[O-]
REMARK SMILES IDX 1 1 2 2 3 3 4 4
REMARK H PARENT
REMARK Flexibility Score: inf
ROOT
ATOM      1  C   UNL     1      63.870  36.643 128.117  1.00  0.00     0.063 C 
ATOM      2  C   UNL     1      65.260  37.093 128.412  1.00  0.00     0.038 C 
ATOM      3  O   UNL     1      65.712  38.138 127.875  1.00  0.00    -0.550 OA
ATOM      4  O   UNL     1      66.042  36.391 129.320  1.00  0.00    -0.550 OA
ENDROOT
TORSDOF 0
ENDMDL
