MODEL 1
REMARK VINA RESULT:    -4.848      0.000      0.000
REMARK INTER + INTRA:          -5.287
REMARK INTER:                  -5.274
REMARK INTRA:                  -0.013
REMARK UNBOUND:                -0.013
REMARK SMILES OCc1ccccc1
REMARK SMILES IDX 2 1 3 2 6 3 5 4 7 5 4 6 8 7 1 8
REMARK H PARENT 1 9
REMARK Flexibility Score: inf
ROOT
ATOM      1  C   UNL     1      -3.714  -4.413   9.040  1.00  0.00     0.191 C 
ENDROOT
BRANCH   1   2
ATOM      2  C   UNL     1      -5.016  -3.697   8.813  1.00  0.00    -0.023 A 
ATOM      3  C   UNL     1      -7.486  -2.428   8.408  1.00  0.00     0.000 A 
ATOM      4  C   UNL     1      -6.830  -3.038   7.335  1.00  0.00     0.000 A 
ATOM      5  C   UNL     1      -6.918  -2.460   9.684  1.00  0.00     0.000 A 
ATOM      6  C   UNL     1      -5.601  -3.675   7.536  1.00  0.00     0.006 A 
ATOM      7  C   UNL     1      -5.690  -3.096   9.890  1.00  0.00     0.006 A 
ENDBRANCH   1   2
BRANCH   1   8
ATOM      8  O   UNL     1      -2.776  -4.023   8.074  1.00  0.00    -0.392 OA
ATOM      9  H   UNL     1      -2.449  -4.856   7.644  1.00  0.00     0.211 HD
ENDBRANCH   1   8
TORSDOF 2
ENDMDL
MODEL 2
REMARK VINA RESULT:    -4.841      0.064      1.714
REMARK INTER + INTRA:          -5.279
REMARK INTER:                  -5.264
REMARK INTRA:                  -0.015
REMARK UNBOUND:                -0.013
REMARK SMILES OCc1ccccc1
REMARK SMILES IDX 2 1 3 2 6 3 5 4 7 5 4 6 8 7 1 8
REMARK H PARENT 1 9
REMARK Flexibility Score: inf
ROOT
ATOM      1  C   UNL     1      -3.690  -4.421   9.097  1.00  0.00     0.191 C 
ENDROOT
BRANCH   1   2
ATOM      2  C   UNL     1      -5.009  -3.748   8.840  1.00  0.00    -0.023 A 
ATOM      3  C   UNL     1      -7.433  -2.425   8.343  1.00  0.00     0.000 A 
ATOM      4  C   UNL     1      -6.906  -2.455   9.637  1.00  0.00     0.000 A 
ATOM      5  C   UNL     1      -6.748  -3.045   7.295  1.00  0.00     0.000 A 
ATOM      6  C   UNL     1      -5.696  -3.110   9.886  1.00  0.00     0.006 A 
ATOM      7  C   UNL     1      -5.537  -3.700   7.539  1.00  0.00     0.006 A 
ENDBRANCH   1   2
BRANCH   1   8
ATOM      8  O   UNL     1      -2.758  -4.042   8.121  1.00  0.00    -0.392 OA
ATOM      9  H   UNL     1      -2.055  -3.519   8.589  1.00  0.00     0.211 HD
ENDBRANCH   1   8
TORSDOF 2
ENDMDL
MODEL 3
REMARK VINA RESULT:    -4.444      1.992      2.436
REMARK INTER + INTRA:          -4.847
REMARK INTER:                  -4.828
REMARK INTRA:                  -0.019
REMARK UNBOUND:                -0.013
REMARK SMILES OCc1ccccc1
REMARK SMILES IDX 2 1 3 2 6 3 5 4 7 5 4 6 8 7 1 8
REMARK H PARENT 1 9
REMARK Flexibility Score: inf
ROOT
ATOM      1  C   UNL     1      -5.933  -3.916   7.112  1.00  0.00     0.191 C 
ENDROOT
BRANCH   1   2
ATOM      2  C   UNL     1      -6.713  -2.885   7.881  1.00  0.00    -0.023 A 
ATOM      3  C   UNL     1      -8.229  -1.011   9.318  1.00  0.00     0.000 A 
ATOM      4  C   UNL     1      -8.208  -0.970   7.921  1.00  0.00     0.000 A 
ATOM      5  C   UNL     1      -7.503  -1.992   9.999  1.00  0.00     0.000 A 
ATOM      6  C   UNL     1      -7.457  -1.906   7.203  1.00  0.00     0.006 A 
ATOM      7  C   UNL     1      -6.751  -2.930   9.285  1.00  0.00     0.006 A 
ENDBRANCH   1   2
BRANCH   1   8
ATOM      8  O   UNL     1      -5.907  -3.582   5.751  1.00  0.00    -0.392 OA
ATOM      9  H   UNL     1      -4.965  -3.681   5.454  1.00  0.00     0.211 HD
ENDBRANCH   1   8
TORSDOF 2
ENDMDL
MODEL 4
REMARK VINA RESULT:    -4.387      1.296      2.080
REMARK INTER + INTRA:          -4.785
REMARK INTER:                  -4.766
REMARK INTRA:                  -0.020
REMARK UNBOUND:                -0.013
REMARK SMILES OCc1ccccc1
REMARK SMILES IDX 2 1 3 2 6 3 5 4 7 5 4 6 8 7 1 8
REMARK H PARENT 1 9
REMARK Flexibility Score: inf
ROOT
ATOM      1  C   UNL     1      -3.927  -3.363   9.679  1.00  0.00     0.191 C 
ENDROOT
BRANCH   1   2
ATOM      2  C   UNL     1      -4.940  -3.310   8.569  1.00  0.00    -0.023 A 
ATOM      3  C   UNL     1      -6.775  -3.178   6.451  1.00  0.00     0.000 A 
ATOM      4  C   UNL     1      -6.697  -2.131   7.374  1.00  0.00     0.000 A 
ATOM      5  C   UNL     1      -5.932  -4.285   6.577  1.00  0.00     0.000 A 
ATOM      6  C   UNL     1      -5.780  -2.193   8.428  1.00  0.00     0.006 A 
ATOM      7  C   UNL     1      -5.013  -4.351   7.628  1.00  0.00     0.006 A 
ENDBRANCH   1   2
BRANCH   1   8
ATOM      8  O   UNL     1      -3.233  -4.580   9.639  1.00  0.00    -0.392 OA
ATOM      9  H   UNL     1      -2.809  -4.635   8.743  1.00  0.00     0.211 HD
ENDBRANCH   1   8
TORSDOF 2
ENDMDL
MODEL 5
REMARK VINA RESULT:    -4.342      1.355      2.244
REMARK INTER + INTRA:          -4.736
REMARK INTER:                  -4.722
REMARK INTRA:                  -0.014
REMARK UNBOUND:                -0.013
REMARK SMILES OCc1ccccc1
REMARK SMILES IDX 2 1 3 2 6 3 5 4 7 5 4 6 8 7 1 8
REMARK H PARENT 1 9
REMARK Flexibility Score: inf
ROOT
ATOM      1  C   UNL     1      -5.561  -4.492   6.881  1.00  0.00     0.191 C 
ENDROOT
BRANCH   1   2
ATOM      2  C   UNL     1      -6.292  -3.463   7.698  1.00  0.00    -0.023 A 
ATOM      3  C   UNL     1      -7.594  -1.494   9.215  1.00  0.00     0.000 A 
ATOM      4  C   UNL     1      -6.820  -2.468   9.852  1.00  0.00     0.000 A 
ATOM      5  C   UNL     1      -7.711  -1.494   7.823  1.00  0.00     0.000 A 
ATOM      6  C   UNL     1      -6.166  -3.447   9.097  1.00  0.00     0.006 A 
ATOM      7  C   UNL     1      -7.059  -2.471   7.064  1.00  0.00     0.006 A 
ENDBRANCH   1   2
BRANCH   1   8
ATOM      8  O   UNL     1      -4.209  -4.527   7.249  1.00  0.00    -0.392 OA
ATOM      9  H   UNL     1      -4.160  -5.042   8.097  1.00  0.00     0.211 HD
ENDBRANCH   1   8
TORSDOF 2
ENDMDL
MODEL 6
REMARK VINA RESULT:    -4.325      2.286      3.630
REMARK INTER + INTRA:          -4.718
REMARK INTER:                  -4.699
REMARK INTRA:                  -0.019
REMARK UNBOUND:                -0.013
REMARK SMILES OCc1ccccc1
REMARK SMILES IDX 2 1 3 2 6 3 5 4 7 5 4 6 8 7 1 8
REMARK H PARENT 1 9
REMARK Flexibility Score: inf
ROOT
ATOM      1  C   UNL     1      -7.066  -2.138   9.933  1.00  0.00     0.191 C 
ENDROOT
BRANCH   1   2
ATOM      2  C   UNL     1      -6.011  -2.935   9.218  1.00  0.00    -0.023 A 
ATOM      3  C   UNL     1      -4.068  -4.489   7.919  1.00  0.00     0.000 A 
ATOM      4  C   UNL     1      -3.770  -3.871   9.137  1.00  0.00     0.000 A 
ATOM      5  C   UNL     1      -5.337  -4.340   7.353  1.00  0.00     0.000 A 
ATOM      6  C   UNL     1      -4.738  -3.101   9.788  1.00  0.00     0.006 A 
ATOM      7  C   UNL     1      -6.309  -3.571   8.001  1.00  0.00     0.006 A 
ENDBRANCH   1   2
BRANCH   1   8
ATOM      8  O   UNL     1      -8.341  -2.535   9.506  1.00  0.00    -0.392 OA
ATOM      9  H   UNL     1      -8.356  -3.527   9.544  1.00  0.00     0.211 HD
ENDBRANCH   1   8
TORSDOF 2
ENDMDL
MODEL 7
REMARK VINA RESULT:    -4.316      2.259      3.372
REMARK INTER + INTRA:          -4.708
REMARK INTER:                  -4.698
REMARK INTRA:                  -0.010
REMARK UNBOUND:                -0.013
REMARK SMILES OCc1ccccc1
REMARK SMILES IDX 2 1 3 2 6 3 5 4 7 5 4 6 8 7 1 8
REMARK H PARENT 1 9
REMARK Flexibility Score: inf
ROOT
ATOM      1  C   UNL     1      -7.510  -2.229   8.377  1.00  0.00     0.191 C 
ENDROOT
BRANCH   1   2
ATOM      2  C   UNL     1      -6.218  -2.998   8.410  1.00  0.00    -0.023 A 
ATOM      3  C   UNL     1      -3.774  -4.375   8.430  1.00  0.00     0.000 A 
ATOM      4  C   UNL     1      -4.716  -4.638   7.432  1.00  0.00     0.000 A 
ATOM      5  C   UNL     1      -4.044  -3.418   9.412  1.00  0.00     0.000 A 
ATOM      6  C   UNL     1      -5.933  -3.949   7.417  1.00  0.00     0.006 A 
ATOM      7  C   UNL     1      -5.260  -2.727   9.401  1.00  0.00     0.006 A 
ENDBRANCH   1   2
BRANCH   1   8
ATOM      8  O   UNL     1      -8.311  -2.587   9.470  1.00  0.00    -0.392 OA
ATOM      9  H   UNL     1      -7.694  -2.771  10.226  1.00  0.00     0.211 HD
ENDBRANCH   1   8
TORSDOF 2
ENDMDL
MODEL 8
REMARK VINA RESULT:    -4.205      1.773      2.908
REMARK INTER + INTRA:          -4.587
REMARK INTER:                  -4.572
REMARK INTRA:                  -0.015
REMARK UNBOUND:                -0.013
REMARK SMILES OCc1ccccc1
REMARK SMILES IDX 2 1 3 2 6 3 5 4 7 5 4 6 8 7 1 8
REMARK H PARENT 1 9
REMARK Flexibility Score: inf
ROOT
ATOM      1  C   UNL     1      -6.704  -3.168   6.706  1.00  0.00     0.191 C 
ENDROOT
BRANCH   1   2
ATOM      2  C   UNL     1      -5.863  -2.972   7.937  1.00  0.00    -0.023 A 
ATOM      3  C   UNL     1      -4.243  -2.562  10.191  1.00  0.00     0.000 A 
ATOM      4  C   UNL     1      -4.050  -3.689   9.387  1.00  0.00     0.000 A 
ATOM      5  C   UNL     1      -5.236  -1.634   9.866  1.00  0.00     0.000 A 
ATOM      6  C   UNL     1      -4.853  -3.892   8.260  1.00  0.00     0.006 A 
ATOM      7  C   UNL     1      -6.041  -1.833   8.741  1.00  0.00     0.006 A 
ENDBRANCH   1   2
BRANCH   1   8
ATOM      8  O   UNL     1      -5.899  -3.572   5.632  1.00  0.00    -0.392 OA
ATOM      9  H   UNL     1      -4.959  -3.410   5.906  1.00  0.00     0.211 HD
ENDBRANCH   1   8
TORSDOF 2
ENDMDL
MODEL 9
REMARK VINA RESULT:    -4.166      2.837      3.803
REMARK INTER + INTRA:          -4.545
REMARK INTER:                  -4.529
REMARK INTRA:                  -0.016
REMARK UNBOUND:                -0.013
REMARK SMILES OCc1ccccc1
REMARK SMILES IDX 2 1 3 2 6 3 5 4 7 5 4 6 8 7 1 8
REMARK H PARENT 1 9
REMARK Flexibility Score: inf
ROOT
ATOM      1  C   UNL     1      -8.283  -1.002   9.753  1.00  0.00     0.191 C 
ENDROOT
BRANCH   1   2
ATOM      2  C   UNL     1      -7.462  -1.978   8.956  1.00  0.00    -0.023 A 
ATOM      3  C   UNL     1      -5.871  -3.744   7.466  1.00  0.00     0.000 A 
ATOM      4  C   UNL     1      -6.784  -2.908   6.816  1.00  0.00     0.000 A 
ATOM      5  C   UNL     1      -5.744  -3.694   8.856  1.00  0.00     0.000 A 
ATOM      6  C   UNL     1      -7.574  -2.023   7.557  1.00  0.00     0.006 A 
ATOM      7  C   UNL     1      -6.531  -2.810   9.601  1.00  0.00     0.006 A 
ENDBRANCH   1   2
BRANCH   1   8
ATOM      8  O   UNL     1      -9.550  -0.853   9.173  1.00  0.00    -0.392 OA
ATOM      9  H   UNL     1      -9.980  -0.081   9.626  1.00  0.00     0.211 HD
ENDBRANCH   1   8
TORSDOF 2
ENDMDL
