MODEL 1
REMARK VINA RESULT:    -3.452      0.000      0.000
REMARK INTER + INTRA:          -5.343
REMARK INTER:                  -4.865
REMARK INTRA:                  -0.478
REMARK UNBOUND:                -0.478
REMARK SMILES CCCCCCCCC(=O)[O-]
REMARK SMILES IDX 6 1 7 2 8 3 9 4 10 5 11 6 5 7 4 8 3 9 2 10 1 11
REMARK H PARENT
REMARK Flexibility Score: inf
ROOT
ATOM      1  C   UNL     1      -1.256 -12.088 -14.464  1.00  0.00     0.000 C 
ENDROOT
BRANCH   1   2
ATOM      2  C   UNL     1      -2.379 -13.043 -14.894  1.00  0.00     0.006 C 
BRANCH   2   3
ATOM      3  C   UNL     1      -1.882 -14.492 -14.929  1.00  0.00     0.053 C 
BRANCH   3   4
ATOM      4  C   UNL     1      -1.847 -15.066 -13.549  1.00  0.00     0.041 C 
ATOM      5  O   UNL     1      -0.946 -15.885 -13.225  1.00  0.00    -0.550 OA
ATOM      6  O   UNL     1      -2.838 -14.736 -12.633  1.00  0.00    -0.550 OA
ENDBRANCH   3   4
ENDBRANCH   2   3
ENDBRANCH   1   2
BRANCH   1   7
ATOM      7  C   UNL     1      -1.431 -10.666 -15.027  1.00  0.00     0.000 C 
BRANCH   7   8
ATOM      8  C   UNL     1      -2.323 -10.565 -16.282  1.00  0.00    -0.000 C 
BRANCH   8   9
ATOM      9  C   UNL     1      -3.253  -9.340 -16.325  1.00  0.00    -0.000 C 
BRANCH   9  10
ATOM     10  C   UNL     1      -4.658  -9.677 -16.845  1.00  0.00    -0.003 C 
ATOM     11  C   UNL     1      -5.129 -11.029 -16.319  1.00  0.00     0.004 C 
ENDBRANCH   9  10
ENDBRANCH   8   9
ENDBRANCH   7   8
ENDBRANCH   1   7
TORSDOF 7
ENDMDL
MODEL 2
REMARK VINA RESULT:    -3.424     20.366     21.740
REMARK INTER + INTRA:          -5.304
REMARK INTER:                  -5.014
REMARK INTRA:                  -0.290
REMARK UNBOUND:                -0.478
REMARK SMILES CCCCCCCCC(=O)[O-]
REMARK SMILES IDX 6 1 7 2 8 3 9 4 10 5 11 6 5 7 4 8 3 9 2 10 1 11
REMARK H PARENT
REMARK Flexibility Score: inf
ROOT
ATOM      1  C   UNL     1      11.741  -2.499 -25.194  1.00  0.00     0.000 C 
ENDROOT
BRANCH   1   2
ATOM      2  C   UNL     1      11.540  -1.754 -26.522  1.00  0.00     0.006 C 
BRANCH   2   3
ATOM      3  C   UNL     1      12.616  -0.680 -26.715  1.00  0.00     0.053 C 
BRANCH   3   4
ATOM      4  C   UNL     1      12.565  -0.133 -28.106  1.00  0.00     0.041 C 
ATOM      5  O   UNL     1      13.406  -0.506 -28.966  1.00  0.00    -0.550 OA
ATOM      6  O   UNL     1      11.618   0.827 -28.441  1.00  0.00    -0.550 OA
ENDBRANCH   3   4
ENDBRANCH   2   3
ENDBRANCH   1   2
BRANCH   1   7
ATOM      7  C   UNL     1      13.016  -2.061 -24.450  1.00  0.00     0.000 C 
BRANCH   7   8
ATOM      8  C   UNL     1      13.421  -2.958 -23.262  1.00  0.00    -0.000 C 
BRANCH   8   9
ATOM      9  C   UNL     1      12.390  -3.038 -22.122  1.00  0.00    -0.000 C 
BRANCH   9  10
ATOM     10  C   UNL     1      12.268  -4.449 -21.527  1.00  0.00    -0.003 C 
ATOM     11  C   UNL     1      13.619  -5.158 -21.514  1.00  0.00     0.004 C 
ENDBRANCH   9  10
ENDBRANCH   8   9
ENDBRANCH   7   8
ENDBRANCH   1   7
TORSDOF 7
ENDMDL
MODEL 3
REMARK VINA RESULT:    -3.394     15.541     16.476
REMARK INTER + INTRA:          -5.261
REMARK INTER:                  -4.884
REMARK INTRA:                  -0.377
REMARK UNBOUND:                -0.478
REMARK SMILES CCCCCCCCC(=O)[O-]
REMARK SMILES IDX 6 1 7 2 8 3 9 4 10 5 11 6 5 7 4 8 3 9 2 10 1 11
REMARK H PARENT
REMARK Flexibility Score: inf
ROOT
ATOM      1  C   UNL     1      11.753 -11.617 -21.516  1.00  0.00     0.000 C 
ENDROOT
BRANCH   1   2
ATOM      2  C   UNL     1      11.350 -12.300 -20.201  1.00  0.00     0.006 C 
BRANCH   2   3
ATOM      3  C   UNL     1      12.312 -13.443 -19.860  1.00  0.00     0.053 C 
BRANCH   3   4
ATOM      4  C   UNL     1      12.150 -13.855 -18.432  1.00  0.00     0.041 C 
ATOM      5  O   UNL     1      11.440 -14.852 -18.135  1.00  0.00    -0.550 OA
ATOM      6  O   UNL     1      12.745 -13.109 -17.422  1.00  0.00    -0.550 OA
ENDBRANCH   3   4
ENDBRANCH   2   3
ENDBRANCH   1   2
BRANCH   1   7
ATOM      7  C   UNL     1      13.099 -12.122 -22.064  1.00  0.00     0.000 C 
BRANCH   7   8
ATOM      8  C   UNL     1      13.470 -11.605 -23.469  1.00  0.00    -0.000 C 
BRANCH   8   9
ATOM      9  C   UNL     1      12.274 -11.263 -24.375  1.00  0.00    -0.000 C 
BRANCH   9  10
ATOM     10  C   UNL     1      12.335  -9.831 -24.926  1.00  0.00    -0.003 C 
ATOM     11  C   UNL     1      13.678  -9.178 -24.613  1.00  0.00     0.004 C 
ENDBRANCH   9  10
ENDBRANCH   8   9
ENDBRANCH   7   8
ENDBRANCH   1   7
TORSDOF 7
ENDMDL
MODEL 4
REMARK VINA RESULT:    -3.357     17.144     18.100
REMARK INTER + INTRA:          -5.210
REMARK INTER:                  -4.914
REMARK INTRA:                  -0.296
REMARK UNBOUND:                -0.478
REMARK SMILES CCCCCCCCC(=O)[O-]
REMARK SMILES IDX 6 1 7 2 8 3 9 4 10 5 11 6 5 7 4 8 3 9 2 10 1 11
REMARK H PARENT
REMARK Flexibility Score: inf
ROOT
ATOM      1  C   UNL     1      10.577 -12.939 -26.108  1.00  0.00     0.000 C 
ENDROOT
BRANCH   1   2
ATOM      2  C   UNL     1      11.558 -11.800 -25.793  1.00  0.00     0.006 C 
BRANCH   2   3
ATOM      3  C   UNL     1      11.653 -11.562 -24.282  1.00  0.00     0.053 C 
BRANCH   3   4
ATOM      4  C   UNL     1      13.042 -11.157 -23.903  1.00  0.00     0.041 C 
ATOM      5  O   UNL     1      13.505 -10.048 -24.279  1.00  0.00    -0.550 OA
ATOM      6  O   UNL     1      13.844 -12.025 -23.173  1.00  0.00    -0.550 OA
ENDBRANCH   3   4
ENDBRANCH   2   3
ENDBRANCH   1   2
BRANCH   1   7
ATOM      7  C   UNL     1      10.942 -13.703 -27.393  1.00  0.00     0.000 C 
BRANCH   7   8
ATOM      8  C   UNL     1      10.873 -15.241 -27.282  1.00  0.00    -0.000 C 
BRANCH   8   9
ATOM      9  C   UNL     1       9.709 -15.899 -28.044  1.00  0.00    -0.000 C 
BRANCH   9  10
ATOM     10  C   UNL     1       8.888 -16.855 -27.166  1.00  0.00    -0.003 C 
ATOM     11  C   UNL     1       8.601 -16.238 -25.801  1.00  0.00     0.004 C 
ENDBRANCH   9  10
ENDBRANCH   8   9
ENDBRANCH   7   8
ENDBRANCH   1   7
TORSDOF 7
ENDMDL
MODEL 5
REMARK VINA RESULT:    -3.298     16.731     18.603
REMARK INTER + INTRA:          -5.126
REMARK INTER:                  -4.774
REMARK INTRA:                  -0.351
REMARK UNBOUND:                -0.478
REMARK SMILES CCCCCCCCC(=O)[O-]
REMARK SMILES IDX 6 1 7 2 8 3 9 4 10 5 11 6 5 7 4 8 3 9 2 10 1 11
REMARK H PARENT
REMARK Flexibility Score: inf
ROOT
ATOM      1  C   UNL     1      -0.336  -1.440 -28.966  1.00  0.00     0.000 C 
ENDROOT
BRANCH   1   2
ATOM      2  C   UNL     1      -1.322  -0.285 -28.731  1.00  0.00     0.006 C 
BRANCH   2   3
ATOM      3  C   UNL     1      -1.927   0.195 -30.054  1.00  0.00     0.053 C 
BRANCH   3   4
ATOM      4  C   UNL     1      -1.118   1.317 -30.623  1.00  0.00     0.041 C 
ATOM      5  O   UNL     1      -1.288   1.680 -31.817  1.00  0.00    -0.550 OA
ATOM      6  O   UNL     1      -0.142   1.932 -29.849  1.00  0.00    -0.550 OA
ENDBRANCH   3   4
ENDBRANCH   2   3
ENDBRANCH   1   2
BRANCH   1   7
ATOM      7  C   UNL     1      -0.791  -2.756 -28.310  1.00  0.00     0.000 C 
BRANCH   7   8
ATOM      8  C   UNL     1      -2.112  -2.670 -27.517  1.00  0.00    -0.000 C 
BRANCH   8   9
ATOM      9  C   UNL     1      -2.639  -4.013 -26.981  1.00  0.00    -0.000 C 
BRANCH   9  10
ATOM     10  C   UNL     1      -4.130  -3.964 -26.617  1.00  0.00    -0.003 C 
ATOM     11  C   UNL     1      -4.798  -2.724 -27.203  1.00  0.00     0.004 C 
ENDBRANCH   9  10
ENDBRANCH   8   9
ENDBRANCH   7   8
ENDBRANCH   1   7
TORSDOF 7
ENDMDL
MODEL 6
REMARK VINA RESULT:    -3.290      2.934      4.946
REMARK INTER + INTRA:          -5.115
REMARK INTER:                  -4.599
REMARK INTRA:                  -0.516
REMARK UNBOUND:                -0.478
REMARK SMILES CCCCCCCCC(=O)[O-]
REMARK SMILES IDX 6 1 7 2 8 3 9 4 10 5 11 6 5 7 4 8 3 9 2 10 1 11
REMARK H PARENT
REMARK Flexibility Score: inf
ROOT
ATOM      1  C   UNL     1      -2.901  -8.765 -16.394  1.00  0.00     0.000 C 
ENDROOT
BRANCH   1   2
ATOM      2  C   UNL     1      -4.336  -9.227 -16.687  1.00  0.00     0.006 C 
BRANCH   2   3
ATOM      3  C   UNL     1      -4.555 -10.668 -16.215  1.00  0.00     0.053 C 
BRANCH   3   4
ATOM      4  C   UNL     1      -5.423 -11.409 -17.181  1.00  0.00     0.041 C 
ATOM      5  O   UNL     1      -5.747 -12.605 -16.954  1.00  0.00    -0.550 OA
ATOM      6  O   UNL     1      -5.834 -10.796 -18.358  1.00  0.00    -0.550 OA
ENDBRANCH   3   4
ENDBRANCH   2   3
ENDBRANCH   1   2
BRANCH   1   7
ATOM      7  C   UNL     1      -1.930  -9.938 -16.168  1.00  0.00     0.000 C 
BRANCH   7   8
ATOM      8  C   UNL     1      -1.112  -9.868 -14.862  1.00  0.00    -0.000 C 
BRANCH   8   9
ATOM      9  C   UNL     1      -0.825 -11.227 -14.198  1.00  0.00    -0.000 C 
BRANCH   9  10
ATOM     10  C   UNL     1      -1.238 -12.417 -15.076  1.00  0.00    -0.003 C 
ATOM     11  C   UNL     1      -2.001 -13.460 -14.264  1.00  0.00     0.004 C 
ENDBRANCH   9  10
ENDBRANCH   8   9
ENDBRANCH   7   8
ENDBRANCH   1   7
TORSDOF 7
ENDMDL
MODEL 7
REMARK VINA RESULT:    -3.272      2.869      4.519
REMARK INTER + INTRA:          -5.089
REMARK INTER:                  -4.748
REMARK INTRA:                  -0.341
REMARK UNBOUND:                -0.478
REMARK SMILES CCCCCCCCC(=O)[O-]
REMARK SMILES IDX 6 1 7 2 8 3 9 4 10 5 11 6 5 7 4 8 3 9 2 10 1 11
REMARK H PARENT
REMARK Flexibility Score: inf
ROOT
ATOM      1  C   UNL     1      -4.542  -9.859 -16.816  1.00  0.00     0.000 C 
ENDROOT
BRANCH   1   2
ATOM      2  C   UNL     1      -5.138 -11.208 -16.386  1.00  0.00     0.006 C 
BRANCH   2   3
ATOM      3  C   UNL     1      -5.421 -12.095 -17.603  1.00  0.00     0.053 C 
BRANCH   3   4
ATOM      4  C   UNL     1      -5.052 -13.515 -17.312  1.00  0.00     0.041 C 
ATOM      5  O   UNL     1      -5.914 -14.427 -17.411  1.00  0.00    -0.550 OA
ATOM      6  O   UNL     1      -3.767 -13.826 -16.885  1.00  0.00    -0.550 OA
ENDBRANCH   3   4
ENDBRANCH   2   3
ENDBRANCH   1   2
BRANCH   1   7
ATOM      7  C   UNL     1      -3.083  -9.677 -16.361  1.00  0.00     0.000 C 
BRANCH   7   8
ATOM      8  C   UNL     1      -2.439 -10.922 -15.716  1.00  0.00    -0.000 C 
BRANCH   8   9
ATOM      9  C   UNL     1      -0.911 -10.852 -15.549  1.00  0.00    -0.000 C 
BRANCH   9  10
ATOM     10  C   UNL     1      -0.484 -10.504 -14.115  1.00  0.00    -0.003 C 
ATOM     11  C   UNL     1      -0.194  -9.012 -13.976  1.00  0.00     0.004 C 
ENDBRANCH   9  10
ENDBRANCH   8   9
ENDBRANCH   7   8
ENDBRANCH   1   7
TORSDOF 7
ENDMDL
MODEL 8
REMARK VINA RESULT:    -3.232     15.428     17.170
REMARK INTER + INTRA:          -5.033
REMARK INTER:                  -4.426
REMARK INTRA:                  -0.607
REMARK UNBOUND:                -0.478
REMARK SMILES CCCCCCCCC(=O)[O-]
REMARK SMILES IDX 6 1 7 2 8 3 9 4 10 5 11 6 5 7 4 8 3 9 2 10 1 11
REMARK H PARENT
REMARK Flexibility Score: inf
ROOT
ATOM      1  C   UNL     1      -1.072  -3.041 -27.096  1.00  0.00     0.000 C 
ENDROOT
BRANCH   1   2
ATOM      2  C   UNL     1      -0.958  -2.194 -28.372  1.00  0.00     0.006 C 
BRANCH   2   3
ATOM      3  C   UNL     1      -1.940  -1.019 -28.339  1.00  0.00     0.053 C 
BRANCH   3   4
ATOM      4  C   UNL     1      -1.439   0.105 -29.189  1.00  0.00     0.041 C 
ATOM      5  O   UNL     1      -0.445   0.785 -28.821  1.00  0.00    -0.550 OA
ATOM      6  O   UNL     1      -2.101   0.435 -30.365  1.00  0.00    -0.550 OA
ENDBRANCH   3   4
ENDBRANCH   2   3
ENDBRANCH   1   2
BRANCH   1   7
ATOM      7  C   UNL     1      -2.068  -4.206 -27.238  1.00  0.00     0.000 C 
BRANCH   7   8
ATOM      8  C   UNL     1      -3.100  -4.327 -26.097  1.00  0.00    -0.000 C 
BRANCH   8   9
ATOM      9  C   UNL     1      -4.572  -4.268 -26.541  1.00  0.00    -0.000 C 
BRANCH   9  10
ATOM     10  C   UNL     1      -4.926  -2.958 -27.259  1.00  0.00    -0.003 C 
ATOM     11  C   UNL     1      -4.975  -1.790 -26.279  1.00  0.00     0.004 C 
ENDBRANCH   9  10
ENDBRANCH   8   9
ENDBRANCH   7   8
ENDBRANCH   1   7
TORSDOF 7
ENDMDL
MODEL 9
REMARK VINA RESULT:    -3.225     16.762     17.690
REMARK INTER + INTRA:          -5.022
REMARK INTER:                  -4.300
REMARK INTRA:                  -0.722
REMARK UNBOUND:                -0.478
REMARK SMILES CCCCCCCCC(=O)[O-]
REMARK SMILES IDX 6 1 7 2 8 3 9 4 10 5 11 6 5 7 4 8 3 9 2 10 1 11
REMARK H PARENT
REMARK Flexibility Score: inf
ROOT
ATOM      1  C   UNL     1      11.112 -14.151 -27.636  1.00  0.00     0.000 C 
ENDROOT
BRANCH   1   2
ATOM      2  C   UNL     1      10.131 -13.067 -27.164  1.00  0.00     0.006 C 
BRANCH   2   3
ATOM      3  C   UNL     1      10.408 -12.673 -25.710  1.00  0.00     0.053 C 
BRANCH   3   4
ATOM      4  C   UNL     1      11.492 -11.645 -25.644  1.00  0.00     0.041 C 
ATOM      5  O   UNL     1      11.658 -10.836 -26.595  1.00  0.00    -0.550 OA
ATOM      6  O   UNL     1      12.353 -11.612 -24.554  1.00  0.00    -0.550 OA
ENDBRANCH   3   4
ENDBRANCH   2   3
ENDBRANCH   1   2
BRANCH   1   7
ATOM      7  C   UNL     1      10.647 -15.574 -27.280  1.00  0.00     0.000 C 
BRANCH   7   8
ATOM      8  C   UNL     1       9.284 -15.986 -27.874  1.00  0.00    -0.000 C 
BRANCH   8   9
ATOM      9  C   UNL     1       8.286 -16.582 -26.866  1.00  0.00    -0.000 C 
BRANCH   9  10
ATOM     10  C   UNL     1       8.447 -15.999 -25.454  1.00  0.00    -0.003 C 
ATOM     11  C   UNL     1       7.417 -14.904 -25.191  1.00  0.00     0.004 C 
ENDBRANCH   9  10
ENDBRANCH   8   9
ENDBRANCH   7   8
ENDBRANCH   1   7
TORSDOF 7
ENDMDL
