MODEL 1
REMARK VINA RESULT:     4.141      0.000      0.000
REMARK INTER + INTRA:           8.096
REMARK INTER:                   7.531
REMARK INTRA:                   0.565
REMARK UNBOUND:                 0.565
REMARK SMILES CCCCCCCCCCCCCCCC(=O)[O-]
REMARK SMILES IDX 9 1 10 2 11 3 12 4 13 5 14 6 15 7 16 8 17 9 18 10 8 11 7 12
REMARK SMILES IDX 6 13 5 14 4 15 3 16 2 17 1 18
REMARK H PARENT
REMARK Flexibility Score: inf
ROOT
ATOM      1  C   UNL     1      12.101  -0.449 -17.183  1.00  0.00     0.000 C 
ENDROOT
BRANCH   1   2
ATOM      2  C   UNL     1      11.936  -1.610 -16.184  1.00  0.00     0.000 C 
BRANCH   2   3
ATOM      3  C   UNL     1      10.723  -2.520 -16.449  1.00  0.00     0.000 C 
BRANCH   3   4
ATOM      4  C   UNL     1      11.060  -4.027 -16.410  1.00  0.00     0.000 C 
BRANCH   4   5
ATOM      5  C   UNL     1      11.357  -4.597 -17.809  1.00  0.00     0.000 C 
BRANCH   5   6
ATOM      6  C   UNL     1      12.274  -5.834 -17.767  1.00  0.00     0.006 C 
BRANCH   6   7
ATOM      7  C   UNL     1      13.084  -6.067 -19.052  1.00  0.00     0.053 C 
BRANCH   7   8
ATOM      8  C   UNL     1      14.470  -6.557 -18.761  1.00  0.00     0.041 C 
ATOM      9  O   UNL     1      15.457  -6.056 -19.362  1.00  0.00    -0.550 OA
ATOM     10  O   UNL     1      14.674  -7.541 -17.803  1.00  0.00    -0.550 OA
ENDBRANCH   7   8
ENDBRANCH   6   7
ENDBRANCH   5   6
ENDBRANCH   4   5
ENDBRANCH   3   4
ENDBRANCH   2   3
ENDBRANCH   1   2
BRANCH   1  11
ATOM     11  C   UNL     1      13.558  -0.127 -17.576  1.00  0.00     0.000 C 
BRANCH  11  12
ATOM     12  C   UNL     1      13.852   1.360 -17.849  1.00  0.00    -0.000 C 
BRANCH  12  13
ATOM     13  C   UNL     1      13.304   2.289 -16.755  1.00  0.00    -0.000 C 
BRANCH  13  14
ATOM     14  C   UNL     1      11.931   1.809 -16.264  1.00  0.00    -0.000 C 
BRANCH  14  15
ATOM     15  C   UNL     1      11.204   2.853 -15.398  1.00  0.00    -0.000 C 
BRANCH  15  16
ATOM     16  C   UNL     1      10.788   2.364 -13.998  1.00  0.00    -0.000 C 
BRANCH  16  17
ATOM     17  C   UNL     1      10.413   0.875 -13.971  1.00  0.00    -0.003 C 
ATOM     18  C   UNL     1       9.298   0.607 -12.964  1.00  0.00     0.004 C 
ENDBRANCH  16  17
ENDBRANCH  15  16
ENDBRANCH  14  15
ENDBRANCH  13  14
ENDBRANCH  12  13
ENDBRANCH  11  12
ENDBRANCH   1  11
TORSDOF 14
ENDMDL
MODEL 2
REMARK VINA RESULT:     4.689      0.913      1.487
REMARK INTER + INTRA:           9.091
REMARK INTER:                   9.778
REMARK INTRA:                  -0.687
REMARK UNBOUND:                 0.565
REMARK SMILES CCCCCCCCCCCCCCCC(=O)[O-]
REMARK SMILES IDX 9 1 10 2 11 3 12 4 13 5 14 6 15 7 16 8 17 9 18 10 8 11 7 12
REMARK SMILES IDX 6 13 5 14 4 15 3 16 2 17 1 18
REMARK H PARENT
REMARK Flexibility Score: inf
ROOT
ATOM      1  C   UNL     1      11.499  -1.888 -17.133  1.00  0.00     0.000 C 
ENDROOT
BRANCH   1   2
ATOM      2  C   UNL     1      10.899  -2.848 -16.089  1.00  0.00     0.000 C 
BRANCH   2   3
ATOM      3  C   UNL     1      11.127  -4.342 -16.382  1.00  0.00     0.000 C 
BRANCH   3   4
ATOM      4  C   UNL     1      11.508  -4.634 -17.850  1.00  0.00     0.000 C 
BRANCH   4   5
ATOM      5  C   UNL     1      12.277  -5.958 -18.003  1.00  0.00     0.000 C 
BRANCH   5   6
ATOM      6  C   UNL     1      13.205  -5.971 -19.232  1.00  0.00     0.006 C 
BRANCH   6   7
ATOM      7  C   UNL     1      14.676  -6.282 -18.913  1.00  0.00     0.053 C 
BRANCH   7   8
ATOM      8  C   UNL     1      14.811  -7.385 -17.907  1.00  0.00     0.041 C 
ATOM      9  O   UNL     1      14.883  -8.583 -18.288  1.00  0.00    -0.550 OA
ATOM     10  O   UNL     1      14.892  -7.086 -16.553  1.00  0.00    -0.550 OA
ENDBRANCH   7   8
ENDBRANCH   6   7
ENDBRANCH   5   6
ENDBRANCH   4   5
ENDBRANCH   3   4
ENDBRANCH   2   3
ENDBRANCH   1   2
BRANCH   1  11
ATOM     11  C   UNL     1      12.387  -0.765 -16.557  1.00  0.00     0.000 C 
BRANCH  11  12
ATOM     12  C   UNL     1      13.296  -0.057 -17.577  1.00  0.00    -0.000 C 
BRANCH  12  13
ATOM     13  C   UNL     1      13.001   1.446 -17.701  1.00  0.00    -0.000 C 
BRANCH  13  14
ATOM     14  C   UNL     1      12.758   2.072 -16.320  1.00  0.00    -0.000 C 
BRANCH  14  15
ATOM     15  C   UNL     1      11.295   2.499 -16.103  1.00  0.00    -0.000 C 
BRANCH  15  16
ATOM     16  C   UNL     1      10.802   2.423 -14.646  1.00  0.00    -0.000 C 
BRANCH  16  17
ATOM     17  C   UNL     1      10.757   0.987 -14.104  1.00  0.00    -0.003 C 
ATOM     18  C   UNL     1       9.511   0.759 -13.253  1.00  0.00     0.004 C 
ENDBRANCH  16  17
ENDBRANCH  15  16
ENDBRANCH  14  15
ENDBRANCH  13  14
ENDBRANCH  12  13
ENDBRANCH  11  12
ENDBRANCH   1  11
TORSDOF 14
ENDMDL
MODEL 3
REMARK VINA RESULT:     4.767      0.787      3.261
REMARK INTER + INTRA:           9.234
REMARK INTER:                   9.558
REMARK INTRA:                  -0.324
REMARK UNBOUND:                 0.565
REMARK SMILES CCCCCCCCCCCCCCCC(=O)[O-]
REMARK SMILES IDX 9 1 10 2 11 3 12 4 13 5 14 6 15 7 16 8 17 9 18 10 8 11 7 12
REMARK SMILES IDX 6 13 5 14 4 15 3 16 2 17 1 18
REMARK H PARENT
REMARK Flexibility Score: inf
ROOT
ATOM      1  C   UNL     1      11.972  -0.647 -15.120  1.00  0.00     0.000 C 
ENDROOT
BRANCH   1   2
ATOM      2  C   UNL     1      11.906  -1.568 -16.353  1.00  0.00     0.000 C 
BRANCH   2   3
ATOM      3  C   UNL     1      10.678  -2.496 -16.399  1.00  0.00     0.000 C 
BRANCH   3   4
ATOM      4  C   UNL     1      11.037  -3.998 -16.407  1.00  0.00     0.000 C 
BRANCH   4   5
ATOM      5  C   UNL     1      11.398  -4.507 -17.813  1.00  0.00     0.000 C 
BRANCH   5   6
ATOM      6  C   UNL     1      12.191  -5.827 -17.786  1.00  0.00     0.006 C 
BRANCH   6   7
ATOM      7  C   UNL     1      13.031  -6.089 -19.046  1.00  0.00     0.053 C 
BRANCH   7   8
ATOM      8  C   UNL     1      14.426  -6.519 -18.711  1.00  0.00     0.041 C 
ATOM      9  O   UNL     1      15.397  -6.111 -19.401  1.00  0.00    -0.550 OA
ATOM     10  O   UNL     1      14.657  -7.343 -17.618  1.00  0.00    -0.550 OA
ENDBRANCH   7   8
ENDBRANCH   6   7
ENDBRANCH   5   6
ENDBRANCH   4   5
ENDBRANCH   3   4
ENDBRANCH   2   3
ENDBRANCH   1   2
BRANCH   1  11
ATOM     11  C   UNL     1      10.641   0.035 -14.741  1.00  0.00     0.000 C 
BRANCH  11  12
ATOM     12  C   UNL     1      10.777   1.397 -14.037  1.00  0.00    -0.000 C 
BRANCH  12  13
ATOM     13  C   UNL     1      11.199   2.525 -14.990  1.00  0.00    -0.000 C 
BRANCH  13  14
ATOM     14  C   UNL     1      11.552   1.969 -16.377  1.00  0.00    -0.000 C 
BRANCH  14  15
ATOM     15  C   UNL     1      13.037   2.158 -16.739  1.00  0.00    -0.000 C 
BRANCH  15  16
ATOM     16  C   UNL     1      13.471   1.511 -18.068  1.00  0.00    -0.000 C 
BRANCH  16  17
ATOM     17  C   UNL     1      14.543   0.427 -17.884  1.00  0.00    -0.003 C 
ATOM     18  C   UNL     1      15.578   0.482 -19.004  1.00  0.00     0.004 C 
ENDBRANCH  16  17
ENDBRANCH  15  16
ENDBRANCH  14  15
ENDBRANCH  13  14
ENDBRANCH  12  13
ENDBRANCH  11  12
ENDBRANCH   1  11
TORSDOF 14
ENDMDL
MODEL 4
REMARK VINA RESULT:     4.801      3.833      8.134
REMARK INTER + INTRA:           9.295
REMARK INTER:                   9.775
REMARK INTRA:                  -0.480
REMARK UNBOUND:                 0.565
REMARK SMILES CCCCCCCCCCCCCCCC(=O)[O-]
REMARK SMILES IDX 9 1 10 2 11 3 12 4 13 5 14 6 15 7 16 8 17 9 18 10 8 11 7 12
REMARK SMILES IDX 6 13 5 14 4 15 3 16 2 17 1 18
REMARK H PARENT
REMARK Flexibility Score: inf
ROOT
ATOM      1  C   UNL     1      12.269  -0.743 -17.396  1.00  0.00     0.000 C 
ENDROOT
BRANCH   1   2
ATOM      2  C   UNL     1      13.721  -0.230 -17.379  1.00  0.00     0.000 C 
BRANCH   2   3
ATOM      3  C   UNL     1      13.981   0.998 -18.271  1.00  0.00     0.000 C 
BRANCH   3   4
ATOM      4  C   UNL     1      13.158   2.241 -17.867  1.00  0.00     0.000 C 
BRANCH   4   5
ATOM      5  C   UNL     1      13.041   2.395 -16.341  1.00  0.00     0.000 C 
BRANCH   5   6
ATOM      6  C   UNL     1      11.580   2.465 -15.858  1.00  0.00     0.006 C 
BRANCH   6   7
ATOM      7  C   UNL     1      11.113   1.230 -15.071  1.00  0.00     0.053 C 
BRANCH   7   8
ATOM      8  C   UNL     1      10.316   1.605 -13.859  1.00  0.00     0.041 C 
ATOM      9  O   UNL     1       9.563   0.759 -13.310  1.00  0.00    -0.550 OA
ATOM     10  O   UNL     1      10.432   2.878 -13.316  1.00  0.00    -0.550 OA
ENDBRANCH   7   8
ENDBRANCH   6   7
ENDBRANCH   5   6
ENDBRANCH   4   5
ENDBRANCH   3   4
ENDBRANCH   2   3
ENDBRANCH   1   2
BRANCH   1  11
ATOM     11  C   UNL     1      11.934  -1.795 -16.317  1.00  0.00     0.000 C 
BRANCH  11  12
ATOM     12  C   UNL     1      10.757  -2.729 -16.653  1.00  0.00    -0.000 C 
BRANCH  12  13
ATOM     13  C   UNL     1      11.126  -4.217 -16.553  1.00  0.00    -0.000 C 
BRANCH  13  14
ATOM     14  C   UNL     1      11.445  -4.797 -17.938  1.00  0.00    -0.000 C 
BRANCH  14  15
ATOM     15  C   UNL     1      12.485  -5.932 -17.888  1.00  0.00    -0.000 C 
BRANCH  15  16
ATOM     16  C   UNL     1      13.383  -6.049 -19.135  1.00  0.00    -0.000 C 
BRANCH  16  17
ATOM     17  C   UNL     1      14.841  -6.388 -18.793  1.00  0.00    -0.003 C 
ATOM     18  C   UNL     1      14.936  -7.715 -18.047  1.00  0.00     0.004 C 
ENDBRANCH  16  17
ENDBRANCH  15  16
ENDBRANCH  14  15
ENDBRANCH  13  14
ENDBRANCH  12  13
ENDBRANCH  11  12
ENDBRANCH   1  11
TORSDOF 14
ENDMDL
MODEL 5
REMARK VINA RESULT:     5.392      2.520      7.113
REMARK INTER + INTRA:          10.370
REMARK INTER:                  10.375
REMARK INTRA:                  -0.006
REMARK UNBOUND:                 0.565
REMARK SMILES CCCCCCCCCCCCCCCC(=O)[O-]
REMARK SMILES IDX 9 1 10 2 11 3 12 4 13 5 14 6 15 7 16 8 17 9 18 10 8 11 7 12
REMARK SMILES IDX 6 13 5 14 4 15 3 16 2 17 1 18
REMARK H PARENT
REMARK Flexibility Score: inf
ROOT
ATOM      1  C   UNL     1      11.978  -0.482 -15.155  1.00  0.00     0.000 C 
ENDROOT
BRANCH   1   2
ATOM      2  C   UNL     1      10.632   0.138 -14.736  1.00  0.00     0.000 C 
BRANCH   2   3
ATOM      3  C   UNL     1      10.717   1.600 -14.258  1.00  0.00     0.000 C 
BRANCH   3   4
ATOM      4  C   UNL     1      11.523   2.515 -15.207  1.00  0.00     0.000 C 
BRANCH   4   5
ATOM      5  C   UNL     1      11.737   1.879 -16.592  1.00  0.00     0.000 C 
BRANCH   5   6
ATOM      6  C   UNL     1      13.151   2.126 -17.150  1.00  0.00     0.006 C 
BRANCH   6   7
ATOM      7  C   UNL     1      13.512   1.262 -18.368  1.00  0.00     0.053 C 
BRANCH   7   8
ATOM      8  C   UNL     1      14.850   0.605 -18.214  1.00  0.00     0.041 C 
ATOM      9  O   UNL     1      15.227   0.195 -17.085  1.00  0.00    -0.550 OA
ATOM     10  O   UNL     1      15.663   0.414 -19.323  1.00  0.00    -0.550 OA
ENDBRANCH   7   8
ENDBRANCH   6   7
ENDBRANCH   5   6
ENDBRANCH   4   5
ENDBRANCH   3   4
ENDBRANCH   2   3
ENDBRANCH   1   2
BRANCH   1  11
ATOM     11  C   UNL     1      11.912  -1.430 -16.371  1.00  0.00     0.000 C 
BRANCH  11  12
ATOM     12  C   UNL     1      10.704  -2.385 -16.394  1.00  0.00    -0.000 C 
BRANCH  12  13
ATOM     13  C   UNL     1      11.110  -3.866 -16.346  1.00  0.00    -0.000 C 
BRANCH  13  14
ATOM     14  C   UNL     1      11.497  -4.375 -17.742  1.00  0.00    -0.000 C 
BRANCH  14  15
ATOM     15  C   UNL     1      12.035  -5.817 -17.728  1.00  0.00    -0.000 C 
BRANCH  15  16
ATOM     16  C   UNL     1      12.802  -6.239 -18.995  1.00  0.00    -0.000 C 
BRANCH  16  17
ATOM     17  C   UNL     1      14.326  -6.209 -18.810  1.00  0.00    -0.003 C 
ATOM     18  C   UNL     1      14.804  -7.404 -17.990  1.00  0.00     0.004 C 
ENDBRANCH  16  17
ENDBRANCH  15  16
ENDBRANCH  14  15
ENDBRANCH  13  14
ENDBRANCH  12  13
ENDBRANCH  11  12
ENDBRANCH   1  11
TORSDOF 14
ENDMDL
MODEL 6
REMARK VINA RESULT:     6.332      1.744      3.637
REMARK INTER + INTRA:          12.079
REMARK INTER:                  12.838
REMARK INTRA:                  -0.758
REMARK UNBOUND:                 0.565
REMARK SMILES CCCCCCCCCCCCCCCC(=O)[O-]
REMARK SMILES IDX 9 1 10 2 11 3 12 4 13 5 14 6 15 7 16 8 17 9 18 10 8 11 7 12
REMARK SMILES IDX 6 13 5 14 4 15 3 16 2 17 1 18
REMARK H PARENT
REMARK Flexibility Score: inf
ROOT
ATOM      1  C   UNL     1      10.754  -2.353 -16.383  1.00  0.00     0.000 C 
ENDROOT
BRANCH   1   2
ATOM      2  C   UNL     1      11.096  -3.855 -16.358  1.00  0.00     0.000 C 
BRANCH   2   3
ATOM      3  C   UNL     1      11.324  -4.487 -17.743  1.00  0.00     0.000 C 
BRANCH   3   4
ATOM      4  C   UNL     1      11.890  -5.923 -17.683  1.00  0.00     0.000 C 
BRANCH   4   5
ATOM      5  C   UNL     1      12.599  -6.328 -18.987  1.00  0.00     0.000 C 
BRANCH   5   6
ATOM      6  C   UNL     1      13.976  -5.657 -19.151  1.00  0.00     0.006 C 
BRANCH   6   7
ATOM      7  C   UNL     1      15.170  -6.610 -18.984  1.00  0.00     0.053 C 
BRANCH   7   8
ATOM      8  C   UNL     1      14.974  -7.562 -17.843  1.00  0.00     0.041 C 
ATOM      9  O   UNL     1      14.871  -7.126 -16.666  1.00  0.00    -0.550 OA
ATOM     10  O   UNL     1      14.870  -8.925 -18.084  1.00  0.00    -0.550 OA
ENDBRANCH   7   8
ENDBRANCH   6   7
ENDBRANCH   5   6
ENDBRANCH   4   5
ENDBRANCH   3   4
ENDBRANCH   2   3
ENDBRANCH   1   2
BRANCH   1  11
ATOM     11  C   UNL     1      11.944  -1.416 -16.676  1.00  0.00     0.000 C 
BRANCH  11  12
ATOM     12  C   UNL     1      12.255  -0.385 -15.576  1.00  0.00    -0.000 C 
BRANCH  12  13
ATOM     13  C   UNL     1      12.016   1.064 -16.028  1.00  0.00    -0.000 C 
BRANCH  13  14
ATOM     14  C   UNL     1      11.927   1.155 -17.558  1.00  0.00    -0.000 C 
BRANCH  14  15
ATOM     15  C   UNL     1      13.212   1.707 -18.202  1.00  0.00    -0.000 C 
BRANCH  15  16
ATOM     16  C   UNL     1      14.510   1.410 -17.428  1.00  0.00    -0.000 C 
BRANCH  16  17
ATOM     17  C   UNL     1      15.295   0.224 -18.007  1.00  0.00    -0.003 C 
ATOM     18  C   UNL     1      15.853   0.557 -19.388  1.00  0.00     0.004 C 
ENDBRANCH  16  17
ENDBRANCH  15  16
ENDBRANCH  14  15
ENDBRANCH  13  14
ENDBRANCH  12  13
ENDBRANCH  11  12
ENDBRANCH   1  11
TORSDOF 14
ENDMDL
