MODEL 1
REMARK VINA RESULT:    -6.097      0.000      0.000
REMARK INTER + INTRA:          -7.364
REMARK INTER:                  -7.167
REMARK INTRA:                  -0.197
REMARK UNBOUND:                -0.197
REMARK SMILES CCCC[C@@H]1OC(=O)C2=C1CCC=C2
REMARK SMILES IDX 3 1 2 2 1 3 4 4 5 5 10 6 6 7 9 8 11 9 7 10 14 11 12 12 8 13
REMARK SMILES IDX 13 14
REMARK H PARENT
REMARK Flexibility Score: inf
ROOT
ATOM      1  C   UNL     1      21.298   3.657 105.336  1.00  0.00     0.004 C 
ENDROOT
BRANCH   1   2
ATOM      2  C   UNL     1      19.917   3.382 105.952  1.00  0.00    -0.003 C 
ATOM      3  C   UNL     1      19.494   1.919 105.824  1.00  0.00     0.004 C 
ENDBRANCH   1   2
BRANCH   1   4
ATOM      4  C   UNL     1      21.216   4.526 104.072  1.00  0.00     0.050 C 
BRANCH   4   5
ATOM      5  C   UNL     1      22.086   3.952 102.946  1.00  0.00     0.204 C 
ATOM      6  C   UNL     1      22.484   5.019 101.953  1.00  0.00    -0.015 C 
ATOM      7  O   UNL     1      23.345   3.507 103.461  1.00  0.00    -0.454 OA
ATOM      8  C   UNL     1      23.798   5.177 101.937  1.00  0.00     0.062 C 
ATOM      9  C   UNL     1      21.573   5.937 101.184  1.00  0.00     0.040 C 
ATOM     10  C   UNL     1      24.361   4.238 102.870  1.00  0.00     0.338 C 
ATOM     11  C   UNL     1      24.465   6.192 101.114  1.00  0.00     0.011 C 
ATOM     12  C   UNL     1      22.293   6.523  99.947  1.00  0.00     0.032 C 
ATOM     13  O   UNL     1      25.585   4.092 103.129  1.00  0.00    -0.246 OA
ATOM     14  C   UNL     1      23.741   6.883 100.225  1.00  0.00    -0.026 C 
ENDBRANCH   4   5
ENDBRANCH   1   4
TORSDOF 3
ENDMDL
MODEL 2
REMARK VINA RESULT:    -5.988      1.364      5.207
REMARK INTER + INTRA:          -7.235
REMARK INTER:                  -7.037
REMARK INTRA:                  -0.198
REMARK UNBOUND:                -0.197
REMARK SMILES CCCC[C@@H]1OC(=O)C2=C1CCC=C2
REMARK SMILES IDX 3 1 2 2 1 3 4 4 5 5 10 6 6 7 9 8 11 9 7 10 14 11 12 12 8 13
REMARK SMILES IDX 13 14
REMARK H PARENT
REMARK Flexibility Score: inf
ROOT
ATOM      1  C   UNL     1      23.987   5.607 101.465  1.00  0.00     0.004 C 
ENDROOT
BRANCH   1   2
ATOM      2  C   UNL     1      23.622   6.622 100.371  1.00  0.00    -0.003 C 
ATOM      3  C   UNL     1      22.119   6.684 100.101  1.00  0.00     0.004 C 
ENDBRANCH   1   2
BRANCH   1   4
ATOM      4  C   UNL     1      22.761   4.854 102.003  1.00  0.00     0.050 C 
BRANCH   4   5
ATOM      5  C   UNL     1      23.138   3.952 103.186  1.00  0.00     0.204 C 
ATOM      6  C   UNL     1      21.967   3.737 104.116  1.00  0.00    -0.015 C 
ATOM      7  O   UNL     1      23.436   2.627 102.733  1.00  0.00    -0.454 OA
ATOM      8  C   UNL     1      21.628   2.458 104.154  1.00  0.00     0.062 C 
ATOM      9  C   UNL     1      21.138   4.790 104.799  1.00  0.00     0.040 C 
ATOM     10  C   UNL     1      22.535   1.741 103.299  1.00  0.00     0.338 C 
ATOM     11  C   UNL     1      20.480   1.964 104.925  1.00  0.00     0.011 C 
ATOM     12  C   UNL     1      20.382   4.199 106.012  1.00  0.00     0.032 C 
ATOM     13  O   UNL     1      22.526   0.501 103.081  1.00  0.00    -0.246 OA
ATOM     14  C   UNL     1      19.843   2.806 105.748  1.00  0.00    -0.026 C 
ENDBRANCH   4   5
ENDBRANCH   1   4
TORSDOF 3
ENDMDL
MODEL 3
REMARK VINA RESULT:    -5.292      1.964      4.084
REMARK INTER + INTRA:          -6.417
REMARK INTER:                  -6.165
REMARK INTRA:                  -0.252
REMARK UNBOUND:                -0.197
REMARK SMILES CCCC[C@@H]1OC(=O)C2=C1CCC=C2
REMARK SMILES IDX 3 1 2 2 1 3 4 4 5 5 10 6 6 7 9 8 11 9 7 10 14 11 12 12 8 13
REMARK SMILES IDX 13 14
REMARK H PARENT
REMARK Flexibility Score: inf
ROOT
ATOM      1  C   UNL     1      26.643   3.717 103.736  1.00  0.00     0.004 C 
ENDROOT
BRANCH   1   2
ATOM      2  C   UNL     1      27.393   2.404 103.463  1.00  0.00    -0.003 C 
ATOM      3  C   UNL     1      26.579   1.425 102.616  1.00  0.00     0.004 C 
ENDBRANCH   1   2
BRANCH   1   4
ATOM      4  C   UNL     1      25.720   4.121 102.576  1.00  0.00     0.050 C 
BRANCH   4   5
ATOM      5  C   UNL     1      24.387   4.678 103.096  1.00  0.00     0.204 C 
ATOM      6  C   UNL     1      23.523   5.192 101.968  1.00  0.00    -0.015 C 
ATOM      7  O   UNL     1      23.590   3.631 103.659  1.00  0.00    -0.454 OA
ATOM      8  C   UNL     1      22.398   4.500 101.886  1.00  0.00     0.062 C 
ATOM      9  C   UNL     1      23.891   6.219 100.931  1.00  0.00     0.040 C 
ATOM     10  C   UNL     1      22.414   3.518 102.937  1.00  0.00     0.338 C 
ATOM     11  C   UNL     1      21.396   4.736 100.840  1.00  0.00     0.011 C 
ATOM     12  C   UNL     1      22.625   6.824 100.278  1.00  0.00     0.032 C 
ATOM     13  O   UNL     1      21.511   2.674 103.178  1.00  0.00    -0.246 OA
ATOM     14  C   UNL     1      21.541   5.791 100.030  1.00  0.00    -0.026 C 
ENDBRANCH   4   5
ENDBRANCH   1   4
TORSDOF 3
ENDMDL
MODEL 4
REMARK VINA RESULT:    -5.250      2.702      4.740
REMARK INTER + INTRA:          -6.367
REMARK INTER:                  -6.141
REMARK INTRA:                  -0.227
REMARK UNBOUND:                -0.197
REMARK SMILES CCCC[C@@H]1OC(=O)C2=C1CCC=C2
REMARK SMILES IDX 3 1 2 2 1 3 4 4 5 5 10 6 6 7 9 8 11 9 7 10 14 11 12 12 8 13
REMARK SMILES IDX 13 14
REMARK H PARENT
REMARK Flexibility Score: inf
ROOT
ATOM      1  C   UNL     1      23.375   0.349 102.852  1.00  0.00     0.004 C 
ENDROOT
BRANCH   1   2
ATOM      2  C   UNL     1      23.008  -0.832 101.940  1.00  0.00    -0.003 C 
ATOM      3  C   UNL     1      24.197  -1.341 101.126  1.00  0.00     0.004 C 
ENDBRANCH   1   2
BRANCH   1   4
ATOM      4  C   UNL     1      22.175   0.861 103.664  1.00  0.00     0.050 C 
BRANCH   4   5
ATOM      5  C   UNL     1      21.745   2.259 103.197  1.00  0.00     0.204 C 
ATOM      6  C   UNL     1      21.401   3.153 104.365  1.00  0.00    -0.015 C 
ATOM      7  O   UNL     1      22.842   2.942 102.582  1.00  0.00    -0.454 OA
ATOM      8  C   UNL     1      22.221   4.190 104.420  1.00  0.00     0.062 C 
ATOM      9  C   UNL     1      20.401   2.884 105.457  1.00  0.00     0.040 C 
ATOM     10  C   UNL     1      23.132   4.084 103.311  1.00  0.00     0.338 C 
ATOM     11  C   UNL     1      22.165   5.191 105.492  1.00  0.00     0.011 C 
ATOM     12  C   UNL     1      19.985   4.197 106.163  1.00  0.00     0.032 C 
ATOM     13  O   UNL     1      24.059   4.889 103.032  1.00  0.00    -0.246 OA
ATOM     14  C   UNL     1      21.148   5.151 106.362  1.00  0.00    -0.026 C 
ENDBRANCH   4   5
ENDBRANCH   1   4
TORSDOF 3
ENDMDL
MODEL 5
REMARK VINA RESULT:    -4.751      8.673     10.689
REMARK INTER + INTRA:          -5.781
REMARK INTER:                  -5.277
REMARK INTRA:                  -0.504
REMARK UNBOUND:                -0.197
REMARK SMILES CCCC[C@@H]1OC(=O)C2=C1CCC=C2
REMARK SMILES IDX 3 1 2 2 1 3 4 4 5 5 10 6 6 7 9 8 11 9 7 10 14 11 12 12 8 13
REMARK SMILES IDX 13 14
REMARK H PARENT
REMARK Flexibility Score: inf
ROOT
ATOM      1  C   UNL     1      32.353   3.362  99.479  1.00  0.00     0.004 C 
ENDROOT
BRANCH   1   2
ATOM      2  C   UNL     1      32.001   4.772  98.980  1.00  0.00    -0.003 C 
ATOM      3  C   UNL     1      32.660   5.873  99.810  1.00  0.00     0.004 C 
ENDBRANCH   1   2
BRANCH   1   4
ATOM      4  C   UNL     1      33.496   3.368 100.506  1.00  0.00     0.050 C 
BRANCH   4   5
ATOM      5  C   UNL     1      33.069   2.692 101.816  1.00  0.00     0.204 C 
ATOM      6  C   UNL     1      32.665   3.707 102.859  1.00  0.00    -0.015 C 
ATOM      7  O   UNL     1      31.869   1.936 101.623  1.00  0.00    -0.454 OA
ATOM      8  C   UNL     1      31.391   3.563 103.186  1.00  0.00     0.062 C 
ATOM      9  C   UNL     1      33.482   4.862 103.374  1.00  0.00     0.040 C 
ATOM     10  C   UNL     1      30.870   2.456 102.428  1.00  0.00     0.338 C 
ATOM     11  C   UNL     1      30.707   4.455 104.129  1.00  0.00     0.011 C 
ATOM     12  C   UNL     1      32.945   5.354 104.738  1.00  0.00     0.032 C 
ATOM     13  O   UNL     1      29.690   2.017 102.471  1.00  0.00    -0.246 OA
ATOM     14  C   UNL     1      31.430   5.354 104.809  1.00  0.00    -0.026 C 
ENDBRANCH   4   5
ENDBRANCH   1   4
TORSDOF 3
ENDMDL
MODEL 6
REMARK VINA RESULT:    -4.689      9.100     10.493
REMARK INTER + INTRA:          -5.708
REMARK INTER:                  -5.217
REMARK INTRA:                  -0.491
REMARK UNBOUND:                -0.197
REMARK SMILES CCCC[C@@H]1OC(=O)C2=C1CCC=C2
REMARK SMILES IDX 3 1 2 2 1 3 4 4 5 5 10 6 6 7 9 8 11 9 7 10 14 11 12 12 8 13
REMARK SMILES IDX 13 14
REMARK H PARENT
REMARK Flexibility Score: inf
ROOT
ATOM      1  C   UNL     1      23.479  -6.021 106.242  1.00  0.00     0.004 C 
ENDROOT
BRANCH   1   2
ATOM      2  C   UNL     1      22.080  -5.845 106.853  1.00  0.00    -0.003 C 
ATOM      3  C   UNL     1      20.964  -6.293 105.910  1.00  0.00     0.004 C 
ENDBRANCH   1   2
BRANCH   1   4
ATOM      4  C   UNL     1      23.514  -7.102 105.151  1.00  0.00     0.050 C 
BRANCH   4   5
ATOM      5  C   UNL     1      24.102  -6.553 103.844  1.00  0.00     0.204 C 
ATOM      6  C   UNL     1      23.016  -6.122 102.885  1.00  0.00    -0.015 C 
ATOM      7  O   UNL     1      24.816  -5.337 104.086  1.00  0.00    -0.454 OA
ATOM      8  C   UNL     1      23.091  -4.823 102.645  1.00  0.00     0.062 C 
ATOM      9  C   UNL     1      21.871  -6.952 102.370  1.00  0.00     0.040 C 
ATOM     10  C   UNL     1      24.213  -4.308 103.383  1.00  0.00     0.338 C 
ATOM     11  C   UNL     1      22.122  -4.115 101.800  1.00  0.00     0.011 C 
ATOM     12  C   UNL     1      21.285  -6.342 101.075  1.00  0.00     0.032 C 
ATOM     13  O   UNL     1      24.600  -3.110 103.405  1.00  0.00    -0.246 OA
ATOM     14  C   UNL     1      21.219  -4.827 101.115  1.00  0.00    -0.026 C 
ENDBRANCH   4   5
ENDBRANCH   1   4
TORSDOF 3
ENDMDL
MODEL 7
REMARK VINA RESULT:    -4.619      1.894      4.763
REMARK INTER + INTRA:          -5.627
REMARK INTER:                  -5.425
REMARK INTRA:                  -0.202
REMARK UNBOUND:                -0.197
REMARK SMILES CCCC[C@@H]1OC(=O)C2=C1CCC=C2
REMARK SMILES IDX 3 1 2 2 1 3 4 4 5 5 10 6 6 7 9 8 11 9 7 10 14 11 12 12 8 13
REMARK SMILES IDX 13 14
REMARK H PARENT
REMARK Flexibility Score: inf
ROOT
ATOM      1  C   UNL     1      22.543   5.213 100.776  1.00  0.00     0.004 C 
ENDROOT
BRANCH   1   2
ATOM      2  C   UNL     1      22.681   6.690 100.376  1.00  0.00    -0.003 C 
ATOM      3  C   UNL     1      24.133   7.166 100.362  1.00  0.00     0.004 C 
ENDBRANCH   1   2
BRANCH   1   4
ATOM      4  C   UNL     1      21.696   5.022 102.043  1.00  0.00     0.050 C 
BRANCH   4   5
ATOM      5  C   UNL     1      22.548   4.497 103.207  1.00  0.00     0.204 C 
ATOM      6  C   UNL     1      22.761   3.005 103.110  1.00  0.00    -0.015 C 
ATOM      7  O   UNL     1      23.879   5.018 103.130  1.00  0.00    -0.454 OA
ATOM      8  C   UNL     1      24.046   2.724 102.962  1.00  0.00     0.062 C 
ATOM      9  C   UNL     1      21.707   1.936 103.008  1.00  0.00     0.040 C 
ATOM     10  C   UNL     1      24.768   3.968 102.976  1.00  0.00     0.338 C 
ATOM     11  C   UNL     1      24.543   1.355 102.776  1.00  0.00     0.011 C 
ATOM     12  C   UNL     1      22.276   0.556 103.416  1.00  0.00     0.032 C 
ATOM     13  O   UNL     1      26.015   4.103 102.861  1.00  0.00    -0.246 OA
ATOM     14  C   UNL     1      23.690   0.333 102.916  1.00  0.00    -0.026 C 
ENDBRANCH   4   5
ENDBRANCH   1   4
TORSDOF 3
ENDMDL
MODEL 8
REMARK VINA RESULT:    -4.494      8.409     10.789
REMARK INTER + INTRA:          -5.480
REMARK INTER:                  -5.078
REMARK INTRA:                  -0.402
REMARK UNBOUND:                -0.197
REMARK SMILES CCCC[C@@H]1OC(=O)C2=C1CCC=C2
REMARK SMILES IDX 3 1 2 2 1 3 4 4 5 5 10 6 6 7 9 8 11 9 7 10 14 11 12 12 8 13
REMARK SMILES IDX 13 14
REMARK H PARENT
REMARK Flexibility Score: inf
ROOT
ATOM      1  C   UNL     1      33.407   3.757 100.415  1.00  0.00     0.004 C 
ENDROOT
BRANCH   1   2
ATOM      2  C   UNL     1      32.688   5.042  99.978  1.00  0.00    -0.003 C 
ATOM      3  C   UNL     1      31.908   4.869  98.676  1.00  0.00     0.004 C 
ENDBRANCH   1   2
BRANCH   1   4
ATOM      4  C   UNL     1      33.709   3.733 101.921  1.00  0.00     0.050 C 
BRANCH   4   5
ATOM      5  C   UNL     1      32.826   4.734 102.680  1.00  0.00     0.204 C 
ATOM      6  C   UNL     1      31.783   4.031 103.517  1.00  0.00    -0.015 C 
ATOM      7  O   UNL     1      33.596   5.444 103.656  1.00  0.00    -0.454 OA
ATOM      8  C   UNL     1      31.964   4.286 104.803  1.00  0.00     0.062 C 
ATOM      9  C   UNL     1      30.762   3.029 103.051  1.00  0.00     0.040 C 
ATOM     10  C   UNL     1      33.091   5.172 104.916  1.00  0.00     0.338 C 
ATOM     11  C   UNL     1      31.138   3.683 105.855  1.00  0.00     0.011 C 
ATOM     12  C   UNL     1      29.595   2.917 104.060  1.00  0.00     0.032 C 
ATOM     13  O   UNL     1      33.566   5.636 105.987  1.00  0.00    -0.246 OA
ATOM     14  C   UNL     1      30.059   2.972 105.504  1.00  0.00    -0.026 C 
ENDBRANCH   4   5
ENDBRANCH   1   4
TORSDOF 3
ENDMDL
MODEL 9
REMARK VINA RESULT:    -4.392      8.992     10.498
REMARK INTER + INTRA:          -5.359
REMARK INTER:                  -5.021
REMARK INTRA:                  -0.338
REMARK UNBOUND:                -0.197
REMARK SMILES CCCC[C@@H]1OC(=O)C2=C1CCC=C2
REMARK SMILES IDX 3 1 2 2 1 3 4 4 5 5 10 6 6 7 9 8 11 9 7 10 14 11 12 12 8 13
REMARK SMILES IDX 13 14
REMARK H PARENT
REMARK Flexibility Score: inf
ROOT
ATOM      1  C   UNL     1      23.260  -6.549 105.770  1.00  0.00     0.004 C 
ENDROOT
BRANCH   1   2
ATOM      2  C   UNL     1      21.961  -6.053 106.424  1.00  0.00    -0.003 C 
ATOM      3  C   UNL     1      22.155  -5.637 107.882  1.00  0.00     0.004 C 
ENDBRANCH   1   2
BRANCH   1   4
ATOM      4  C   UNL     1      23.057  -6.975 104.307  1.00  0.00     0.050 C 
BRANCH   4   5
ATOM      5  C   UNL     1      22.043  -6.066 103.600  1.00  0.00     0.204 C 
ATOM      6  C   UNL     1      22.724  -5.101 102.658  1.00  0.00    -0.015 C 
ATOM      7  O   UNL     1      21.206  -6.831 102.727  1.00  0.00    -0.454 OA
ATOM      8  C   UNL     1      22.345  -5.319 101.409  1.00  0.00     0.062 C 
ATOM      9  C   UNL     1      23.820  -4.124 102.986  1.00  0.00     0.040 C 
ATOM     10  C   UNL     1      21.390  -6.396 101.425  1.00  0.00     0.338 C 
ATOM     11  C   UNL     1      22.895  -4.574 100.270  1.00  0.00     0.011 C 
ATOM     12  C   UNL     1      23.905  -3.008 101.918  1.00  0.00     0.032 C 
ATOM     13  O   UNL     1      20.806  -6.885 100.423  1.00  0.00    -0.246 OA
ATOM     14  C   UNL     1      23.694  -3.526 100.508  1.00  0.00    -0.026 C 
ENDBRANCH   4   5
ENDBRANCH   1   4
TORSDOF 3
ENDMDL
