MODEL 1
REMARK VINA RESULT:    -2.863      0.000      0.000
REMARK INTER + INTRA:          -3.651
REMARK INTER:                  -3.533
REMARK INTRA:                  -0.118
REMARK UNBOUND:                -0.118
REMARK SMILES CCCCCC(=O)[O-]
REMARK SMILES IDX 4 1 5 2 6 3 7 4 8 5 3 6 2 7 1 8
REMARK H PARENT
REMARK Flexibility Score: inf
ROOT
ATOM      1  C   UNL     1     -12.434  10.126   3.570  1.00  0.00     0.006 C 
ENDROOT
BRANCH   1   2
ATOM      2  C   UNL     1     -11.879   9.878   4.979  1.00  0.00     0.053 C 
BRANCH   2   3
ATOM      3  C   UNL     1     -12.831  10.340   6.039  1.00  0.00     0.041 C 
ATOM      4  O   UNL     1     -12.746   9.888   7.211  1.00  0.00    -0.550 OA
ATOM      5  O   UNL     1     -13.793  11.297   5.739  1.00  0.00    -0.550 OA
ENDBRANCH   2   3
ENDBRANCH   1   2
BRANCH   1   6
ATOM      6  C   UNL     1     -13.124   8.881   2.990  1.00  0.00     0.000 C 
BRANCH   6   7
ATOM      7  C   UNL     1     -13.147   8.882   1.453  1.00  0.00    -0.003 C 
ATOM      8  C   UNL     1     -11.819   9.329   0.842  1.00  0.00     0.004 C 
ENDBRANCH   6   7
ENDBRANCH   1   6
TORSDOF 4
ENDMDL
MODEL 2
REMARK VINA RESULT:    -2.807      1.890      3.188
REMARK INTER + INTRA:          -3.581
REMARK INTER:                  -3.377
REMARK INTRA:                  -0.203
REMARK UNBOUND:                -0.118
REMARK SMILES CCCCCC(=O)[O-]
REMARK SMILES IDX 4 1 5 2 6 3 7 4 8 5 3 6 2 7 1 8
REMARK H PARENT
REMARK Flexibility Score: inf
ROOT
ATOM      1  C   UNL     1     -13.136   9.932   6.972  1.00  0.00     0.006 C 
ENDROOT
BRANCH   1   2
ATOM      2  C   UNL     1     -14.582   9.681   6.526  1.00  0.00     0.053 C 
BRANCH   2   3
ATOM      3  C   UNL     1     -15.363  10.956   6.436  1.00  0.00     0.041 C 
ATOM      4  O   UNL     1     -15.030  11.848   5.613  1.00  0.00    -0.550 OA
ATOM      5  O   UNL     1     -16.480  11.145   7.241  1.00  0.00    -0.550 OA
ENDBRANCH   2   3
ENDBRANCH   1   2
BRANCH   1   6
ATOM      6  C   UNL     1     -12.114   9.416   5.944  1.00  0.00     0.000 C 
BRANCH   6   7
ATOM      7  C   UNL     1     -11.989  10.340   4.723  1.00  0.00    -0.003 C 
ATOM      8  C   UNL     1     -12.450   9.672   3.427  1.00  0.00     0.004 C 
ENDBRANCH   6   7
ENDBRANCH   1   6
TORSDOF 4
ENDMDL
MODEL 3
REMARK VINA RESULT:    -2.800      2.183      3.957
REMARK INTER + INTRA:          -3.573
REMARK INTER:                  -3.322
REMARK INTRA:                  -0.251
REMARK UNBOUND:                -0.118
REMARK SMILES CCCCCC(=O)[O-]
REMARK SMILES IDX 4 1 5 2 6 3 7 4 8 5 3 6 2 7 1 8
REMARK H PARENT
REMARK Flexibility Score: inf
ROOT
ATOM      1  C   UNL     1     -14.420  10.392   4.547  1.00  0.00     0.006 C 
ENDROOT
BRANCH   1   2
ATOM      2  C   UNL     1     -12.933  10.477   4.178  1.00  0.00     0.053 C 
BRANCH   2   3
ATOM      3  C   UNL     1     -12.070  10.637   5.392  1.00  0.00     0.041 C 
ATOM      4  O   UNL     1     -11.974   9.703   6.231  1.00  0.00    -0.550 OA
ATOM      5  O   UNL     1     -11.344  11.807   5.579  1.00  0.00    -0.550 OA
ENDBRANCH   2   3
ENDBRANCH   1   2
BRANCH   1   6
ATOM      6  C   UNL     1     -14.882  11.600   5.379  1.00  0.00     0.000 C 
BRANCH   6   7
ATOM      7  C   UNL     1     -15.820  11.200   6.529  1.00  0.00    -0.003 C 
ATOM      8  C   UNL     1     -15.287  10.022   7.344  1.00  0.00     0.004 C 
ENDBRANCH   6   7
ENDBRANCH   1   6
TORSDOF 4
ENDMDL
MODEL 4
REMARK VINA RESULT:    -2.795      1.842      2.791
REMARK INTER + INTRA:          -3.566
REMARK INTER:                  -3.353
REMARK INTRA:                  -0.212
REMARK UNBOUND:                -0.118
REMARK SMILES CCCCCC(=O)[O-]
REMARK SMILES IDX 4 1 5 2 6 3 7 4 8 5 3 6 2 7 1 8
REMARK H PARENT
REMARK Flexibility Score: inf
ROOT
ATOM      1  C   UNL     1     -13.066   9.612   3.587  1.00  0.00     0.006 C 
ENDROOT
BRANCH   1   2
ATOM      2  C   UNL     1     -11.954   9.384   4.620  1.00  0.00     0.053 C 
BRANCH   2   3
ATOM      3  C   UNL     1     -12.045  10.358   5.755  1.00  0.00     0.041 C 
ATOM      4  O   UNL     1     -11.665  11.548   5.603  1.00  0.00    -0.550 OA
ATOM      5  O   UNL     1     -12.581   9.957   6.973  1.00  0.00    -0.550 OA
ENDBRANCH   2   3
ENDBRANCH   1   2
BRANCH   1   6
ATOM      6  C   UNL     1     -14.451   9.221   4.129  1.00  0.00     0.000 C 
BRANCH   6   7
ATOM      7  C   UNL     1     -15.502  10.320   3.907  1.00  0.00    -0.003 C 
ATOM      8  C   UNL     1     -15.274  11.544   4.793  1.00  0.00     0.004 C 
ENDBRANCH   6   7
ENDBRANCH   1   6
TORSDOF 4
ENDMDL
MODEL 5
REMARK VINA RESULT:    -2.748      2.733      3.834
REMARK INTER + INTRA:          -3.509
REMARK INTER:                  -3.250
REMARK INTRA:                  -0.259
REMARK UNBOUND:                -0.118
REMARK SMILES CCCCCC(=O)[O-]
REMARK SMILES IDX 4 1 5 2 6 3 7 4 8 5 3 6 2 7 1 8
REMARK H PARENT
REMARK Flexibility Score: inf
ROOT
ATOM      1  C   UNL     1     -13.360   9.924   7.188  1.00  0.00     0.006 C 
ENDROOT
BRANCH   1   2
ATOM      2  C   UNL     1     -12.355   9.242   6.250  1.00  0.00     0.053 C 
BRANCH   2   3
ATOM      3  C   UNL     1     -11.940  10.148   5.132  1.00  0.00     0.041 C 
ATOM      4  O   UNL     1     -11.956   9.737   3.942  1.00  0.00    -0.550 OA
ATOM      5  O   UNL     1     -11.565  11.458   5.402  1.00  0.00    -0.550 OA
ENDBRANCH   2   3
ENDBRANCH   1   2
BRANCH   1   6
ATOM      6  C   UNL     1     -14.794   9.877   6.636  1.00  0.00     0.000 C 
BRANCH   6   7
ATOM      7  C   UNL     1     -15.333  11.270   6.276  1.00  0.00    -0.003 C 
ATOM      8  C   UNL     1     -15.286  11.552   4.775  1.00  0.00     0.004 C 
ENDBRANCH   6   7
ENDBRANCH   1   6
TORSDOF 4
ENDMDL
MODEL 6
REMARK VINA RESULT:    -2.731      2.385      4.001
REMARK INTER + INTRA:          -3.487
REMARK INTER:                  -3.291
REMARK INTRA:                  -0.196
REMARK UNBOUND:                -0.118
REMARK SMILES CCCCCC(=O)[O-]
REMARK SMILES IDX 4 1 5 2 6 3 7 4 8 5 3 6 2 7 1 8
REMARK H PARENT
REMARK Flexibility Score: inf
ROOT
ATOM      1  C   UNL     1     -12.648  10.563   4.456  1.00  0.00     0.006 C 
ENDROOT
BRANCH   1   2
ATOM      2  C   UNL     1     -14.031   9.937   4.236  1.00  0.00     0.053 C 
BRANCH   2   3
ATOM      3  C   UNL     1     -15.129  10.936   4.432  1.00  0.00     0.041 C 
ATOM      4  O   UNL     1     -16.188  10.858   3.755  1.00  0.00    -0.550 OA
ATOM      5  O   UNL     1     -14.996  11.937   5.387  1.00  0.00    -0.550 OA
ENDBRANCH   2   3
ENDBRANCH   1   2
BRANCH   1   6
ATOM      6  C   UNL     1     -11.982  10.060   5.748  1.00  0.00     0.000 C 
BRANCH   6   7
ATOM      7  C   UNL     1     -12.833   9.012   6.480  1.00  0.00    -0.003 C 
ATOM      8  C   UNL     1     -13.342   9.506   7.834  1.00  0.00     0.004 C 
ENDBRANCH   6   7
ENDBRANCH   1   6
TORSDOF 4
ENDMDL
MODEL 7
REMARK VINA RESULT:    -2.702      2.077      3.140
REMARK INTER + INTRA:          -3.451
REMARK INTER:                  -3.356
REMARK INTRA:                  -0.095
REMARK UNBOUND:                -0.118
REMARK SMILES CCCCCC(=O)[O-]
REMARK SMILES IDX 4 1 5 2 6 3 7 4 8 5 3 6 2 7 1 8
REMARK H PARENT
REMARK Flexibility Score: inf
ROOT
ATOM      1  C   UNL     1     -13.313  10.488   6.498  1.00  0.00     0.006 C 
ENDROOT
BRANCH   1   2
ATOM      2  C   UNL     1     -13.176   9.246   7.389  1.00  0.00     0.053 C 
BRANCH   2   3
ATOM      3  C   UNL     1     -13.933   9.399   8.672  1.00  0.00     0.041 C 
ATOM      4  O   UNL     1     -13.332   9.327   9.776  1.00  0.00    -0.550 OA
ATOM      5  O   UNL     1     -15.298   9.655   8.648  1.00  0.00    -0.550 OA
ENDBRANCH   2   3
ENDBRANCH   1   2
BRANCH   1   6
ATOM      6  C   UNL     1     -12.060  10.728   5.639  1.00  0.00     0.000 C 
BRANCH   6   7
ATOM      7  C   UNL     1     -11.729   9.531   4.734  1.00  0.00    -0.003 C 
ATOM      8  C   UNL     1     -12.482   9.570   3.404  1.00  0.00     0.004 C 
ENDBRANCH   6   7
ENDBRANCH   1   6
TORSDOF 4
ENDMDL
MODEL 8
REMARK VINA RESULT:    -2.683     13.055     13.597
REMARK INTER + INTRA:          -3.428
REMARK INTER:                  -3.269
REMARK INTRA:                  -0.160
REMARK UNBOUND:                -0.118
REMARK SMILES CCCCCC(=O)[O-]
REMARK SMILES IDX 4 1 5 2 6 3 7 4 8 5 3 6 2 7 1 8
REMARK H PARENT
REMARK Flexibility Score: inf
ROOT
ATOM      1  C   UNL     1      -2.352  12.922  10.693  1.00  0.00     0.006 C 
ENDROOT
BRANCH   1   2
ATOM      2  C   UNL     1      -1.887  14.196   9.975  1.00  0.00     0.053 C 
BRANCH   2   3
ATOM      3  C   UNL     1      -1.029  15.048  10.858  1.00  0.00     0.041 C 
ATOM      4  O   UNL     1      -0.004  14.564  11.407  1.00  0.00    -0.550 OA
ATOM      5  O   UNL     1      -1.344  16.387  11.050  1.00  0.00    -0.550 OA
ENDBRANCH   2   3
ENDBRANCH   1   2
BRANCH   1   6
ATOM      6  C   UNL     1      -1.852  11.646   9.995  1.00  0.00     0.000 C 
BRANCH   6   7
ATOM      7  C   UNL     1      -0.628  11.904   9.102  1.00  0.00    -0.003 C 
ATOM      8  C   UNL     1      -0.834  11.425   7.665  1.00  0.00     0.004 C 
ENDBRANCH   6   7
ENDBRANCH   1   6
TORSDOF 4
ENDMDL
MODEL 9
REMARK VINA RESULT:    -2.669     12.877     14.417
REMARK INTER + INTRA:          -3.410
REMARK INTER:                  -3.361
REMARK INTRA:                  -0.049
REMARK UNBOUND:                -0.118
REMARK SMILES CCCCCC(=O)[O-]
REMARK SMILES IDX 4 1 5 2 6 3 7 4 8 5 3 6 2 7 1 8
REMARK H PARENT
REMARK Flexibility Score: inf
ROOT
ATOM      1  C   UNL     1      -1.158  14.697  11.215  1.00  0.00     0.006 C 
ENDROOT
BRANCH   1   2
ATOM      2  C   UNL     1      -1.943  14.091  10.045  1.00  0.00     0.053 C 
BRANCH   2   3
ATOM      3  C   UNL     1      -2.283  12.653  10.292  1.00  0.00     0.041 C 
ATOM      4  O   UNL     1      -3.172  12.345  11.129  1.00  0.00    -0.550 OA
ATOM      5  O   UNL     1      -1.640  11.653   9.572  1.00  0.00    -0.550 OA
ENDBRANCH   2   3
ENDBRANCH   1   2
BRANCH   1   6
ATOM      6  C   UNL     1      -1.144  16.234  11.170  1.00  0.00     0.000 C 
BRANCH   6   7
ATOM      7  C   UNL     1      -1.376  16.866  12.551  1.00  0.00    -0.003 C 
ATOM      8  C   UNL     1      -1.901  18.299  12.465  1.00  0.00     0.004 C 
ENDBRANCH   6   7
ENDBRANCH   1   6
TORSDOF 4
ENDMDL
