MODEL 1
REMARK VINA RESULT:    -5.373      0.000      0.000
REMARK INTER + INTRA:          -8.858
REMARK INTER:                  -7.101
REMARK INTRA:                  -1.757
REMARK UNBOUND:                -1.757
REMARK SMILES CC[C@@H](C=C[C@H](C)[C@H]1CC[C@H]2[C@@H]3CC=C4C[C@@H](O)CC[C@@]4(C)[C@@H]3CC[C@]12C)C(C)C
REMARK SMILES IDX 6 1 7 2 5 3 4 4 3 5 2 6 1 7 28 8 29 9 30 10 8 11 9 12 26 13
REMARK SMILES IDX 10 14 11 15 25 16 27 17 12 18 24 19 23 20 13 21 21 22 14 23
REMARK SMILES IDX 15 24 20 25 22 26 16 27 19 28 17 29 18 30
REMARK H PARENT 18 31
REMARK Flexibility Score: inf
ROOT
ATOM      1  C   UNL     1     112.654 105.586  95.377  1.00  0.00     0.012 C 
ATOM      2  C   UNL     1     113.647 104.442  95.650  1.00  0.00     0.012 C 
ENDROOT
BRANCH   1   3
ATOM      3  C   UNL     1     112.914 106.692  96.379  1.00  0.00    -0.028 C 
ATOM      4  C   UNL     1     111.970 107.488  96.924  1.00  0.00    -0.027 C 
BRANCH   4   5
ATOM      5  C   UNL     1     110.471 107.408  96.653  1.00  0.00     0.014 C 
BRANCH   5   6
ATOM      6  C   UNL     1     109.900 108.740  96.104  1.00  0.00     0.004 C 
ATOM      7  C   UNL     1     110.939 109.797  95.720  1.00  0.00     0.004 C 
ENDBRANCH   5   6
BRANCH   5   8
ATOM      8  C   UNL     1     109.653 106.816  97.854  1.00  0.00    -0.011 C 
ATOM      9  C   UNL     1     109.524 107.742  99.082  1.00  0.00     0.008 C 
ATOM     10  C   UNL     1     110.257 105.475  98.309  1.00  0.00     0.008 C 
ENDBRANCH   5   8
ENDBRANCH   4   5
ENDBRANCH   1   3
BRANCH   1  11
ATOM     11  C   UNL     1     112.798 106.095  93.904  1.00  0.00     0.002 C 
ATOM     12  C   UNL     1     113.911 105.334  93.132  1.00  0.00     0.005 C 
ATOM     13  C   UNL     1     111.556 105.980  92.961  1.00  0.00    -0.026 C 
ATOM     14  C   UNL     1     113.459 105.219  91.669  1.00  0.00     0.005 C 
ATOM     15  C   UNL     1     112.247 106.132  91.591  1.00  0.00    -0.001 C 
ATOM     16  C   UNL     1     110.512 107.119  93.084  1.00  0.00     0.007 C 
ATOM     17  C   UNL     1     110.851 104.600  93.165  1.00  0.00     0.012 C 
ATOM     18  C   UNL     1     111.272 105.977  90.408  1.00  0.00     0.000 C 
ATOM     19  C   UNL     1     109.508 107.132  91.898  1.00  0.00     0.005 C 
ATOM     20  C   UNL     1     110.146 107.054  90.471  1.00  0.00     0.003 C 
ATOM     21  C   UNL     1     111.936 105.939  89.027  1.00  0.00     0.031 C 
ATOM     22  C   UNL     1     110.470 108.475  89.821  1.00  0.00    -0.008 C 
ATOM     23  C   UNL     1     112.253 107.288  88.464  1.00  0.00    -0.027 C 
ATOM     24  C   UNL     1     111.466 108.363  88.652  1.00  0.00    -0.065 C 
ATOM     25  C   UNL     1     109.114 109.126  89.324  1.00  0.00     0.014 C 
ATOM     26  C   UNL     1     111.111 109.469  90.835  1.00  0.00     0.016 C 
ATOM     27  C   UNL     1     111.652 109.533  87.695  1.00  0.00     0.063 C 
ATOM     28  C   UNL     1     109.148 109.691  87.892  1.00  0.00     0.033 C 
ATOM     29  C   UNL     1     110.435 110.476  87.646  1.00  0.00     0.118 C 
BRANCH  29  30
ATOM     30  O   UNL     1     110.354 111.105  86.393  1.00  0.00    -0.393 OA
ATOM     31  H   UNL     1     110.174 110.394  85.726  1.00  0.00     0.210 HD
ENDBRANCH  29  30
ENDBRANCH   1  11
TORSDOF 6
ENDMDL
MODEL 2
REMARK VINA RESULT:    -5.359     11.055     13.191
REMARK INTER + INTRA:          -8.838
REMARK INTER:                  -6.835
REMARK INTRA:                  -2.004
REMARK UNBOUND:                -1.757
REMARK SMILES CC[C@@H](C=C[C@H](C)[C@H]1CC[C@H]2[C@@H]3CC=C4C[C@@H](O)CC[C@@]4(C)[C@@H]3CC[C@]12C)C(C)C
REMARK SMILES IDX 6 1 7 2 5 3 4 4 3 5 2 6 1 7 28 8 29 9 30 10 8 11 9 12 26 13
REMARK SMILES IDX 10 14 11 15 25 16 27 17 12 18 24 19 23 20 13 21 21 22 14 23
REMARK SMILES IDX 15 24 20 25 22 26 16 27 19 28 17 29 18 30
REMARK H PARENT 18 31
REMARK Flexibility Score: inf
ROOT
ATOM      1  C   UNL     1     111.515 108.209 103.972  1.00  0.00     0.012 C 
ATOM      2  C   UNL     1     112.992 107.918 103.649  1.00  0.00     0.012 C 
ENDROOT
BRANCH   1   3
ATOM      3  C   UNL     1     111.241 107.755 105.391  1.00  0.00    -0.028 C 
ATOM      4  C   UNL     1     110.174 107.028 105.784  1.00  0.00    -0.027 C 
BRANCH   4   5
ATOM      5  C   UNL     1     109.065 106.507 104.874  1.00  0.00     0.014 C 
BRANCH   5   6
ATOM      6  C   UNL     1     107.655 106.734 105.476  1.00  0.00     0.004 C 
ATOM      7  C   UNL     1     106.867 105.466 105.816  1.00  0.00     0.004 C 
ENDBRANCH   5   6
BRANCH   5   8
ATOM      8  C   UNL     1     109.310 105.042 104.371  1.00  0.00    -0.011 C 
ATOM      9  C   UNL     1     110.164 104.159 105.307  1.00  0.00     0.008 C 
ATOM     10  C   UNL     1     109.959 105.052 102.976  1.00  0.00     0.008 C 
ENDBRANCH   5   8
ENDBRANCH   4   5
ENDBRANCH   1   3
BRANCH   1  11
ATOM     11  C   UNL     1     111.203 109.730 103.780  1.00  0.00     0.002 C 
ATOM     12  C   UNL     1     112.047 110.357 102.637  1.00  0.00     0.005 C 
ATOM     13  C   UNL     1     109.738 110.140 103.419  1.00  0.00    -0.026 C 
ATOM     14  C   UNL     1     111.181 111.430 101.960  1.00  0.00     0.005 C 
ATOM     15  C   UNL     1     109.984 111.567 102.887  1.00  0.00    -0.001 C 
ATOM     16  C   UNL     1     108.758 110.253 104.615  1.00  0.00     0.007 C 
ATOM     17  C   UNL     1     109.151 109.160 102.353  1.00  0.00     0.012 C 
ATOM     18  C   UNL     1     108.703 112.238 102.356  1.00  0.00     0.000 C 
ATOM     19  C   UNL     1     107.445 110.994 104.236  1.00  0.00     0.005 C 
ATOM     20  C   UNL     1     107.628 112.352 103.481  1.00  0.00     0.003 C 
ATOM     21  C   UNL     1     108.924 113.581 101.653  1.00  0.00     0.031 C 
ATOM     22  C   UNL     1     107.717 113.626 104.437  1.00  0.00    -0.008 C 
ATOM     23  C   UNL     1     109.034 114.748 102.583  1.00  0.00    -0.027 C 
ATOM     24  C   UNL     1     108.319 114.848 103.719  1.00  0.00    -0.065 C 
ATOM     25  C   UNL     1     106.263 113.965 104.967  1.00  0.00     0.014 C 
ATOM     26  C   UNL     1     108.615 113.379 105.687  1.00  0.00     0.016 C 
ATOM     27  C   UNL     1     108.190 116.234 104.336  1.00  0.00     0.063 C 
ATOM     28  C   UNL     1     105.857 115.445 104.856  1.00  0.00     0.033 C 
ATOM     29  C   UNL     1     106.997 116.358 105.303  1.00  0.00     0.118 C 
BRANCH  29  30
ATOM     30  O   UNL     1     106.533 117.683 105.339  1.00  0.00    -0.393 OA
ATOM     31  H   UNL     1     105.638 117.664 105.763  1.00  0.00     0.210 HD
ENDBRANCH  29  30
ENDBRANCH   1  11
TORSDOF 6
ENDMDL
MODEL 3
REMARK VINA RESULT:    -5.308      1.282      1.985
REMARK INTER + INTRA:          -8.771
REMARK INTER:                  -6.795
REMARK INTRA:                  -1.976
REMARK UNBOUND:                -1.757
REMARK SMILES CC[C@@H](C=C[C@H](C)[C@H]1CC[C@H]2[C@@H]3CC=C4C[C@@H](O)CC[C@@]4(C)[C@@H]3CC[C@]12C)C(C)C
REMARK SMILES IDX 6 1 7 2 5 3 4 4 3 5 2 6 1 7 28 8 29 9 30 10 8 11 9 12 26 13
REMARK SMILES IDX 10 14 11 15 25 16 27 17 12 18 24 19 23 20 13 21 21 22 14 23
REMARK SMILES IDX 15 24 20 25 22 26 16 27 19 28 17 29 18 30
REMARK H PARENT 18 31
REMARK Flexibility Score: inf
ROOT
ATOM      1  C   UNL     1     112.661 104.558  95.334  1.00  0.00     0.012 C 
ATOM      2  C   UNL     1     114.069 104.259  95.877  1.00  0.00     0.012 C 
ENDROOT
BRANCH   1   3
ATOM      3  C   UNL     1     111.821 105.109  96.467  1.00  0.00    -0.028 C 
ATOM      4  C   UNL     1     111.721 106.413  96.800  1.00  0.00    -0.027 C 
BRANCH   4   5
ATOM      5  C   UNL     1     112.411 107.572  96.086  1.00  0.00     0.014 C 
BRANCH   5   6
ATOM      6  C   UNL     1     113.717 108.007  96.798  1.00  0.00     0.004 C 
ATOM      7  C   UNL     1     114.991 107.928  95.951  1.00  0.00     0.004 C 
ENDBRANCH   5   6
BRANCH   5   8
ATOM      8  C   UNL     1     111.445 108.761  95.753  1.00  0.00    -0.011 C 
ATOM      9  C   UNL     1     111.935 110.153  96.206  1.00  0.00     0.008 C 
ATOM     10  C   UNL     1     110.051 108.508  96.354  1.00  0.00     0.008 C 
ENDBRANCH   5   8
ENDBRANCH   4   5
ENDBRANCH   1   3
BRANCH   1  11
ATOM     11  C   UNL     1     112.740 105.558  94.132  1.00  0.00     0.002 C 
ATOM     12  C   UNL     1     114.058 105.397  93.327  1.00  0.00     0.005 C 
ATOM     13  C   UNL     1     111.629 105.478  93.034  1.00  0.00    -0.026 C 
ATOM     14  C   UNL     1     113.736 105.685  91.853  1.00  0.00     0.005 C 
ATOM     15  C   UNL     1     112.325 106.250  91.895  1.00  0.00    -0.001 C 
ATOM     16  C   UNL     1     110.308 106.221  93.360  1.00  0.00     0.007 C 
ATOM     17  C   UNL     1     111.319 103.985  92.690  1.00  0.00     0.012 C 
ATOM     18  C   UNL     1     111.495 106.280  90.597  1.00  0.00     0.000 C 
ATOM     19  C   UNL     1     109.405 106.398  92.107  1.00  0.00     0.005 C 
ATOM     20  C   UNL     1     110.116 106.968  90.835  1.00  0.00     0.003 C 
ATOM     21  C   UNL     1     112.219 106.877  89.385  1.00  0.00     0.031 C 
ATOM     22  C   UNL     1     110.074 108.559  90.720  1.00  0.00    -0.008 C 
ATOM     23  C   UNL     1     112.184 108.371  89.327  1.00  0.00    -0.027 C 
ATOM     24  C   UNL     1     111.124 109.095  89.730  1.00  0.00    -0.065 C 
ATOM     25  C   UNL     1     108.620 108.995  90.265  1.00  0.00     0.014 C 
ATOM     26  C   UNL     1     110.363 109.269  92.076  1.00  0.00     0.016 C 
ATOM     27  C   UNL     1     111.034 110.530  89.227  1.00  0.00     0.063 C 
ATOM     28  C   UNL     1     108.575 110.006  89.105  1.00  0.00     0.033 C 
ATOM     29  C   UNL     1     109.610 111.112  89.306  1.00  0.00     0.118 C 
BRANCH  29  30
ATOM     30  O   UNL     1     109.428 112.092  88.317  1.00  0.00    -0.393 OA
ATOM     31  H   UNL     1     108.863 111.687  87.610  1.00  0.00     0.210 HD
ENDBRANCH  29  30
ENDBRANCH   1  11
TORSDOF 6
ENDMDL
MODEL 4
REMARK VINA RESULT:    -5.303     12.812     15.308
REMARK INTER + INTRA:          -8.765
REMARK INTER:                  -7.017
REMARK INTRA:                  -1.748
REMARK UNBOUND:                -1.757
REMARK SMILES CC[C@@H](C=C[C@H](C)[C@H]1CC[C@H]2[C@@H]3CC=C4C[C@@H](O)CC[C@@]4(C)[C@@H]3CC[C@]12C)C(C)C
REMARK SMILES IDX 6 1 7 2 5 3 4 4 3 5 2 6 1 7 28 8 29 9 30 10 8 11 9 12 26 13
REMARK SMILES IDX 10 14 11 15 25 16 27 17 12 18 24 19 23 20 13 21 21 22 14 23
REMARK SMILES IDX 15 24 20 25 22 26 16 27 19 28 17 29 18 30
REMARK H PARENT 18 31
REMARK Flexibility Score: inf
ROOT
ATOM      1  C   UNL     1     113.198 122.752  96.295  1.00  0.00     0.012 C 
ATOM      2  C   UNL     1     112.798 124.124  96.866  1.00  0.00     0.012 C 
ENDROOT
BRANCH   1   3
ATOM      3  C   UNL     1     111.961 122.097  95.718  1.00  0.00    -0.028 C 
ATOM      4  C   UNL     1     111.211 121.162  96.339  1.00  0.00    -0.027 C 
BRANCH   4   5
ATOM      5  C   UNL     1     111.455 120.612  97.742  1.00  0.00     0.014 C 
BRANCH   5   6
ATOM      6  C   UNL     1     111.793 119.100  97.729  1.00  0.00     0.004 C 
ATOM      7  C   UNL     1     112.894 118.675  96.754  1.00  0.00     0.004 C 
ENDBRANCH   5   6
BRANCH   5   8
ATOM      8  C   UNL     1     110.333 121.002  98.766  1.00  0.00    -0.011 C 
ATOM      9  C   UNL     1     110.177 122.516  99.025  1.00  0.00     0.008 C 
ATOM     10  C   UNL     1     110.562 120.293 100.112  1.00  0.00     0.008 C 
ENDBRANCH   5   8
ENDBRANCH   4   5
ENDBRANCH   1   3
BRANCH   1  11
ATOM     11  C   UNL     1     114.322 122.915  95.219  1.00  0.00     0.002 C 
ATOM     12  C   UNL     1     115.260 124.113  95.534  1.00  0.00     0.005 C 
ATOM     13  C   UNL     1     115.312 121.724  95.001  1.00  0.00    -0.026 C 
ATOM     14  C   UNL     1     116.670 123.730  95.060  1.00  0.00     0.005 C 
ATOM     15  C   UNL     1     116.451 122.456  94.262  1.00  0.00    -0.001 C 
ATOM     16  C   UNL     1     114.806 120.592  94.071  1.00  0.00     0.007 C 
ATOM     17  C   UNL     1     115.737 121.119  96.378  1.00  0.00     0.012 C 
ATOM     18  C   UNL     1     117.657 121.543  93.968  1.00  0.00     0.000 C 
ATOM     19  C   UNL     1     115.949 119.639  93.624  1.00  0.00     0.005 C 
ATOM     20  C   UNL     1     117.236 120.337  93.074  1.00  0.00     0.003 C 
ATOM     21  C   UNL     1     118.884 122.263  93.399  1.00  0.00     0.031 C 
ATOM     22  C   UNL     1     117.227 120.577  91.496  1.00  0.00    -0.008 C 
ATOM     23  C   UNL     1     118.826 122.498  91.923  1.00  0.00    -0.027 C 
ATOM     24  C   UNL     1     118.269 121.624  91.064  1.00  0.00    -0.065 C 
ATOM     25  C   UNL     1     117.505 119.196  90.772  1.00  0.00     0.014 C 
ATOM     26  C   UNL     1     115.854 121.100  90.975  1.00  0.00     0.016 C 
ATOM     27  C   UNL     1     118.651 121.759  89.596  1.00  0.00     0.063 C 
ATOM     28  C   UNL     1     118.576 119.243  89.667  1.00  0.00     0.033 C 
ATOM     29  C   UNL     1     118.393 120.476  88.783  1.00  0.00     0.118 C 
BRANCH  29  30
ATOM     30  O   UNL     1     119.283 120.397  87.699  1.00  0.00    -0.393 OA
ATOM     31  H   UNL     1     119.220 119.474  87.342  1.00  0.00     0.210 HD
ENDBRANCH  29  30
ENDBRANCH   1  11
TORSDOF 6
ENDMDL
MODEL 5
REMARK VINA RESULT:    -5.180      2.370      3.957
REMARK INTER + INTRA:          -8.602
REMARK INTER:                  -6.566
REMARK INTRA:                  -2.036
REMARK UNBOUND:                -1.757
REMARK SMILES CC[C@@H](C=C[C@H](C)[C@H]1CC[C@H]2[C@@H]3CC=C4C[C@@H](O)CC[C@@]4(C)[C@@H]3CC[C@]12C)C(C)C
REMARK SMILES IDX 6 1 7 2 5 3 4 4 3 5 2 6 1 7 28 8 29 9 30 10 8 11 9 12 26 13
REMARK SMILES IDX 10 14 11 15 25 16 27 17 12 18 24 19 23 20 13 21 21 22 14 23
REMARK SMILES IDX 15 24 20 25 22 26 16 27 19 28 17 29 18 30
REMARK H PARENT 18 31
REMARK Flexibility Score: inf
ROOT
ATOM      1  C   UNL     1     112.652 105.238  91.906  1.00  0.00     0.012 C 
ATOM      2  C   UNL     1     113.079 104.159  90.895  1.00  0.00     0.012 C 
ENDROOT
BRANCH   1   3
ATOM      3  C   UNL     1     113.808 105.489  92.852  1.00  0.00    -0.028 C 
ATOM      4  C   UNL     1     113.700 105.671  94.185  1.00  0.00    -0.027 C 
BRANCH   4   5
ATOM      5  C   UNL     1     112.403 105.632  94.988  1.00  0.00     0.014 C 
BRANCH   5   6
ATOM      6  C   UNL     1     112.485 106.482  96.281  1.00  0.00     0.004 C 
ATOM      7  C   UNL     1     111.371 107.516  96.466  1.00  0.00     0.004 C 
ENDBRANCH   5   6
BRANCH   5   8
ATOM      8  C   UNL     1     111.857 104.180  95.218  1.00  0.00    -0.011 C 
ATOM      9  C   UNL     1     110.497 103.875  94.554  1.00  0.00     0.008 C 
ATOM     10  C   UNL     1     111.752 103.875  96.722  1.00  0.00     0.008 C 
ENDBRANCH   5   8
ENDBRANCH   4   5
ENDBRANCH   1   3
BRANCH   1  11
ATOM     11  C   UNL     1     112.220 106.545  91.161  1.00  0.00     0.002 C 
ATOM     12  C   UNL     1     111.795 106.264  89.693  1.00  0.00     0.005 C 
ATOM     13  C   UNL     1     111.016 107.358  91.739  1.00  0.00    -0.026 C 
ATOM     14  C   UNL     1     110.669 107.247  89.343  1.00  0.00     0.005 C 
ATOM     15  C   UNL     1     110.663 108.220  90.511  1.00  0.00    -0.001 C 
ATOM     16  C   UNL     1     111.356 108.324  92.903  1.00  0.00     0.007 C 
ATOM     17  C   UNL     1     109.874 106.388  92.182  1.00  0.00     0.012 C 
ATOM     18  C   UNL     1     109.422 109.106  90.737  1.00  0.00     0.000 C 
ATOM     19  C   UNL     1     110.212 109.338  93.183  1.00  0.00     0.005 C 
ATOM     20  C   UNL     1     109.647 110.085  91.929  1.00  0.00     0.003 C 
ATOM     21  C   UNL     1     108.922 109.844  89.490  1.00  0.00     0.031 C 
ATOM     22  C   UNL     1     110.382 111.463  91.602  1.00  0.00    -0.008 C 
ATOM     23  C   UNL     1     109.655 111.115  89.198  1.00  0.00    -0.027 C 
ATOM     24  C   UNL     1     110.111 111.936  90.162  1.00  0.00    -0.065 C 
ATOM     25  C   UNL     1     109.893 112.556  92.638  1.00  0.00     0.014 C 
ATOM     26  C   UNL     1     111.932 111.365  91.735  1.00  0.00     0.016 C 
ATOM     27  C   UNL     1     110.437 113.366  89.756  1.00  0.00     0.063 C 
ATOM     28  C   UNL     1     109.470 113.900  92.018  1.00  0.00     0.033 C 
ATOM     29  C   UNL     1     110.465 114.343  90.947  1.00  0.00     0.118 C 
BRANCH  29  30
ATOM     30  O   UNL     1     110.133 115.640  90.523  1.00  0.00    -0.393 OA
ATOM     31  H   UNL     1     110.964 116.179  90.567  1.00  0.00     0.210 HD
ENDBRANCH  29  30
ENDBRANCH   1  11
TORSDOF 6
ENDMDL
MODEL 6
REMARK VINA RESULT:    -5.045      2.827      7.422
REMARK INTER + INTRA:          -8.424
REMARK INTER:                  -6.396
REMARK INTRA:                  -2.028
REMARK UNBOUND:                -1.757
REMARK SMILES CC[C@@H](C=C[C@H](C)[C@H]1CC[C@H]2[C@@H]3CC=C4C[C@@H](O)CC[C@@]4(C)[C@@H]3CC[C@]12C)C(C)C
REMARK SMILES IDX 6 1 7 2 5 3 4 4 3 5 2 6 1 7 28 8 29 9 30 10 8 11 9 12 26 13
REMARK SMILES IDX 10 14 11 15 25 16 27 17 12 18 24 19 23 20 13 21 21 22 14 23
REMARK SMILES IDX 15 24 20 25 22 26 16 27 19 28 17 29 18 30
REMARK H PARENT 18 31
REMARK Flexibility Score: inf
ROOT
ATOM      1  C   UNL     1     112.209 105.896  89.642  1.00  0.00     0.012 C 
ATOM      2  C   UNL     1     112.733 104.586  89.027  1.00  0.00     0.012 C 
ENDROOT
BRANCH   1   3
ATOM      3  C   UNL     1     111.127 106.447  88.738  1.00  0.00    -0.028 C 
ATOM      4  C   UNL     1     110.694 107.726  88.729  1.00  0.00    -0.027 C 
BRANCH   4   5
ATOM      5  C   UNL     1     111.229 108.854  89.607  1.00  0.00     0.014 C 
BRANCH   5   6
ATOM      6  C   UNL     1     110.097 109.613  90.344  1.00  0.00     0.004 C 
ATOM      7  C   UNL     1     108.997 108.737  90.950  1.00  0.00     0.004 C 
ENDBRANCH   5   6
BRANCH   5   8
ATOM      8  C   UNL     1     112.243 109.792  88.864  1.00  0.00    -0.011 C 
ATOM      9  C   UNL     1     112.153 109.768  87.323  1.00  0.00     0.008 C 
ATOM     10  C   UNL     1     113.687 109.463  89.279  1.00  0.00     0.008 C 
ENDBRANCH   5   8
ENDBRANCH   4   5
ENDBRANCH   1   3
BRANCH   1  11
ATOM     11  C   UNL     1     111.678 105.643  91.093  1.00  0.00     0.002 C 
ATOM     12  C   UNL     1     111.523 104.128  91.400  1.00  0.00     0.005 C 
ATOM     13  C   UNL     1     112.530 106.174  92.291  1.00  0.00    -0.026 C 
ATOM     14  C   UNL     1     111.852 103.925  92.887  1.00  0.00     0.005 C 
ATOM     15  C   UNL     1     111.926 105.339  93.438  1.00  0.00    -0.001 C 
ATOM     16  C   UNL     1     112.329 107.669  92.648  1.00  0.00     0.007 C 
ATOM     17  C   UNL     1     114.047 105.897  92.037  1.00  0.00     0.012 C 
ATOM     18  C   UNL     1     112.630 105.577  94.788  1.00  0.00     0.000 C 
ATOM     19  C   UNL     1     112.922 108.030  94.039  1.00  0.00     0.005 C 
ATOM     20  C   UNL     1     112.526 107.074  95.212  1.00  0.00     0.003 C 
ATOM     21  C   UNL     1     112.188 104.641  95.918  1.00  0.00     0.031 C 
ATOM     22  C   UNL     1     111.207 107.512  95.996  1.00  0.00    -0.008 C 
ATOM     23  C   UNL     1     110.932 105.067  96.609  1.00  0.00    -0.027 C 
ATOM     24  C   UNL     1     110.617 106.358  96.826  1.00  0.00    -0.065 C 
ATOM     25  C   UNL     1     111.559 108.737  96.936  1.00  0.00     0.014 C 
ATOM     26  C   UNL     1     110.067 107.980  95.042  1.00  0.00     0.016 C 
ATOM     27  C   UNL     1     109.568 106.644  97.892  1.00  0.00     0.063 C 
ATOM     28  C   UNL     1     111.057 108.613  98.386  1.00  0.00     0.033 C 
ATOM     29  C   UNL     1     109.622 108.090  98.423  1.00  0.00     0.118 C 
BRANCH  29  30
ATOM     30  O   UNL     1     109.150 108.143  99.744  1.00  0.00    -0.393 OA
ATOM     31  H   UNL     1     109.919 107.933 100.334  1.00  0.00     0.210 HD
ENDBRANCH  29  30
ENDBRANCH   1  11
TORSDOF 6
ENDMDL
MODEL 7
REMARK VINA RESULT:    -5.043      2.701      4.259
REMARK INTER + INTRA:          -8.421
REMARK INTER:                  -6.845
REMARK INTRA:                  -1.576
REMARK UNBOUND:                -1.757
REMARK SMILES CC[C@@H](C=C[C@H](C)[C@H]1CC[C@H]2[C@@H]3CC=C4C[C@@H](O)CC[C@@]4(C)[C@@H]3CC[C@]12C)C(C)C
REMARK SMILES IDX 6 1 7 2 5 3 4 4 3 5 2 6 1 7 28 8 29 9 30 10 8 11 9 12 26 13
REMARK SMILES IDX 10 14 11 15 25 16 27 17 12 18 24 19 23 20 13 21 21 22 14 23
REMARK SMILES IDX 15 24 20 25 22 26 16 27 19 28 17 29 18 30
REMARK H PARENT 18 31
REMARK Flexibility Score: inf
ROOT
ATOM      1  C   UNL     1     111.132 104.783  93.556  1.00  0.00     0.012 C 
ATOM      2  C   UNL     1     111.406 103.875  92.343  1.00  0.00     0.012 C 
ENDROOT
BRANCH   1   3
ATOM      3  C   UNL     1     111.846 104.199  94.757  1.00  0.00    -0.028 C 
ATOM      4  C   UNL     1     111.868 104.746  95.992  1.00  0.00    -0.027 C 
BRANCH   4   5
ATOM      5  C   UNL     1     111.161 106.031  96.411  1.00  0.00     0.014 C 
BRANCH   5   6
ATOM      6  C   UNL     1     112.159 107.171  96.740  1.00  0.00     0.004 C 
ATOM      7  C   UNL     1     113.595 106.954  96.255  1.00  0.00     0.004 C 
ENDBRANCH   5   6
BRANCH   5   8
ATOM      8  C   UNL     1     110.067 105.808  97.513  1.00  0.00    -0.011 C 
ATOM      9  C   UNL     1     109.499 107.097  98.145  1.00  0.00     0.008 C 
ATOM     10  C   UNL     1     110.608 104.905  98.635  1.00  0.00     0.008 C 
ENDBRANCH   5   8
ENDBRANCH   4   5
ENDBRANCH   1   3
BRANCH   1  11
ATOM     11  C   UNL     1     111.600 106.246  93.259  1.00  0.00     0.002 C 
ATOM     12  C   UNL     1     112.610 106.307  92.080  1.00  0.00     0.005 C 
ATOM     13  C   UNL     1     110.514 107.300  92.864  1.00  0.00    -0.026 C 
ATOM     14  C   UNL     1     112.360 107.623  91.328  1.00  0.00     0.005 C 
ATOM     15  C   UNL     1     111.412 108.386  92.237  1.00  0.00    -0.001 C 
ATOM     16  C   UNL     1     109.750 107.952  94.044  1.00  0.00     0.007 C 
ATOM     17  C   UNL     1     109.491 106.670  91.864  1.00  0.00     0.012 C 
ATOM     18  C   UNL     1     110.609 109.566  91.656  1.00  0.00     0.000 C 
ATOM     19  C   UNL     1     108.958 109.217  93.610  1.00  0.00     0.005 C 
ATOM     20  C   UNL     1     109.761 110.261  92.764  1.00  0.00     0.003 C 
ATOM     21  C   UNL     1     111.440 110.581  90.864  1.00  0.00     0.031 C 
ATOM     22  C   UNL     1     110.490 111.383  93.633  1.00  0.00    -0.008 C 
ATOM     23  C   UNL     1     112.133 111.598  91.713  1.00  0.00    -0.027 C 
ATOM     24  C   UNL     1     111.593 112.106  92.836  1.00  0.00    -0.065 C 
ATOM     25  C   UNL     1     109.405 112.424  94.131  1.00  0.00     0.014 C 
ATOM     26  C   UNL     1     111.188 110.805  94.901  1.00  0.00     0.016 C 
ATOM     27  C   UNL     1     112.177 113.412  93.357  1.00  0.00     0.063 C 
ATOM     28  C   UNL     1     109.773 113.903  93.918  1.00  0.00     0.033 C 
ATOM     29  C   UNL     1     111.226 114.165  94.307  1.00  0.00     0.118 C 
BRANCH  29  30
ATOM     30  O   UNL     1     111.473 115.546  94.251  1.00  0.00    -0.393 OA
ATOM     31  H   UNL     1     112.232 115.729  94.862  1.00  0.00     0.210 HD
ENDBRANCH  29  30
ENDBRANCH   1  11
TORSDOF 6
ENDMDL
MODEL 8
REMARK VINA RESULT:    -4.890      3.656      6.908
REMARK INTER + INTRA:          -8.218
REMARK INTER:                  -5.966
REMARK INTRA:                  -2.252
REMARK UNBOUND:                -1.757
REMARK SMILES CC[C@@H](C=C[C@H](C)[C@H]1CC[C@H]2[C@@H]3CC=C4C[C@@H](O)CC[C@@]4(C)[C@@H]3CC[C@]12C)C(C)C
REMARK SMILES IDX 6 1 7 2 5 3 4 4 3 5 2 6 1 7 28 8 29 9 30 10 8 11 9 12 26 13
REMARK SMILES IDX 10 14 11 15 25 16 27 17 12 18 24 19 23 20 13 21 21 22 14 23
REMARK SMILES IDX 15 24 20 25 22 26 16 27 19 28 17 29 18 30
REMARK H PARENT 18 31
REMARK Flexibility Score: inf
ROOT
ATOM      1  C   UNL     1     116.160 106.228  91.659  1.00  0.00     0.012 C 
ATOM      2  C   UNL     1     116.545 107.055  90.419  1.00  0.00     0.012 C 
ENDROOT
BRANCH   1   3
ATOM      3  C   UNL     1     117.382 106.102  92.545  1.00  0.00    -0.028 C 
ATOM      4  C   UNL     1     117.784 107.016  93.452  1.00  0.00    -0.027 C 
BRANCH   4   5
ATOM      5  C   UNL     1     117.074 108.329  93.771  1.00  0.00     0.014 C 
BRANCH   5   6
ATOM      6  C   UNL     1     117.861 109.563  93.261  1.00  0.00     0.004 C 
ATOM      7  C   UNL     1     117.182 110.367  92.149  1.00  0.00     0.004 C 
ENDBRANCH   5   6
BRANCH   5   8
ATOM      8  C   UNL     1     116.620 108.442  95.268  1.00  0.00    -0.011 C 
ATOM      9  C   UNL     1     116.526 107.102  96.030  1.00  0.00     0.008 C 
ATOM     10  C   UNL     1     115.264 109.162  95.368  1.00  0.00     0.008 C 
ENDBRANCH   5   8
ENDBRANCH   4   5
ENDBRANCH   1   3
BRANCH   1  11
ATOM     11  C   UNL     1     114.964 106.899  92.414  1.00  0.00     0.002 C 
ATOM     12  C   UNL     1     114.271 107.990  91.552  1.00  0.00     0.005 C 
ATOM     13  C   UNL     1     113.779 105.988  92.872  1.00  0.00    -0.026 C 
ATOM     14  C   UNL     1     112.775 107.966  91.896  1.00  0.00     0.005 C 
ATOM     15  C   UNL     1     112.698 107.061  93.114  1.00  0.00    -0.001 C 
ATOM     16  C   UNL     1     113.991 105.232  94.208  1.00  0.00     0.007 C 
ATOM     17  C   UNL     1     113.417 104.968  91.745  1.00  0.00     0.012 C 
ATOM     18  C   UNL     1     111.335 106.459  93.511  1.00  0.00     0.000 C 
ATOM     19  C   UNL     1     112.668 104.642  94.770  1.00  0.00     0.005 C 
ATOM     20  C   UNL     1     111.456 105.631  94.826  1.00  0.00     0.003 C 
ATOM     21  C   UNL     1     110.184 107.468  93.586  1.00  0.00     0.031 C 
ATOM     22  C   UNL     1     111.330 106.433  96.199  1.00  0.00    -0.008 C 
ATOM     23  C   UNL     1     110.116 108.223  94.875  1.00  0.00    -0.027 C 
ATOM     24  C   UNL     1     110.427 107.674  96.063  1.00  0.00    -0.065 C 
ATOM     25  C   UNL     1     110.755 105.457  97.307  1.00  0.00     0.014 C 
ATOM     26  C   UNL     1     112.702 106.958  96.718  1.00  0.00     0.016 C 
ATOM     27  C   UNL     1     109.912 108.381  97.309  1.00  0.00     0.063 C 
ATOM     28  C   UNL     1     109.590 106.026  98.137  1.00  0.00     0.033 C 
ATOM     29  C   UNL     1     109.870 107.470  98.551  1.00  0.00     0.118 C 
BRANCH  29  30
ATOM     30  O   UNL     1     108.865 107.894  99.435  1.00  0.00    -0.393 OA
ATOM     31  H   UNL     1     108.174 108.349  98.888  1.00  0.00     0.210 HD
ENDBRANCH  29  30
ENDBRANCH   1  11
TORSDOF 6
ENDMDL
MODEL 9
REMARK VINA RESULT:    -4.782      1.618      2.957
REMARK INTER + INTRA:          -8.076
REMARK INTER:                  -6.367
REMARK INTRA:                  -1.710
REMARK UNBOUND:                -1.757
REMARK SMILES CC[C@@H](C=C[C@H](C)[C@H]1CC[C@H]2[C@@H]3CC=C4C[C@@H](O)CC[C@@]4(C)[C@@H]3CC[C@]12C)C(C)C
REMARK SMILES IDX 6 1 7 2 5 3 4 4 3 5 2 6 1 7 28 8 29 9 30 10 8 11 9 12 26 13
REMARK SMILES IDX 10 14 11 15 25 16 27 17 12 18 24 19 23 20 13 21 21 22 14 23
REMARK SMILES IDX 15 24 20 25 22 26 16 27 19 28 17 29 18 30
REMARK H PARENT 18 31
REMARK Flexibility Score: inf
ROOT
ATOM      1  C   UNL     1     110.255 105.795  96.756  1.00  0.00     0.012 C 
ATOM      2  C   UNL     1     110.987 105.098  97.916  1.00  0.00     0.012 C 
ENDROOT
BRANCH   1   3
ATOM      3  C   UNL     1     109.755 107.138  97.248  1.00  0.00    -0.028 C 
ATOM      4  C   UNL     1     110.335 108.329  96.988  1.00  0.00    -0.027 C 
BRANCH   4   5
ATOM      5  C   UNL     1     111.582 108.546  96.135  1.00  0.00     0.014 C 
BRANCH   5   6
ATOM      6  C   UNL     1     112.818 108.930  96.987  1.00  0.00     0.004 C 
ATOM      7  C   UNL     1     114.085 108.111  96.723  1.00  0.00     0.004 C 
ENDBRANCH   5   6
BRANCH   5   8
ATOM      8  C   UNL     1     111.338 109.493  94.908  1.00  0.00    -0.011 C 
ATOM      9  C   UNL     1     112.282 110.712  94.821  1.00  0.00     0.008 C 
ATOM     10  C   UNL     1     109.883 109.993  94.893  1.00  0.00     0.008 C 
ENDBRANCH   5   8
ENDBRANCH   4   5
ENDBRANCH   1   3
BRANCH   1  11
ATOM     11  C   UNL     1     111.206 105.948  95.523  1.00  0.00     0.002 C 
ATOM     12  C   UNL     1     112.495 105.095  95.673  1.00  0.00     0.005 C 
ATOM     13  C   UNL     1     110.659 105.539  94.117  1.00  0.00    -0.026 C 
ATOM     14  C   UNL     1     112.892 104.609  94.271  1.00  0.00     0.005 C 
ATOM     15  C   UNL     1     111.987 105.403  93.344  1.00  0.00    -0.001 C 
ATOM     16  C   UNL     1     109.805 106.609  93.390  1.00  0.00     0.007 C 
ATOM     17  C   UNL     1     109.849 104.206  94.221  1.00  0.00     0.012 C 
ATOM     18  C   UNL     1     111.790 104.914  91.895  1.00  0.00     0.000 C 
ATOM     19  C   UNL     1     109.600 106.280  91.885  1.00  0.00     0.005 C 
ATOM     20  C   UNL     1     110.895 105.906  91.091  1.00  0.00     0.003 C 
ATOM     21  C   UNL     1     113.086 104.591  91.144  1.00  0.00     0.031 C 
ATOM     22  C   UNL     1     111.627 107.149  90.410  1.00  0.00    -0.008 C 
ATOM     23  C   UNL     1     113.760 105.784  90.546  1.00  0.00    -0.027 C 
ATOM     24  C   UNL     1     113.083 106.824  90.026  1.00  0.00    -0.065 C 
ATOM     25  C   UNL     1     110.806 107.581  89.127  1.00  0.00     0.014 C 
ATOM     26  C   UNL     1     111.700 108.392  91.348  1.00  0.00     0.016 C 
ATOM     27  C   UNL     1     113.844 107.743  89.080  1.00  0.00     0.063 C 
ATOM     28  C   UNL     1     111.646 107.792  87.854  1.00  0.00     0.033 C 
ATOM     29  C   UNL     1     112.922 108.572  88.167  1.00  0.00     0.118 C 
BRANCH  29  30
ATOM     30  O   UNL     1     113.575 108.880  86.963  1.00  0.00    -0.393 OA
ATOM     31  H   UNL     1     113.522 109.864  86.849  1.00  0.00     0.210 HD
ENDBRANCH  29  30
ENDBRANCH   1  11
TORSDOF 6
ENDMDL
