MODEL 1
REMARK VINA RESULT:    -1.626      0.000      0.000
REMARK INTER + INTRA:          -3.993
REMARK INTER:                  -2.957
REMARK INTRA:                  -1.036
REMARK UNBOUND:                -1.036
REMARK SMILES CCCCCCCCCCCCCC[C@H](C)C(=O)[O-]
REMARK SMILES IDX 9 1 10 2 11 3 12 4 13 5 14 6 15 7 16 8 17 9 18 10 19 11 8 12
REMARK SMILES IDX 7 13 6 14 5 15 4 16 3 17 2 18 1 19
REMARK H PARENT
REMARK Flexibility Score: inf
ROOT
ATOM      1  C   UNL     1      -0.084  -0.090   0.041  1.00  0.00     0.000 C 
ENDROOT
BRANCH   1   2
ATOM      2  C   UNL     1       0.263   1.115  -0.850  1.00  0.00     0.000 C 
BRANCH   2   3
ATOM      3  C   UNL     1       1.324   0.780  -1.909  1.00  0.00     0.000 C 
BRANCH   3   4
ATOM      4  C   UNL     1       2.714   0.532  -1.300  1.00  0.00     0.000 C 
BRANCH   4   5
ATOM      5  C   UNL     1       3.197   1.704  -0.427  1.00  0.00     0.001 C 
BRANCH   5   6
ATOM      6  C   UNL     1       3.005   3.086  -1.093  1.00  0.00     0.009 C 
BRANCH   6   7
ATOM      7  C   UNL     1       2.509   4.174  -0.112  1.00  0.00     0.032 C 
ATOM      8  C   UNL     1       1.010   4.457  -0.285  1.00  0.00     0.014 C 
BRANCH   7   9
ATOM      9  C   UNL     1       3.286   5.445  -0.318  1.00  0.00     0.044 C 
ATOM     10  O   UNL     1       2.795   6.384  -0.997  1.00  0.00    -0.550 OA
ATOM     11  O   UNL     1       4.550   5.592   0.242  1.00  0.00    -0.550 OA
ENDBRANCH   7   9
ENDBRANCH   6   7
ENDBRANCH   5   6
ENDBRANCH   4   5
ENDBRANCH   3   4
ENDBRANCH   2   3
ENDBRANCH   1   2
BRANCH   1  12
ATOM     12  C   UNL     1      -0.444  -1.341  -0.774  1.00  0.00     0.000 C 
BRANCH  12  13
ATOM     13  C   UNL     1      -1.593  -1.094  -1.766  1.00  0.00    -0.000 C 
BRANCH  13  14
ATOM     14  C   UNL     1      -2.913  -0.740  -1.062  1.00  0.00    -0.000 C 
BRANCH  14  15
ATOM     15  C   UNL     1      -3.625  -1.978  -0.487  1.00  0.00    -0.000 C 
BRANCH  15  16
ATOM     16  C   UNL     1      -3.317  -3.256  -1.282  1.00  0.00    -0.000 C 
BRANCH  16  17
ATOM     17  C   UNL     1      -3.265  -4.508  -0.390  1.00  0.00    -0.000 C 
BRANCH  17  18
ATOM     18  C   UNL     1      -2.058  -5.406  -0.707  1.00  0.00    -0.003 C 
ATOM     19  C   UNL     1      -0.722  -4.714  -0.439  1.00  0.00     0.004 C 
ENDBRANCH  17  18
ENDBRANCH  16  17
ENDBRANCH  15  16
ENDBRANCH  14  15
ENDBRANCH  13  14
ENDBRANCH  12  13
ENDBRANCH   1  12
TORSDOF 14
ENDMDL
MODEL 2
REMARK VINA RESULT:    -1.597      4.691      8.900
REMARK INTER + INTRA:          -3.941
REMARK INTER:                  -2.761
REMARK INTRA:                  -1.180
REMARK UNBOUND:                -1.036
REMARK SMILES CCCCCCCCCCCCCC[C@H](C)C(=O)[O-]
REMARK SMILES IDX 9 1 10 2 11 3 12 4 13 5 14 6 15 7 16 8 17 9 18 10 19 11 8 12
REMARK SMILES IDX 7 13 6 14 5 15 4 16 3 17 2 18 1 19
REMARK H PARENT
REMARK Flexibility Score: inf
ROOT
ATOM      1  C   UNL     1      -0.004  -0.049  -0.124  1.00  0.00     0.000 C 
ENDROOT
BRANCH   1   2
ATOM      2  C   UNL     1      -0.428  -1.342  -0.842  1.00  0.00     0.000 C 
BRANCH   2   3
ATOM      3  C   UNL     1      -1.477  -1.091  -1.937  1.00  0.00     0.000 C 
BRANCH   3   4
ATOM      4  C   UNL     1      -2.875  -0.802  -1.365  1.00  0.00     0.000 C 
BRANCH   4   5
ATOM      5  C   UNL     1      -3.408  -1.953  -0.494  1.00  0.00     0.001 C 
BRANCH   5   6
ATOM      6  C   UNL     1      -3.339  -3.333  -1.187  1.00  0.00     0.009 C 
BRANCH   6   7
ATOM      7  C   UNL     1      -2.787  -4.450  -0.271  1.00  0.00     0.032 C 
ATOM      8  C   UNL     1      -1.280  -4.663  -0.476  1.00  0.00     0.014 C 
BRANCH   7   9
ATOM      9  C   UNL     1      -3.515  -5.739  -0.536  1.00  0.00     0.044 C 
ATOM     10  O   UNL     1      -2.972  -6.644  -1.221  1.00  0.00    -0.550 OA
ATOM     11  O   UNL     1      -4.792  -5.940  -0.023  1.00  0.00    -0.550 OA
ENDBRANCH   7   9
ENDBRANCH   6   7
ENDBRANCH   5   6
ENDBRANCH   4   5
ENDBRANCH   3   4
ENDBRANCH   2   3
ENDBRANCH   1   2
BRANCH   1  12
ATOM     12  C   UNL     1       0.339   1.084  -1.103  1.00  0.00     0.000 C 
BRANCH  12  13
ATOM     13  C   UNL     1       1.583   0.778  -1.954  1.00  0.00    -0.000 C 
BRANCH  13  14
ATOM     14  C   UNL     1       2.808   0.418  -1.097  1.00  0.00    -0.000 C 
BRANCH  14  15
ATOM     15  C   UNL     1       3.397   1.639  -0.368  1.00  0.00    -0.000 C 
BRANCH  15  16
ATOM     16  C   UNL     1       3.148   2.953  -1.125  1.00  0.00    -0.000 C 
BRANCH  16  17
ATOM     17  C   UNL     1       3.115   4.175  -0.191  1.00  0.00    -0.000 C 
BRANCH  17  18
ATOM     18  C   UNL     1       1.992   5.160  -0.551  1.00  0.00    -0.003 C 
ATOM     19  C   UNL     1       0.600   4.603  -0.253  1.00  0.00     0.004 C 
ENDBRANCH  17  18
ENDBRANCH  16  17
ENDBRANCH  15  16
ENDBRANCH  14  15
ENDBRANCH  13  14
ENDBRANCH  12  13
ENDBRANCH   1  12
TORSDOF 14
ENDMDL
MODEL 3
REMARK VINA RESULT:    -1.572      0.931      1.626
REMARK INTER + INTRA:          -3.894
REMARK INTER:                  -3.072
REMARK INTRA:                  -0.822
REMARK UNBOUND:                -1.036
REMARK SMILES CCCCCCCCCCCCCC[C@H](C)C(=O)[O-]
REMARK SMILES IDX 9 1 10 2 11 3 12 4 13 5 14 6 15 7 16 8 17 9 18 10 19 11 8 12
REMARK SMILES IDX 7 13 6 14 5 15 4 16 3 17 2 18 1 19
REMARK H PARENT
REMARK Flexibility Score: inf
ROOT
ATOM      1  C   UNL     1      -0.447   0.163  -0.360  1.00  0.00     0.000 C 
ENDROOT
BRANCH   1   2
ATOM      2  C   UNL     1       0.327  -1.134  -0.654  1.00  0.00     0.000 C 
BRANCH   2   3
ATOM      3  C   UNL     1       1.452  -0.931  -1.680  1.00  0.00     0.000 C 
BRANCH   3   4
ATOM      4  C   UNL     1       1.729   0.554  -1.971  1.00  0.00     0.000 C 
BRANCH   4   5
ATOM      5  C   UNL     1       2.749   1.168  -0.996  1.00  0.00     0.001 C 
BRANCH   5   6
ATOM      6  C   UNL     1       3.041   2.662  -1.270  1.00  0.00     0.009 C 
BRANCH   6   7
ATOM      7  C   UNL     1       2.472   3.605  -0.185  1.00  0.00     0.032 C 
ATOM      8  C   UNL     1       0.945   3.733  -0.284  1.00  0.00     0.014 C 
BRANCH   7   9
ATOM      9  C   UNL     1       3.097   4.967  -0.308  1.00  0.00     0.044 C 
ATOM     10  O   UNL     1       4.235   5.188   0.184  1.00  0.00    -0.550 OA
ATOM     11  O   UNL     1       2.425   5.990  -0.969  1.00  0.00    -0.550 OA
ENDBRANCH   7   9
ENDBRANCH   6   7
ENDBRANCH   5   6
ENDBRANCH   4   5
ENDBRANCH   3   4
ENDBRANCH   2   3
ENDBRANCH   1   2
BRANCH   1  12
ATOM     12  C   UNL     1      -1.511   0.468  -1.425  1.00  0.00     0.000 C 
BRANCH  12  13
ATOM     13  C   UNL     1      -2.135  -0.805  -2.024  1.00  0.00    -0.000 C 
BRANCH  13  14
ATOM     14  C   UNL     1      -3.180  -1.442  -1.094  1.00  0.00    -0.000 C 
BRANCH  14  15
ATOM     15  C   UNL     1      -3.338  -2.954  -1.334  1.00  0.00    -0.000 C 
BRANCH  15  16
ATOM     16  C   UNL     1      -2.794  -3.795  -0.169  1.00  0.00    -0.000 C 
BRANCH  16  17
ATOM     17  C   UNL     1      -1.981  -5.011  -0.647  1.00  0.00    -0.000 C 
BRANCH  17  18
ATOM     18  C   UNL     1      -2.876  -6.196  -1.043  1.00  0.00    -0.003 C 
ATOM     19  C   UNL     1      -4.196  -6.222  -0.273  1.00  0.00     0.004 C 
ENDBRANCH  17  18
ENDBRANCH  16  17
ENDBRANCH  15  16
ENDBRANCH  14  15
ENDBRANCH  13  14
ENDBRANCH  12  13
ENDBRANCH   1  12
TORSDOF 14
ENDMDL
MODEL 4
REMARK VINA RESULT:    -0.594      3.767      8.206
REMARK INTER + INTRA:          -2.116
REMARK INTER:                  -1.320
REMARK INTRA:                  -0.796
REMARK UNBOUND:                -1.036
REMARK SMILES CCCCCCCCCCCCCC[C@H](C)C(=O)[O-]
REMARK SMILES IDX 9 1 10 2 11 3 12 4 13 5 14 6 15 7 16 8 17 9 18 10 19 11 8 12
REMARK SMILES IDX 7 13 6 14 5 15 4 16 3 17 2 18 1 19
REMARK H PARENT
REMARK Flexibility Score: inf
ROOT
ATOM      1  C   UNL     1      -0.657   0.958  -0.773  1.00  0.00     0.000 C 
ENDROOT
BRANCH   1   2
ATOM      2  C   UNL     1      -1.798   0.500  -1.697  1.00  0.00     0.000 C 
BRANCH   2   3
ATOM      3  C   UNL     1      -1.705  -0.992  -2.054  1.00  0.00     0.000 C 
BRANCH   3   4
ATOM      4  C   UNL     1      -3.026  -1.743  -1.816  1.00  0.00     0.000 C 
BRANCH   4   5
ATOM      5  C   UNL     1      -3.376  -1.866  -0.323  1.00  0.00     0.001 C 
BRANCH   5   6
ATOM      6  C   UNL     1      -3.338  -3.321   0.200  1.00  0.00     0.009 C 
BRANCH   6   7
ATOM      7  C   UNL     1      -2.635  -4.300  -0.769  1.00  0.00     0.032 C 
ATOM      8  C   UNL     1      -3.291  -5.688  -0.753  1.00  0.00     0.014 C 
BRANCH   7   9
ATOM      9  C   UNL     1      -1.181  -4.429  -0.406  1.00  0.00     0.044 C 
ATOM     10  O   UNL     1      -0.637  -5.563  -0.367  1.00  0.00    -0.550 OA
ATOM     11  O   UNL     1      -0.429  -3.297  -0.113  1.00  0.00    -0.550 OA
ENDBRANCH   7   9
ENDBRANCH   6   7
ENDBRANCH   5   6
ENDBRANCH   4   5
ENDBRANCH   3   4
ENDBRANCH   2   3
ENDBRANCH   1   2
BRANCH   1  12
ATOM     12  C   UNL     1       0.287  -0.191  -0.387  1.00  0.00     0.000 C 
BRANCH  12  13
ATOM     13  C   UNL     1       1.342  -0.482  -1.468  1.00  0.00    -0.000 C 
BRANCH  13  14
ATOM     14  C   UNL     1       2.025   0.795  -1.984  1.00  0.00    -0.000 C 
BRANCH  14  15
ATOM     15  C   UNL     1       2.909   1.464  -0.914  1.00  0.00    -0.000 C 
BRANCH  15  16
ATOM     16  C   UNL     1       3.212   2.934  -1.238  1.00  0.00    -0.000 C 
BRANCH  16  17
ATOM     17  C   UNL     1       2.770   3.889  -0.115  1.00  0.00    -0.000 C 
BRANCH  17  18
ATOM     18  C   UNL     1       1.681   4.871  -0.573  1.00  0.00    -0.003 C 
ATOM     19  C   UNL     1       0.278   4.436  -0.150  1.00  0.00     0.004 C 
ENDBRANCH  17  18
ENDBRANCH  16  17
ENDBRANCH  15  16
ENDBRANCH  14  15
ENDBRANCH  13  14
ENDBRANCH  12  13
ENDBRANCH   1  12
TORSDOF 14
ENDMDL
MODEL 5
REMARK VINA RESULT:    -0.251      0.623      2.271
REMARK INTER + INTRA:          -1.494
REMARK INTER:                  -1.343
REMARK INTRA:                  -0.151
REMARK UNBOUND:                -1.036
REMARK SMILES CCCCCCCCCCCCCC[C@H](C)C(=O)[O-]
REMARK SMILES IDX 9 1 10 2 11 3 12 4 13 5 14 6 15 7 16 8 17 9 18 10 19 11 8 12
REMARK SMILES IDX 7 13 6 14 5 15 4 16 3 17 2 18 1 19
REMARK H PARENT
REMARK Flexibility Score: inf
ROOT
ATOM      1  C   UNL     1       0.268  -0.806   0.145  1.00  0.00     0.000 C 
ENDROOT
BRANCH   1   2
ATOM      2  C   UNL     1       0.056   0.475  -0.680  1.00  0.00     0.000 C 
BRANCH   2   3
ATOM      3  C   UNL     1       0.976   0.545  -1.908  1.00  0.00     0.000 C 
BRANCH   3   4
ATOM      4  C   UNL     1       2.461   0.366  -1.548  1.00  0.00     0.000 C 
BRANCH   4   5
ATOM      5  C   UNL     1       2.963   1.431  -0.558  1.00  0.00     0.001 C 
BRANCH   5   6
ATOM      6  C   UNL     1       2.971   2.862  -1.145  1.00  0.00     0.009 C 
BRANCH   6   7
ATOM      7  C   UNL     1       2.419   3.926  -0.169  1.00  0.00     0.032 C 
ATOM      8  C   UNL     1       0.938   4.230  -0.433  1.00  0.00     0.014 C 
BRANCH   7   9
ATOM      9  C   UNL     1       3.219   5.195  -0.285  1.00  0.00     0.044 C 
ATOM     10  O   UNL     1       4.388   5.251   0.178  1.00  0.00    -0.550 OA
ATOM     11  O   UNL     1       2.674   6.312  -0.908  1.00  0.00    -0.550 OA
ENDBRANCH   7   9
ENDBRANCH   6   7
ENDBRANCH   5   6
ENDBRANCH   4   5
ENDBRANCH   3   4
ENDBRANCH   2   3
ENDBRANCH   1   2
BRANCH   1  12
ATOM     12  C   UNL     1       0.156  -2.080  -0.705  1.00  0.00     0.000 C 
BRANCH  12  13
ATOM     13  C   UNL     1      -0.318  -3.297   0.108  1.00  0.00    -0.000 C 
BRANCH  13  14
ATOM     14  C   UNL     1      -0.534  -4.542  -0.767  1.00  0.00    -0.000 C 
BRANCH  14  15
ATOM     15  C   UNL     1      -1.959  -5.112  -0.640  1.00  0.00    -0.000 C 
BRANCH  15  16
ATOM     16  C   UNL     1      -2.986  -4.042  -0.240  1.00  0.00    -0.000 C 
BRANCH  16  17
ATOM     17  C   UNL     1      -3.289  -3.057  -1.383  1.00  0.00    -0.000 C 
BRANCH  17  18
ATOM     18  C   UNL     1      -3.251  -1.592  -0.921  1.00  0.00    -0.003 C 
ATOM     19  C   UNL     1      -2.416  -0.704  -1.843  1.00  0.00     0.004 C 
ENDBRANCH  17  18
ENDBRANCH  16  17
ENDBRANCH  15  16
ENDBRANCH  14  15
ENDBRANCH  13  14
ENDBRANCH  12  13
ENDBRANCH   1  12
TORSDOF 14
ENDMDL
MODEL 6
REMARK VINA RESULT:    -0.196      4.596      8.428
REMARK INTER + INTRA:          -1.392
REMARK INTER:                  -0.948
REMARK INTRA:                  -0.445
REMARK UNBOUND:                -1.036
REMARK SMILES CCCCCCCCCCCCCC[C@H](C)C(=O)[O-]
REMARK SMILES IDX 9 1 10 2 11 3 12 4 13 5 14 6 15 7 16 8 17 9 18 10 19 11 8 12
REMARK SMILES IDX 7 13 6 14 5 15 4 16 3 17 2 18 1 19
REMARK H PARENT
REMARK Flexibility Score: inf
ROOT
ATOM      1  C   UNL     1      -0.531   0.735   0.334  1.00  0.00     0.000 C 
ENDROOT
BRANCH   1   2
ATOM      2  C   UNL     1      -0.009  -0.523  -0.381  1.00  0.00     0.000 C 
BRANCH   2   3
ATOM      3  C   UNL     1      -0.929  -0.974  -1.527  1.00  0.00     0.000 C 
BRANCH   3   4
ATOM      4  C   UNL     1      -2.389  -0.535  -1.324  1.00  0.00     0.000 C 
BRANCH   4   5
ATOM      5  C   UNL     1      -3.264  -1.650  -0.724  1.00  0.00     0.001 C 
BRANCH   5   6
ATOM      6  C   UNL     1      -3.028  -3.034  -1.372  1.00  0.00     0.009 C 
BRANCH   6   7
ATOM      7  C   UNL     1      -2.524  -4.099  -0.371  1.00  0.00     0.032 C 
ATOM      8  C   UNL     1      -1.016  -4.350  -0.517  1.00  0.00     0.014 C 
BRANCH   7   9
ATOM      9  C   UNL     1      -3.269  -5.390  -0.575  1.00  0.00     0.044 C 
ATOM     10  O   UNL     1      -2.725  -6.343  -1.192  1.00  0.00    -0.550 OA
ATOM     11  O   UNL     1      -4.560  -5.540  -0.082  1.00  0.00    -0.550 OA
ENDBRANCH   7   9
ENDBRANCH   6   7
ENDBRANCH   5   6
ENDBRANCH   4   5
ENDBRANCH   3   4
ENDBRANCH   2   3
ENDBRANCH   1   2
BRANCH   1  12
ATOM     12  C   UNL     1      -0.330   2.012  -0.497  1.00  0.00     0.000 C 
BRANCH  12  13
ATOM     13  C   UNL     1       0.274   3.165   0.323  1.00  0.00    -0.000 C 
BRANCH  13  14
ATOM     14  C   UNL     1       0.546   4.415  -0.531  1.00  0.00    -0.000 C 
BRANCH  14  15
ATOM     15  C   UNL     1       2.018   4.862  -0.469  1.00  0.00    -0.000 C 
BRANCH  15  16
ATOM     16  C   UNL     1       2.969   3.706  -0.123  1.00  0.00    -0.000 C 
BRANCH  16  17
ATOM     17  C   UNL     1       3.180   2.742  -1.303  1.00  0.00    -0.000 C 
BRANCH  17  18
ATOM     18  C   UNL     1       3.067   1.267  -0.885  1.00  0.00    -0.003 C 
ATOM     19  C   UNL     1       2.328   0.416  -1.917  1.00  0.00     0.004 C 
ENDBRANCH  17  18
ENDBRANCH  16  17
ENDBRANCH  15  16
ENDBRANCH  14  15
ENDBRANCH  13  14
ENDBRANCH  12  13
ENDBRANCH   1  12
TORSDOF 14
ENDMDL
MODEL 7
REMARK VINA RESULT:     0.201      0.832      1.436
REMARK INTER + INTRA:          -0.671
REMARK INTER:                   0.244
REMARK INTRA:                  -0.916
REMARK UNBOUND:                -1.036
REMARK SMILES CCCCCCCCCCCCCC[C@H](C)C(=O)[O-]
REMARK SMILES IDX 9 1 10 2 11 3 12 4 13 5 14 6 15 7 16 8 17 9 18 10 19 11 8 12
REMARK SMILES IDX 7 13 6 14 5 15 4 16 3 17 2 18 1 19
REMARK H PARENT
REMARK Flexibility Score: inf
ROOT
ATOM      1  C   UNL     1       0.643  -0.361  -0.305  1.00  0.00     0.000 C 
ENDROOT
BRANCH   1   2
ATOM      2  C   UNL     1       1.551   0.267  -1.376  1.00  0.00     0.000 C 
BRANCH   2   3
ATOM      3  C   UNL     1       1.360   1.787  -1.493  1.00  0.00     0.000 C 
BRANCH   3   4
ATOM      4  C   UNL     1       0.160   2.299  -0.678  1.00  0.00     0.000 C 
BRANCH   4   5
ATOM      5  C   UNL     1       0.462   3.618   0.055  1.00  0.00     0.001 C 
BRANCH   5   6
ATOM      6  C   UNL     1       1.376   4.573  -0.747  1.00  0.00     0.009 C 
BRANCH   6   7
ATOM      7  C   UNL     1       2.876   4.411  -0.409  1.00  0.00     0.032 C 
ATOM      8  C   UNL     1       3.084   3.658   0.913  1.00  0.00     0.014 C 
BRANCH   7   9
ATOM      9  C   UNL     1       3.534   5.761  -0.325  1.00  0.00     0.044 C 
ATOM     10  O   UNL     1       2.942   6.781  -0.765  1.00  0.00    -0.550 OA
ATOM     11  O   UNL     1       4.797   5.891   0.241  1.00  0.00    -0.550 OA
ENDBRANCH   7   9
ENDBRANCH   6   7
ENDBRANCH   5   6
ENDBRANCH   4   5
ENDBRANCH   3   4
ENDBRANCH   2   3
ENDBRANCH   1   2
BRANCH   1  12
ATOM     12  C   UNL     1      -0.196  -1.526  -0.854  1.00  0.00     0.000 C 
BRANCH  12  13
ATOM     13  C   UNL     1      -1.270  -1.064  -1.854  1.00  0.00    -0.000 C 
BRANCH  13  14
ATOM     14  C   UNL     1      -2.516  -0.492  -1.157  1.00  0.00    -0.000 C 
BRANCH  14  15
ATOM     15  C   UNL     1      -3.474  -1.592  -0.665  1.00  0.00    -0.000 C 
BRANCH  15  16
ATOM     16  C   UNL     1      -3.230  -2.940  -1.362  1.00  0.00    -0.000 C 
BRANCH  16  17
ATOM     17  C   UNL     1      -3.184  -4.117  -0.372  1.00  0.00    -0.000 C 
BRANCH  17  18
ATOM     18  C   UNL     1      -2.189  -5.207  -0.801  1.00  0.00    -0.003 C 
ATOM     19  C   UNL     1      -0.749  -4.881  -0.404  1.00  0.00     0.004 C 
ENDBRANCH  17  18
ENDBRANCH  16  17
ENDBRANCH  15  16
ENDBRANCH  14  15
ENDBRANCH  13  14
ENDBRANCH  12  13
ENDBRANCH   1  12
TORSDOF 14
ENDMDL
MODEL 8
REMARK VINA RESULT:     0.537      1.259      2.646
REMARK INTER + INTRA:          -0.059
REMARK INTER:                   0.783
REMARK INTRA:                  -0.842
REMARK UNBOUND:                -1.036
REMARK SMILES CCCCCCCCCCCCCC[C@H](C)C(=O)[O-]
REMARK SMILES IDX 9 1 10 2 11 3 12 4 13 5 14 6 15 7 16 8 17 9 18 10 19 11 8 12
REMARK SMILES IDX 7 13 6 14 5 15 4 16 3 17 2 18 1 19
REMARK H PARENT
REMARK Flexibility Score: inf
ROOT
ATOM      1  C   UNL     1      -1.945  -0.787  -2.076  1.00  0.00     0.000 C 
ENDROOT
BRANCH   1   2
ATOM      2  C   UNL     1      -1.594   0.666  -1.712  1.00  0.00     0.000 C 
BRANCH   2   3
ATOM      3  C   UNL     1      -0.570   0.757  -0.570  1.00  0.00     0.000 C 
BRANCH   3   4
ATOM      4  C   UNL     1       0.562  -0.275  -0.704  1.00  0.00     0.000 C 
BRANCH   4   5
ATOM      5  C   UNL     1       1.718   0.225  -1.588  1.00  0.00     0.001 C 
BRANCH   5   6
ATOM      6  C   UNL     1       1.747   1.762  -1.752  1.00  0.00     0.009 C 
BRANCH   6   7
ATOM      7  C   UNL     1       3.016   2.416  -1.157  1.00  0.00     0.032 C 
ATOM      8  C   UNL     1       3.747   1.470  -0.194  1.00  0.00     0.014 C 
BRANCH   7   9
ATOM      9  C   UNL     1       2.651   3.683  -0.434  1.00  0.00     0.044 C 
ATOM     10  O   UNL     1       1.442   3.998  -0.280  1.00  0.00    -0.550 OA
ATOM     11  O   UNL     1       3.646   4.513   0.072  1.00  0.00    -0.550 OA
ENDBRANCH   7   9
ENDBRANCH   6   7
ENDBRANCH   5   6
ENDBRANCH   4   5
ENDBRANCH   3   4
ENDBRANCH   2   3
ENDBRANCH   1   2
BRANCH   1  12
ATOM     12  C   UNL     1      -2.834  -1.461  -1.020  1.00  0.00     0.000 C 
BRANCH  12  13
ATOM     13  C   UNL     1      -3.353  -2.838  -1.472  1.00  0.00    -0.000 C 
BRANCH  13  14
ATOM     14  C   UNL     1      -3.390  -3.859  -0.324  1.00  0.00    -0.000 C 
BRANCH  14  15
ATOM     15  C   UNL     1      -2.760  -5.208  -0.715  1.00  0.00    -0.000 C 
BRANCH  15  16
ATOM     16  C   UNL     1      -1.225  -5.185  -0.638  1.00  0.00    -0.000 C 
BRANCH  16  17
ATOM     17  C   UNL     1      -0.699  -4.097   0.314  1.00  0.00    -0.000 C 
BRANCH  17  18
ATOM     18  C   UNL     1       0.207  -3.080  -0.399  1.00  0.00    -0.003 C 
ATOM     19  C   UNL     1       0.802  -3.628  -1.696  1.00  0.00     0.004 C 
ENDBRANCH  17  18
ENDBRANCH  16  17
ENDBRANCH  15  16
ENDBRANCH  14  15
ENDBRANCH  13  14
ENDBRANCH  12  13
ENDBRANCH   1  12
TORSDOF 14
ENDMDL
MODEL 9
REMARK VINA RESULT:     0.611      3.662      8.411
REMARK INTER + INTRA:           0.074
REMARK INTER:                  -0.118
REMARK INTRA:                   0.192
REMARK UNBOUND:                -1.036
REMARK SMILES CCCCCCCCCCCCCC[C@H](C)C(=O)[O-]
REMARK SMILES IDX 9 1 10 2 11 3 12 4 13 5 14 6 15 7 16 8 17 9 18 10 19 11 8 12
REMARK SMILES IDX 7 13 6 14 5 15 4 16 3 17 2 18 1 19
REMARK H PARENT
REMARK Flexibility Score: inf
ROOT
ATOM      1  C   UNL     1      -0.997   0.388  -1.159  1.00  0.00     0.000 C 
ENDROOT
BRANCH   1   2
ATOM      2  C   UNL     1      -1.083  -1.083  -1.600  1.00  0.00     0.000 C 
BRANCH   2   3
ATOM      3  C   UNL     1       0.081  -1.929  -1.063  1.00  0.00     0.000 C 
BRANCH   3   4
ATOM      4  C   UNL     1      -0.339  -2.853   0.092  1.00  0.00     0.000 C 
BRANCH   4   5
ATOM      5  C   UNL     1      -0.296  -4.342  -0.294  1.00  0.00     0.001 C 
BRANCH   5   6
ATOM      6  C   UNL     1      -1.593  -4.838  -0.975  1.00  0.00     0.009 C 
BRANCH   6   7
ATOM      7  C   UNL     1      -2.880  -4.337  -0.278  1.00  0.00     0.032 C 
ATOM      8  C   UNL     1      -3.996  -5.391  -0.315  1.00  0.00     0.014 C 
BRANCH   7   9
ATOM      9  C   UNL     1      -3.361  -3.073  -0.936  1.00  0.00     0.044 C 
ATOM     10  O   UNL     1      -3.359  -2.972  -2.190  1.00  0.00    -0.550 OA
ATOM     11  O   UNL     1      -3.815  -2.010  -0.163  1.00  0.00    -0.550 OA
ENDBRANCH   7   9
ENDBRANCH   6   7
ENDBRANCH   5   6
ENDBRANCH   4   5
ENDBRANCH   3   4
ENDBRANCH   2   3
ENDBRANCH   1   2
BRANCH   1  12
ATOM     12  C   UNL     1       0.428   0.803  -0.762  1.00  0.00     0.000 C 
BRANCH  12  13
ATOM     13  C   UNL     1       1.418   0.725  -1.938  1.00  0.00    -0.000 C 
BRANCH  13  14
ATOM     14  C   UNL     1       2.884   0.727  -1.474  1.00  0.00    -0.000 C 
BRANCH  14  15
ATOM     15  C   UNL     1       3.122   1.665  -0.277  1.00  0.00    -0.000 C 
BRANCH  15  16
ATOM     16  C   UNL     1       3.312   3.128  -0.705  1.00  0.00    -0.000 C 
BRANCH  16  17
ATOM     17  C   UNL     1       2.163   4.035  -0.231  1.00  0.00    -0.000 C 
BRANCH  17  18
ATOM     18  C   UNL     1       2.335   5.491  -0.692  1.00  0.00    -0.003 C 
ATOM     19  C   UNL     1       3.693   6.075  -0.305  1.00  0.00     0.004 C 
ENDBRANCH  17  18
ENDBRANCH  16  17
ENDBRANCH  15  16
ENDBRANCH  14  15
ENDBRANCH  13  14
ENDBRANCH  12  13
ENDBRANCH   1  12
TORSDOF 14
ENDMDL
