MODEL 1
REMARK VINA RESULT:    -4.826      0.000      0.000
REMARK INTER + INTRA:          -5.243
REMARK INTER:                  -5.673
REMARK INTRA:                   0.430
REMARK UNBOUND:                 0.430
REMARK SMILES O=c1c(O)c(-c2ccc(O)cc2)oc2cc(O)cc(O)c12
REMARK SMILES IDX 5 1 3 2 2 3 1 4 21 5 19 6 18 7 16 8 15 9 14 10 13 11 6 12
REMARK SMILES IDX 7 13 8 14 9 15 12 16 11 17 10 18 4 20 20 22 17 24
REMARK H PARENT 10 19 4 21 20 23 17 25
REMARK Flexibility Score: inf
ROOT
ATOM      1  C   UNL     1      -5.846 -17.496  -7.343  1.00  0.00     0.180 A 
ATOM      2  C   UNL     1      -4.568 -17.512  -6.750  1.00  0.00     0.208 A 
ATOM      3  C   UNL     1      -4.384 -16.864  -5.519  1.00  0.00     0.238 A 
ATOM      4  O   UNL     1      -3.248 -16.881  -4.973  1.00  0.00    -0.285 OA
ATOM      5  C   UNL     1      -5.469 -16.199  -4.912  1.00  0.00     0.111 A 
ATOM      6  C   UNL     1      -5.365 -15.519  -3.674  1.00  0.00     0.134 A 
ATOM      7  C   UNL     1      -6.489 -14.872  -3.140  1.00  0.00     0.093 A 
ATOM      8  C   UNL     1      -7.711 -14.889  -3.817  1.00  0.00     0.123 A 
ATOM      9  C   UNL     1      -7.819 -15.559  -5.040  1.00  0.00     0.094 A 
ATOM     10  C   UNL     1      -6.711 -16.212  -5.589  1.00  0.00     0.146 A 
ATOM     11  O   UNL     1      -6.843 -16.845  -6.749  1.00  0.00    -0.452 OA
ENDROOT
BRANCH   1  12
ATOM     12  C   UNL     1      -6.126 -18.171  -8.631  1.00  0.00     0.021 A 
ATOM     13  C   UNL     1      -7.339 -17.921  -9.294  1.00  0.00     0.016 A 
ATOM     14  C   UNL     1      -7.632 -18.565 -10.499  1.00  0.00     0.047 A 
ATOM     15  C   UNL     1      -6.723 -19.479 -11.049  1.00  0.00     0.115 A 
ATOM     16  C   UNL     1      -5.226 -19.105  -9.179  1.00  0.00     0.016 A 
ATOM     17  C   UNL     1      -5.524 -19.748 -10.384  1.00  0.00     0.047 A 
BRANCH  15  18
ATOM     18  O   UNL     1      -7.005 -20.125 -12.251  1.00  0.00    -0.508 OA
ATOM     19  H   UNL     1      -7.676 -19.749 -12.909  1.00  0.00     0.293 HD
ENDBRANCH  15  18
ENDBRANCH   1  12
BRANCH   2  20
ATOM     20  O   UNL     1      -3.499 -18.137  -7.397  1.00  0.00    -0.502 OA
ATOM     21  H   UNL     1      -2.966 -17.680  -8.127  1.00  0.00     0.293 HD
ENDBRANCH   2  20
BRANCH   6  22
ATOM     22  O   UNL     1      -4.159 -15.483  -2.973  1.00  0.00    -0.507 OA
ATOM     23  H   UNL     1      -3.388 -14.897  -3.269  1.00  0.00     0.293 HD
ENDBRANCH   6  22
BRANCH   8  24
ATOM     24  O   UNL     1      -8.811 -14.238  -3.265  1.00  0.00    -0.508 OA
ATOM     25  H   UNL     1      -9.311 -14.620  -2.471  1.00  0.00     0.293 HD
ENDBRANCH   8  24
TORSDOF 5
ENDMDL
MODEL 2
REMARK VINA RESULT:    -4.778      1.236      3.228
REMARK INTER + INTRA:          -5.186
REMARK INTER:                  -5.652
REMARK INTRA:                   0.466
REMARK UNBOUND:                 0.430
REMARK SMILES O=c1c(O)c(-c2ccc(O)cc2)oc2cc(O)cc(O)c12
REMARK SMILES IDX 5 1 3 2 2 3 1 4 21 5 19 6 18 7 16 8 15 9 14 10 13 11 6 12
REMARK SMILES IDX 7 13 8 14 9 15 12 16 11 17 10 18 4 20 20 22 17 24
REMARK H PARENT 10 19 4 21 20 23 17 25
REMARK Flexibility Score: inf
ROOT
ATOM      1  C   UNL     1      -5.937 -17.494  -7.239  1.00  0.00     0.180 A 
ATOM      2  C   UNL     1      -6.907 -16.694  -6.602  1.00  0.00     0.208 A 
ATOM      3  C   UNL     1      -6.573 -16.053  -5.400  1.00  0.00     0.238 A 
ATOM      4  O   UNL     1      -7.429 -15.326  -4.826  1.00  0.00    -0.285 OA
ATOM      5  C   UNL     1      -5.290 -16.235  -4.845  1.00  0.00     0.111 A 
ATOM      6  C   UNL     1      -4.877 -15.627  -3.634  1.00  0.00     0.134 A 
ATOM      7  C   UNL     1      -3.585 -15.865  -3.142  1.00  0.00     0.093 A 
ATOM      8  C   UNL     1      -2.702 -16.698  -3.833  1.00  0.00     0.123 A 
ATOM      9  C   UNL     1      -3.104 -17.300  -5.029  1.00  0.00     0.094 A 
ATOM     10  C   UNL     1      -4.387 -17.074  -5.537  1.00  0.00     0.146 A 
ATOM     11  O   UNL     1      -4.741 -17.655  -6.678  1.00  0.00    -0.452 OA
ENDROOT
BRANCH   1  12
ATOM     12  C   UNL     1      -6.205 -18.188  -8.519  1.00  0.00     0.021 A 
ATOM     13  C   UNL     1      -5.256 -19.090  -9.029  1.00  0.00     0.016 A 
ATOM     14  C   UNL     1      -5.479 -19.739 -10.246  1.00  0.00     0.047 A 
ATOM     15  C   UNL     1      -6.646 -19.483 -10.977  1.00  0.00     0.115 A 
ATOM     16  C   UNL     1      -7.366 -17.921  -9.268  1.00  0.00     0.016 A 
ATOM     17  C   UNL     1      -7.585 -18.571 -10.486  1.00  0.00     0.047 A 
BRANCH  15  18
ATOM     18  O   UNL     1      -6.879 -20.125 -12.191  1.00  0.00    -0.508 OA
ATOM     19  H   UNL     1      -6.974 -19.605 -13.055  1.00  0.00     0.293 HD
ENDBRANCH  15  18
ENDBRANCH   1  12
BRANCH   2  20
ATOM     20  O   UNL     1      -8.187 -16.570  -7.148  1.00  0.00    -0.502 OA
ATOM     21  H   UNL     1      -8.497 -17.129  -7.934  1.00  0.00     0.293 HD
ENDBRANCH   2  20
BRANCH   6  22
ATOM     22  O   UNL     1      -5.736 -14.791  -2.920  1.00  0.00    -0.507 OA
ATOM     23  H   UNL     1      -5.512 -13.818  -2.747  1.00  0.00     0.293 HD
ENDBRANCH   6  22
BRANCH   8  24
ATOM     24  O   UNL     1      -1.425 -16.919  -3.321  1.00  0.00    -0.508 OA
ATOM     25  H   UNL     1      -0.887 -16.172  -2.897  1.00  0.00     0.293 HD
ENDBRANCH   8  24
TORSDOF 5
ENDMDL
MODEL 3
REMARK VINA RESULT:    -4.699      1.875      3.602
REMARK INTER + INTRA:          -5.093
REMARK INTER:                  -4.839
REMARK INTRA:                  -0.254
REMARK UNBOUND:                 0.430
REMARK SMILES O=c1c(O)c(-c2ccc(O)cc2)oc2cc(O)cc(O)c12
REMARK SMILES IDX 5 1 3 2 2 3 1 4 21 5 19 6 18 7 16 8 15 9 14 10 13 11 6 12
REMARK SMILES IDX 7 13 8 14 9 15 12 16 11 17 10 18 4 20 20 22 17 24
REMARK H PARENT 10 19 4 21 20 23 17 25
REMARK Flexibility Score: inf
ROOT
ATOM      1  C   UNL     1      -6.986 -18.165  -8.091  1.00  0.00     0.180 A 
ATOM      2  C   UNL     1      -7.645 -17.160  -7.356  1.00  0.00     0.208 A 
ATOM      3  C   UNL     1      -7.057 -16.692  -6.171  1.00  0.00     0.238 A 
ATOM      4  O   UNL     1      -7.631 -15.784  -5.510  1.00  0.00    -0.285 OA
ATOM      5  C   UNL     1      -5.837 -17.245  -5.732  1.00  0.00     0.111 A 
ATOM      6  C   UNL     1      -5.181 -16.831  -4.546  1.00  0.00     0.134 A 
ATOM      7  C   UNL     1      -3.974 -17.438  -4.171  1.00  0.00     0.093 A 
ATOM      8  C   UNL     1      -3.411 -18.449  -4.954  1.00  0.00     0.123 A 
ATOM      9  C   UNL     1      -4.053 -18.861  -6.126  1.00  0.00     0.094 A 
ATOM     10  C   UNL     1      -5.257 -18.268  -6.518  1.00  0.00     0.146 A 
ATOM     11  O   UNL     1      -5.844 -18.675  -7.638  1.00  0.00    -0.452 OA
ENDROOT
BRANCH   1  12
ATOM     12  C   UNL     1      -7.532 -18.700  -9.360  1.00  0.00     0.021 A 
ATOM     13  C   UNL     1      -7.042 -18.212 -10.583  1.00  0.00     0.016 A 
ATOM     14  C   UNL     1      -7.559 -18.686 -11.792  1.00  0.00     0.047 A 
ATOM     15  C   UNL     1      -8.583 -19.642 -11.793  1.00  0.00     0.115 A 
ATOM     16  C   UNL     1      -8.574 -19.646  -9.368  1.00  0.00     0.016 A 
ATOM     17  C   UNL     1      -9.090 -20.116 -10.579  1.00  0.00     0.047 A 
BRANCH  15  18
ATOM     18  O   UNL     1      -9.105 -20.122 -12.992  1.00  0.00    -0.508 OA
ATOM     19  H   UNL     1      -9.962 -20.662 -13.018  1.00  0.00     0.293 HD
ENDBRANCH  15  18
ENDBRANCH   1  12
BRANCH   2  20
ATOM     20  O   UNL     1      -8.877 -16.664  -7.788  1.00  0.00    -0.502 OA
ATOM     21  H   UNL     1      -9.322 -16.984  -8.639  1.00  0.00     0.293 HD
ENDBRANCH   2  20
BRANCH   6  22
ATOM     22  O   UNL     1      -5.718 -15.824  -3.743  1.00  0.00    -0.507 OA
ATOM     23  H   UNL     1      -5.815 -14.872  -4.075  1.00  0.00     0.293 HD
ENDBRANCH   6  22
BRANCH   8  24
ATOM     24  O   UNL     1      -2.211 -19.036  -4.559  1.00  0.00    -0.508 OA
ATOM     25  H   UNL     1      -2.071 -19.370  -3.613  1.00  0.00     0.293 HD
ENDBRANCH   8  24
TORSDOF 5
ENDMDL
MODEL 4
REMARK VINA RESULT:    -4.396      2.318      4.009
REMARK INTER + INTRA:          -4.737
REMARK INTER:                  -4.448
REMARK INTRA:                  -0.289
REMARK UNBOUND:                 0.430
REMARK SMILES O=c1c(O)c(-c2ccc(O)cc2)oc2cc(O)cc(O)c12
REMARK SMILES IDX 5 1 3 2 2 3 1 4 21 5 19 6 18 7 16 8 15 9 14 10 13 11 6 12
REMARK SMILES IDX 7 13 8 14 9 15 12 16 11 17 10 18 4 20 20 22 17 24
REMARK H PARENT 10 19 4 21 20 23 17 25
REMARK Flexibility Score: inf
ROOT
ATOM      1  C   UNL     1      -5.260 -18.188  -6.420  1.00  0.00     0.180 A 
ATOM      2  C   UNL     1      -5.376 -16.872  -5.934  1.00  0.00     0.208 A 
ATOM      3  C   UNL     1      -4.488 -16.437  -4.938  1.00  0.00     0.238 A 
ATOM      4  O   UNL     1      -4.574 -15.257  -4.502  1.00  0.00    -0.285 OA
ATOM      5  C   UNL     1      -3.517 -17.325  -4.433  1.00  0.00     0.111 A 
ATOM      6  C   UNL     1      -2.588 -16.966  -3.426  1.00  0.00     0.134 A 
ATOM      7  C   UNL     1      -1.658 -17.911  -2.969  1.00  0.00     0.093 A 
ATOM      8  C   UNL     1      -1.639 -19.205  -3.496  1.00  0.00     0.123 A 
ATOM      9  C   UNL     1      -2.553 -19.565  -4.490  1.00  0.00     0.094 A 
ATOM     10  C   UNL     1      -3.488 -18.637  -4.961  1.00  0.00     0.146 A 
ATOM     11  O   UNL     1      -4.341 -19.004  -5.910  1.00  0.00    -0.452 OA
ENDROOT
BRANCH   1  12
ATOM     12  C   UNL     1      -6.146 -18.716  -7.483  1.00  0.00     0.021 A 
ATOM     13  C   UNL     1      -5.763 -18.592  -8.829  1.00  0.00     0.016 A 
ATOM     14  C   UNL     1      -6.594 -19.063  -9.848  1.00  0.00     0.047 A 
ATOM     15  C   UNL     1      -7.827 -19.650  -9.536  1.00  0.00     0.115 A 
ATOM     16  C   UNL     1      -7.395 -19.290  -7.178  1.00  0.00     0.016 A 
ATOM     17  C   UNL     1      -8.225 -19.759  -8.200  1.00  0.00     0.047 A 
BRANCH  15  18
ATOM     18  O   UNL     1      -8.664 -20.124 -10.544  1.00  0.00    -0.508 OA
ATOM     19  H   UNL     1      -8.410 -20.050 -11.522  1.00  0.00     0.293 HD
ENDBRANCH  15  18
ENDBRANCH   1  12
BRANCH   2  20
ATOM     20  O   UNL     1      -6.379 -16.027  -6.416  1.00  0.00    -0.502 OA
ATOM     21  H   UNL     1      -6.839 -16.184  -7.305  1.00  0.00     0.293 HD
ENDBRANCH   2  20
BRANCH   6  22
ATOM     22  O   UNL     1      -2.581 -15.682  -2.879  1.00  0.00    -0.507 OA
ATOM     23  H   UNL     1      -1.743 -15.113  -2.865  1.00  0.00     0.293 HD
ENDBRANCH   6  22
BRANCH   8  24
ATOM     24  O   UNL     1      -0.705 -20.125  -3.024  1.00  0.00    -0.508 OA
ATOM     25  H   UNL     1      -0.575 -21.025  -3.471  1.00  0.00     0.293 HD
ENDBRANCH   8  24
TORSDOF 5
ENDMDL
MODEL 5
REMARK VINA RESULT:    -4.177      2.035      6.835
REMARK INTER + INTRA:          -4.479
REMARK INTER:                  -4.229
REMARK INTRA:                  -0.250
REMARK UNBOUND:                 0.430
REMARK SMILES O=c1c(O)c(-c2ccc(O)cc2)oc2cc(O)cc(O)c12
REMARK SMILES IDX 5 1 3 2 2 3 1 4 21 5 19 6 18 7 16 8 15 9 14 10 13 11 6 12
REMARK SMILES IDX 7 13 8 14 9 15 12 16 11 17 10 18 4 20 20 22 17 24
REMARK H PARENT 10 19 4 21 20 23 17 25
REMARK Flexibility Score: inf
ROOT
ATOM      1  C   UNL     1      -5.371 -17.597  -6.191  1.00  0.00     0.180 A 
ATOM      2  C   UNL     1      -6.701 -17.863  -5.810  1.00  0.00     0.208 A 
ATOM      3  C   UNL     1      -7.531 -18.569  -6.694  1.00  0.00     0.238 A 
ATOM      4  O   UNL     1      -8.720 -18.823  -6.360  1.00  0.00    -0.285 OA
ATOM      5  C   UNL     1      -7.027 -18.981  -7.945  1.00  0.00     0.111 A 
ATOM      6  C   UNL     1      -7.800 -19.693  -8.894  1.00  0.00     0.134 A 
ATOM      7  C   UNL     1      -7.229 -20.059 -10.122  1.00  0.00     0.093 A 
ATOM      8  C   UNL     1      -5.905 -19.725 -10.420  1.00  0.00     0.123 A 
ATOM      9  C   UNL     1      -5.137 -19.022  -9.486  1.00  0.00     0.094 A 
ATOM     10  C   UNL     1      -5.688 -18.650  -8.256  1.00  0.00     0.146 A 
ATOM     11  O   UNL     1      -4.935 -17.987  -7.385  1.00  0.00    -0.452 OA
ENDROOT
BRANCH   1  12
ATOM     12  C   UNL     1      -4.428 -16.874  -5.307  1.00  0.00     0.021 A 
ATOM     13  C   UNL     1      -4.499 -15.473  -5.219  1.00  0.00     0.016 A 
ATOM     14  C   UNL     1      -3.605 -14.770  -4.408  1.00  0.00     0.047 A 
ATOM     15  C   UNL     1      -2.618 -15.455  -3.687  1.00  0.00     0.115 A 
ATOM     16  C   UNL     1      -3.423 -17.554  -4.595  1.00  0.00     0.016 A 
ATOM     17  C   UNL     1      -2.529 -16.846  -3.786  1.00  0.00     0.047 A 
BRANCH  15  18
ATOM     18  O   UNL     1      -1.722 -14.763  -2.875  1.00  0.00    -0.508 OA
ATOM     19  H   UNL     1      -1.368 -15.166  -2.016  1.00  0.00     0.293 HD
ENDBRANCH  15  18
ENDBRANCH   1  12
BRANCH   2  20
ATOM     20  O   UNL     1      -7.190 -17.401  -4.585  1.00  0.00    -0.502 OA
ATOM     21  H   UNL     1      -7.070 -16.443  -4.281  1.00  0.00     0.293 HD
ENDBRANCH   2  20
BRANCH   6  22
ATOM     22  O   UNL     1      -9.125 -20.040  -8.628  1.00  0.00    -0.507 OA
ATOM     23  H   UNL     1      -9.889 -19.399  -8.803  1.00  0.00     0.293 HD
ENDBRANCH   6  22
BRANCH   8  24
ATOM     24  O   UNL     1      -5.362 -20.099 -11.647  1.00  0.00    -0.508 OA
ATOM     25  H   UNL     1      -5.919 -20.105 -12.494  1.00  0.00     0.293 HD
ENDBRANCH   8  24
TORSDOF 5
ENDMDL
MODEL 6
REMARK VINA RESULT:    -3.877      1.664      6.953
REMARK INTER + INTRA:          -4.127
REMARK INTER:                  -4.680
REMARK INTRA:                   0.554
REMARK UNBOUND:                 0.430
REMARK SMILES O=c1c(O)c(-c2ccc(O)cc2)oc2cc(O)cc(O)c12
REMARK SMILES IDX 5 1 3 2 2 3 1 4 21 5 19 6 18 7 16 8 15 9 14 10 13 11 6 12
REMARK SMILES IDX 7 13 8 14 9 15 12 16 11 17 10 18 4 20 20 22 17 24
REMARK H PARENT 10 19 4 21 20 23 17 25
REMARK Flexibility Score: inf
ROOT
ATOM      1  C   UNL     1      -6.804 -17.088  -7.245  1.00  0.00     0.180 A 
ATOM      2  C   UNL     1      -7.805 -17.525  -8.135  1.00  0.00     0.208 A 
ATOM      3  C   UNL     1      -7.446 -18.369  -9.196  1.00  0.00     0.238 A 
ATOM      4  O   UNL     1      -8.335 -18.777  -9.993  1.00  0.00    -0.285 OA
ATOM      5  C   UNL     1      -6.098 -18.747  -9.362  1.00  0.00     0.111 A 
ATOM      6  C   UNL     1      -5.654 -19.592 -10.409  1.00  0.00     0.134 A 
ATOM      7  C   UNL     1      -4.292 -19.913 -10.512  1.00  0.00     0.093 A 
ATOM      8  C   UNL     1      -3.368 -19.407  -9.594  1.00  0.00     0.123 A 
ATOM      9  C   UNL     1      -3.801 -18.573  -8.559  1.00  0.00     0.094 A 
ATOM     10  C   UNL     1      -5.154 -18.242  -8.438  1.00  0.00     0.146 A 
ATOM     11  O   UNL     1      -5.539 -17.452  -7.442  1.00  0.00    -0.452 OA
ENDROOT
BRANCH   1  12
ATOM     12  C   UNL     1      -7.104 -16.210  -6.090  1.00  0.00     0.021 A 
ATOM     13  C   UNL     1      -8.374 -15.618  -5.984  1.00  0.00     0.016 A 
ATOM     14  C   UNL     1      -8.672 -14.770  -4.914  1.00  0.00     0.047 A 
ATOM     15  C   UNL     1      -7.699 -14.489  -3.946  1.00  0.00     0.115 A 
ATOM     16  C   UNL     1      -6.126 -15.909  -5.125  1.00  0.00     0.016 A 
ATOM     17  C   UNL     1      -6.427 -15.058  -4.057  1.00  0.00     0.047 A 
BRANCH  15  18
ATOM     18  O   UNL     1      -7.984 -13.645  -2.875  1.00  0.00    -0.508 OA
ATOM     19  H   UNL     1      -8.073 -14.000  -1.930  1.00  0.00     0.293 HD
ENDBRANCH  15  18
ENDBRANCH   1  12
BRANCH   2  20
ATOM     20  O   UNL     1      -9.125 -17.096  -7.976  1.00  0.00    -0.502 OA
ATOM     21  H   UNL     1      -9.736 -16.923  -8.765  1.00  0.00     0.293 HD
ENDBRANCH   2  20
BRANCH   6  22
ATOM     22  O   UNL     1      -6.551 -20.113 -11.342  1.00  0.00    -0.507 OA
ATOM     23  H   UNL     1      -7.238 -20.813 -11.087  1.00  0.00     0.293 HD
ENDBRANCH   6  22
BRANCH   8  24
ATOM     24  O   UNL     1      -2.022 -19.742  -9.720  1.00  0.00    -0.508 OA
ATOM     25  H   UNL     1      -1.649 -20.125 -10.581  1.00  0.00     0.293 HD
ENDBRANCH   8  24
TORSDOF 5
ENDMDL
MODEL 7
REMARK VINA RESULT:    -3.806      2.054      2.857
REMARK INTER + INTRA:          -4.043
REMARK INTER:                  -3.746
REMARK INTRA:                  -0.297
REMARK UNBOUND:                 0.430
REMARK SMILES O=c1c(O)c(-c2ccc(O)cc2)oc2cc(O)cc(O)c12
REMARK SMILES IDX 5 1 3 2 2 3 1 4 21 5 19 6 18 7 16 8 15 9 14 10 13 11 6 12
REMARK SMILES IDX 7 13 8 14 9 15 12 16 11 17 10 18 4 20 20 22 17 24
REMARK H PARENT 10 19 4 21 20 23 17 25
REMARK Flexibility Score: inf
ROOT
ATOM      1  C   UNL     1      -6.320 -18.204  -7.785  1.00  0.00     0.180 A 
ATOM      2  C   UNL     1      -6.649 -18.948  -6.634  1.00  0.00     0.208 A 
ATOM      3  C   UNL     1      -6.190 -18.501  -5.385  1.00  0.00     0.238 A 
ATOM      4  O   UNL     1      -6.487 -19.152  -4.347  1.00  0.00    -0.285 OA
ATOM      5  C   UNL     1      -5.399 -17.337  -5.309  1.00  0.00     0.111 A 
ATOM      6  C   UNL     1      -4.894 -16.823  -4.089  1.00  0.00     0.134 A 
ATOM      7  C   UNL     1      -4.105 -15.664  -4.097  1.00  0.00     0.093 A 
ATOM      8  C   UNL     1      -3.810 -15.010  -5.296  1.00  0.00     0.123 A 
ATOM      9  C   UNL     1      -4.306 -15.513  -6.503  1.00  0.00     0.094 A 
ATOM     10  C   UNL     1      -5.096 -16.666  -6.516  1.00  0.00     0.146 A 
ATOM     11  O   UNL     1      -5.559 -17.119  -7.676  1.00  0.00    -0.452 OA
ENDROOT
BRANCH   1  12
ATOM     12  C   UNL     1      -6.782 -18.599  -9.136  1.00  0.00     0.021 A 
ATOM     13  C   UNL     1      -5.926 -19.338  -9.970  1.00  0.00     0.016 A 
ATOM     14  C   UNL     1      -6.333 -19.702 -11.256  1.00  0.00     0.047 A 
ATOM     15  C   UNL     1      -7.594 -19.318 -11.732  1.00  0.00     0.115 A 
ATOM     16  C   UNL     1      -8.039 -18.200  -9.627  1.00  0.00     0.016 A 
ATOM     17  C   UNL     1      -8.441 -18.564 -10.915  1.00  0.00     0.047 A 
BRANCH  15  18
ATOM     18  O   UNL     1      -8.010 -19.676 -13.012  1.00  0.00    -0.508 OA
ATOM     19  H   UNL     1      -7.387 -19.611 -13.808  1.00  0.00     0.293 HD
ENDBRANCH  15  18
ENDBRANCH   1  12
BRANCH   2  20
ATOM     20  O   UNL     1      -7.393 -20.125  -6.744  1.00  0.00    -0.502 OA
ATOM     21  H   UNL     1      -7.588 -20.561  -7.636  1.00  0.00     0.293 HD
ENDBRANCH   2  20
BRANCH   6  22
ATOM     22  O   UNL     1      -5.170 -17.453  -2.875  1.00  0.00    -0.507 OA
ATOM     23  H   UNL     1      -4.874 -18.404  -2.689  1.00  0.00     0.293 HD
ENDBRANCH   6  22
BRANCH   8  24
ATOM     24  O   UNL     1      -3.023 -13.861  -5.276  1.00  0.00    -0.508 OA
ATOM     25  H   UNL     1      -3.227 -13.068  -5.873  1.00  0.00     0.293 HD
ENDBRANCH   8  24
TORSDOF 5
ENDMDL
MODEL 8
REMARK VINA RESULT:    -3.499     13.417     15.208
REMARK INTER + INTRA:          -3.683
REMARK INTER:                  -4.065
REMARK INTRA:                   0.382
REMARK UNBOUND:                 0.430
REMARK SMILES O=c1c(O)c(-c2ccc(O)cc2)oc2cc(O)cc(O)c12
REMARK SMILES IDX 5 1 3 2 2 3 1 4 21 5 19 6 18 7 16 8 15 9 14 10 13 11 6 12
REMARK SMILES IDX 7 13 8 14 9 15 12 16 11 17 10 18 4 20 20 22 17 24
REMARK H PARENT 10 19 4 21 20 23 17 25
REMARK Flexibility Score: inf
ROOT
ATOM      1  C   UNL     1      -6.433  -1.952  -7.472  1.00  0.00     0.180 A 
ATOM      2  C   UNL     1      -5.471  -1.022  -7.031  1.00  0.00     0.208 A 
ATOM      3  C   UNL     1      -4.820  -1.249  -5.809  1.00  0.00     0.238 A 
ATOM      4  O   UNL     1      -3.949  -0.430  -5.409  1.00  0.00    -0.285 OA
ATOM      5  C   UNL     1      -5.151  -2.385  -5.043  1.00  0.00     0.111 A 
ATOM      6  C   UNL     1      -4.543  -2.683  -3.799  1.00  0.00     0.134 A 
ATOM      7  C   UNL     1      -4.935  -3.829  -3.091  1.00  0.00     0.093 A 
ATOM      8  C   UNL     1      -5.921  -4.679  -3.599  1.00  0.00     0.123 A 
ATOM      9  C   UNL     1      -6.524  -4.389  -4.827  1.00  0.00     0.094 A 
ATOM     10  C   UNL     1      -6.146  -3.253  -5.549  1.00  0.00     0.146 A 
ATOM     11  O   UNL     1      -6.731  -3.004  -6.715  1.00  0.00    -0.452 OA
ENDROOT
BRANCH   1  12
ATOM     12  C   UNL     1      -7.151  -1.793  -8.758  1.00  0.00     0.021 A 
ATOM     13  C   UNL     1      -7.658  -2.929  -9.412  1.00  0.00     0.016 A 
ATOM     14  C   UNL     1      -8.319  -2.803 -10.637  1.00  0.00     0.047 A 
ATOM     15  C   UNL     1      -8.467  -1.544 -11.232  1.00  0.00     0.115 A 
ATOM     16  C   UNL     1      -7.287  -0.533  -9.371  1.00  0.00     0.016 A 
ATOM     17  C   UNL     1      -7.947  -0.412 -10.597  1.00  0.00     0.047 A 
BRANCH  15  18
ATOM     18  O   UNL     1      -9.125  -1.407 -12.452  1.00  0.00    -0.508 OA
ATOM     19  H   UNL     1      -9.411  -2.215 -12.992  1.00  0.00     0.293 HD
ENDBRANCH  15  18
ENDBRANCH   1  12
BRANCH   2  20
ATOM     20  O   UNL     1      -5.197   0.121  -7.786  1.00  0.00    -0.502 OA
ATOM     21  H   UNL     1      -4.470   0.778  -7.530  1.00  0.00     0.293 HD
ENDBRANCH   2  20
BRANCH   6  22
ATOM     22  O   UNL     1      -3.557  -1.854  -3.264  1.00  0.00    -0.507 OA
ATOM     23  H   UNL     1      -2.717  -1.623  -3.781  1.00  0.00     0.293 HD
ENDBRANCH   6  22
BRANCH   8  24
ATOM     24  O   UNL     1      -6.292  -5.810  -2.875  1.00  0.00    -0.508 OA
ATOM     25  H   UNL     1      -5.651  -6.264  -2.236  1.00  0.00     0.293 HD
ENDBRANCH   8  24
TORSDOF 5
ENDMDL
