MODEL 1
REMARK VINA RESULT:    -5.426      0.000      0.000
REMARK INTER + INTRA:          -6.101
REMARK INTER:                  -6.061
REMARK INTRA:                  -0.040
REMARK UNBOUND:                -0.040
REMARK SMILES O=C([O-])c1ccc(O)c(O)c1
REMARK SMILES IDX 4 1 11 2 5 3 9 4 6 5 7 6 2 7 1 8 3 9 10 10 8 12
REMARK H PARENT 10 11 8 13
REMARK Flexibility Score: inf
ROOT
ATOM      1  C   UNL     1     -33.377  -3.588 -18.617  1.00  0.00     0.001 A 
ATOM      2  C   UNL     1     -33.623  -3.160 -19.935  1.00  0.00     0.060 A 
ATOM      3  C   UNL     1     -32.098  -3.401 -18.068  1.00  0.00     0.014 A 
ATOM      4  C   UNL     1     -32.611  -2.556 -20.690  1.00  0.00     0.158 A 
ATOM      5  C   UNL     1     -31.086  -2.799 -18.820  1.00  0.00     0.051 A 
ATOM      6  C   UNL     1     -31.336  -2.374 -20.130  1.00  0.00     0.157 A 
ENDROOT
BRANCH   1   7
ATOM      7  C   UNL     1     -34.447  -4.226 -17.819  1.00  0.00     0.072 C 
ATOM      8  O   UNL     1     -34.623  -3.908 -16.612  1.00  0.00    -0.545 OA
ATOM      9  O   UNL     1     -35.272  -5.189 -18.388  1.00  0.00    -0.545 OA
ENDBRANCH   1   7
BRANCH   4  10
ATOM     10  O   UNL     1     -32.892  -2.145 -21.993  1.00  0.00    -0.504 OA
ATOM     11  H   UNL     1     -33.678  -1.544 -22.209  1.00  0.00     0.293 HD
ENDBRANCH   4  10
BRANCH   6  12
ATOM     12  O   UNL     1     -30.324  -1.773 -20.878  1.00  0.00    -0.504 OA
ATOM     13  H   UNL     1     -30.301  -0.772 -21.032  1.00  0.00     0.293 HD
ENDBRANCH   6  12
TORSDOF 3
ENDMDL
MODEL 2
REMARK VINA RESULT:    -5.177      2.236      3.359
REMARK INTER + INTRA:          -5.822
REMARK INTER:                  -5.780
REMARK INTRA:                  -0.043
REMARK UNBOUND:                -0.040
REMARK SMILES O=C([O-])c1ccc(O)c(O)c1
REMARK SMILES IDX 4 1 11 2 5 3 9 4 6 5 7 6 2 7 1 8 3 9 10 10 8 12
REMARK H PARENT 10 11 8 13
REMARK Flexibility Score: inf
ROOT
ATOM      1  C   UNL     1     -30.879  -3.197 -18.698  1.00  0.00     0.001 A 
ATOM      2  C   UNL     1     -30.226  -2.690 -19.836  1.00  0.00     0.060 A 
ATOM      3  C   UNL     1     -32.277  -3.337 -18.720  1.00  0.00     0.014 A 
ATOM      4  C   UNL     1     -30.955  -2.329 -20.976  1.00  0.00     0.158 A 
ATOM      5  C   UNL     1     -33.006  -2.977 -19.855  1.00  0.00     0.051 A 
ATOM      6  C   UNL     1     -32.352  -2.474 -20.986  1.00  0.00     0.157 A 
ENDROOT
BRANCH   1   7
ATOM      7  C   UNL     1     -30.109  -3.578 -17.493  1.00  0.00     0.072 C 
ATOM      8  O   UNL     1     -30.660  -3.598 -16.360  1.00  0.00    -0.545 OA
ATOM      9  O   UNL     1     -28.765  -3.918 -17.594  1.00  0.00    -0.545 OA
ENDBRANCH   1   7
BRANCH   4  10
ATOM     10  O   UNL     1     -30.273  -1.830 -22.086  1.00  0.00    -0.504 OA
ATOM     11  H   UNL     1     -29.570  -1.106 -22.003  1.00  0.00     0.293 HD
ENDBRANCH   4  10
BRANCH   6  12
ATOM     12  O   UNL     1     -33.083  -2.116 -22.118  1.00  0.00    -0.504 OA
ATOM     13  H   UNL     1     -32.806  -2.416 -23.046  1.00  0.00     0.293 HD
ENDBRANCH   6  12
TORSDOF 3
ENDMDL
MODEL 3
REMARK VINA RESULT:    -5.110      2.183      2.953
REMARK INTER + INTRA:          -5.747
REMARK INTER:                  -5.711
REMARK INTRA:                  -0.036
REMARK UNBOUND:                -0.040
REMARK SMILES O=C([O-])c1ccc(O)c(O)c1
REMARK SMILES IDX 4 1 11 2 5 3 9 4 6 5 7 6 2 7 1 8 3 9 10 10 8 12
REMARK H PARENT 10 11 8 13
REMARK Flexibility Score: inf
ROOT
ATOM      1  C   UNL     1     -31.213  -3.323 -18.500  1.00  0.00     0.001 A 
ATOM      2  C   UNL     1     -32.598  -3.417 -18.723  1.00  0.00     0.060 A 
ATOM      3  C   UNL     1     -30.396  -2.781 -19.506  1.00  0.00     0.014 A 
ATOM      4  C   UNL     1     -33.159  -2.976 -19.928  1.00  0.00     0.158 A 
ATOM      5  C   UNL     1     -30.952  -2.341 -20.709  1.00  0.00     0.051 A 
ATOM      6  C   UNL     1     -32.333  -2.436 -20.926  1.00  0.00     0.157 A 
ENDROOT
BRANCH   1   7
ATOM      7  C   UNL     1     -30.620  -3.788 -17.226  1.00  0.00     0.072 C 
ATOM      8  O   UNL     1     -30.798  -3.139 -16.161  1.00  0.00    -0.545 OA
ATOM      9  O   UNL     1     -29.857  -4.949 -17.187  1.00  0.00    -0.545 OA
ENDBRANCH   1   7
BRANCH   4  10
ATOM     10  O   UNL     1     -34.537  -3.085 -20.113  1.00  0.00    -0.504 OA
ATOM     11  H   UNL     1     -34.955  -3.113 -21.035  1.00  0.00     0.293 HD
ENDBRANCH   4  10
BRANCH   6  12
ATOM     12  O   UNL     1     -32.885  -1.996 -22.128  1.00  0.00    -0.504 OA
ATOM     13  H   UNL     1     -33.632  -2.504 -22.587  1.00  0.00     0.293 HD
ENDBRANCH   6  12
TORSDOF 3
ENDMDL
MODEL 4
REMARK VINA RESULT:    -4.996      1.519      4.906
REMARK INTER + INTRA:          -5.620
REMARK INTER:                  -5.577
REMARK INTRA:                  -0.044
REMARK UNBOUND:                -0.040
REMARK SMILES O=C([O-])c1ccc(O)c(O)c1
REMARK SMILES IDX 4 1 11 2 5 3 9 4 6 5 7 6 2 7 1 8 3 9 10 10 8 12
REMARK H PARENT 10 11 8 13
REMARK Flexibility Score: inf
ROOT
ATOM      1  C   UNL     1     -30.967  -2.506 -20.451  1.00  0.00     0.001 A 
ATOM      2  C   UNL     1     -30.611  -2.698 -19.104  1.00  0.00     0.060 A 
ATOM      3  C   UNL     1     -32.274  -2.817 -20.862  1.00  0.00     0.014 A 
ATOM      4  C   UNL     1     -31.544  -3.190 -18.183  1.00  0.00     0.158 A 
ATOM      5  C   UNL     1     -33.206  -3.307 -19.945  1.00  0.00     0.051 A 
ATOM      6  C   UNL     1     -32.848  -3.496 -18.604  1.00  0.00     0.157 A 
ENDROOT
BRANCH   1   7
ATOM      7  C   UNL     1     -29.981  -1.987 -21.426  1.00  0.00     0.072 C 
ATOM      8  O   UNL     1     -30.361  -1.498 -22.523  1.00  0.00    -0.545 OA
ATOM      9  O   UNL     1     -28.621  -2.034 -21.145  1.00  0.00    -0.545 OA
ENDBRANCH   1   7
BRANCH   4  10
ATOM     10  O   UNL     1     -31.155  -3.366 -16.855  1.00  0.00    -0.504 OA
ATOM     11  H   UNL     1     -31.291  -2.648 -16.154  1.00  0.00     0.293 HD
ENDBRANCH   4  10
BRANCH   6  12
ATOM     12  O   UNL     1     -33.781  -3.986 -17.691  1.00  0.00    -0.504 OA
ATOM     13  H   UNL     1     -34.333  -4.812 -17.888  1.00  0.00     0.293 HD
ENDBRANCH   6  12
TORSDOF 3
ENDMDL
MODEL 5
REMARK VINA RESULT:    -4.980      1.499      4.491
REMARK INTER + INTRA:          -5.602
REMARK INTER:                  -5.558
REMARK INTRA:                  -0.044
REMARK UNBOUND:                -0.040
REMARK SMILES O=C([O-])c1ccc(O)c(O)c1
REMARK SMILES IDX 4 1 11 2 5 3 9 4 6 5 7 6 2 7 1 8 3 9 10 10 8 12
REMARK H PARENT 10 11 8 13
REMARK Flexibility Score: inf
ROOT
ATOM      1  C   UNL     1     -30.845  -2.454 -20.456  1.00  0.00     0.001 A 
ATOM      2  C   UNL     1     -32.197  -2.674 -20.774  1.00  0.00     0.060 A 
ATOM      3  C   UNL     1     -30.405  -2.703 -19.145  1.00  0.00     0.014 A 
ATOM      4  C   UNL     1     -33.094  -3.134 -19.802  1.00  0.00     0.158 A 
ATOM      5  C   UNL     1     -31.297  -3.162 -18.173  1.00  0.00     0.051 A 
ATOM      6  C   UNL     1     -32.643  -3.380 -18.495  1.00  0.00     0.157 A 
ENDROOT
BRANCH   1   7
ATOM      7  C   UNL     1     -29.897  -1.968 -21.482  1.00  0.00     0.072 C 
ATOM      8  O   UNL     1     -30.318  -1.529 -22.586  1.00  0.00    -0.545 OA
ATOM      9  O   UNL     1     -28.528  -1.989 -21.244  1.00  0.00    -0.545 OA
ENDBRANCH   1   7
BRANCH   4  10
ATOM     10  O   UNL     1     -34.428  -3.341 -20.155  1.00  0.00    -0.504 OA
ATOM     11  H   UNL     1     -34.957  -4.134 -19.814  1.00  0.00     0.293 HD
ENDBRANCH   4  10
BRANCH   6  12
ATOM     12  O   UNL     1     -33.531  -3.838 -17.523  1.00  0.00    -0.504 OA
ATOM     13  H   UNL     1     -34.424  -4.246 -17.771  1.00  0.00     0.293 HD
ENDBRANCH   6  12
TORSDOF 3
ENDMDL
MODEL 6
REMARK VINA RESULT:    -4.885      6.026      7.603
REMARK INTER + INTRA:          -5.496
REMARK INTER:                  -5.460
REMARK INTRA:                  -0.036
REMARK UNBOUND:                -0.040
REMARK SMILES O=C([O-])c1ccc(O)c(O)c1
REMARK SMILES IDX 4 1 11 2 5 3 9 4 6 5 7 6 2 7 1 8 3 9 10 10 8 12
REMARK H PARENT 10 11 8 13
REMARK Flexibility Score: inf
ROOT
ATOM      1  C   UNL     1     -36.941  -6.558 -15.864  1.00  0.00     0.001 A 
ATOM      2  C   UNL     1     -36.409  -5.852 -14.770  1.00  0.00     0.060 A 
ATOM      3  C   UNL     1     -36.794  -7.955 -15.910  1.00  0.00     0.014 A 
ATOM      4  C   UNL     1     -35.743  -6.527 -13.740  1.00  0.00     0.158 A 
ATOM      5  C   UNL     1     -36.129  -8.631 -14.884  1.00  0.00     0.051 A 
ATOM      6  C   UNL     1     -35.602  -7.923 -13.796  1.00  0.00     0.157 A 
ENDROOT
BRANCH   1   7
ATOM      7  C   UNL     1     -37.646  -5.845 -16.952  1.00  0.00     0.072 C 
ATOM      8  O   UNL     1     -37.039  -5.535 -18.012  1.00  0.00    -0.545 OA
ATOM      9  O   UNL     1     -38.987  -5.506 -16.820  1.00  0.00    -0.545 OA
ENDBRANCH   1   7
BRANCH   4  10
ATOM     10  O   UNL     1     -35.229  -5.793 -12.671  1.00  0.00    -0.504 OA
ATOM     11  H   UNL     1     -35.551  -5.930 -11.721  1.00  0.00     0.293 HD
ENDBRANCH   4  10
BRANCH   6  12
ATOM     12  O   UNL     1     -34.939  -8.601 -12.774  1.00  0.00    -0.504 OA
ATOM     13  H   UNL     1     -35.283  -8.591 -11.821  1.00  0.00     0.293 HD
ENDBRANCH   6  12
TORSDOF 3
ENDMDL
MODEL 7
REMARK VINA RESULT:    -4.780      7.561      8.530
REMARK INTER + INTRA:          -5.379
REMARK INTER:                  -5.341
REMARK INTRA:                  -0.038
REMARK UNBOUND:                -0.040
REMARK SMILES O=C([O-])c1ccc(O)c(O)c1
REMARK SMILES IDX 4 1 11 2 5 3 9 4 6 5 7 6 2 7 1 8 3 9 10 10 8 12
REMARK H PARENT 10 11 8 13
REMARK Flexibility Score: inf
ROOT
ATOM      1  C   UNL     1     -38.285  -6.189 -13.749  1.00  0.00     0.001 A 
ATOM      2  C   UNL     1     -39.009  -7.177 -14.441  1.00  0.00     0.060 A 
ATOM      3  C   UNL     1     -36.881  -6.198 -13.820  1.00  0.00     0.014 A 
ATOM      4  C   UNL     1     -38.345  -8.155 -15.191  1.00  0.00     0.158 A 
ATOM      5  C   UNL     1     -36.217  -7.173 -14.567  1.00  0.00     0.051 A 
ATOM      6  C   UNL     1     -36.942  -8.154 -15.256  1.00  0.00     0.157 A 
ENDROOT
BRANCH   1   7
ATOM      7  C   UNL     1     -38.986  -5.156 -12.955  1.00  0.00     0.072 C 
ATOM      8  O   UNL     1     -38.850  -3.934 -13.232  1.00  0.00    -0.545 OA
ATOM      9  O   UNL     1     -39.804  -5.518 -11.892  1.00  0.00    -0.545 OA
ENDBRANCH   1   7
BRANCH   4  10
ATOM     10  O   UNL     1     -39.097  -9.118 -15.865  1.00  0.00    -0.504 OA
ATOM     11  H   UNL     1     -40.086  -8.997 -16.047  1.00  0.00     0.293 HD
ENDBRANCH   4  10
BRANCH   6  12
ATOM     12  O   UNL     1     -36.276  -9.125 -16.001  1.00  0.00    -0.504 OA
ATOM     13  H   UNL     1     -35.265  -9.192 -16.002  1.00  0.00     0.293 HD
ENDBRANCH   6  12
TORSDOF 3
ENDMDL
MODEL 8
REMARK VINA RESULT:    -4.692      6.142      8.143
REMARK INTER + INTRA:          -5.280
REMARK INTER:                  -5.241
REMARK INTRA:                  -0.040
REMARK UNBOUND:                -0.040
REMARK SMILES O=C([O-])c1ccc(O)c(O)c1
REMARK SMILES IDX 4 1 11 2 5 3 9 4 6 5 7 6 2 7 1 8 3 9 10 10 8 12
REMARK H PARENT 10 11 8 13
REMARK Flexibility Score: inf
ROOT
ATOM      1  C   UNL     1     -38.861  -7.299 -14.484  1.00  0.00     0.001 A 
ATOM      2  C   UNL     1     -37.956  -8.326 -14.805  1.00  0.00     0.060 A 
ATOM      3  C   UNL     1     -38.657  -6.018 -15.024  1.00  0.00     0.014 A 
ATOM      4  C   UNL     1     -36.867  -8.081 -15.650  1.00  0.00     0.158 A 
ATOM      5  C   UNL     1     -37.571  -5.770 -15.868  1.00  0.00     0.051 A 
ATOM      6  C   UNL     1     -36.673  -6.797 -16.185  1.00  0.00     0.157 A 
ENDROOT
BRANCH   1   7
ATOM      7  C   UNL     1     -40.012  -7.558 -13.591  1.00  0.00     0.072 C 
ATOM      8  O   UNL     1     -40.292  -6.759 -12.657  1.00  0.00    -0.545 OA
ATOM      9  O   UNL     1     -40.801  -8.688 -13.768  1.00  0.00    -0.545 OA
ENDBRANCH   1   7
BRANCH   4  10
ATOM     10  O   UNL     1     -35.991  -9.125 -15.946  1.00  0.00    -0.504 OA
ATOM     11  H   UNL     1     -35.124  -8.973 -16.447  1.00  0.00     0.293 HD
ENDBRANCH   4  10
BRANCH   6  12
ATOM     12  O   UNL     1     -35.591  -6.546 -17.027  1.00  0.00    -0.504 OA
ATOM     13  H   UNL     1     -35.383  -5.612 -17.360  1.00  0.00     0.293 HD
ENDBRANCH   6  12
TORSDOF 3
ENDMDL
MODEL 9
REMARK VINA RESULT:    -4.634      7.140      8.466
REMARK INTER + INTRA:          -5.216
REMARK INTER:                  -5.174
REMARK INTRA:                  -0.042
REMARK UNBOUND:                -0.040
REMARK SMILES O=C([O-])c1ccc(O)c(O)c1
REMARK SMILES IDX 4 1 11 2 5 3 9 4 6 5 7 6 2 7 1 8 3 9 10 10 8 12
REMARK H PARENT 10 11 8 13
REMARK Flexibility Score: inf
ROOT
ATOM      1  C   UNL     1     -37.060  -6.003 -13.861  1.00  0.00     0.001 A 
ATOM      2  C   UNL     1     -36.392  -7.015 -14.573  1.00  0.00     0.060 A 
ATOM      3  C   UNL     1     -38.461  -6.050 -13.764  1.00  0.00     0.014 A 
ATOM      4  C   UNL     1     -37.108  -8.055 -15.178  1.00  0.00     0.158 A 
ATOM      5  C   UNL     1     -39.179  -7.086 -14.367  1.00  0.00     0.051 A 
ATOM      6  C   UNL     1     -38.508  -8.092 -15.074  1.00  0.00     0.157 A 
ENDROOT
BRANCH   1   7
ATOM      7  C   UNL     1     -36.304  -4.904 -13.222  1.00  0.00     0.072 C 
ATOM      8  O   UNL     1     -35.203  -4.520 -13.702  1.00  0.00    -0.545 OA
ATOM      9  O   UNL     1     -36.795  -4.279 -12.082  1.00  0.00    -0.545 OA
ENDBRANCH   1   7
BRANCH   4  10
ATOM     10  O   UNL     1     -36.411  -9.042 -15.876  1.00  0.00    -0.504 OA
ATOM     11  H   UNL     1     -36.748  -9.995 -15.940  1.00  0.00     0.293 HD
ENDBRANCH   4  10
BRANCH   6  12
ATOM     12  O   UNL     1     -39.227  -9.125 -15.674  1.00  0.00    -0.504 OA
ATOM     13  H   UNL     1     -38.851  -9.649 -16.455  1.00  0.00     0.293 HD
ENDBRANCH   6  12
TORSDOF 3
ENDMDL
