MODEL 1
REMARK VINA RESULT:    -3.891      0.000      0.000
REMARK INTER + INTRA:          -5.413
REMARK INTER:                  -5.255
REMARK INTRA:                  -0.158
REMARK UNBOUND:                -0.158
REMARK SMILES [NH3+]CCCC[C@H]([NH3+])C(=O)[O-]
REMARK SMILES IDX 4 1 3 2 2 3 1 4 5 8 6 9 7 10 8 14 9 15 10 16
REMARK H PARENT 1 5 1 6 1 7 7 11 7 12 7 13
REMARK Flexibility Score: inf
ROOT
ATOM      1  C   UNL     1     151.568 148.309 136.520  1.00  0.00     0.012 C 
ENDROOT
BRANCH   1   2
ATOM      2  C   UNL     1     150.674 149.485 136.961  1.00  0.00     0.061 C 
BRANCH   2   3
ATOM      3  C   UNL     1     150.504 150.597 135.911  1.00  0.00     0.258 C 
BRANCH   3   4
ATOM      4  N   UNL     1     150.429 151.927 136.517  1.00  0.00    -0.358 N 
ATOM      5  H   UNL     1     151.175 152.533 136.103  1.00  0.00     0.344 HD
ATOM      6  H   UNL     1     149.502 152.366 136.320  1.00  0.00     0.344 HD
ATOM      7  H   UNL     1     150.583 151.865 137.550  1.00  0.00     0.344 HD
ENDBRANCH   3   4
ENDBRANCH   2   3
ENDBRANCH   1   2
BRANCH   1   8
ATOM      8  C   UNL     1     152.651 148.662 135.480  1.00  0.00     0.072 C 
BRANCH   8   9
ATOM      9  C   UNL     1     154.099 148.620 136.021  1.00  0.00     0.227 C 
BRANCH   9  10
ATOM     10  N   UNL     1     154.375 149.812 136.830  1.00  0.00    -0.350 N 
ATOM     11  H   UNL     1     153.885 149.756 137.753  1.00  0.00     0.345 HD
ATOM     12  H   UNL     1     155.405 149.897 136.995  1.00  0.00     0.345 HD
ATOM     13  H   UNL     1     154.055 150.669 136.323  1.00  0.00     0.345 HD
ENDBRANCH   9  10
BRANCH   9  14
ATOM     14  C   UNL     1     155.100 148.512 134.900  1.00  0.00     0.099 C 
ATOM     15  O   UNL     1     154.716 148.474 133.701  1.00  0.00    -0.544 OA
ATOM     16  O   UNL     1     156.457 148.445 135.186  1.00  0.00    -0.544 OA
ENDBRANCH   9  14
ENDBRANCH   8   9
ENDBRANCH   1   8
TORSDOF 7
ENDMDL
MODEL 2
REMARK VINA RESULT:    -3.280      3.309      4.878
REMARK INTER + INTRA:          -4.588
REMARK INTER:                  -4.447
REMARK INTRA:                  -0.141
REMARK UNBOUND:                -0.158
REMARK SMILES [NH3+]CCCC[C@H]([NH3+])C(=O)[O-]
REMARK SMILES IDX 4 1 3 2 2 3 1 4 5 8 6 9 7 10 8 14 9 15 10 16
REMARK H PARENT 1 5 1 6 1 7 7 11 7 12 7 13
REMARK Flexibility Score: inf
ROOT
ATOM      1  C   UNL     1     153.183 148.449 136.915  1.00  0.00     0.012 C 
ENDROOT
BRANCH   1   2
ATOM      2  C   UNL     1     154.529 149.020 136.426  1.00  0.00     0.061 C 
BRANCH   2   3
ATOM      3  C   UNL     1     154.855 148.732 134.950  1.00  0.00     0.258 C 
BRANCH   3   4
ATOM      4  N   UNL     1     156.296 148.715 134.692  1.00  0.00    -0.358 N 
ATOM      5  H   UNL     1     156.738 149.527 135.181  1.00  0.00     0.344 HD
ATOM      6  H   UNL     1     156.722 147.836 135.064  1.00  0.00     0.344 HD
ATOM      7  H   UNL     1     156.484 148.797 133.667  1.00  0.00     0.344 HD
ENDBRANCH   3   4
ENDBRANCH   2   3
ENDBRANCH   1   2
BRANCH   1   8
ATOM      8  C   UNL     1     152.084 149.497 137.185  1.00  0.00     0.072 C 
BRANCH   8   9
ATOM      9  C   UNL     1     150.816 149.336 136.315  1.00  0.00     0.227 C 
BRANCH   9  10
ATOM     10  N   UNL     1     151.097 148.479 135.158  1.00  0.00    -0.350 N 
ATOM     11  H   UNL     1     151.453 149.045 134.353  1.00  0.00     0.345 HD
ATOM     12  H   UNL     1     151.814 147.762 135.414  1.00  0.00     0.345 HD
ATOM     13  H   UNL     1     150.226 147.978 134.866  1.00  0.00     0.345 HD
ENDBRANCH   9  10
BRANCH   9  14
ATOM     14  C   UNL     1     150.293 150.672 135.854  1.00  0.00     0.099 C 
ATOM     15  O   UNL     1     150.432 151.696 136.575  1.00  0.00    -0.544 OA
ATOM     16  O   UNL     1     149.646 150.779 134.631  1.00  0.00    -0.544 OA
ENDBRANCH   9  14
ENDBRANCH   8   9
ENDBRANCH   1   8
TORSDOF 7
ENDMDL
MODEL 3
REMARK VINA RESULT:    -3.270      9.274     10.221
REMARK INTER + INTRA:          -4.575
REMARK INTER:                  -4.009
REMARK INTRA:                  -0.566
REMARK UNBOUND:                -0.158
REMARK SMILES [NH3+]CCCC[C@H]([NH3+])C(=O)[O-]
REMARK SMILES IDX 4 1 3 2 2 3 1 4 5 8 6 9 7 10 8 14 9 15 10 16
REMARK H PARENT 1 5 1 6 1 7 7 11 7 12 7 13
REMARK Flexibility Score: inf
ROOT
ATOM      1  C   UNL     1     146.229 153.742 127.653  1.00  0.00     0.012 C 
ENDROOT
BRANCH   1   2
ATOM      2  C   UNL     1     146.358 155.273 127.778  1.00  0.00     0.061 C 
BRANCH   2   3
ATOM      3  C   UNL     1     146.047 155.835 129.177  1.00  0.00     0.258 C 
BRANCH   3   4
ATOM      4  N   UNL     1     147.256 156.027 129.980  1.00  0.00    -0.358 N 
ATOM      5  H   UNL     1     147.010 155.938 130.992  1.00  0.00     0.344 HD
ATOM      6  H   UNL     1     147.966 155.296 129.748  1.00  0.00     0.344 HD
ATOM      7  H   UNL     1     147.656 156.979 129.814  1.00  0.00     0.344 HD
ENDBRANCH   3   4
ENDBRANCH   2   3
ENDBRANCH   1   2
BRANCH   1   8
ATOM      8  C   UNL     1     147.504 153.011 127.184  1.00  0.00     0.072 C 
BRANCH   8   9
ATOM      9  C   UNL     1     148.410 152.502 128.328  1.00  0.00     0.227 C 
BRANCH   9  10
ATOM     10  N   UNL     1     147.654 152.434 129.585  1.00  0.00    -0.350 N 
ATOM     11  H   UNL     1     147.573 153.381 130.022  1.00  0.00     0.345 HD
ATOM     12  H   UNL     1     146.695 152.060 129.401  1.00  0.00     0.345 HD
ATOM     13  H   UNL     1     148.133 151.788 130.253  1.00  0.00     0.345 HD
ENDBRANCH   9  10
BRANCH   9  14
ATOM     14  C   UNL     1     149.621 153.382 128.501  1.00  0.00     0.099 C 
ATOM     15  O   UNL     1     149.585 154.375 129.274  1.00  0.00    -0.544 OA
ATOM     16  O   UNL     1     150.786 153.104 127.798  1.00  0.00    -0.544 OA
ENDBRANCH   9  14
ENDBRANCH   8   9
ENDBRANCH   1   8
TORSDOF 7
ENDMDL
MODEL 4
REMARK VINA RESULT:    -3.186      7.953      9.013
REMARK INTER + INTRA:          -4.461
REMARK INTER:                  -4.323
REMARK INTRA:                  -0.139
REMARK UNBOUND:                -0.158
REMARK SMILES [NH3+]CCCC[C@H]([NH3+])C(=O)[O-]
REMARK SMILES IDX 4 1 3 2 2 3 1 4 5 8 6 9 7 10 8 14 9 15 10 16
REMARK H PARENT 1 5 1 6 1 7 7 11 7 12 7 13
REMARK Flexibility Score: inf
ROOT
ATOM      1  C   UNL     1     149.140 152.777 128.976  1.00  0.00     0.012 C 
ENDROOT
BRANCH   1   2
ATOM      2  C   UNL     1     149.061 154.312 129.090  1.00  0.00     0.061 C 
BRANCH   2   3
ATOM      3  C   UNL     1     147.635 154.891 129.051  1.00  0.00     0.258 C 
BRANCH   3   4
ATOM      4  N   UNL     1     147.535 156.168 129.760  1.00  0.00    -0.358 N 
ATOM      5  H   UNL     1     148.076 156.892 129.236  1.00  0.00     0.344 HD
ATOM      6  H   UNL     1     146.538 156.476 129.814  1.00  0.00     0.344 HD
ATOM      7  H   UNL     1     147.934 156.081 130.723  1.00  0.00     0.344 HD
ENDBRANCH   3   4
ENDBRANCH   2   3
ENDBRANCH   1   2
BRANCH   1   8
ATOM      8  C   UNL     1     147.779 152.050 128.946  1.00  0.00     0.072 C 
BRANCH   8   9
ATOM      9  C   UNL     1     147.877 150.507 128.931  1.00  0.00     0.227 C 
BRANCH   9  10
ATOM     10  N   UNL     1     146.567 149.917 128.631  1.00  0.00    -0.350 N 
ATOM     11  H   UNL     1     146.634 149.253 127.826  1.00  0.00     0.345 HD
ATOM     12  H   UNL     1     146.210 149.402 129.469  1.00  0.00     0.345 HD
ATOM     13  H   UNL     1     145.882 150.672 128.397  1.00  0.00     0.345 HD
ENDBRANCH   9  10
BRANCH   9  14
ATOM     14  C   UNL     1     148.394 149.977 130.244  1.00  0.00     0.099 C 
ATOM     15  O   UNL     1     147.684 150.039 131.282  1.00  0.00    -0.544 OA
ATOM     16  O   UNL     1     149.665 149.424 130.315  1.00  0.00    -0.544 OA
ENDBRANCH   9  14
ENDBRANCH   8   9
ENDBRANCH   1   8
TORSDOF 7
ENDMDL
MODEL 5
REMARK VINA RESULT:    -3.179      8.035      9.536
REMARK INTER + INTRA:          -4.452
REMARK INTER:                  -4.253
REMARK INTRA:                  -0.200
REMARK UNBOUND:                -0.158
REMARK SMILES [NH3+]CCCC[C@H]([NH3+])C(=O)[O-]
REMARK SMILES IDX 4 1 3 2 2 3 1 4 5 8 6 9 7 10 8 14 9 15 10 16
REMARK H PARENT 1 5 1 6 1 7 7 11 7 12 7 13
REMARK Flexibility Score: inf
ROOT
ATOM      1  C   UNL     1     149.102 151.209 128.950  1.00  0.00     0.012 C 
ENDROOT
BRANCH   1   2
ATOM      2  C   UNL     1     148.778 151.191 130.456  1.00  0.00     0.061 C 
BRANCH   2   3
ATOM      3  C   UNL     1     147.842 150.053 130.902  1.00  0.00     0.258 C 
BRANCH   3   4
ATOM      4  N   UNL     1     147.861 149.854 132.352  1.00  0.00    -0.358 N 
ATOM      5  H   UNL     1     148.556 149.107 132.584  1.00  0.00     0.344 HD
ATOM      6  H   UNL     1     148.151 150.733 132.836  1.00  0.00     0.344 HD
ATOM      7  H   UNL     1     146.919 149.553 132.691  1.00  0.00     0.344 HD
ENDBRANCH   3   4
ENDBRANCH   2   3
ENDBRANCH   1   2
BRANCH   1   8
ATOM      8  C   UNL     1     148.589 152.446 128.183  1.00  0.00     0.072 C 
BRANCH   8   9
ATOM      9  C   UNL     1     147.617 153.341 128.985  1.00  0.00     0.227 C 
BRANCH   9  10
ATOM     10  N   UNL     1     146.322 153.430 128.300  1.00  0.00    -0.350 N 
ATOM     11  H   UNL     1     145.587 153.808 128.941  1.00  0.00     0.345 HD
ATOM     12  H   UNL     1     146.405 154.058 127.467  1.00  0.00     0.345 HD
ATOM     13  H   UNL     1     146.031 152.482 127.966  1.00  0.00     0.345 HD
ENDBRANCH   9  10
BRANCH   9  14
ATOM     14  C   UNL     1     148.188 154.720 129.194  1.00  0.00     0.099 C 
ATOM     15  O   UNL     1     149.434 154.898 129.230  1.00  0.00    -0.544 OA
ATOM     16  O   UNL     1     147.336 155.805 129.356  1.00  0.00    -0.544 OA
ENDBRANCH   9  14
ENDBRANCH   8   9
ENDBRANCH   1   8
TORSDOF 7
ENDMDL
MODEL 6
REMARK VINA RESULT:    -3.174      2.416      3.115
REMARK INTER + INTRA:          -4.445
REMARK INTER:                  -4.283
REMARK INTRA:                  -0.163
REMARK UNBOUND:                -0.158
REMARK SMILES [NH3+]CCCC[C@H]([NH3+])C(=O)[O-]
REMARK SMILES IDX 4 1 3 2 2 3 1 4 5 8 6 9 7 10 8 14 9 15 10 16
REMARK H PARENT 1 5 1 6 1 7 7 11 7 12 7 13
REMARK Flexibility Score: inf
ROOT
ATOM      1  C   UNL     1     150.421 151.041 136.439  1.00  0.00     0.012 C 
ENDROOT
BRANCH   1   2
ATOM      2  C   UNL     1     150.296 150.919 134.907  1.00  0.00     0.061 C 
BRANCH   2   3
ATOM      3  C   UNL     1     148.860 151.036 134.365  1.00  0.00     0.258 C 
BRANCH   3   4
ATOM      4  N   UNL     1     148.666 150.266 133.135  1.00  0.00    -0.358 N 
ATOM      5  H   UNL     1     149.214 149.378 133.200  1.00  0.00     0.344 HD
ATOM      6  H   UNL     1     147.657 150.022 133.014  1.00  0.00     0.344 HD
ATOM      7  H   UNL     1     149.004 150.810 132.308  1.00  0.00     0.344 HD
ENDBRANCH   3   4
ENDBRANCH   2   3
ENDBRANCH   1   2
BRANCH   1   8
ATOM      8  C   UNL     1     150.823 149.744 137.170  1.00  0.00     0.072 C 
BRANCH   8   9
ATOM      9  C   UNL     1     151.533 148.698 136.279  1.00  0.00     0.227 C 
BRANCH   9  10
ATOM     10  N   UNL     1     151.179 147.339 136.707  1.00  0.00    -0.350 N 
ATOM     11  H   UNL     1     151.317 146.656 135.926  1.00  0.00     0.345 HD
ATOM     12  H   UNL     1     151.776 147.056 137.517  1.00  0.00     0.345 HD
ATOM     13  H   UNL     1     150.179 147.312 137.013  1.00  0.00     0.345 HD
ENDBRANCH   9  10
BRANCH   9  14
ATOM     14  C   UNL     1     153.029 148.876 136.310  1.00  0.00     0.099 C 
ATOM     15  O   UNL     1     153.608 149.238 137.368  1.00  0.00    -0.544 OA
ATOM     16  O   UNL     1     153.778 148.649 135.163  1.00  0.00    -0.544 OA
ENDBRANCH   9  14
ENDBRANCH   8   9
ENDBRANCH   1   8
TORSDOF 7
ENDMDL
MODEL 7
REMARK VINA RESULT:    -3.101      7.304      8.704
REMARK INTER + INTRA:          -4.347
REMARK INTER:                  -4.163
REMARK INTRA:                  -0.183
REMARK UNBOUND:                -0.158
REMARK SMILES [NH3+]CCCC[C@H]([NH3+])C(=O)[O-]
REMARK SMILES IDX 4 1 3 2 2 3 1 4 5 8 6 9 7 10 8 14 9 15 10 16
REMARK H PARENT 1 5 1 6 1 7 7 11 7 12 7 13
REMARK Flexibility Score: inf
ROOT
ATOM      1  C   UNL     1     147.846 149.994 129.451  1.00  0.00     0.012 C 
ENDROOT
BRANCH   1   2
ATOM      2  C   UNL     1     149.098 149.801 130.329  1.00  0.00     0.061 C 
BRANCH   2   3
ATOM      3  C   UNL     1     148.828 149.181 131.712  1.00  0.00     0.258 C 
BRANCH   3   4
ATOM      4  N   UNL     1     147.781 149.893 132.445  1.00  0.00    -0.358 N 
ATOM      5  H   UNL     1     148.201 150.337 133.293  1.00  0.00     0.344 HD
ATOM      6  H   UNL     1     147.368 150.646 131.850  1.00  0.00     0.344 HD
ATOM      7  H   UNL     1     147.033 149.228 132.750  1.00  0.00     0.344 HD
ENDBRANCH   3   4
ENDBRANCH   2   3
ENDBRANCH   1   2
BRANCH   1   8
ATOM      8  C   UNL     1     147.850 151.260 128.570  1.00  0.00     0.072 C 
BRANCH   8   9
ATOM      9  C   UNL     1     148.024 152.584 129.350  1.00  0.00     0.227 C 
BRANCH   9  10
ATOM     10  N   UNL     1     146.804 153.394 129.257  1.00  0.00    -0.350 N 
ATOM     11  H   UNL     1     147.002 154.313 128.796  1.00  0.00     0.345 HD
ATOM     12  H   UNL     1     146.080 152.883 128.701  1.00  0.00     0.345 HD
ATOM     13  H   UNL     1     146.418 153.567 130.214  1.00  0.00     0.345 HD
ENDBRANCH   9  10
BRANCH   9  14
ATOM     14  C   UNL     1     149.206 153.369 128.841  1.00  0.00     0.099 C 
ATOM     15  O   UNL     1     149.377 154.566 129.193  1.00  0.00    -0.544 OA
ATOM     16  O   UNL     1     150.110 152.775 127.971  1.00  0.00    -0.544 OA
ENDBRANCH   9  14
ENDBRANCH   8   9
ENDBRANCH   1   8
TORSDOF 7
ENDMDL
MODEL 8
REMARK VINA RESULT:    -3.098      9.182     10.289
REMARK INTER + INTRA:          -4.342
REMARK INTER:                  -4.115
REMARK INTRA:                  -0.227
REMARK UNBOUND:                -0.158
REMARK SMILES [NH3+]CCCC[C@H]([NH3+])C(=O)[O-]
REMARK SMILES IDX 4 1 3 2 2 3 1 4 5 8 6 9 7 10 8 14 9 15 10 16
REMARK H PARENT 1 5 1 6 1 7 7 11 7 12 7 13
REMARK Flexibility Score: inf
ROOT
ATOM      1  C   UNL     1     148.793 152.131 128.676  1.00  0.00     0.012 C 
ENDROOT
BRANCH   1   2
ATOM      2  C   UNL     1     148.829 151.300 129.973  1.00  0.00     0.061 C 
BRANCH   2   3
ATOM      3  C   UNL     1     147.714 150.246 130.096  1.00  0.00     0.258 C 
BRANCH   3   4
ATOM      4  N   UNL     1     146.852 150.210 128.913  1.00  0.00    -0.358 N 
ATOM      5  H   UNL     1     145.861 150.361 129.209  1.00  0.00     0.344 HD
ATOM      6  H   UNL     1     147.116 150.970 128.247  1.00  0.00     0.344 HD
ATOM      7  H   UNL     1     146.923 149.280 128.439  1.00  0.00     0.344 HD
ENDBRANCH   3   4
ENDBRANCH   2   3
ENDBRANCH   1   2
BRANCH   1   8
ATOM      8  C   UNL     1     148.451 153.624 128.862  1.00  0.00     0.072 C 
BRANCH   8   9
ATOM      9  C   UNL     1     147.033 153.893 129.417  1.00  0.00     0.227 C 
BRANCH   9  10
ATOM     10  N   UNL     1     146.029 153.691 128.366  1.00  0.00    -0.350 N 
ATOM     11  H   UNL     1     145.415 154.533 128.272  1.00  0.00     0.345 HD
ATOM     12  H   UNL     1     146.504 153.511 127.452  1.00  0.00     0.345 HD
ATOM     13  H   UNL     1     145.437 152.860 128.595  1.00  0.00     0.345 HD
ENDBRANCH   9  10
BRANCH   9  14
ATOM     14  C   UNL     1     146.920 155.287 129.979  1.00  0.00     0.099 C 
ATOM     15  O   UNL     1     147.516 156.249 129.427  1.00  0.00    -0.544 OA
ATOM     16  O   UNL     1     146.161 155.515 131.119  1.00  0.00    -0.544 OA
ENDBRANCH   9  14
ENDBRANCH   8   9
ENDBRANCH   1   8
TORSDOF 7
ENDMDL
MODEL 9
REMARK VINA RESULT:    -3.052      7.835      9.107
REMARK INTER + INTRA:          -4.280
REMARK INTER:                  -3.762
REMARK INTRA:                  -0.518
REMARK UNBOUND:                -0.158
REMARK SMILES [NH3+]CCCC[C@H]([NH3+])C(=O)[O-]
REMARK SMILES IDX 4 1 3 2 2 3 1 4 5 8 6 9 7 10 8 14 9 15 10 16
REMARK H PARENT 1 5 1 6 1 7 7 11 7 12 7 13
REMARK Flexibility Score: inf
ROOT
ATOM      1  C   UNL     1     149.017 152.952 128.654  1.00  0.00     0.012 C 
ENDROOT
BRANCH   1   2
ATOM      2  C   UNL     1     149.554 152.501 127.281  1.00  0.00     0.061 C 
BRANCH   2   3
ATOM      3  C   UNL     1     151.085 152.366 127.199  1.00  0.00     0.258 C 
BRANCH   3   4
ATOM      4  N   UNL     1     151.526 150.974 127.317  1.00  0.00    -0.358 N 
ATOM      5  H   UNL     1     150.735 150.343 127.055  1.00  0.00     0.344 HD
ATOM      6  H   UNL     1     152.323 150.790 126.668  1.00  0.00     0.344 HD
ATOM      7  H   UNL     1     151.810 150.765 128.301  1.00  0.00     0.344 HD
ENDBRANCH   3   4
ENDBRANCH   2   3
ENDBRANCH   1   2
BRANCH   1   8
ATOM      8  C   UNL     1     147.893 152.072 129.240  1.00  0.00     0.072 C 
BRANCH   8   9
ATOM      9  C   UNL     1     148.029 150.564 128.925  1.00  0.00     0.227 C 
BRANCH   9  10
ATOM     10  N   UNL     1     146.706 149.928 128.900  1.00  0.00    -0.350 N 
ATOM     11  H   UNL     1     146.150 150.194 129.745  1.00  0.00     0.345 HD
ATOM     12  H   UNL     1     146.187 150.226 128.042  1.00  0.00     0.345 HD
ATOM     13  H   UNL     1     146.812 148.888 128.872  1.00  0.00     0.345 HD
ENDBRANCH   9  10
BRANCH   9  14
ATOM     14  C   UNL     1     148.916 149.872 129.928  1.00  0.00     0.099 C 
ATOM     15  O   UNL     1     148.508 149.652 131.098  1.00  0.00    -0.544 OA
ATOM     16  O   UNL     1     150.197 149.479 129.564  1.00  0.00    -0.544 OA
ENDBRANCH   9  14
ENDBRANCH   8   9
ENDBRANCH   1   8
TORSDOF 7
ENDMDL
