MODEL 1
REMARK VINA RESULT:     4.760      0.000      0.000
REMARK INTER + INTRA:           8.350
REMARK INTER:                   6.430
REMARK INTRA:                   1.920
REMARK UNBOUND:                 1.920
REMARK SMILES COc1ccc(-c2cc(=O)c3c(OC)c(OC)c(OC)c(OC)c3o2)cc1
REMARK SMILES IDX 7 1 8 2 9 3 10 4 11 5 24 6 25 7 21 8 18 9 15 10 12 11 6 12
REMARK SMILES IDX 3 13 4 14 27 15 5 16 26 17 2 18 1 19 22 20 23 21 13 22 14 23
REMARK SMILES IDX 19 24 20 25 16 26 17 27
REMARK H PARENT
REMARK Flexibility Score: inf
ROOT
ATOM      1  C   UNL     1      -1.708  14.711 -17.593  1.00  0.00     0.138 A 
ATOM      2  C   UNL     1      -1.855  16.015 -17.108  1.00  0.00     0.100 A 
ATOM      3  C   UNL     1      -1.176  17.055 -17.734  1.00  0.00     0.197 A 
ATOM      4  O   UNL     1      -1.320  18.226 -17.288  1.00  0.00    -0.289 OA
ATOM      5  C   UNL     1      -0.351  16.784 -18.848  1.00  0.00     0.115 A 
ATOM      6  C   UNL     1      -0.257  15.442 -19.293  1.00  0.00     0.188 A 
ATOM      7  O   UNL     1      -0.934  14.490 -18.653  1.00  0.00    -0.452 OA
ATOM      8  C   UNL     1       0.569  15.109 -20.399  1.00  0.00     0.209 A 
ATOM      9  C   UNL     1       1.283  16.138 -21.062  1.00  0.00     0.211 A 
ATOM     10  C   UNL     1       1.158  17.465 -20.635  1.00  0.00     0.208 A 
ATOM     11  C   UNL     1       0.389  17.791 -19.503  1.00  0.00     0.179 A 
ENDROOT
BRANCH   1  12
ATOM     12  C   UNL     1      -2.400  13.566 -16.953  1.00  0.00     0.018 A 
ATOM     13  C   UNL     1      -3.747  11.419 -15.707  1.00  0.00     0.118 A 
ATOM     14  C   UNL     1      -3.198  12.460 -14.935  1.00  0.00     0.047 A 
ATOM     15  C   UNL     1      -3.619  11.462 -17.099  1.00  0.00     0.047 A 
ATOM     16  C   UNL     1      -2.536  13.524 -15.556  1.00  0.00     0.016 A 
ATOM     17  C   UNL     1      -2.956  12.524 -17.721  1.00  0.00     0.016 A 
BRANCH  13  18
ATOM     18  O   UNL     1      -4.423  10.332 -15.133  1.00  0.00    -0.497 OA
ATOM     19  C   UNL     1      -4.310   9.946 -13.767  1.00  0.00     0.278 C 
ENDBRANCH  13  18
ENDBRANCH   1  12
BRANCH   8  20
ATOM     20  O   UNL     1       0.711  13.789 -20.866  1.00  0.00    -0.490 OA
ATOM     21  C   UNL     1       1.917  13.044 -20.988  1.00  0.00     0.278 C 
ENDBRANCH   8  20
BRANCH  11  22
ATOM     22  O   UNL     1       0.366  19.104 -19.020  1.00  0.00    -0.492 OA
ATOM     23  C   UNL     1       1.293  19.576 -18.047  1.00  0.00     0.278 C 
ENDBRANCH  11  22
BRANCH   9  24
ATOM     24  O   UNL     1       2.125  15.920 -22.172  1.00  0.00    -0.490 OA
ATOM     25  C   UNL     1       1.974  14.929 -23.183  1.00  0.00     0.279 C 
ENDBRANCH   9  24
BRANCH  10  26
ATOM     26  O   UNL     1       1.816  18.459 -21.371  1.00  0.00    -0.490 OA
ATOM     27  C   UNL     1       1.422  19.826 -21.330  1.00  0.00     0.278 C 
ENDBRANCH  10  26
TORSDOF 6
ENDMDL
MODEL 2
REMARK VINA RESULT:     6.437      1.894      7.981
REMARK INTER + INTRA:          10.615
REMARK INTER:                   8.019
REMARK INTRA:                   2.596
REMARK UNBOUND:                 1.920
REMARK SMILES COc1ccc(-c2cc(=O)c3c(OC)c(OC)c(OC)c(OC)c3o2)cc1
REMARK SMILES IDX 7 1 8 2 9 3 10 4 11 5 24 6 25 7 21 8 18 9 15 10 12 11 6 12
REMARK SMILES IDX 3 13 4 14 27 15 5 16 26 17 2 18 1 19 22 20 23 21 13 22 14 23
REMARK SMILES IDX 19 24 20 25 16 26 17 27
REMARK H PARENT
REMARK Flexibility Score: inf
ROOT
ATOM      1  C   UNL     1      -1.137  14.773 -17.859  1.00  0.00     0.138 A 
ATOM      2  C   UNL     1      -1.028  14.735 -16.465  1.00  0.00     0.100 A 
ATOM      3  C   UNL     1      -1.846  13.875 -15.741  1.00  0.00     0.197 A 
ATOM      4  O   UNL     1      -1.736  13.850 -14.485  1.00  0.00    -0.289 OA
ATOM      5  C   UNL     1      -2.770  13.049 -16.419  1.00  0.00     0.115 A 
ATOM      6  C   UNL     1      -2.819  13.130 -17.833  1.00  0.00     0.188 A 
ATOM      7  O   UNL     1      -2.008  13.973 -18.470  1.00  0.00    -0.452 OA
ATOM      8  C   UNL     1      -3.739  12.335 -18.566  1.00  0.00     0.209 A 
ATOM      9  C   UNL     1      -4.595  11.447 -17.866  1.00  0.00     0.211 A 
ATOM     10  C   UNL     1      -4.517  11.351 -16.472  1.00  0.00     0.208 A 
ATOM     11  C   UNL     1      -3.650  12.181 -15.738  1.00  0.00     0.179 A 
ENDROOT
BRANCH   1  12
ATOM     12  C   UNL     1      -0.298  15.683 -18.676  1.00  0.00     0.018 A 
ATOM     13  C   UNL     1       1.300  17.451 -20.192  1.00  0.00     0.118 A 
ATOM     14  C   UNL     1       0.116  17.906 -19.582  1.00  0.00     0.047 A 
ATOM     15  C   UNL     1       1.676  16.113 -20.036  1.00  0.00     0.047 A 
ATOM     16  C   UNL     1      -0.670  17.029 -18.828  1.00  0.00     0.016 A 
ATOM     17  C   UNL     1       0.892  15.235 -19.284  1.00  0.00     0.016 A 
BRANCH  13  18
ATOM     18  O   UNL     1       2.125  18.291 -20.955  1.00  0.00    -0.497 OA
ATOM     19  C   UNL     1       1.859  19.669 -21.202  1.00  0.00     0.278 C 
ENDBRANCH  13  18
ENDBRANCH   1  12
BRANCH   8  20
ATOM     20  O   UNL     1      -3.839  12.393 -19.969  1.00  0.00    -0.490 OA
ATOM     21  C   UNL     1      -4.214  11.340 -20.849  1.00  0.00     0.278 C 
ENDBRANCH   8  20
BRANCH  11  22
ATOM     22  O   UNL     1      -3.666  12.156 -14.338  1.00  0.00    -0.492 OA
ATOM     23  C   UNL     1      -2.808  11.309 -13.581  1.00  0.00     0.278 C 
ENDBRANCH  11  22
BRANCH   9  24
ATOM     24  O   UNL     1      -5.539  10.609 -18.494  1.00  0.00    -0.490 OA
ATOM     25  C   UNL     1      -6.690  11.012 -19.230  1.00  0.00     0.279 C 
ENDBRANCH   9  24
BRANCH  10  26
ATOM     26  O   UNL     1      -5.322  10.402 -15.831  1.00  0.00    -0.490 OA
ATOM     27  C   UNL     1      -4.980   9.838 -14.569  1.00  0.00     0.278 C 
ENDBRANCH  10  26
TORSDOF 6
ENDMDL
