MODEL 1
REMARK VINA RESULT:    -6.078      0.000      0.000
REMARK INTER + INTRA:         -12.874
REMARK INTER:                 -11.053
REMARK INTRA:                  -1.821
REMARK UNBOUND:                -1.821
REMARK SMILES CCCCCC=CCC=CCCCCCCCC(=O)[O-]
REMARK SMILES IDX 11 1 12 2 13 3 14 4 15 5 16 6 17 7 18 8 19 9 20 10 10 11
REMARK SMILES IDX 9 12 8 13 7 14 6 15 5 16 4 17 3 18 2 19 1 20
REMARK H PARENT
REMARK Flexibility Score: inf
ROOT
ATOM      1  C   UNL     1       6.655 -49.690  37.388  1.00  0.00     0.027 C 
ENDROOT
BRANCH   1   2
ATOM      2  C   UNL     1       7.658 -49.977  36.262  1.00  0.00     0.004 C 
BRANCH   2   3
ATOM      3  C   UNL     1       7.043 -49.757  34.864  1.00  0.00     0.000 C 
BRANCH   3   4
ATOM      4  C   UNL     1       7.268 -48.340  34.308  1.00  0.00     0.000 C 
BRANCH   4   5
ATOM      5  C   UNL     1       8.700 -47.830  34.538  1.00  0.00     0.000 C 
BRANCH   5   6
ATOM      6  C   UNL     1       8.734 -46.383  35.056  1.00  0.00     0.006 C 
BRANCH   6   7
ATOM      7  C   UNL     1      10.096 -45.710  34.844  1.00  0.00     0.053 C 
BRANCH   7   8
ATOM      8  C   UNL     1      10.139 -45.029  33.512  1.00  0.00     0.041 C 
ATOM      9  O   UNL     1      10.318 -45.701  32.463  1.00  0.00    -0.550 OA
ATOM     10  O   UNL     1       9.933 -43.659  33.425  1.00  0.00    -0.550 OA
ENDBRANCH   7   8
ENDBRANCH   6   7
ENDBRANCH   5   6
ENDBRANCH   4   5
ENDBRANCH   3   4
ENDBRANCH   2   3
ENDBRANCH   1   2
BRANCH   1  11
ATOM     11  C   UNL     1       6.965 -48.388  38.075  1.00  0.00    -0.031 C 
ATOM     12  C   UNL     1       8.234 -48.001  38.268  1.00  0.00    -0.027 C 
BRANCH  12  13
ATOM     13  C   UNL     1       8.565 -46.705  38.955  1.00  0.00     0.054 C 
BRANCH  13  14
ATOM     14  C   UNL     1       9.952 -46.243  38.605  1.00  0.00    -0.027 C 
ATOM     15  C   UNL     1      11.028 -47.001  38.862  1.00  0.00    -0.031 C 
BRANCH  15  16
ATOM     16  C   UNL     1      12.418 -46.543  38.509  1.00  0.00     0.027 C 
BRANCH  16  17
ATOM     17  C   UNL     1      13.501 -47.442  39.125  1.00  0.00     0.004 C 
BRANCH  17  18
ATOM     18  C   UNL     1      14.851 -47.302  38.400  1.00  0.00     0.000 C 
BRANCH  18  19
ATOM     19  C   UNL     1      14.700 -46.752  36.974  1.00  0.00    -0.003 C 
ATOM     20  C   UNL     1      15.718 -47.348  36.002  1.00  0.00     0.004 C 
ENDBRANCH  18  19
ENDBRANCH  17  18
ENDBRANCH  16  17
ENDBRANCH  15  16
ENDBRANCH  13  14
ENDBRANCH  12  13
ENDBRANCH   1  11
TORSDOF 14
ENDMDL
MODEL 2
REMARK VINA RESULT:    -6.000      3.149      6.982
REMARK INTER + INTRA:         -12.731
REMARK INTER:                 -11.009
REMARK INTRA:                  -1.722
REMARK UNBOUND:                -1.821
REMARK SMILES CCCCCC=CCC=CCCCCCCCC(=O)[O-]
REMARK SMILES IDX 11 1 12 2 13 3 14 4 15 5 16 6 17 7 18 8 19 9 20 10 10 11
REMARK SMILES IDX 9 12 8 13 7 14 6 15 5 16 4 17 3 18 2 19 1 20
REMARK H PARENT
REMARK Flexibility Score: inf
ROOT
ATOM      1  C   UNL     1       7.787 -47.458  36.664  1.00  0.00     0.027 C 
ENDROOT
BRANCH   1   2
ATOM      2  C   UNL     1       8.954 -47.986  37.510  1.00  0.00     0.004 C 
BRANCH   2   3
ATOM      3  C   UNL     1       9.262 -47.072  38.714  1.00  0.00     0.000 C 
BRANCH   3   4
ATOM      4  C   UNL     1      10.693 -47.228  39.257  1.00  0.00     0.000 C 
BRANCH   4   5
ATOM      5  C   UNL     1      11.619 -46.075  38.836  1.00  0.00     0.000 C 
BRANCH   5   6
ATOM      6  C   UNL     1      12.173 -46.254  37.413  1.00  0.00     0.006 C 
BRANCH   6   7
ATOM      7  C   UNL     1      13.623 -45.770  37.277  1.00  0.00     0.053 C 
BRANCH   7   8
ATOM      8  C   UNL     1      14.574 -46.877  37.605  1.00  0.00     0.041 C 
ATOM      9  O   UNL     1      14.881 -47.730  36.731  1.00  0.00    -0.550 OA
ATOM     10  O   UNL     1      15.161 -46.940  38.863  1.00  0.00    -0.550 OA
ENDBRANCH   7   8
ENDBRANCH   6   7
ENDBRANCH   5   6
ENDBRANCH   4   5
ENDBRANCH   3   4
ENDBRANCH   2   3
ENDBRANCH   1   2
BRANCH   1  11
ATOM     11  C   UNL     1       8.268 -46.501  35.608  1.00  0.00    -0.031 C 
ATOM     12  C   UNL     1       9.481 -46.643  35.056  1.00  0.00    -0.027 C 
BRANCH  12  13
ATOM     13  C   UNL     1       9.981 -45.695  34.002  1.00  0.00     0.054 C 
BRANCH  13  14
ATOM     14  C   UNL     1       8.965 -44.627  33.705  1.00  0.00    -0.027 C 
ATOM     15  C   UNL     1       8.542 -44.391  32.455  1.00  0.00    -0.031 C 
BRANCH  15  16
ATOM     16  C   UNL     1       7.521 -43.325  32.155  1.00  0.00     0.027 C 
BRANCH  16  17
ATOM     17  C   UNL     1       6.156 -43.916  31.775  1.00  0.00     0.004 C 
BRANCH  17  18
ATOM     18  C   UNL     1       6.287 -45.304  31.124  1.00  0.00     0.000 C 
BRANCH  18  19
ATOM     19  C   UNL     1       5.326 -46.336  31.735  1.00  0.00    -0.003 C 
ATOM     20  C   UNL     1       6.010 -47.247  32.754  1.00  0.00     0.004 C 
ENDBRANCH  18  19
ENDBRANCH  17  18
ENDBRANCH  16  17
ENDBRANCH  15  16
ENDBRANCH  13  14
ENDBRANCH  12  13
ENDBRANCH   1  11
TORSDOF 14
ENDMDL
MODEL 3
REMARK VINA RESULT:    -5.945      1.583      2.058
REMARK INTER + INTRA:         -12.632
REMARK INTER:                 -11.150
REMARK INTRA:                  -1.482
REMARK UNBOUND:                -1.821
REMARK SMILES CCCCCC=CCC=CCCCCCCCC(=O)[O-]
REMARK SMILES IDX 11 1 12 2 13 3 14 4 15 5 16 6 17 7 18 8 19 9 20 10 10 11
REMARK SMILES IDX 9 12 8 13 7 14 6 15 5 16 4 17 3 18 2 19 1 20
REMARK H PARENT
REMARK Flexibility Score: inf
ROOT
ATOM      1  C   UNL     1       7.706 -49.443  35.093  1.00  0.00     0.027 C 
ENDROOT
BRANCH   1   2
ATOM      2  C   UNL     1       6.437 -49.347  34.233  1.00  0.00     0.004 C 
BRANCH   2   3
ATOM      3  C   UNL     1       5.992 -47.885  34.014  1.00  0.00     0.000 C 
BRANCH   3   4
ATOM      4  C   UNL     1       6.049 -47.437  32.544  1.00  0.00     0.000 C 
BRANCH   4   5
ATOM      5  C   UNL     1       7.482 -47.157  32.062  1.00  0.00     0.000 C 
BRANCH   5   6
ATOM      6  C   UNL     1       7.814 -45.656  32.041  1.00  0.00     0.006 C 
BRANCH   6   7
ATOM      7  C   UNL     1       9.222 -45.354  32.570  1.00  0.00     0.053 C 
BRANCH   7   8
ATOM      8  C   UNL     1       9.339 -45.767  34.004  1.00  0.00     0.041 C 
ATOM      9  O   UNL     1      10.153 -46.667  34.340  1.00  0.00    -0.550 OA
ATOM     10  O   UNL     1       8.583 -45.125  34.976  1.00  0.00    -0.550 OA
ENDBRANCH   7   8
ENDBRANCH   6   7
ENDBRANCH   5   6
ENDBRANCH   4   5
ENDBRANCH   3   4
ENDBRANCH   2   3
ENDBRANCH   1   2
BRANCH   1  11
ATOM     11  C   UNL     1       7.738 -48.364  36.140  1.00  0.00    -0.031 C 
ATOM     12  C   UNL     1       8.178 -48.624  37.379  1.00  0.00    -0.027 C 
BRANCH  12  13
ATOM     13  C   UNL     1       8.215 -47.560  38.441  1.00  0.00     0.054 C 
BRANCH  13  14
ATOM     14  C   UNL     1       9.628 -47.160  38.760  1.00  0.00    -0.027 C 
ATOM     15  C   UNL     1      10.408 -46.557  37.851  1.00  0.00    -0.031 C 
BRANCH  15  16
ATOM     16  C   UNL     1      11.822 -46.151  38.168  1.00  0.00     0.027 C 
BRANCH  16  17
ATOM     17  C   UNL     1      12.675 -45.972  36.903  1.00  0.00     0.004 C 
BRANCH  17  18
ATOM     18  C   UNL     1      14.159 -45.732  37.234  1.00  0.00     0.000 C 
BRANCH  18  19
ATOM     19  C   UNL     1      14.793 -46.911  37.988  1.00  0.00    -0.003 C 
ATOM     20  C   UNL     1      15.352 -47.979  37.048  1.00  0.00     0.004 C 
ENDBRANCH  18  19
ENDBRANCH  17  18
ENDBRANCH  16  17
ENDBRANCH  15  16
ENDBRANCH  13  14
ENDBRANCH  12  13
ENDBRANCH   1  11
TORSDOF 14
ENDMDL
MODEL 4
REMARK VINA RESULT:    -5.911      2.140      4.135
REMARK INTER + INTRA:         -12.570
REMARK INTER:                 -11.005
REMARK INTRA:                  -1.565
REMARK UNBOUND:                -1.821
REMARK SMILES CCCCCC=CCC=CCCCCCCCC(=O)[O-]
REMARK SMILES IDX 11 1 12 2 13 3 14 4 15 5 16 6 17 7 18 8 19 9 20 10 10 11
REMARK SMILES IDX 9 12 8 13 7 14 6 15 5 16 4 17 3 18 2 19 1 20
REMARK H PARENT
REMARK Flexibility Score: inf
ROOT
ATOM      1  C   UNL     1       5.624 -47.466  33.103  1.00  0.00     0.027 C 
ENDROOT
BRANCH   1   2
ATOM      2  C   UNL     1       6.301 -47.168  31.757  1.00  0.00     0.004 C 
BRANCH   2   3
ATOM      3  C   UNL     1       5.600 -46.025  30.993  1.00  0.00     0.000 C 
BRANCH   3   4
ATOM      4  C   UNL     1       6.218 -44.641  31.251  1.00  0.00     0.000 C 
BRANCH   4   5
ATOM      5  C   UNL     1       7.743 -44.695  31.440  1.00  0.00     0.000 C 
BRANCH   5   6
ATOM      6  C   UNL     1       8.221 -43.844  32.628  1.00  0.00     0.006 C 
BRANCH   6   7
ATOM      7  C   UNL     1       9.566 -44.320  33.194  1.00  0.00     0.053 C 
BRANCH   7   8
ATOM      8  C   UNL     1       9.358 -45.461  34.139  1.00  0.00     0.041 C 
ATOM      9  O   UNL     1       9.997 -46.535  33.986  1.00  0.00    -0.550 OA
ATOM     10  O   UNL     1       8.495 -45.321  35.218  1.00  0.00    -0.550 OA
ENDBRANCH   7   8
ENDBRANCH   6   7
ENDBRANCH   5   6
ENDBRANCH   4   5
ENDBRANCH   3   4
ENDBRANCH   2   3
ENDBRANCH   1   2
BRANCH   1  11
ATOM     11  C   UNL     1       6.593 -48.079  34.077  1.00  0.00    -0.031 C 
ATOM     12  C   UNL     1       6.497 -49.372  34.417  1.00  0.00    -0.027 C 
BRANCH  12  13
ATOM     13  C   UNL     1       7.453 -50.002  35.391  1.00  0.00     0.054 C 
BRANCH  13  14
ATOM     14  C   UNL     1       8.028 -48.977  36.328  1.00  0.00    -0.027 C 
ATOM     15  C   UNL     1       7.531 -48.799  37.561  1.00  0.00    -0.031 C 
BRANCH  15  16
ATOM     16  C   UNL     1       8.106 -47.776  38.504  1.00  0.00     0.027 C 
BRANCH  16  17
ATOM     17  C   UNL     1       9.407 -47.158  37.971  1.00  0.00     0.004 C 
BRANCH  17  18
ATOM     18  C   UNL     1      10.501 -47.090  39.051  1.00  0.00     0.000 C 
BRANCH  18  19
ATOM     19  C   UNL     1      11.778 -46.396  38.555  1.00  0.00    -0.003 C 
ATOM     20  C   UNL     1      11.696 -45.992  37.084  1.00  0.00     0.004 C 
ENDBRANCH  18  19
ENDBRANCH  17  18
ENDBRANCH  16  17
ENDBRANCH  15  16
ENDBRANCH  13  14
ENDBRANCH  12  13
ENDBRANCH   1  11
TORSDOF 14
ENDMDL
MODEL 5
REMARK VINA RESULT:    -5.910      2.852      6.141
REMARK INTER + INTRA:         -12.569
REMARK INTER:                 -10.933
REMARK INTRA:                  -1.636
REMARK UNBOUND:                -1.821
REMARK SMILES CCCCCC=CCC=CCCCCCCCC(=O)[O-]
REMARK SMILES IDX 11 1 12 2 13 3 14 4 15 5 16 6 17 7 18 8 19 9 20 10 10 11
REMARK SMILES IDX 9 12 8 13 7 14 6 15 5 16 4 17 3 18 2 19 1 20
REMARK H PARENT
REMARK Flexibility Score: inf
ROOT
ATOM      1  C   UNL     1       8.731 -47.802  38.493  1.00  0.00     0.027 C 
ENDROOT
BRANCH   1   2
ATOM      2  C   UNL     1       8.193 -46.369  38.374  1.00  0.00     0.004 C 
BRANCH   2   3
ATOM      3  C   UNL     1       9.175 -45.438  37.631  1.00  0.00     0.000 C 
BRANCH   3   4
ATOM      4  C   UNL     1       9.670 -46.008  36.290  1.00  0.00     0.000 C 
BRANCH   4   5
ATOM      5  C   UNL     1      11.201 -45.979  36.160  1.00  0.00     0.000 C 
BRANCH   5   6
ATOM      6  C   UNL     1      11.909 -45.984  37.525  1.00  0.00     0.006 C 
BRANCH   6   7
ATOM      7  C   UNL     1      13.427 -46.175  37.404  1.00  0.00     0.053 C 
BRANCH   7   8
ATOM      8  C   UNL     1      13.957 -46.902  38.600  1.00  0.00     0.041 C 
ATOM      9  O   UNL     1      13.167 -47.480  39.392  1.00  0.00    -0.550 OA
ATOM     10  O   UNL     1      15.327 -46.983  38.814  1.00  0.00    -0.550 OA
ENDBRANCH   7   8
ENDBRANCH   6   7
ENDBRANCH   5   6
ENDBRANCH   4   5
ENDBRANCH   3   4
ENDBRANCH   2   3
ENDBRANCH   1   2
BRANCH   1  11
ATOM     11  C   UNL     1       7.800 -48.789  37.844  1.00  0.00    -0.031 C 
ATOM     12  C   UNL     1       7.885 -49.051  36.533  1.00  0.00    -0.027 C 
BRANCH  12  13
ATOM     13  C   UNL     1       6.961 -50.032  35.865  1.00  0.00     0.054 C 
BRANCH  13  14
ATOM     14  C   UNL     1       6.375 -49.456  34.606  1.00  0.00    -0.027 C 
ATOM     15  C   UNL     1       6.690 -48.222  34.189  1.00  0.00    -0.031 C 
BRANCH  15  16
ATOM     16  C   UNL     1       6.108 -47.643  32.926  1.00  0.00     0.027 C 
BRANCH  16  17
ATOM     17  C   UNL     1       7.142 -46.838  32.124  1.00  0.00     0.004 C 
BRANCH  17  18
ATOM     18  C   UNL     1       8.056 -46.000  33.034  1.00  0.00     0.000 C 
BRANCH  18  19
ATOM     19  C   UNL     1       8.959 -45.042  32.242  1.00  0.00    -0.003 C 
ATOM     20  C   UNL     1       9.664 -44.023  33.137  1.00  0.00     0.004 C 
ENDBRANCH  18  19
ENDBRANCH  17  18
ENDBRANCH  16  17
ENDBRANCH  15  16
ENDBRANCH  13  14
ENDBRANCH  12  13
ENDBRANCH   1  11
TORSDOF 14
ENDMDL
MODEL 6
REMARK VINA RESULT:    -5.880      2.484      3.795
REMARK INTER + INTRA:         -12.514
REMARK INTER:                 -11.168
REMARK INTRA:                  -1.346
REMARK UNBOUND:                -1.821
REMARK SMILES CCCCCC=CCC=CCCCCCCCC(=O)[O-]
REMARK SMILES IDX 11 1 12 2 13 3 14 4 15 5 16 6 17 7 18 8 19 9 20 10 10 11
REMARK SMILES IDX 9 12 8 13 7 14 6 15 5 16 4 17 3 18 2 19 1 20
REMARK H PARENT
REMARK Flexibility Score: inf
ROOT
ATOM      1  C   UNL     1       9.162 -46.639  34.436  1.00  0.00     0.027 C 
ENDROOT
BRANCH   1   2
ATOM      2  C   UNL     1      10.220 -45.542  34.621  1.00  0.00     0.004 C 
BRANCH   2   3
ATOM      3  C   UNL     1      10.137 -44.462  33.522  1.00  0.00     0.000 C 
BRANCH   3   4
ATOM      4  C   UNL     1       9.019 -44.712  32.495  1.00  0.00     0.000 C 
BRANCH   4   5
ATOM      5  C   UNL     1       7.974 -43.585  32.466  1.00  0.00     0.000 C 
BRANCH   5   6
ATOM      6  C   UNL     1       6.604 -44.065  31.959  1.00  0.00     0.006 C 
BRANCH   6   7
ATOM      7  C   UNL     1       6.716 -45.200  30.933  1.00  0.00     0.053 C 
BRANCH   7   8
ATOM      8  C   UNL     1       5.912 -46.382  31.375  1.00  0.00     0.041 C 
ATOM      9  O   UNL     1       5.746 -47.361  30.601  1.00  0.00    -0.550 OA
ATOM     10  O   UNL     1       5.387 -46.424  32.660  1.00  0.00    -0.550 OA
ENDBRANCH   7   8
ENDBRANCH   6   7
ENDBRANCH   5   6
ENDBRANCH   4   5
ENDBRANCH   3   4
ENDBRANCH   2   3
ENDBRANCH   1   2
BRANCH   1  11
ATOM     11  C   UNL     1       8.829 -47.302  35.745  1.00  0.00    -0.031 C 
ATOM     12  C   UNL     1       8.657 -46.575  36.857  1.00  0.00    -0.027 C 
BRANCH  12  13
ATOM     13  C   UNL     1       8.328 -47.220  38.175  1.00  0.00     0.054 C 
BRANCH  13  14
ATOM     14  C   UNL     1       9.575 -47.526  38.957  1.00  0.00    -0.027 C 
ATOM     15  C   UNL     1      10.657 -46.736  38.887  1.00  0.00    -0.031 C 
BRANCH  15  16
ATOM     16  C   UNL     1      11.906 -47.037  39.671  1.00  0.00     0.027 C 
BRANCH  16  17
ATOM     17  C   UNL     1      13.142 -47.171  38.770  1.00  0.00     0.004 C 
BRANCH  17  18
ATOM     18  C   UNL     1      13.122 -46.165  37.606  1.00  0.00     0.000 C 
BRANCH  18  19
ATOM     19  C   UNL     1      14.292 -46.366  36.631  1.00  0.00    -0.003 C 
ATOM     20  C   UNL     1      15.251 -47.467  37.082  1.00  0.00     0.004 C 
ENDBRANCH  18  19
ENDBRANCH  17  18
ENDBRANCH  16  17
ENDBRANCH  15  16
ENDBRANCH  13  14
ENDBRANCH  12  13
ENDBRANCH   1  11
TORSDOF 14
ENDMDL
MODEL 7
REMARK VINA RESULT:    -5.788      1.972      2.411
REMARK INTER + INTRA:         -12.346
REMARK INTER:                 -11.245
REMARK INTRA:                  -1.100
REMARK UNBOUND:                -1.821
REMARK SMILES CCCCCC=CCC=CCCCCCCCC(=O)[O-]
REMARK SMILES IDX 11 1 12 2 13 3 14 4 15 5 16 6 17 7 18 8 19 9 20 10 10 11
REMARK SMILES IDX 9 12 8 13 7 14 6 15 5 16 4 17 3 18 2 19 1 20
REMARK H PARENT
REMARK Flexibility Score: inf
ROOT
ATOM      1  C   UNL     1       7.613 -49.585  35.300  1.00  0.00     0.027 C 
ENDROOT
BRANCH   1   2
ATOM      2  C   UNL     1       6.557 -49.177  34.263  1.00  0.00     0.004 C 
BRANCH   2   3
ATOM      3  C   UNL     1       6.608 -47.668  33.942  1.00  0.00     0.000 C 
BRANCH   3   4
ATOM      4  C   UNL     1       5.619 -47.237  32.845  1.00  0.00     0.000 C 
BRANCH   4   5
ATOM      5  C   UNL     1       6.309 -46.934  31.505  1.00  0.00     0.000 C 
BRANCH   5   6
ATOM      6  C   UNL     1       7.754 -46.440  31.685  1.00  0.00     0.006 C 
BRANCH   6   7
ATOM      7  C   UNL     1       7.922 -44.959  31.319  1.00  0.00     0.053 C 
BRANCH   7   8
ATOM      8  C   UNL     1       7.645 -44.095  32.508  1.00  0.00     0.041 C 
ATOM      9  O   UNL     1       8.305 -44.246  33.570  1.00  0.00    -0.550 OA
ATOM     10  O   UNL     1       6.691 -43.089  32.429  1.00  0.00    -0.550 OA
ENDBRANCH   7   8
ENDBRANCH   6   7
ENDBRANCH   5   6
ENDBRANCH   4   5
ENDBRANCH   3   4
ENDBRANCH   2   3
ENDBRANCH   1   2
BRANCH   1  11
ATOM     11  C   UNL     1       8.339 -48.383  35.840  1.00  0.00    -0.031 C 
ATOM     12  C   UNL     1       8.146 -47.975  37.101  1.00  0.00    -0.027 C 
BRANCH  12  13
ATOM     13  C   UNL     1       8.860 -46.774  37.658  1.00  0.00     0.054 C 
BRANCH  13  14
ATOM     14  C   UNL     1      10.350 -46.910  37.506  1.00  0.00    -0.027 C 
ATOM     15  C   UNL     1      11.143 -45.835  37.395  1.00  0.00    -0.031 C 
BRANCH  15  16
ATOM     16  C   UNL     1      12.636 -45.967  37.247  1.00  0.00     0.027 C 
BRANCH  16  17
ATOM     17  C   UNL     1      13.249 -46.883  38.317  1.00  0.00     0.004 C 
BRANCH  17  18
ATOM     18  C   UNL     1      14.786 -46.906  38.248  1.00  0.00     0.000 C 
BRANCH  18  19
ATOM     19  C   UNL     1      15.317 -47.984  37.291  1.00  0.00    -0.003 C 
ATOM     20  C   UNL     1      15.798 -47.405  35.960  1.00  0.00     0.004 C 
ENDBRANCH  18  19
ENDBRANCH  17  18
ENDBRANCH  16  17
ENDBRANCH  15  16
ENDBRANCH  13  14
ENDBRANCH  12  13
ENDBRANCH   1  11
TORSDOF 14
ENDMDL
MODEL 8
REMARK VINA RESULT:    -5.749      2.228      4.818
REMARK INTER + INTRA:         -12.276
REMARK INTER:                 -10.668
REMARK INTRA:                  -1.607
REMARK UNBOUND:                -1.821
REMARK SMILES CCCCCC=CCC=CCCCCCCCC(=O)[O-]
REMARK SMILES IDX 11 1 12 2 13 3 14 4 15 5 16 6 17 7 18 8 19 9 20 10 10 11
REMARK SMILES IDX 9 12 8 13 7 14 6 15 5 16 4 17 3 18 2 19 1 20
REMARK H PARENT
REMARK Flexibility Score: inf
ROOT
ATOM      1  C   UNL     1       6.502 -47.146  32.282  1.00  0.00     0.027 C 
ENDROOT
BRANCH   1   2
ATOM      2  C   UNL     1       5.617 -45.948  31.912  1.00  0.00     0.004 C 
BRANCH   2   3
ATOM      3  C   UNL     1       6.449 -44.697  31.557  1.00  0.00     0.000 C 
BRANCH   3   4
ATOM      4  C   UNL     1       7.956 -44.977  31.422  1.00  0.00     0.000 C 
BRANCH   4   5
ATOM      5  C   UNL     1       8.791 -44.285  32.512  1.00  0.00     0.000 C 
BRANCH   5   6
ATOM      6  C   UNL     1      10.066 -45.068  32.864  1.00  0.00     0.006 C 
BRANCH   6   7
ATOM      7  C   UNL     1      10.208 -45.321  34.371  1.00  0.00     0.053 C 
BRANCH   7   8
ATOM      8  C   UNL     1       9.236 -46.368  34.816  1.00  0.00     0.041 C 
ATOM      9  O   UNL     1       9.528 -47.589  34.716  1.00  0.00    -0.550 OA
ATOM     10  O   UNL     1       8.026 -45.995  35.387  1.00  0.00    -0.550 OA
ENDBRANCH   7   8
ENDBRANCH   6   7
ENDBRANCH   5   6
ENDBRANCH   4   5
ENDBRANCH   3   4
ENDBRANCH   2   3
ENDBRANCH   1   2
BRANCH   1  11
ATOM     11  C   UNL     1       5.848 -48.003  33.332  1.00  0.00    -0.031 C 
ATOM     12  C   UNL     1       6.536 -48.971  33.952  1.00  0.00    -0.027 C 
BRANCH  12  13
ATOM     13  C   UNL     1       5.899 -49.840  35.002  1.00  0.00     0.054 C 
BRANCH  13  14
ATOM     14  C   UNL     1       5.881 -49.152  36.339  1.00  0.00    -0.027 C 
ATOM     15  C   UNL     1       6.924 -49.229  37.179  1.00  0.00    -0.031 C 
BRANCH  15  16
ATOM     16  C   UNL     1       6.911 -48.538  38.517  1.00  0.00     0.027 C 
BRANCH  16  17
ATOM     17  C   UNL     1       7.854 -47.326  38.555  1.00  0.00     0.004 C 
BRANCH  17  18
ATOM     18  C   UNL     1       9.325 -47.730  38.357  1.00  0.00     0.000 C 
BRANCH  18  19
ATOM     19  C   UNL     1      10.300 -46.588  38.683  1.00  0.00    -0.003 C 
ATOM     20  C   UNL     1      11.498 -47.054  39.509  1.00  0.00     0.004 C 
ENDBRANCH  18  19
ENDBRANCH  17  18
ENDBRANCH  16  17
ENDBRANCH  15  16
ENDBRANCH  13  14
ENDBRANCH  12  13
ENDBRANCH   1  11
TORSDOF 14
ENDMDL
MODEL 9
REMARK VINA RESULT:    -5.644      2.686      6.072
REMARK INTER + INTRA:         -12.085
REMARK INTER:                 -10.661
REMARK INTRA:                  -1.424
REMARK UNBOUND:                -1.821
REMARK SMILES CCCCCC=CCC=CCCCCCCCC(=O)[O-]
REMARK SMILES IDX 11 1 12 2 13 3 14 4 15 5 16 6 17 7 18 8 19 9 20 10 10 11
REMARK SMILES IDX 9 12 8 13 7 14 6 15 5 16 4 17 3 18 2 19 1 20
REMARK H PARENT
REMARK Flexibility Score: inf
ROOT
ATOM      1  C   UNL     1       7.391 -49.089  36.798  1.00  0.00     0.027 C 
ENDROOT
BRANCH   1   2
ATOM      2  C   UNL     1       7.454 -48.045  37.922  1.00  0.00     0.004 C 
BRANCH   2   3
ATOM      3  C   UNL     1       8.660 -47.094  37.767  1.00  0.00     0.000 C 
BRANCH   3   4
ATOM      4  C   UNL     1       9.755 -47.309  38.826  1.00  0.00     0.000 C 
BRANCH   4   5
ATOM      5  C   UNL     1      10.776 -46.160  38.868  1.00  0.00     0.000 C 
BRANCH   5   6
ATOM      6  C   UNL     1      12.224 -46.653  38.711  1.00  0.00     0.006 C 
BRANCH   6   7
ATOM      7  C   UNL     1      12.874 -46.173  37.407  1.00  0.00     0.053 C 
BRANCH   7   8
ATOM      8  C   UNL     1      14.295 -46.635  37.333  1.00  0.00     0.041 C 
ATOM      9  O   UNL     1      14.785 -47.007  36.234  1.00  0.00    -0.550 OA
ATOM     10  O   UNL     1      15.095 -46.609  38.468  1.00  0.00    -0.550 OA
ENDBRANCH   7   8
ENDBRANCH   6   7
ENDBRANCH   5   6
ENDBRANCH   4   5
ENDBRANCH   3   4
ENDBRANCH   2   3
ENDBRANCH   1   2
BRANCH   1  11
ATOM     11  C   UNL     1       7.174 -48.438  35.460  1.00  0.00    -0.031 C 
ATOM     12  C   UNL     1       6.289 -48.941  34.589  1.00  0.00    -0.027 C 
BRANCH  12  13
ATOM     13  C   UNL     1       6.060 -48.306  33.245  1.00  0.00     0.054 C 
BRANCH  13  14
ATOM     14  C   UNL     1       6.497 -46.868  33.243  1.00  0.00    -0.027 C 
ATOM     15  C   UNL     1       6.362 -46.097  32.154  1.00  0.00    -0.031 C 
BRANCH  15  16
ATOM     16  C   UNL     1       6.794 -44.654  32.149  1.00  0.00     0.027 C 
BRANCH  16  17
ATOM     17  C   UNL     1       8.280 -44.492  31.796  1.00  0.00     0.004 C 
BRANCH  17  18
ATOM     18  C   UNL     1       9.112 -44.015  32.999  1.00  0.00     0.000 C 
BRANCH  18  19
ATOM     19  C   UNL     1      10.255 -44.980  33.346  1.00  0.00    -0.003 C 
ATOM     20  C   UNL     1       9.998 -45.758  34.637  1.00  0.00     0.004 C 
ENDBRANCH  18  19
ENDBRANCH  17  18
ENDBRANCH  16  17
ENDBRANCH  15  16
ENDBRANCH  13  14
ENDBRANCH  12  13
ENDBRANCH   1  11
TORSDOF 14
ENDMDL
