MODEL 1
REMARK VINA RESULT:    -3.742      0.000      0.000
REMARK INTER + INTRA:          -4.214
REMARK INTER:                  -4.180
REMARK INTRA:                  -0.035
REMARK UNBOUND:                -0.035
REMARK SMILES CC(C)CC=O
REMARK SMILES IDX 4 1 2 2 1 3 3 4 5 5 6 6
REMARK H PARENT
REMARK Flexibility Score: inf
ROOT
ATOM      1  C   UNL     1      11.402 -30.553 -23.342  1.00  0.00     0.075 C 
ENDROOT
BRANCH   1   2
ATOM      2  C   UNL     1      12.264 -31.230 -22.256  1.00  0.00    -0.010 C 
ATOM      3  C   UNL     1      12.646 -30.241 -21.145  1.00  0.00     0.008 C 
ATOM      4  C   UNL     1      11.516 -32.428 -21.657  1.00  0.00     0.008 C 
ENDBRANCH   1   2
BRANCH   1   5
ATOM      5  C   UNL     1      11.106 -29.119 -23.015  1.00  0.00     0.224 C 
ATOM      6  O   UNL     1      10.069 -28.598 -23.396  1.00  0.00    -0.303 OA
ENDBRANCH   1   5
TORSDOF 2
ENDMDL
MODEL 2
REMARK VINA RESULT:    -3.600      2.318      3.293
REMARK INTER + INTRA:          -4.056
REMARK INTER:                  -4.018
REMARK INTRA:                  -0.038
REMARK UNBOUND:                -0.035
REMARK SMILES CC(C)CC=O
REMARK SMILES IDX 4 1 2 2 1 3 3 4 5 5 6 6
REMARK H PARENT
REMARK Flexibility Score: inf
ROOT
ATOM      1  C   UNL     1      11.302 -31.536 -22.246  1.00  0.00     0.075 C 
ENDROOT
BRANCH   1   2
ATOM      2  C   UNL     1      11.860 -30.250 -22.892  1.00  0.00    -0.010 C 
ATOM      3  C   UNL     1      10.731 -29.323 -23.364  1.00  0.00     0.008 C 
ATOM      4  C   UNL     1      12.766 -29.510 -21.901  1.00  0.00     0.008 C 
ENDBRANCH   1   2
BRANCH   1   5
ATOM      5  C   UNL     1      12.213 -32.072 -21.180  1.00  0.00     0.224 C 
ATOM      6  O   UNL     1      11.760 -32.446 -20.110  1.00  0.00    -0.303 OA
ENDBRANCH   1   5
TORSDOF 2
ENDMDL
MODEL 3
REMARK VINA RESULT:    -3.532      2.416      3.371
REMARK INTER + INTRA:          -3.979
REMARK INTER:                  -3.950
REMARK INTRA:                  -0.029
REMARK UNBOUND:                -0.035
REMARK SMILES CC(C)CC=O
REMARK SMILES IDX 4 1 2 2 1 3 3 4 5 5 6 6
REMARK H PARENT
REMARK Flexibility Score: inf
ROOT
ATOM      1  C   UNL     1      13.150 -29.325 -21.615  1.00  0.00     0.075 C 
ENDROOT
BRANCH   1   2
ATOM      2  C   UNL     1      12.251 -29.998 -22.673  1.00  0.00    -0.010 C 
ATOM      3  C   UNL     1      11.754 -31.370 -22.197  1.00  0.00     0.008 C 
ATOM      4  C   UNL     1      11.057 -29.094 -23.004  1.00  0.00     0.008 C 
ENDBRANCH   1   2
BRANCH   1   5
ATOM      5  C   UNL     1      12.979 -29.939 -20.255  1.00  0.00     0.224 C 
ATOM      6  O   UNL     1      13.713 -29.619 -19.334  1.00  0.00    -0.303 OA
ENDBRANCH   1   5
TORSDOF 2
ENDMDL
MODEL 4
REMARK VINA RESULT:    -3.473      2.067      2.975
REMARK INTER + INTRA:          -3.914
REMARK INTER:                  -3.879
REMARK INTRA:                  -0.035
REMARK UNBOUND:                -0.035
REMARK SMILES CC(C)CC=O
REMARK SMILES IDX 4 1 2 2 1 3 3 4 5 5 6 6
REMARK H PARENT
REMARK Flexibility Score: inf
ROOT
ATOM      1  C   UNL     1      12.089 -30.500 -22.931  1.00  0.00     0.075 C 
ENDROOT
BRANCH   1   2
ATOM      2  C   UNL     1      10.683 -30.151 -23.463  1.00  0.00    -0.010 C 
ATOM      3  C   UNL     1      10.387 -28.651 -23.324  1.00  0.00     0.008 C 
ATOM      4  C   UNL     1      10.552 -30.579 -24.930  1.00  0.00     0.008 C 
ENDBRANCH   1   2
BRANCH   1   5
ATOM      5  C   UNL     1      12.561 -29.518 -21.898  1.00  0.00     0.224 C 
ATOM      6  O   UNL     1      12.868 -29.896 -20.778  1.00  0.00    -0.303 OA
ENDBRANCH   1   5
TORSDOF 2
ENDMDL
MODEL 5
REMARK VINA RESULT:    -3.438      1.592      2.162
REMARK INTER + INTRA:          -3.875
REMARK INTER:                  -3.849
REMARK INTRA:                  -0.026
REMARK UNBOUND:                -0.035
REMARK SMILES CC(C)CC=O
REMARK SMILES IDX 4 1 2 2 1 3 3 4 5 5 6 6
REMARK H PARENT
REMARK Flexibility Score: inf
ROOT
ATOM      1  C   UNL     1      12.638 -30.532 -20.905  1.00  0.00     0.075 C 
ENDROOT
BRANCH   1   2
ATOM      2  C   UNL     1      12.354 -32.049 -20.864  1.00  0.00    -0.010 C 
ATOM      3  C   UNL     1      12.063 -32.527 -19.434  1.00  0.00     0.008 C 
ATOM      4  C   UNL     1      11.175 -32.391 -21.783  1.00  0.00     0.008 C 
ENDBRANCH   1   2
BRANCH   1   5
ATOM      5  C   UNL     1      12.234 -29.918 -22.213  1.00  0.00     0.224 C 
ATOM      6  O   UNL     1      12.494 -28.750 -22.456  1.00  0.00    -0.303 OA
ENDBRANCH   1   5
TORSDOF 2
ENDMDL
MODEL 6
REMARK VINA RESULT:    -3.311     12.805     13.736
REMARK INTER + INTRA:          -3.733
REMARK INTER:                  -3.703
REMARK INTRA:                  -0.030
REMARK UNBOUND:                -0.035
REMARK SMILES CC(C)CC=O
REMARK SMILES IDX 4 1 2 2 1 3 3 4 5 5 6 6
REMARK H PARENT
REMARK Flexibility Score: inf
ROOT
ATOM      1  C   UNL     1       9.872 -30.602 -35.669  1.00  0.00     0.075 C 
ENDROOT
BRANCH   1   2
ATOM      2  C   UNL     1      11.046 -29.834 -35.026  1.00  0.00    -0.010 C 
ATOM      3  C   UNL     1      11.954 -30.772 -34.218  1.00  0.00     0.008 C 
ATOM      4  C   UNL     1      11.863 -29.116 -36.107  1.00  0.00     0.008 C 
ENDBRANCH   1   2
BRANCH   1   5
ATOM      5  C   UNL     1      10.057 -30.781 -37.148  1.00  0.00     0.224 C 
ATOM      6  O   UNL     1       9.280 -31.468 -37.791  1.00  0.00    -0.303 OA
ENDBRANCH   1   5
TORSDOF 2
ENDMDL
MODEL 7
REMARK VINA RESULT:    -3.286      2.309      3.190
REMARK INTER + INTRA:          -3.705
REMARK INTER:                  -3.666
REMARK INTRA:                  -0.038
REMARK UNBOUND:                -0.035
REMARK SMILES CC(C)CC=O
REMARK SMILES IDX 4 1 2 2 1 3 3 4 5 5 6 6
REMARK H PARENT
REMARK Flexibility Score: inf
ROOT
ATOM      1  C   UNL     1      12.499 -31.682 -20.378  1.00  0.00     0.075 C 
ENDROOT
BRANCH   1   2
ATOM      2  C   UNL     1      12.635 -30.145 -20.395  1.00  0.00    -0.010 C 
ATOM      3  C   UNL     1      13.581 -29.652 -19.291  1.00  0.00     0.008 C 
ATOM      4  C   UNL     1      13.138 -29.674 -21.766  1.00  0.00     0.008 C 
ENDBRANCH   1   2
BRANCH   1   5
ATOM      5  C   UNL     1      12.056 -32.225 -21.705  1.00  0.00     0.224 C 
ATOM      6  O   UNL     1      10.878 -32.470 -21.912  1.00  0.00    -0.303 OA
ENDBRANCH   1   5
TORSDOF 2
ENDMDL
MODEL 8
REMARK VINA RESULT:    -3.204      3.038      3.861
REMARK INTER + INTRA:          -3.614
REMARK INTER:                  -3.580
REMARK INTRA:                  -0.034
REMARK UNBOUND:                -0.035
REMARK SMILES CC(C)CC=O
REMARK SMILES IDX 4 1 2 2 1 3 3 4 5 5 6 6
REMARK H PARENT
REMARK Flexibility Score: inf
ROOT
ATOM      1  C   UNL     1      13.688 -28.248 -21.521  1.00  0.00     0.075 C 
ENDROOT
BRANCH   1   2
ATOM      2  C   UNL     1      12.961 -29.528 -21.983  1.00  0.00    -0.010 C 
ATOM      3  C   UNL     1      12.656 -30.458 -20.800  1.00  0.00     0.008 C 
ATOM      4  C   UNL     1      11.662 -29.164 -22.712  1.00  0.00     0.008 C 
ENDBRANCH   1   2
BRANCH   1   5
ATOM      5  C   UNL     1      14.328 -28.417 -20.174  1.00  0.00     0.224 C 
ATOM      6  O   UNL     1      15.483 -28.067 -19.988  1.00  0.00    -0.303 OA
ENDBRANCH   1   5
TORSDOF 2
ENDMDL
MODEL 9
REMARK VINA RESULT:    -3.174     12.798     13.696
REMARK INTER + INTRA:          -3.580
REMARK INTER:                  -3.541
REMARK INTRA:                  -0.038
REMARK UNBOUND:                -0.035
REMARK SMILES CC(C)CC=O
REMARK SMILES IDX 4 1 2 2 1 3 3 4 5 5 6 6
REMARK H PARENT
REMARK Flexibility Score: inf
ROOT
ATOM      1  C   UNL     1      11.923 -28.924 -35.877  1.00  0.00     0.075 C 
ENDROOT
BRANCH   1   2
ATOM      2  C   UNL     1      11.093 -29.819 -34.931  1.00  0.00    -0.010 C 
ATOM      3  C   UNL     1       9.991 -30.569 -35.692  1.00  0.00     0.008 C 
ATOM      4  C   UNL     1      12.007 -30.818 -34.211  1.00  0.00     0.008 C 
ENDBRANCH   1   2
BRANCH   1   5
ATOM      5  C   UNL     1      11.587 -29.164 -37.320  1.00  0.00     0.224 C 
ATOM      6  O   UNL     1      11.388 -28.225 -38.074  1.00  0.00    -0.303 OA
ENDBRANCH   1   5
TORSDOF 2
ENDMDL
