MODEL 1
REMARK VINA RESULT:    -1.944      0.000      0.000
REMARK INTER + INTRA:          -1.944
REMARK INTER:                  -1.944
REMARK INTRA:                   0.000
REMARK UNBOUND:                 0.000
REMARK SMILES CC(=O)[O-]
REMARK SMILES IDX 1 1 2 2 3 3 4 4
REMARK H PARENT
REMARK Flexibility Score: inf
ROOT
ATOM      1  C   UNL     1      25.070  39.641  -0.085  1.00  0.00     0.063 C 
ATOM      2  C   UNL     1      25.910  39.613  -1.317  1.00  0.00     0.038 C 
ATOM      3  O   UNL     1      25.887  40.583  -2.119  1.00  0.00    -0.550 OA
ATOM      4  O   UNL     1      26.761  38.542  -1.555  1.00  0.00    -0.550 OA
ENDROOT
TORSDOF 0
ENDMDL
MODEL 2
REMARK VINA RESULT:    -1.890     16.946     17.581
REMARK INTER + INTRA:          -1.890
REMARK INTER:                  -1.890
REMARK INTRA:                   0.000
REMARK UNBOUND:                 0.000
REMARK SMILES CC(=O)[O-]
REMARK SMILES IDX 1 1 2 2 3 3 4 4
REMARK H PARENT
REMARK Flexibility Score: inf
ROOT
ATOM      1  C   UNL     1      42.828  32.816  -0.341  1.00  0.00     0.063 C 
ATOM      2  C   UNL     1      41.930  32.606  -1.513  1.00  0.00     0.038 C 
ATOM      3  O   UNL     1      41.937  31.506  -2.125  1.00  0.00    -0.550 OA
ATOM      4  O   UNL     1      41.045  33.604  -1.899  1.00  0.00    -0.550 OA
ENDROOT
TORSDOF 0
ENDMDL
MODEL 3
REMARK VINA RESULT:    -1.832      1.505      1.693
REMARK INTER + INTRA:          -1.832
REMARK INTER:                  -1.832
REMARK INTRA:                   0.000
REMARK UNBOUND:                 0.000
REMARK SMILES CC(=O)[O-]
REMARK SMILES IDX 1 1 2 2 3 3 4 4
REMARK H PARENT
REMARK Flexibility Score: inf
ROOT
ATOM      1  C   UNL     1      27.145  39.251  -0.390  1.00  0.00     0.063 C 
ATOM      2  C   UNL     1      25.839  39.738  -0.920  1.00  0.00     0.038 C 
ATOM      3  O   UNL     1      25.804  40.448  -1.958  1.00  0.00    -0.550 OA
ATOM      4  O   UNL     1      24.654  39.364  -0.300  1.00  0.00    -0.550 OA
ENDROOT
TORSDOF 0
ENDMDL
MODEL 4
REMARK VINA RESULT:    -1.801      2.023      2.262
REMARK INTER + INTRA:          -1.801
REMARK INTER:                  -1.801
REMARK INTRA:                   0.000
REMARK UNBOUND:                 0.000
REMARK SMILES CC(=O)[O-]
REMARK SMILES IDX 1 1 2 2 3 3 4 4
REMARK H PARENT
REMARK Flexibility Score: inf
ROOT
ATOM      1  C   UNL     1      25.920  40.060  -1.613  1.00  0.00     0.063 C 
ATOM      2  C   UNL     1      25.525  39.734  -0.212  1.00  0.00     0.038 C 
ATOM      3  O   UNL     1      24.357  39.339   0.039  1.00  0.00    -0.550 OA
ATOM      4  O   UNL     1      26.461  39.814   0.811  1.00  0.00    -0.550 OA
ENDROOT
TORSDOF 0
ENDMDL
MODEL 5
REMARK VINA RESULT:    -1.764     17.767     18.208
REMARK INTER + INTRA:          -1.764
REMARK INTER:                  -1.764
REMARK INTRA:                   0.000
REMARK UNBOUND:                 0.000
REMARK SMILES CC(=O)[O-]
REMARK SMILES IDX 1 1 2 2 3 3 4 4
REMARK H PARENT
REMARK Flexibility Score: inf
ROOT
ATOM      1  C   UNL     1      41.970  32.447  -1.510  1.00  0.00     0.063 C 
ATOM      2  C   UNL     1      42.690  32.742  -0.239  1.00  0.00     0.038 C 
ATOM      3  O   UNL     1      43.842  33.248  -0.268  1.00  0.00    -0.550 OA
ATOM      4  O   UNL     1      42.070  32.510   0.982  1.00  0.00    -0.550 OA
ENDROOT
TORSDOF 0
ENDMDL
MODEL 6
REMARK VINA RESULT:    -1.672     11.126     11.431
REMARK INTER + INTRA:          -1.672
REMARK INTER:                  -1.672
REMARK INTRA:                   0.000
REMARK UNBOUND:                 0.000
REMARK SMILES CC(=O)[O-]
REMARK SMILES IDX 1 1 2 2 3 3 4 4
REMARK H PARENT
REMARK Flexibility Score: inf
ROOT
ATOM      1  C   UNL     1      23.980  29.559  -2.115  1.00  0.00     0.063 C 
ATOM      2  C   UNL     1      24.431  28.375  -1.328  1.00  0.00     0.038 C 
ATOM      3  O   UNL     1      25.348  27.635  -1.770  1.00  0.00    -0.550 OA
ATOM      4  O   UNL     1      23.878  28.117  -0.081  1.00  0.00    -0.550 OA
ENDROOT
TORSDOF 0
ENDMDL
MODEL 7
REMARK VINA RESULT:    -1.566     17.871     18.314
REMARK INTER + INTRA:          -1.566
REMARK INTER:                  -1.566
REMARK INTRA:                   0.000
REMARK UNBOUND:                 0.000
REMARK SMILES CC(=O)[O-]
REMARK SMILES IDX 1 1 2 2 3 3 4 4
REMARK H PARENT
REMARK Flexibility Score: inf
ROOT
ATOM      1  C   UNL     1      42.194  32.631   1.318  1.00  0.00     0.063 C 
ATOM      2  C   UNL     1      42.791  32.694  -0.047  1.00  0.00     0.038 C 
ATOM      3  O   UNL     1      42.156  32.245  -1.036  1.00  0.00    -0.550 OA
ATOM      4  O   UNL     1      44.027  33.298  -0.238  1.00  0.00    -0.550 OA
ENDROOT
TORSDOF 0
ENDMDL
MODEL 8
REMARK VINA RESULT:    -1.508     11.668     11.782
REMARK INTER + INTRA:          -1.508
REMARK INTER:                  -1.508
REMARK INTRA:                   0.000
REMARK UNBOUND:                 0.000
REMARK SMILES CC(=O)[O-]
REMARK SMILES IDX 1 1 2 2 3 3 4 4
REMARK H PARENT
REMARK Flexibility Score: inf
ROOT
ATOM      1  C   UNL     1      25.030  28.323   0.854  1.00  0.00     0.063 C 
ATOM      2  C   UNL     1      25.918  27.938  -0.281  1.00  0.00     0.038 C 
ATOM      3  O   UNL     1      27.164  27.886  -0.118  1.00  0.00    -0.550 OA
ATOM      4  O   UNL     1      25.367  27.583  -1.506  1.00  0.00    -0.550 OA
ENDROOT
TORSDOF 0
ENDMDL
MODEL 9
REMARK VINA RESULT:    -1.496      9.329      9.848
REMARK INTER + INTRA:          -1.496
REMARK INTER:                  -1.496
REMARK INTRA:                   0.000
REMARK UNBOUND:                 0.000
REMARK SMILES CC(=O)[O-]
REMARK SMILES IDX 1 1 2 2 3 3 4 4
REMARK H PARENT
REMARK Flexibility Score: inf
ROOT
ATOM      1  C   UNL     1      27.232  46.517   6.698  1.00  0.00     0.063 C 
ATOM      2  C   UNL     1      26.152  46.140   5.740  1.00  0.00     0.038 C 
ATOM      3  O   UNL     1      25.905  44.927   5.514  1.00  0.00    -0.550 OA
ATOM      4  O   UNL     1      25.382  47.125   5.137  1.00  0.00    -0.550 OA
ENDROOT
TORSDOF 0
ENDMDL
