MODEL 1
REMARK VINA RESULT:    -4.548      0.000      0.000
REMARK INTER + INTRA:          -7.595
REMARK INTER:                  -6.941
REMARK INTRA:                  -0.654
REMARK UNBOUND:                -0.654
REMARK SMILES CCCCCCCCCCC(=O)[O-]
REMARK SMILES IDX 7 1 8 2 9 3 10 4 11 5 12 6 13 7 6 8 5 9 4 10 3 11 2 12 1 13
REMARK H PARENT
REMARK Flexibility Score: inf
ROOT
ATOM      1  C   UNL     1       6.511   2.863  -0.556  1.00  0.00     0.000 C 
ENDROOT
BRANCH   1   2
ATOM      2  C   UNL     1       6.167   1.397  -0.243  1.00  0.00     0.000 C 
BRANCH   2   3
ATOM      3  C   UNL     1       7.183   0.412  -0.842  1.00  0.00     0.006 C 
BRANCH   3   4
ATOM      4  C   UNL     1       7.885   0.968  -2.088  1.00  0.00     0.053 C 
BRANCH   4   5
ATOM      5  C   UNL     1       7.091   0.657  -3.317  1.00  0.00     0.041 C 
ATOM      6  O   UNL     1       6.161   1.423  -3.681  1.00  0.00    -0.550 OA
ATOM      7  O   UNL     1       7.345  -0.506  -4.033  1.00  0.00    -0.550 OA
ENDBRANCH   4   5
ENDBRANCH   3   4
ENDBRANCH   2   3
ENDBRANCH   1   2
BRANCH   1   8
ATOM      8  C   UNL     1       7.132   3.594   0.647  1.00  0.00     0.000 C 
BRANCH   8   9
ATOM      9  C   UNL     1       8.647   3.811   0.489  1.00  0.00    -0.000 C 
BRANCH   9  10
ATOM     10  C   UNL     1       9.077   5.246   0.834  1.00  0.00    -0.000 C 
BRANCH  10  11
ATOM     11  C   UNL     1       8.207   5.878   1.932  1.00  0.00    -0.000 C 
BRANCH  11  12
ATOM     12  C   UNL     1       7.712   7.266   1.506  1.00  0.00    -0.003 C 
ATOM     13  C   UNL     1       7.528   7.347  -0.006  1.00  0.00     0.004 C 
ENDBRANCH  11  12
ENDBRANCH  10  11
ENDBRANCH   9  10
ENDBRANCH   8   9
ENDBRANCH   1   8
TORSDOF 9
ENDMDL
MODEL 2
REMARK VINA RESULT:    -4.112      1.410      2.361
REMARK INTER + INTRA:          -6.929
REMARK INTER:                  -6.559
REMARK INTRA:                  -0.370
REMARK UNBOUND:                -0.654
REMARK SMILES CCCCCCCCCCC(=O)[O-]
REMARK SMILES IDX 7 1 8 2 9 3 10 4 11 5 12 6 13 7 6 8 5 9 4 10 3 11 2 12 1 13
REMARK H PARENT
REMARK Flexibility Score: inf
ROOT
ATOM      1  C   UNL     1       6.339   0.756  -0.909  1.00  0.00     0.000 C 
ENDROOT
BRANCH   1   2
ATOM      2  C   UNL     1       7.736   1.060  -1.477  1.00  0.00     0.000 C 
BRANCH   2   3
ATOM      3  C   UNL     1       7.873   0.659  -2.954  1.00  0.00     0.006 C 
BRANCH   3   4
ATOM      4  C   UNL     1       9.070  -0.268  -3.208  1.00  0.00     0.053 C 
BRANCH   4   5
ATOM      5  C   UNL     1       8.649  -1.453  -4.018  1.00  0.00     0.041 C 
ATOM      6  O   UNL     1       8.996  -2.613  -3.672  1.00  0.00    -0.550 OA
ATOM      7  O   UNL     1       7.916  -1.274  -5.184  1.00  0.00    -0.550 OA
ENDBRANCH   4   5
ENDBRANCH   3   4
ENDBRANCH   2   3
ENDBRANCH   1   2
BRANCH   1   8
ATOM      8  C   UNL     1       5.949   1.703   0.238  1.00  0.00     0.000 C 
BRANCH   8   9
ATOM      9  C   UNL     1       6.391   3.155  -0.018  1.00  0.00    -0.000 C 
BRANCH   9  10
ATOM     10  C   UNL     1       7.415   3.651   1.016  1.00  0.00    -0.000 C 
BRANCH  10  11
ATOM     11  C   UNL     1       8.214   4.867   0.525  1.00  0.00    -0.000 C 
BRANCH  11  12
ATOM     12  C   UNL     1       7.759   6.146   1.237  1.00  0.00    -0.003 C 
ATOM     13  C   UNL     1       7.567   7.291   0.247  1.00  0.00     0.004 C 
ENDBRANCH  11  12
ENDBRANCH  10  11
ENDBRANCH   9  10
ENDBRANCH   8   9
ENDBRANCH   1   8
TORSDOF 9
ENDMDL
MODEL 3
REMARK VINA RESULT:    -4.054     20.039     21.236
REMARK INTER + INTRA:          -6.841
REMARK INTER:                  -6.488
REMARK INTRA:                  -0.353
REMARK UNBOUND:                -0.654
REMARK SMILES CCCCCCCCCCC(=O)[O-]
REMARK SMILES IDX 7 1 8 2 9 3 10 4 11 5 12 6 13 7 6 8 5 9 4 10 3 11 2 12 1 13
REMARK H PARENT
REMARK Flexibility Score: inf
ROOT
ATOM      1  C   UNL     1     -10.722  -4.364   5.532  1.00  0.00     0.000 C 
ENDROOT
BRANCH   1   2
ATOM      2  C   UNL     1     -10.801  -5.171   4.224  1.00  0.00     0.000 C 
BRANCH   2   3
ATOM      3  C   UNL     1     -10.831  -6.688   4.468  1.00  0.00     0.006 C 
BRANCH   3   4
ATOM      4  C   UNL     1      -9.635  -7.414   3.837  1.00  0.00     0.053 C 
BRANCH   4   5
ATOM      5  C   UNL     1      -8.505  -7.504   4.814  1.00  0.00     0.041 C 
ATOM      6  O   UNL     1      -8.439  -8.470   5.618  1.00  0.00    -0.550 OA
ATOM      7  O   UNL     1      -7.552  -6.495   4.871  1.00  0.00    -0.550 OA
ENDBRANCH   4   5
ENDBRANCH   3   4
ENDBRANCH   2   3
ENDBRANCH   1   2
BRANCH   1   8
ATOM      8  C   UNL     1     -10.189  -5.199   6.709  1.00  0.00     0.000 C 
BRANCH   8   9
ATOM      9  C   UNL     1     -11.125  -5.163   7.929  1.00  0.00    -0.000 C 
BRANCH   9  10
ATOM     10  C   UNL     1     -10.385  -5.439   9.249  1.00  0.00    -0.000 C 
BRANCH  10  11
ATOM     11  C   UNL     1     -10.948  -4.629  10.426  1.00  0.00    -0.000 C 
BRANCH  11  12
ATOM     12  C   UNL     1     -10.158  -4.909  11.711  1.00  0.00    -0.003 C 
ATOM     13  C   UNL     1      -9.769  -3.611  12.414  1.00  0.00     0.004 C 
ENDBRANCH  11  12
ENDBRANCH  10  11
ENDBRANCH   9  10
ENDBRANCH   8   9
ENDBRANCH   1   8
TORSDOF 9
ENDMDL
MODEL 4
REMARK VINA RESULT:    -4.018     11.889     13.675
REMARK INTER + INTRA:          -6.787
REMARK INTER:                  -5.851
REMARK INTRA:                  -0.936
REMARK UNBOUND:                -0.654
REMARK SMILES CCCCCCCCCCC(=O)[O-]
REMARK SMILES IDX 7 1 8 2 9 3 10 4 11 5 12 6 13 7 6 8 5 9 4 10 3 11 2 12 1 13
REMARK H PARENT
REMARK Flexibility Score: inf
ROOT
ATOM      1  C   UNL     1       3.130   5.154  11.249  1.00  0.00     0.000 C 
ENDROOT
BRANCH   1   2
ATOM      2  C   UNL     1       2.081   6.151  11.773  1.00  0.00     0.000 C 
BRANCH   2   3
ATOM      3  C   UNL     1       1.191   6.714  10.653  1.00  0.00     0.006 C 
BRANCH   3   4
ATOM      4  C   UNL     1       1.711   6.367   9.252  1.00  0.00     0.053 C 
BRANCH   4   5
ATOM      5  C   UNL     1       1.847   7.606   8.425  1.00  0.00     0.041 C 
ATOM      6  O   UNL     1       2.837   7.754   7.662  1.00  0.00    -0.550 OA
ATOM      7  O   UNL     1       0.904   8.621   8.533  1.00  0.00    -0.550 OA
ENDBRANCH   4   5
ENDBRANCH   3   4
ENDBRANCH   2   3
ENDBRANCH   1   2
BRANCH   1   8
ATOM      8  C   UNL     1       3.515   4.098  12.297  1.00  0.00     0.000 C 
BRANCH   8   9
ATOM      9  C   UNL     1       3.366   2.660  11.770  1.00  0.00    -0.000 C 
BRANCH   9  10
ATOM     10  C   UNL     1       2.619   2.598  10.427  1.00  0.00    -0.000 C 
BRANCH  10  11
ATOM     11  C   UNL     1       1.271   1.868  10.530  1.00  0.00    -0.000 C 
BRANCH  11  12
ATOM     12  C   UNL     1       0.337   2.579  11.518  1.00  0.00    -0.003 C 
ATOM     13  C   UNL     1      -0.130   1.629  12.617  1.00  0.00     0.004 C 
ENDBRANCH  11  12
ENDBRANCH  10  11
ENDBRANCH   9  10
ENDBRANCH   8   9
ENDBRANCH   1   8
TORSDOF 9
ENDMDL
MODEL 5
REMARK VINA RESULT:    -3.999      5.137      7.974
REMARK INTER + INTRA:          -6.757
REMARK INTER:                  -6.447
REMARK INTRA:                  -0.311
REMARK UNBOUND:                -0.654
REMARK SMILES CCCCCCCCCCC(=O)[O-]
REMARK SMILES IDX 7 1 8 2 9 3 10 4 11 5 12 6 13 7 6 8 5 9 4 10 3 11 2 12 1 13
REMARK H PARENT
REMARK Flexibility Score: inf
ROOT
ATOM      1  C   UNL     1       7.559   6.548   1.098  1.00  0.00     0.000 C 
ENDROOT
BRANCH   1   2
ATOM      2  C   UNL     1       8.072   7.867   1.703  1.00  0.00     0.000 C 
BRANCH   2   3
ATOM      3  C   UNL     1       7.465   8.157   3.085  1.00  0.00     0.006 C 
BRANCH   3   4
ATOM      4  C   UNL     1       7.152   9.646   3.293  1.00  0.00     0.053 C 
BRANCH   4   5
ATOM      5  C   UNL     1       5.915   9.808   4.118  1.00  0.00     0.041 C 
ATOM      6  O   UNL     1       4.985  10.561   3.726  1.00  0.00    -0.550 OA
ATOM      7  O   UNL     1       5.808   9.167   5.346  1.00  0.00    -0.550 OA
ENDBRANCH   4   5
ENDBRANCH   3   4
ENDBRANCH   2   3
ENDBRANCH   1   2
BRANCH   1   8
ATOM      8  C   UNL     1       8.180   5.311   1.768  1.00  0.00     0.000 C 
BRANCH   8   9
ATOM      9  C   UNL     1       8.314   4.121   0.802  1.00  0.00    -0.000 C 
BRANCH   9  10
ATOM     10  C   UNL     1       6.951   3.562   0.362  1.00  0.00    -0.000 C 
BRANCH  10  11
ATOM     11  C   UNL     1       7.050   2.662  -0.879  1.00  0.00    -0.000 C 
BRANCH  11  12
ATOM     12  C   UNL     1       6.449   1.278  -0.602  1.00  0.00    -0.003 C 
ATOM     13  C   UNL     1       5.516   1.313   0.605  1.00  0.00     0.004 C 
ENDBRANCH  11  12
ENDBRANCH  10  11
ENDBRANCH   9  10
ENDBRANCH   8   9
ENDBRANCH   1   8
TORSDOF 9
ENDMDL
MODEL 6
REMARK VINA RESULT:    -3.977      1.699      3.181
REMARK INTER + INTRA:          -6.724
REMARK INTER:                  -6.054
REMARK INTRA:                  -0.670
REMARK UNBOUND:                -0.654
REMARK SMILES CCCCCCCCCCC(=O)[O-]
REMARK SMILES IDX 7 1 8 2 9 3 10 4 11 5 12 6 13 7 6 8 5 9 4 10 3 11 2 12 1 13
REMARK H PARENT
REMARK Flexibility Score: inf
ROOT
ATOM      1  C   UNL     1       7.926   5.539   1.477  1.00  0.00     0.000 C 
ENDROOT
BRANCH   1   2
ATOM      2  C   UNL     1       8.217   4.103   1.010  1.00  0.00     0.000 C 
BRANCH   2   3
ATOM      3  C   UNL     1       7.158   3.575   0.029  1.00  0.00     0.006 C 
BRANCH   3   4
ATOM      4  C   UNL     1       7.675   2.416  -0.835  1.00  0.00     0.053 C 
BRANCH   4   5
ATOM      5  C   UNL     1       6.531   1.626  -1.386  1.00  0.00     0.041 C 
ATOM      6  O   UNL     1       5.923   0.798  -0.659  1.00  0.00    -0.550 OA
ATOM      7  O   UNL     1       6.167   1.767  -2.720  1.00  0.00    -0.550 OA
ENDBRANCH   4   5
ENDBRANCH   3   4
ENDBRANCH   2   3
ENDBRANCH   1   2
BRANCH   1   8
ATOM      8  C   UNL     1       7.206   6.374   0.404  1.00  0.00     0.000 C 
BRANCH   8   9
ATOM      9  C   UNL     1       7.981   7.650   0.031  1.00  0.00    -0.000 C 
BRANCH   9  10
ATOM     10  C   UNL     1       8.914   8.125   1.157  1.00  0.00    -0.000 C 
BRANCH  10  11
ATOM     11  C   UNL     1       8.363   9.345   1.910  1.00  0.00    -0.000 C 
BRANCH  11  12
ATOM     12  C   UNL     1       7.531   8.911   3.123  1.00  0.00    -0.003 C 
ATOM     13  C   UNL     1       8.396   8.195   4.158  1.00  0.00     0.004 C 
ENDBRANCH  11  12
ENDBRANCH  10  11
ENDBRANCH   9  10
ENDBRANCH   8   9
ENDBRANCH   1   8
TORSDOF 9
ENDMDL
MODEL 7
REMARK VINA RESULT:    -3.975     13.192     15.246
REMARK INTER + INTRA:          -6.720
REMARK INTER:                  -6.185
REMARK INTRA:                  -0.535
REMARK UNBOUND:                -0.654
REMARK SMILES CCCCCCCCCCC(=O)[O-]
REMARK SMILES IDX 7 1 8 2 9 3 10 4 11 5 12 6 13 7 6 8 5 9 4 10 3 11 2 12 1 13
REMARK H PARENT
REMARK Flexibility Score: inf
ROOT
ATOM      1  C   UNL     1      -1.762  -5.945  -5.496  1.00  0.00     0.000 C 
ENDROOT
BRANCH   1   2
ATOM      2  C   UNL     1      -1.851  -5.189  -6.834  1.00  0.00     0.000 C 
BRANCH   2   3
ATOM      3  C   UNL     1      -3.205  -4.487  -7.026  1.00  0.00     0.006 C 
BRANCH   3   4
ATOM      4  C   UNL     1      -4.395  -5.447  -6.889  1.00  0.00     0.053 C 
BRANCH   4   5
ATOM      5  C   UNL     1      -5.645  -4.687  -6.580  1.00  0.00     0.041 C 
ATOM      6  O   UNL     1      -6.697  -5.300  -6.261  1.00  0.00    -0.550 OA
ATOM      7  O   UNL     1      -5.663  -3.302  -6.693  1.00  0.00    -0.550 OA
ENDBRANCH   4   5
ENDBRANCH   3   4
ENDBRANCH   2   3
ENDBRANCH   1   2
BRANCH   1   8
ATOM      8  C   UNL     1      -1.366  -7.420  -5.677  1.00  0.00     0.000 C 
BRANCH   8   9
ATOM      9  C   UNL     1      -0.809  -7.714  -7.081  1.00  0.00    -0.000 C 
BRANCH   9  10
ATOM     10  C   UNL     1       0.586  -8.360  -7.039  1.00  0.00    -0.000 C 
BRANCH  10  11
ATOM     11  C   UNL     1       1.714  -7.328  -6.887  1.00  0.00    -0.000 C 
BRANCH  11  12
ATOM     12  C   UNL     1       3.087  -8.011  -6.900  1.00  0.00    -0.003 C 
ATOM     13  C   UNL     1       4.191  -7.039  -6.495  1.00  0.00     0.004 C 
ENDBRANCH  11  12
ENDBRANCH  10  11
ENDBRANCH   9  10
ENDBRANCH   8   9
ENDBRANCH   1   8
TORSDOF 9
ENDMDL
MODEL 8
REMARK VINA RESULT:    -3.940     11.802     13.695
REMARK INTER + INTRA:          -6.668
REMARK INTER:                  -5.918
REMARK INTRA:                  -0.749
REMARK UNBOUND:                -0.654
REMARK SMILES CCCCCCCCCCC(=O)[O-]
REMARK SMILES IDX 7 1 8 2 9 3 10 4 11 5 12 6 13 7 6 8 5 9 4 10 3 11 2 12 1 13
REMARK H PARENT
REMARK Flexibility Score: inf
ROOT
ATOM      1  C   UNL     1       2.212   5.940  11.368  1.00  0.00     0.000 C 
ENDROOT
BRANCH   1   2
ATOM      2  C   UNL     1       1.562   7.322  11.186  1.00  0.00     0.000 C 
BRANCH   2   3
ATOM      3  C   UNL     1       0.893   7.483   9.811  1.00  0.00     0.006 C 
BRANCH   3   4
ATOM      4  C   UNL     1       1.055   8.897   9.236  1.00  0.00     0.053 C 
BRANCH   4   5
ATOM      5  C   UNL     1       2.156   8.927   8.225  1.00  0.00     0.041 C 
ATOM      6  O   UNL     1       2.593   7.854   7.731  1.00  0.00    -0.550 OA
ATOM      7  O   UNL     1       2.736  10.137   7.863  1.00  0.00    -0.550 OA
ENDBRANCH   4   5
ENDBRANCH   3   4
ENDBRANCH   2   3
ENDBRANCH   1   2
BRANCH   1   8
ATOM      8  C   UNL     1       1.981   5.016  10.161  1.00  0.00     0.000 C 
BRANCH   8   9
ATOM      9  C   UNL     1       3.005   3.869  10.090  1.00  0.00    -0.000 C 
BRANCH   9  10
ATOM     10  C   UNL     1       2.556   2.628  10.879  1.00  0.00    -0.000 C 
BRANCH  10  11
ATOM     11  C   UNL     1       1.126   2.187  10.530  1.00  0.00    -0.000 C 
BRANCH  11  12
ATOM     12  C   UNL     1       0.273   2.044  11.797  1.00  0.00    -0.003 C 
ATOM     13  C   UNL     1       0.973   2.656  13.006  1.00  0.00     0.004 C 
ENDBRANCH  11  12
ENDBRANCH  10  11
ENDBRANCH   9  10
ENDBRANCH   8   9
ENDBRANCH   1   8
TORSDOF 9
ENDMDL
MODEL 9
REMARK VINA RESULT:    -3.899     11.754     13.496
REMARK INTER + INTRA:          -6.605
REMARK INTER:                  -5.830
REMARK INTRA:                  -0.775
REMARK UNBOUND:                -0.654
REMARK SMILES CCCCCCCCCCC(=O)[O-]
REMARK SMILES IDX 7 1 8 2 9 3 10 4 11 5 12 6 13 7 6 8 5 9 4 10 3 11 2 12 1 13
REMARK H PARENT
REMARK Flexibility Score: inf
ROOT
ATOM      1  C   UNL     1       0.913   6.825  11.002  1.00  0.00     0.000 C 
ENDROOT
BRANCH   1   2
ATOM      2  C   UNL     1       0.579   8.289  10.669  1.00  0.00     0.000 C 
BRANCH   2   3
ATOM      3  C   UNL     1       0.820   8.628   9.190  1.00  0.00     0.006 C 
BRANCH   3   4
ATOM      4  C   UNL     1       1.960   9.635   8.990  1.00  0.00     0.053 C 
BRANCH   4   5
ATOM      5  C   UNL     1       3.165   8.954   8.423  1.00  0.00     0.041 C 
ATOM      6  O   UNL     1       3.039   8.105   7.502  1.00  0.00    -0.550 OA
ATOM      7  O   UNL     1       4.425   9.221   8.945  1.00  0.00    -0.550 OA
ENDBRANCH   4   5
ENDBRANCH   3   4
ENDBRANCH   2   3
ENDBRANCH   1   2
BRANCH   1   8
ATOM      8  C   UNL     1       1.250   5.997   9.750  1.00  0.00     0.000 C 
BRANCH   8   9
ATOM      9  C   UNL     1       2.571   5.220   9.894  1.00  0.00    -0.000 C 
BRANCH   9  10
ATOM     10  C   UNL     1       2.527   4.187  11.032  1.00  0.00    -0.000 C 
BRANCH  10  11
ATOM     11  C   UNL     1       2.675   2.743  10.529  1.00  0.00    -0.000 C 
BRANCH  11  12
ATOM     12  C   UNL     1       1.316   2.032  10.498  1.00  0.00    -0.003 C 
ATOM     13  C   UNL     1       0.496   2.353  11.744  1.00  0.00     0.004 C 
ENDBRANCH  11  12
ENDBRANCH  10  11
ENDBRANCH   9  10
ENDBRANCH   8   9
ENDBRANCH   1   8
TORSDOF 9
ENDMDL
