MODEL 1
REMARK VINA RESULT:    -4.461      0.000      0.000
REMARK INTER + INTRA:         -14.824
REMARK INTER:                 -11.242
REMARK INTRA:                  -3.582
REMARK UNBOUND:                -3.582
REMARK SMILES CCCCCCCCCCCCCCCCCCCCCCCCCCCC(=O)[O-]
REMARK SMILES IDX 15 1 16 2 17 3 18 4 19 5 20 6 21 7 22 8 23 9 24 10 25 11
REMARK SMILES IDX 26 12 27 13 28 14 29 15 30 16 14 17 13 18 12 19 11 20 10 21
REMARK SMILES IDX 9 22 8 23 7 24 6 25 5 26 4 27 3 28 2 29 1 30
REMARK H PARENT
REMARK Flexibility Score: inf
ROOT
ATOM      1  C   UNL     1      34.262   8.498  45.139  1.00  0.00     0.000 C 
ENDROOT
BRANCH   1   2
ATOM      2  C   UNL     1      33.990   7.001  44.886  1.00  0.00     0.000 C 
BRANCH   2   3
ATOM      3  C   UNL     1      33.770   6.180  46.171  1.00  0.00     0.000 C 
BRANCH   3   4
ATOM      4  C   UNL     1      34.847   5.121  46.464  1.00  0.00     0.000 C 
BRANCH   4   5
ATOM      5  C   UNL     1      35.203   5.035  47.956  1.00  0.00     0.000 C 
BRANCH   5   6
ATOM      6  C   UNL     1      34.227   5.858  48.808  1.00  0.00     0.000 C 
BRANCH   6   7
ATOM      7  C   UNL     1      34.930   6.958  49.624  1.00  0.00     0.000 C 
BRANCH   7   8
ATOM      8  C   UNL     1      34.081   8.219  49.888  1.00  0.00     0.000 C 
BRANCH   8   9
ATOM      9  C   UNL     1      33.971   9.199  48.702  1.00  0.00     0.000 C 
BRANCH   9  10
ATOM     10  C   UNL     1      32.552   9.359  48.124  1.00  0.00     0.000 C 
BRANCH  10  11
ATOM     11  C   UNL     1      31.470   9.390  49.217  1.00  0.00     0.000 C 
BRANCH  11  12
ATOM     12  C   UNL     1      30.447   8.251  49.078  1.00  0.00     0.006 C 
BRANCH  12  13
ATOM     13  C   UNL     1      30.865   7.193  48.045  1.00  0.00     0.053 C 
BRANCH  13  14
ATOM     14  C   UNL     1      30.284   5.855  48.386  1.00  0.00     0.041 C 
ATOM     15  O   UNL     1      30.980   4.811  48.272  1.00  0.00    -0.550 OA
ATOM     16  O   UNL     1      28.974   5.763  48.846  1.00  0.00    -0.550 OA
ENDBRANCH  13  14
ENDBRANCH  12  13
ENDBRANCH  11  12
ENDBRANCH  10  11
ENDBRANCH   9  10
ENDBRANCH   8   9
ENDBRANCH   7   8
ENDBRANCH   6   7
ENDBRANCH   5   6
ENDBRANCH   4   5
ENDBRANCH   3   4
ENDBRANCH   2   3
ENDBRANCH   1   2
BRANCH   1  17
ATOM     17  C   UNL     1      34.535   9.277  43.839  1.00  0.00     0.000 C 
BRANCH  17  18
ATOM     18  C   UNL     1      34.542  10.799  44.066  1.00  0.00     0.000 C 
BRANCH  18  19
ATOM     19  C   UNL     1      35.045  11.172  45.471  1.00  0.00     0.000 C 
BRANCH  19  20
ATOM     20  C   UNL     1      35.419  12.657  45.596  1.00  0.00     0.000 C 
BRANCH  20  21
ATOM     21  C   UNL     1      36.416  12.933  46.737  1.00  0.00     0.000 C 
BRANCH  21  22
ATOM     22  C   UNL     1      37.826  13.248  46.208  1.00  0.00    -0.000 C 
BRANCH  22  23
ATOM     23  C   UNL     1      38.177  14.739  46.362  1.00  0.00    -0.000 C 
BRANCH  23  24
ATOM     24  C   UNL     1      37.635  15.611  45.209  1.00  0.00    -0.000 C 
BRANCH  24  25
ATOM     25  C   UNL     1      37.571  17.117  45.532  1.00  0.00    -0.000 C 
BRANCH  25  26
ATOM     26  C   UNL     1      36.168  17.663  45.860  1.00  0.00    -0.000 C 
BRANCH  26  27
ATOM     27  C   UNL     1      35.176  16.627  46.423  1.00  0.00    -0.000 C 
BRANCH  27  28
ATOM     28  C   UNL     1      34.790  16.828  47.901  1.00  0.00    -0.000 C 
BRANCH  28  29
ATOM     29  C   UNL     1      35.908  16.448  48.894  1.00  0.00    -0.003 C 
ATOM     30  C   UNL     1      35.635  15.131  49.622  1.00  0.00     0.004 C 
ENDBRANCH  28  29
ENDBRANCH  27  28
ENDBRANCH  26  27
ENDBRANCH  25  26
ENDBRANCH  24  25
ENDBRANCH  23  24
ENDBRANCH  22  23
ENDBRANCH  21  22
ENDBRANCH  20  21
ENDBRANCH  19  20
ENDBRANCH  18  19
ENDBRANCH  17  18
ENDBRANCH   1  17
TORSDOF 26
ENDMDL
MODEL 2
REMARK VINA RESULT:    -4.416      3.408      8.738
REMARK INTER + INTRA:         -14.710
REMARK INTER:                 -11.619
REMARK INTRA:                  -3.091
REMARK UNBOUND:                -3.582
REMARK SMILES CCCCCCCCCCCCCCCCCCCCCCCCCCCC(=O)[O-]
REMARK SMILES IDX 15 1 16 2 17 3 18 4 19 5 20 6 21 7 22 8 23 9 24 10 25 11
REMARK SMILES IDX 26 12 27 13 28 14 29 15 30 16 14 17 13 18 12 19 11 20 10 21
REMARK SMILES IDX 9 22 8 23 7 24 6 25 5 26 4 27 3 28 2 29 1 30
REMARK H PARENT
REMARK Flexibility Score: inf
ROOT
ATOM      1  C   UNL     1      33.685   7.519  44.466  1.00  0.00     0.000 C 
ENDROOT
BRANCH   1   2
ATOM      2  C   UNL     1      34.708   8.603  44.069  1.00  0.00     0.000 C 
BRANCH   2   3
ATOM      3  C   UNL     1      34.070   9.951  43.679  1.00  0.00     0.000 C 
BRANCH   3   4
ATOM      4  C   UNL     1      34.597  11.172  44.452  1.00  0.00     0.000 C 
BRANCH   4   5
ATOM      5  C   UNL     1      35.049  10.819  45.878  1.00  0.00     0.000 C 
BRANCH   5   6
ATOM      6  C   UNL     1      36.096  11.818  46.390  1.00  0.00     0.000 C 
BRANCH   6   7
ATOM      7  C   UNL     1      35.839  13.255  45.900  1.00  0.00     0.000 C 
BRANCH   7   8
ATOM      8  C   UNL     1      37.066  14.190  45.946  1.00  0.00     0.000 C 
BRANCH   8   9
ATOM      9  C   UNL     1      36.901  15.531  45.201  1.00  0.00     0.000 C 
BRANCH   9  10
ATOM     10  C   UNL     1      37.590  16.732  45.873  1.00  0.00     0.000 C 
BRANCH  10  11
ATOM     11  C   UNL     1      36.747  17.336  47.010  1.00  0.00     0.000 C 
BRANCH  11  12
ATOM     12  C   UNL     1      35.236  17.145  46.801  1.00  0.00     0.006 C 
BRANCH  12  13
ATOM     13  C   UNL     1      34.560  16.402  47.963  1.00  0.00     0.053 C 
BRANCH  13  14
ATOM     14  C   UNL     1      33.682  17.327  48.750  1.00  0.00     0.041 C 
ATOM     15  O   UNL     1      32.468  17.048  48.938  1.00  0.00    -0.550 OA
ATOM     16  O   UNL     1      34.212  18.496  49.288  1.00  0.00    -0.550 OA
ENDBRANCH  13  14
ENDBRANCH  12  13
ENDBRANCH  11  12
ENDBRANCH  10  11
ENDBRANCH   9  10
ENDBRANCH   8   9
ENDBRANCH   7   8
ENDBRANCH   6   7
ENDBRANCH   5   6
ENDBRANCH   4   5
ENDBRANCH   3   4
ENDBRANCH   2   3
ENDBRANCH   1   2
BRANCH   1  17
ATOM     17  C   UNL     1      33.881   7.024  45.911  1.00  0.00     0.000 C 
BRANCH  17  18
ATOM     18  C   UNL     1      34.527   5.629  45.963  1.00  0.00     0.000 C 
BRANCH  18  19
ATOM     19  C   UNL     1      34.338   4.955  47.334  1.00  0.00     0.000 C 
BRANCH  19  20
ATOM     20  C   UNL     1      35.601   5.015  48.207  1.00  0.00     0.000 C 
BRANCH  20  21
ATOM     21  C   UNL     1      35.447   5.945  49.425  1.00  0.00     0.000 C 
BRANCH  21  22
ATOM     22  C   UNL     1      34.050   6.589  49.485  1.00  0.00    -0.000 C 
BRANCH  22  23
ATOM     23  C   UNL     1      34.094   7.999  50.102  1.00  0.00    -0.000 C 
BRANCH  23  24
ATOM     24  C   UNL     1      34.109   9.122  49.044  1.00  0.00    -0.000 C 
BRANCH  24  25
ATOM     25  C   UNL     1      32.796   9.257  48.247  1.00  0.00    -0.000 C 
BRANCH  25  26
ATOM     26  C   UNL     1      31.521   9.420  49.096  1.00  0.00    -0.000 C 
BRANCH  26  27
ATOM     27  C   UNL     1      30.541   8.232  49.042  1.00  0.00    -0.000 C 
BRANCH  27  28
ATOM     28  C   UNL     1      30.917   7.120  48.044  1.00  0.00    -0.000 C 
BRANCH  28  29
ATOM     29  C   UNL     1      30.161   5.795  48.274  1.00  0.00    -0.003 C 
ATOM     30  C   UNL     1      29.262   5.829  49.511  1.00  0.00     0.004 C 
ENDBRANCH  28  29
ENDBRANCH  27  28
ENDBRANCH  26  27
ENDBRANCH  25  26
ENDBRANCH  24  25
ENDBRANCH  23  24
ENDBRANCH  22  23
ENDBRANCH  21  22
ENDBRANCH  20  21
ENDBRANCH  19  20
ENDBRANCH  18  19
ENDBRANCH  17  18
ENDBRANCH   1  17
TORSDOF 26
ENDMDL
MODEL 3
REMARK VINA RESULT:    -4.286      2.185      4.263
REMARK INTER + INTRA:         -14.382
REMARK INTER:                 -11.734
REMARK INTRA:                  -2.648
REMARK UNBOUND:                -3.582
REMARK SMILES CCCCCCCCCCCCCCCCCCCCCCCCCCCC(=O)[O-]
REMARK SMILES IDX 15 1 16 2 17 3 18 4 19 5 20 6 21 7 22 8 23 9 24 10 25 11
REMARK SMILES IDX 26 12 27 13 28 14 29 15 30 16 14 17 13 18 12 19 11 20 10 21
REMARK SMILES IDX 9 22 8 23 7 24 6 25 5 26 4 27 3 28 2 29 1 30
REMARK H PARENT
REMARK Flexibility Score: inf
ROOT
ATOM      1  C   UNL     1      34.283  11.132  44.417  1.00  0.00     0.000 C 
ENDROOT
BRANCH   1   2
ATOM      2  C   UNL     1      34.848  10.283  45.576  1.00  0.00     0.000 C 
BRANCH   2   3
ATOM      3  C   UNL     1      33.777   9.480  46.341  1.00  0.00     0.000 C 
BRANCH   3   4
ATOM      4  C   UNL     1      33.619   9.850  47.825  1.00  0.00     0.000 C 
BRANCH   4   5
ATOM      5  C   UNL     1      32.149   9.898  48.270  1.00  0.00     0.000 C 
BRANCH   5   6
ATOM      6  C   UNL     1      32.003   9.501  49.745  1.00  0.00     0.000 C 
BRANCH   6   7
ATOM      7  C   UNL     1      31.202   8.200  49.936  1.00  0.00     0.000 C 
BRANCH   7   8
ATOM      8  C   UNL     1      30.044   7.993  48.938  1.00  0.00     0.000 C 
BRANCH   8   9
ATOM      9  C   UNL     1      30.074   6.661  48.161  1.00  0.00     0.000 C 
BRANCH   9  10
ATOM     10  C   UNL     1      31.379   6.393  47.389  1.00  0.00     0.000 C 
BRANCH  10  11
ATOM     11  C   UNL     1      32.410   5.615  48.225  1.00  0.00     0.000 C 
BRANCH  11  12
ATOM     12  C   UNL     1      33.857   6.056  47.950  1.00  0.00     0.006 C 
BRANCH  12  13
ATOM     13  C   UNL     1      34.282   5.840  46.489  1.00  0.00     0.053 C 
BRANCH  13  14
ATOM     14  C   UNL     1      35.298   4.744  46.385  1.00  0.00     0.041 C 
ATOM     15  O   UNL     1      36.053   4.481  47.360  1.00  0.00    -0.550 OA
ATOM     16  O   UNL     1      35.402   4.001  45.213  1.00  0.00    -0.550 OA
ENDBRANCH  13  14
ENDBRANCH  12  13
ENDBRANCH  11  12
ENDBRANCH  10  11
ENDBRANCH   9  10
ENDBRANCH   8   9
ENDBRANCH   7   8
ENDBRANCH   6   7
ENDBRANCH   5   6
ENDBRANCH   4   5
ENDBRANCH   3   4
ENDBRANCH   2   3
ENDBRANCH   1   2
BRANCH   1  17
ATOM     17  C   UNL     1      34.770  12.592  44.464  1.00  0.00     0.000 C 
BRANCH  17  18
ATOM     18  C   UNL     1      35.717  12.850  45.649  1.00  0.00     0.000 C 
BRANCH  18  19
ATOM     19  C   UNL     1      35.751  14.336  46.048  1.00  0.00     0.000 C 
BRANCH  19  20
ATOM     20  C   UNL     1      36.623  15.186  45.110  1.00  0.00     0.000 C 
BRANCH  20  21
ATOM     21  C   UNL     1      37.622  16.082  45.866  1.00  0.00     0.000 C 
BRANCH  21  22
ATOM     22  C   UNL     1      37.357  17.578  45.616  1.00  0.00    -0.000 C 
BRANCH  22  23
ATOM     23  C   UNL     1      36.110  18.074  46.369  1.00  0.00    -0.000 C 
BRANCH  23  24
ATOM     24  C   UNL     1      36.388  18.405  47.850  1.00  0.00    -0.000 C 
BRANCH  24  25
ATOM     25  C   UNL     1      35.221  18.074  48.802  1.00  0.00    -0.000 C 
BRANCH  25  26
ATOM     26  C   UNL     1      34.506  16.736  48.529  1.00  0.00    -0.000 C 
BRANCH  26  27
ATOM     27  C   UNL     1      33.151  16.560  49.242  1.00  0.00    -0.000 C 
BRANCH  27  28
ATOM     28  C   UNL     1      32.023  17.481  48.739  1.00  0.00    -0.000 C 
BRANCH  28  29
ATOM     29  C   UNL     1      30.681  17.279  49.473  1.00  0.00    -0.003 C 
ATOM     30  C   UNL     1      30.356  15.806  49.726  1.00  0.00     0.004 C 
ENDBRANCH  28  29
ENDBRANCH  27  28
ENDBRANCH  26  27
ENDBRANCH  25  26
ENDBRANCH  24  25
ENDBRANCH  23  24
ENDBRANCH  22  23
ENDBRANCH  21  22
ENDBRANCH  20  21
ENDBRANCH  19  20
ENDBRANCH  18  19
ENDBRANCH  17  18
ENDBRANCH   1  17
TORSDOF 26
ENDMDL
MODEL 4
REMARK VINA RESULT:    -4.264      3.485      8.469
REMARK INTER + INTRA:         -14.327
REMARK INTER:                 -10.398
REMARK INTRA:                  -3.929
REMARK UNBOUND:                -3.582
REMARK SMILES CCCCCCCCCCCCCCCCCCCCCCCCCCCC(=O)[O-]
REMARK SMILES IDX 15 1 16 2 17 3 18 4 19 5 20 6 21 7 22 8 23 9 24 10 25 11
REMARK SMILES IDX 26 12 27 13 28 14 29 15 30 16 14 17 13 18 12 19 11 20 10 21
REMARK SMILES IDX 9 22 8 23 7 24 6 25 5 26 4 27 3 28 2 29 1 30
REMARK H PARENT
REMARK Flexibility Score: inf
ROOT
ATOM      1  C   UNL     1      33.679   7.464  44.512  1.00  0.00     0.000 C 
ENDROOT
BRANCH   1   2
ATOM      2  C   UNL     1      34.636   8.671  44.422  1.00  0.00     0.000 C 
BRANCH   2   3
ATOM      3  C   UNL     1      34.025   9.901  43.722  1.00  0.00     0.000 C 
BRANCH   3   4
ATOM      4  C   UNL     1      34.463  11.261  44.290  1.00  0.00     0.000 C 
BRANCH   4   5
ATOM      5  C   UNL     1      35.223  11.131  45.619  1.00  0.00     0.000 C 
BRANCH   5   6
ATOM      6  C   UNL     1      35.681  12.503  46.133  1.00  0.00     0.000 C 
BRANCH   6   7
ATOM      7  C   UNL     1      35.622  12.615  47.667  1.00  0.00     0.000 C 
BRANCH   7   8
ATOM      8  C   UNL     1      36.799  13.375  48.313  1.00  0.00     0.000 C 
BRANCH   8   9
ATOM      9  C   UNL     1      36.412  14.647  49.096  1.00  0.00     0.000 C 
BRANCH   9  10
ATOM     10  C   UNL     1      34.900  14.928  49.165  1.00  0.00     0.000 C 
BRANCH  10  11
ATOM     11  C   UNL     1      34.496  16.185  48.374  1.00  0.00     0.000 C 
BRANCH  11  12
ATOM     12  C   UNL     1      35.693  17.088  48.036  1.00  0.00     0.006 C 
BRANCH  12  13
ATOM     13  C   UNL     1      35.834  17.359  46.530  1.00  0.00     0.053 C 
BRANCH  13  14
ATOM     14  C   UNL     1      36.767  16.374  45.896  1.00  0.00     0.041 C 
ATOM     15  O   UNL     1      37.949  16.254  46.317  1.00  0.00    -0.550 OA
ATOM     16  O   UNL     1      36.327  15.576  44.844  1.00  0.00    -0.550 OA
ENDBRANCH  13  14
ENDBRANCH  12  13
ENDBRANCH  11  12
ENDBRANCH  10  11
ENDBRANCH   9  10
ENDBRANCH   8   9
ENDBRANCH   7   8
ENDBRANCH   6   7
ENDBRANCH   5   6
ENDBRANCH   4   5
ENDBRANCH   3   4
ENDBRANCH   2   3
ENDBRANCH   1   2
BRANCH   1  17
ATOM     17  C   UNL     1      33.973   6.568  45.730  1.00  0.00     0.000 C 
BRANCH  17  18
ATOM     18  C   UNL     1      32.752   6.430  46.656  1.00  0.00     0.000 C 
BRANCH  18  19
ATOM     19  C   UNL     1      33.077   5.622  47.924  1.00  0.00     0.000 C 
BRANCH  19  20
ATOM     20  C   UNL     1      34.588   5.438  48.143  1.00  0.00     0.000 C 
BRANCH  20  21
ATOM     21  C   UNL     1      35.152   6.353  49.246  1.00  0.00     0.000 C 
BRANCH  21  22
ATOM     22  C   UNL     1      34.036   7.085  50.014  1.00  0.00    -0.000 C 
BRANCH  22  23
ATOM     23  C   UNL     1      34.267   8.607  50.050  1.00  0.00    -0.000 C 
BRANCH  23  24
ATOM     24  C   UNL     1      34.266   9.253  48.649  1.00  0.00    -0.000 C 
BRANCH  24  25
ATOM     25  C   UNL     1      32.861   9.453  48.046  1.00  0.00    -0.000 C 
BRANCH  25  26
ATOM     26  C   UNL     1      31.728   9.667  49.069  1.00  0.00    -0.000 C 
BRANCH  26  27
ATOM     27  C   UNL     1      30.555   8.673  48.965  1.00  0.00    -0.000 C 
BRANCH  27  28
ATOM     28  C   UNL     1      30.614   7.487  49.946  1.00  0.00    -0.000 C 
BRANCH  28  29
ATOM     29  C   UNL     1      29.398   6.542  49.856  1.00  0.00    -0.003 C 
ATOM     30  C   UNL     1      29.422   5.659  48.607  1.00  0.00     0.004 C 
ENDBRANCH  28  29
ENDBRANCH  27  28
ENDBRANCH  26  27
ENDBRANCH  25  26
ENDBRANCH  24  25
ENDBRANCH  23  24
ENDBRANCH  22  23
ENDBRANCH  21  22
ENDBRANCH  20  21
ENDBRANCH  19  20
ENDBRANCH  18  19
ENDBRANCH  17  18
ENDBRANCH   1  17
TORSDOF 26
ENDMDL
MODEL 5
REMARK VINA RESULT:    -4.258      3.691      8.954
REMARK INTER + INTRA:         -14.313
REMARK INTER:                 -10.607
REMARK INTRA:                  -3.706
REMARK UNBOUND:                -3.582
REMARK SMILES CCCCCCCCCCCCCCCCCCCCCCCCCCCC(=O)[O-]
REMARK SMILES IDX 15 1 16 2 17 3 18 4 19 5 20 6 21 7 22 8 23 9 24 10 25 11
REMARK SMILES IDX 26 12 27 13 28 14 29 15 30 16 14 17 13 18 12 19 11 20 10 21
REMARK SMILES IDX 9 22 8 23 7 24 6 25 5 26 4 27 3 28 2 29 1 30
REMARK H PARENT
REMARK Flexibility Score: inf
ROOT
ATOM      1  C   UNL     1      32.474   9.697  48.003  1.00  0.00     0.000 C 
ENDROOT
BRANCH   1   2
ATOM      2  C   UNL     1      33.879  10.333  47.988  1.00  0.00     0.000 C 
BRANCH   2   3
ATOM      3  C   UNL     1      34.072  11.447  49.035  1.00  0.00     0.000 C 
BRANCH   3   4
ATOM      4  C   UNL     1      35.273  11.259  49.978  1.00  0.00     0.000 C 
BRANCH   4   5
ATOM      5  C   UNL     1      36.309  10.268  49.425  1.00  0.00     0.000 C 
BRANCH   5   6
ATOM      6  C   UNL     1      37.678  10.940  49.245  1.00  0.00     0.000 C 
BRANCH   6   7
ATOM      7  C   UNL     1      37.615  12.190  48.348  1.00  0.00     0.000 C 
BRANCH   7   8
ATOM      8  C   UNL     1      37.091  11.942  46.918  1.00  0.00     0.000 C 
BRANCH   8   9
ATOM      9  C   UNL     1      36.180  13.048  46.348  1.00  0.00     0.000 C 
BRANCH   9  10
ATOM     10  C   UNL     1      36.914  14.147  45.558  1.00  0.00     0.000 C 
BRANCH  10  11
ATOM     11  C   UNL     1      37.476  15.254  46.467  1.00  0.00     0.000 C 
BRANCH  11  12
ATOM     12  C   UNL     1      37.264  16.664  45.893  1.00  0.00     0.006 C 
BRANCH  12  13
ATOM     13  C   UNL     1      35.796  17.117  45.944  1.00  0.00     0.053 C 
BRANCH  13  14
ATOM     14  C   UNL     1      35.329  17.252  47.361  1.00  0.00     0.041 C 
ATOM     15  O   UNL     1      34.313  16.620  47.759  1.00  0.00    -0.550 OA
ATOM     16  O   UNL     1      36.025  18.068  48.248  1.00  0.00    -0.550 OA
ENDBRANCH  13  14
ENDBRANCH  12  13
ENDBRANCH  11  12
ENDBRANCH  10  11
ENDBRANCH   9  10
ENDBRANCH   8   9
ENDBRANCH   7   8
ENDBRANCH   6   7
ENDBRANCH   5   6
ENDBRANCH   4   5
ENDBRANCH   3   4
ENDBRANCH   2   3
ENDBRANCH   1   2
BRANCH   1  17
ATOM     17  C   UNL     1      31.756   9.884  49.353  1.00  0.00     0.000 C 
BRANCH  17  18
ATOM     18  C   UNL     1      31.395   8.540  50.009  1.00  0.00     0.000 C 
BRANCH  18  19
ATOM     19  C   UNL     1      29.940   8.129  49.721  1.00  0.00     0.000 C 
BRANCH  19  20
ATOM     20  C   UNL     1      29.737   6.606  49.738  1.00  0.00     0.000 C 
BRANCH  20  21
ATOM     21  C   UNL     1      29.700   5.988  48.327  1.00  0.00     0.000 C 
BRANCH  21  22
ATOM     22  C   UNL     1      30.991   6.274  47.539  1.00  0.00    -0.000 C 
BRANCH  22  23
ATOM     23  C   UNL     1      32.184   5.465  48.079  1.00  0.00    -0.000 C 
BRANCH  23  24
ATOM     24  C   UNL     1      33.539   6.176  47.876  1.00  0.00    -0.000 C 
BRANCH  24  25
ATOM     25  C   UNL     1      34.441   5.523  46.810  1.00  0.00    -0.000 C 
BRANCH  25  26
ATOM     26  C   UNL     1      34.273   6.067  45.378  1.00  0.00    -0.000 C 
BRANCH  26  27
ATOM     27  C   UNL     1      33.801   7.531  45.284  1.00  0.00    -0.000 C 
BRANCH  27  28
ATOM     28  C   UNL     1      34.367   8.324  44.091  1.00  0.00    -0.000 C 
BRANCH  28  29
ATOM     29  C   UNL     1      34.984   9.684  44.483  1.00  0.00    -0.003 C 
ATOM     30  C   UNL     1      34.130  10.874  44.044  1.00  0.00     0.004 C 
ENDBRANCH  28  29
ENDBRANCH  27  28
ENDBRANCH  26  27
ENDBRANCH  25  26
ENDBRANCH  24  25
ENDBRANCH  23  24
ENDBRANCH  22  23
ENDBRANCH  21  22
ENDBRANCH  20  21
ENDBRANCH  19  20
ENDBRANCH  18  19
ENDBRANCH  17  18
ENDBRANCH   1  17
TORSDOF 26
ENDMDL
MODEL 6
REMARK VINA RESULT:    -4.251      1.929      3.442
REMARK INTER + INTRA:         -14.293
REMARK INTER:                 -10.354
REMARK INTRA:                  -3.939
REMARK UNBOUND:                -3.582
REMARK SMILES CCCCCCCCCCCCCCCCCCCCCCCCCCCC(=O)[O-]
REMARK SMILES IDX 15 1 16 2 17 3 18 4 19 5 20 6 21 7 22 8 23 9 24 10 25 11
REMARK SMILES IDX 26 12 27 13 28 14 29 15 30 16 14 17 13 18 12 19 11 20 10 21
REMARK SMILES IDX 9 22 8 23 7 24 6 25 5 26 4 27 3 28 2 29 1 30
REMARK H PARENT
REMARK Flexibility Score: inf
ROOT
ATOM      1  C   UNL     1      34.661  11.973  44.662  1.00  0.00     0.000 C 
ENDROOT
BRANCH   1   2
ATOM      2  C   UNL     1      34.523  10.494  45.080  1.00  0.00     0.000 C 
BRANCH   2   3
ATOM      3  C   UNL     1      34.855   9.493  43.956  1.00  0.00     0.000 C 
BRANCH   3   4
ATOM      4  C   UNL     1      34.222   8.100  44.113  1.00  0.00     0.000 C 
BRANCH   4   5
ATOM      5  C   UNL     1      33.992   7.716  45.583  1.00  0.00     0.000 C 
BRANCH   5   6
ATOM      6  C   UNL     1      33.904   6.193  45.751  1.00  0.00     0.000 C 
BRANCH   6   7
ATOM      7  C   UNL     1      34.347   5.722  47.149  1.00  0.00     0.000 C 
BRANCH   7   8
ATOM      8  C   UNL     1      33.306   5.928  48.269  1.00  0.00     0.000 C 
BRANCH   8   9
ATOM      9  C   UNL     1      31.832   5.845  47.822  1.00  0.00     0.000 C 
BRANCH   9  10
ATOM     10  C   UNL     1      30.813   6.361  48.855  1.00  0.00     0.000 C 
BRANCH  10  11
ATOM     11  C   UNL     1      30.345   7.796  48.557  1.00  0.00     0.000 C 
BRANCH  11  12
ATOM     12  C   UNL     1      31.255   8.863  49.186  1.00  0.00     0.006 C 
BRANCH  12  13
ATOM     13  C   UNL     1      32.043   9.670  48.142  1.00  0.00     0.053 C 
BRANCH  13  14
ATOM     14  C   UNL     1      33.335  10.167  48.715  1.00  0.00     0.041 C 
ATOM     15  O   UNL     1      33.390  11.291  49.282  1.00  0.00    -0.550 OA
ATOM     16  O   UNL     1      34.480   9.379  48.634  1.00  0.00    -0.550 OA
ENDBRANCH  13  14
ENDBRANCH  12  13
ENDBRANCH  11  12
ENDBRANCH  10  11
ENDBRANCH   9  10
ENDBRANCH   8   9
ENDBRANCH   7   8
ENDBRANCH   6   7
ENDBRANCH   5   6
ENDBRANCH   4   5
ENDBRANCH   3   4
ENDBRANCH   2   3
ENDBRANCH   1   2
BRANCH   1  17
ATOM     17  C   UNL     1      35.544  12.780  45.630  1.00  0.00     0.000 C 
BRANCH  17  18
ATOM     18  C   UNL     1      36.224  11.884  46.680  1.00  0.00     0.000 C 
BRANCH  18  19
ATOM     19  C   UNL     1      37.624  12.398  47.059  1.00  0.00     0.000 C 
BRANCH  19  20
ATOM     20  C   UNL     1      38.172  13.428  46.059  1.00  0.00     0.000 C 
BRANCH  20  21
ATOM     21  C   UNL     1      38.632  14.735  46.732  1.00  0.00     0.000 C 
BRANCH  21  22
ATOM     22  C   UNL     1      38.597  15.927  45.760  1.00  0.00    -0.000 C 
BRANCH  22  23
ATOM     23  C   UNL     1      37.291  15.966  44.945  1.00  0.00    -0.000 C 
BRANCH  23  24
ATOM     24  C   UNL     1      36.096  16.527  45.744  1.00  0.00    -0.000 C 
BRANCH  24  25
ATOM     25  C   UNL     1      36.266  17.993  46.190  1.00  0.00    -0.000 C 
BRANCH  25  26
ATOM     26  C   UNL     1      36.066  18.252  47.696  1.00  0.00    -0.000 C 
BRANCH  26  27
ATOM     27  C   UNL     1      37.241  17.823  48.597  1.00  0.00    -0.000 C 
BRANCH  27  28
ATOM     28  C   UNL     1      36.981  16.573  49.458  1.00  0.00    -0.000 C 
BRANCH  28  29
ATOM     29  C   UNL     1      35.513  16.096  49.437  1.00  0.00    -0.003 C 
ATOM     30  C   UNL     1      35.363  14.650  48.962  1.00  0.00     0.004 C 
ENDBRANCH  28  29
ENDBRANCH  27  28
ENDBRANCH  26  27
ENDBRANCH  25  26
ENDBRANCH  24  25
ENDBRANCH  23  24
ENDBRANCH  22  23
ENDBRANCH  21  22
ENDBRANCH  20  21
ENDBRANCH  19  20
ENDBRANCH  18  19
ENDBRANCH  17  18
ENDBRANCH   1  17
TORSDOF 26
ENDMDL
MODEL 7
REMARK VINA RESULT:    -4.203      1.956      4.271
REMARK INTER + INTRA:         -14.173
REMARK INTER:                 -10.133
REMARK INTRA:                  -4.039
REMARK UNBOUND:                -3.582
REMARK SMILES CCCCCCCCCCCCCCCCCCCCCCCCCCCC(=O)[O-]
REMARK SMILES IDX 15 1 16 2 17 3 18 4 19 5 20 6 21 7 22 8 23 9 24 10 25 11
REMARK SMILES IDX 26 12 27 13 28 14 29 15 30 16 14 17 13 18 12 19 11 20 10 21
REMARK SMILES IDX 9 22 8 23 7 24 6 25 5 26 4 27 3 28 2 29 1 30
REMARK H PARENT
REMARK Flexibility Score: inf
ROOT
ATOM      1  C   UNL     1      35.374  11.842  46.070  1.00  0.00     0.000 C 
ENDROOT
BRANCH   1   2
ATOM      2  C   UNL     1      34.690  10.595  45.472  1.00  0.00     0.000 C 
BRANCH   2   3
ATOM      3  C   UNL     1      34.205   9.583  46.528  1.00  0.00     0.000 C 
BRANCH   3   4
ATOM      4  C   UNL     1      33.270  10.158  47.605  1.00  0.00     0.000 C 
BRANCH   4   5
ATOM      5  C   UNL     1      33.598   9.636  49.013  1.00  0.00     0.000 C 
BRANCH   5   6
ATOM      6  C   UNL     1      32.321   9.252  49.773  1.00  0.00     0.000 C 
BRANCH   6   7
ATOM      7  C   UNL     1      31.131   8.974  48.837  1.00  0.00     0.000 C 
BRANCH   7   8
ATOM      8  C   UNL     1      30.261   7.761  49.229  1.00  0.00     0.000 C 
BRANCH   8   9
ATOM      9  C   UNL     1      30.068   6.704  48.122  1.00  0.00     0.000 C 
BRANCH   9  10
ATOM     10  C   UNL     1      31.352   6.319  47.364  1.00  0.00     0.000 C 
BRANCH  10  11
ATOM     11  C   UNL     1      32.393   5.640  48.272  1.00  0.00     0.000 C 
BRANCH  11  12
ATOM     12  C   UNL     1      33.828   6.116  47.995  1.00  0.00     0.006 C 
BRANCH  12  13
ATOM     13  C   UNL     1      34.755   4.984  47.526  1.00  0.00     0.053 C 
BRANCH  13  14
ATOM     14  C   UNL     1      34.913   5.006  46.036  1.00  0.00     0.041 C 
ATOM     15  O   UNL     1      35.410   4.017  45.434  1.00  0.00    -0.550 OA
ATOM     16  O   UNL     1      34.498   6.118  45.310  1.00  0.00    -0.550 OA
ENDBRANCH  13  14
ENDBRANCH  12  13
ENDBRANCH  11  12
ENDBRANCH  10  11
ENDBRANCH   9  10
ENDBRANCH   8   9
ENDBRANCH   7   8
ENDBRANCH   6   7
ENDBRANCH   5   6
ENDBRANCH   4   5
ENDBRANCH   3   4
ENDBRANCH   2   3
ENDBRANCH   1   2
BRANCH   1  17
ATOM     17  C   UNL     1      36.701  11.507  46.775  1.00  0.00     0.000 C 
BRANCH  17  18
ATOM     18  C   UNL     1      36.644  11.792  48.286  1.00  0.00     0.000 C 
BRANCH  18  19
ATOM     19  C   UNL     1      37.151  13.205  48.626  1.00  0.00     0.000 C 
BRANCH  19  20
ATOM     20  C   UNL     1      36.039  14.127  49.149  1.00  0.00     0.000 C 
BRANCH  20  21
ATOM     21  C   UNL     1      36.573  15.470  49.684  1.00  0.00     0.000 C 
BRANCH  21  22
ATOM     22  C   UNL     1      37.769  15.983  48.862  1.00  0.00    -0.000 C 
BRANCH  22  23
ATOM     23  C   UNL     1      37.702  17.504  48.638  1.00  0.00    -0.000 C 
BRANCH  23  24
ATOM     24  C   UNL     1      36.337  17.977  48.095  1.00  0.00    -0.000 C 
BRANCH  24  25
ATOM     25  C   UNL     1      36.157  17.779  46.577  1.00  0.00    -0.000 C 
BRANCH  25  26
ATOM     26  C   UNL     1      35.594  16.409  46.151  1.00  0.00    -0.000 C 
BRANCH  26  27
ATOM     27  C   UNL     1      36.571  15.514  45.364  1.00  0.00    -0.000 C 
BRANCH  27  28
ATOM     28  C   UNL     1      37.803  16.240  44.789  1.00  0.00    -0.000 C 
BRANCH  28  29
ATOM     29  C   UNL     1      39.077  15.371  44.752  1.00  0.00    -0.003 C 
ATOM     30  C   UNL     1      39.029  14.202  45.737  1.00  0.00     0.004 C 
ENDBRANCH  28  29
ENDBRANCH  27  28
ENDBRANCH  26  27
ENDBRANCH  25  26
ENDBRANCH  24  25
ENDBRANCH  23  24
ENDBRANCH  22  23
ENDBRANCH  21  22
ENDBRANCH  20  21
ENDBRANCH  19  20
ENDBRANCH  18  19
ENDBRANCH  17  18
ENDBRANCH   1  17
TORSDOF 26
ENDMDL
MODEL 8
REMARK VINA RESULT:    -4.201      3.398      8.684
REMARK INTER + INTRA:         -14.169
REMARK INTER:                 -10.279
REMARK INTRA:                  -3.889
REMARK UNBOUND:                -3.582
REMARK SMILES CCCCCCCCCCCCCCCCCCCCCCCCCCCC(=O)[O-]
REMARK SMILES IDX 15 1 16 2 17 3 18 4 19 5 20 6 21 7 22 8 23 9 24 10 25 11
REMARK SMILES IDX 26 12 27 13 28 14 29 15 30 16 14 17 13 18 12 19 11 20 10 21
REMARK SMILES IDX 9 22 8 23 7 24 6 25 5 26 4 27 3 28 2 29 1 30
REMARK H PARENT
REMARK Flexibility Score: inf
ROOT
ATOM      1  C   UNL     1      34.700   9.140  44.126  1.00  0.00     0.000 C 
ENDROOT
BRANCH   1   2
ATOM      2  C   UNL     1      34.181  10.211  45.107  1.00  0.00     0.000 C 
BRANCH   2   3
ATOM      3  C   UNL     1      35.056  11.479  45.167  1.00  0.00     0.000 C 
BRANCH   3   4
ATOM      4  C   UNL     1      35.976  11.582  46.395  1.00  0.00     0.000 C 
BRANCH   4   5
ATOM      5  C   UNL     1      35.845  12.929  47.122  1.00  0.00     0.000 C 
BRANCH   5   6
ATOM      6  C   UNL     1      37.003  13.144  48.106  1.00  0.00     0.000 C 
BRANCH   6   7
ATOM      7  C   UNL     1      37.984  14.237  47.643  1.00  0.00     0.000 C 
BRANCH   7   8
ATOM      8  C   UNL     1      38.778  13.902  46.363  1.00  0.00     0.000 C 
BRANCH   8   9
ATOM      9  C   UNL     1      38.714  14.968  45.250  1.00  0.00     0.000 C 
BRANCH   9  10
ATOM     10  C   UNL     1      37.352  15.671  45.106  1.00  0.00     0.000 C 
BRANCH  10  11
ATOM     11  C   UNL     1      37.446  17.192  45.315  1.00  0.00     0.000 C 
BRANCH  11  12
ATOM     12  C   UNL     1      36.196  17.782  45.987  1.00  0.00     0.006 C 
BRANCH  12  13
ATOM     13  C   UNL     1      35.242  16.705  46.527  1.00  0.00     0.053 C 
BRANCH  13  14
ATOM     14  C   UNL     1      35.056  16.851  48.007  1.00  0.00     0.041 C 
ATOM     15  O   UNL     1      36.055  16.980  48.764  1.00  0.00    -0.550 OA
ATOM     16  O   UNL     1      33.774  16.858  48.549  1.00  0.00    -0.550 OA
ENDBRANCH  13  14
ENDBRANCH  12  13
ENDBRANCH  11  12
ENDBRANCH  10  11
ENDBRANCH   9  10
ENDBRANCH   8   9
ENDBRANCH   7   8
ENDBRANCH   6   7
ENDBRANCH   5   6
ENDBRANCH   4   5
ENDBRANCH   3   4
ENDBRANCH   2   3
ENDBRANCH   1   2
BRANCH   1  17
ATOM     17  C   UNL     1      34.229   7.722  44.498  1.00  0.00     0.000 C 
BRANCH  17  18
ATOM     18  C   UNL     1      33.865   7.603  45.988  1.00  0.00     0.000 C 
BRANCH  18  19
ATOM     19  C   UNL     1      33.194   6.257  46.313  1.00  0.00     0.000 C 
BRANCH  19  20
ATOM     20  C   UNL     1      33.237   5.915  47.811  1.00  0.00     0.000 C 
BRANCH  20  21
ATOM     21  C   UNL     1      34.563   6.319  48.482  1.00  0.00     0.000 C 
BRANCH  21  22
ATOM     22  C   UNL     1      34.335   7.025  49.830  1.00  0.00    -0.000 C 
BRANCH  22  23
ATOM     23  C   UNL     1      34.896   8.458  49.831  1.00  0.00    -0.000 C 
BRANCH  23  24
ATOM     24  C   UNL     1      33.804   9.536  49.996  1.00  0.00    -0.000 C 
BRANCH  24  25
ATOM     25  C   UNL     1      33.378  10.211  48.677  1.00  0.00    -0.000 C 
BRANCH  25  26
ATOM     26  C   UNL     1      31.921   9.954  48.244  1.00  0.00    -0.000 C 
BRANCH  26  27
ATOM     27  C   UNL     1      31.135   8.974  49.135  1.00  0.00    -0.000 C 
BRANCH  27  28
ATOM     28  C   UNL     1      30.592   7.726  48.413  1.00  0.00    -0.000 C 
BRANCH  28  29
ATOM     29  C   UNL     1      29.768   6.790  49.322  1.00  0.00    -0.003 C 
ATOM     30  C   UNL     1      28.997   5.727  48.539  1.00  0.00     0.004 C 
ENDBRANCH  28  29
ENDBRANCH  27  28
ENDBRANCH  26  27
ENDBRANCH  25  26
ENDBRANCH  24  25
ENDBRANCH  23  24
ENDBRANCH  22  23
ENDBRANCH  21  22
ENDBRANCH  20  21
ENDBRANCH  19  20
ENDBRANCH  18  19
ENDBRANCH  17  18
ENDBRANCH   1  17
TORSDOF 26
ENDMDL
MODEL 9
REMARK VINA RESULT:    -4.198      1.166      2.212
REMARK INTER + INTRA:         -14.161
REMARK INTER:                 -10.270
REMARK INTRA:                  -3.891
REMARK UNBOUND:                -3.582
REMARK SMILES CCCCCCCCCCCCCCCCCCCCCCCCCCCC(=O)[O-]
REMARK SMILES IDX 15 1 16 2 17 3 18 4 19 5 20 6 21 7 22 8 23 9 24 10 25 11
REMARK SMILES IDX 26 12 27 13 28 14 29 15 30 16 14 17 13 18 12 19 11 20 10 21
REMARK SMILES IDX 9 22 8 23 7 24 6 25 5 26 4 27 3 28 2 29 1 30
REMARK H PARENT
REMARK Flexibility Score: inf
ROOT
ATOM      1  C   UNL     1      34.212   8.103  45.147  1.00  0.00     0.000 C 
ENDROOT
BRANCH   1   2
ATOM      2  C   UNL     1      33.903   6.597  45.017  1.00  0.00     0.000 C 
BRANCH   2   3
ATOM      3  C   UNL     1      33.771   5.868  46.368  1.00  0.00     0.000 C 
BRANCH   3   4
ATOM      4  C   UNL     1      34.971   4.988  46.757  1.00  0.00     0.000 C 
BRANCH   4   5
ATOM      5  C   UNL     1      35.339   5.112  48.244  1.00  0.00     0.000 C 
BRANCH   5   6
ATOM      6  C   UNL     1      34.322   5.981  48.997  1.00  0.00     0.000 C 
BRANCH   6   7
ATOM      7  C   UNL     1      34.986   6.931  50.011  1.00  0.00     0.000 C 
BRANCH   7   8
ATOM      8  C   UNL     1      34.968   8.423  49.618  1.00  0.00     0.000 C 
BRANCH   8   9
ATOM      9  C   UNL     1      33.954   8.803  48.519  1.00  0.00     0.000 C 
BRANCH   9  10
ATOM     10  C   UNL     1      32.938   9.887  48.924  1.00  0.00     0.000 C 
BRANCH  10  11
ATOM     11  C   UNL     1      31.481   9.433  48.730  1.00  0.00     0.000 C 
BRANCH  11  12
ATOM     12  C   UNL     1      31.268   7.948  49.066  1.00  0.00     0.006 C 
BRANCH  12  13
ATOM     13  C   UNL     1      29.793   7.523  48.996  1.00  0.00     0.053 C 
BRANCH  13  14
ATOM     14  C   UNL     1      29.665   6.120  48.486  1.00  0.00     0.041 C 
ATOM     15  O   UNL     1      30.678   5.372  48.419  1.00  0.00    -0.550 OA
ATOM     16  O   UNL     1      28.421   5.633  48.097  1.00  0.00    -0.550 OA
ENDBRANCH  13  14
ENDBRANCH  12  13
ENDBRANCH  11  12
ENDBRANCH  10  11
ENDBRANCH   9  10
ENDBRANCH   8   9
ENDBRANCH   7   8
ENDBRANCH   6   7
ENDBRANCH   5   6
ENDBRANCH   4   5
ENDBRANCH   3   4
ENDBRANCH   2   3
ENDBRANCH   1   2
BRANCH   1  17
ATOM     17  C   UNL     1      34.305   8.807  43.780  1.00  0.00     0.000 C 
BRANCH  17  18
ATOM     18  C   UNL     1      34.526  10.323  43.922  1.00  0.00     0.000 C 
BRANCH  18  19
ATOM     19  C   UNL     1      34.384  10.793  45.380  1.00  0.00     0.000 C 
BRANCH  19  20
ATOM     20  C   UNL     1      35.644  11.501  45.904  1.00  0.00     0.000 C 
BRANCH  20  21
ATOM     21  C   UNL     1      35.489  12.013  47.348  1.00  0.00     0.000 C 
BRANCH  21  22
ATOM     22  C   UNL     1      36.618  11.507  48.263  1.00  0.00    -0.000 C 
BRANCH  22  23
ATOM     23  C   UNL     1      36.805  12.407  49.498  1.00  0.00    -0.000 C 
BRANCH  23  24
ATOM     24  C   UNL     1      38.002  13.371  49.369  1.00  0.00    -0.000 C 
BRANCH  24  25
ATOM     25  C   UNL     1      37.717  14.622  48.513  1.00  0.00    -0.000 C 
BRANCH  25  26
ATOM     26  C   UNL     1      38.624  14.800  47.280  1.00  0.00    -0.000 C 
BRANCH  26  27
ATOM     27  C   UNL     1      37.960  14.487  45.926  1.00  0.00    -0.000 C 
BRANCH  27  28
ATOM     28  C   UNL     1      36.600  15.172  45.692  1.00  0.00    -0.000 C 
BRANCH  28  29
ATOM     29  C   UNL     1      36.711  16.660  45.300  1.00  0.00    -0.003 C 
ATOM     30  C   UNL     1      36.021  17.591  46.298  1.00  0.00     0.004 C 
ENDBRANCH  28  29
ENDBRANCH  27  28
ENDBRANCH  26  27
ENDBRANCH  25  26
ENDBRANCH  24  25
ENDBRANCH  23  24
ENDBRANCH  22  23
ENDBRANCH  21  22
ENDBRANCH  20  21
ENDBRANCH  19  20
ENDBRANCH  18  19
ENDBRANCH  17  18
ENDBRANCH   1  17
TORSDOF 26
ENDMDL
