MODEL 1
REMARK VINA RESULT:    -4.840      0.000      0.000
REMARK INTER + INTRA:          -5.601
REMARK INTER:                  -5.548
REMARK INTRA:                  -0.053
REMARK UNBOUND:                -0.053
REMARK SMILES O=C([O-])c1cc(O)c(O)c(O)c1
REMARK SMILES IDX 4 1 5 2 12 3 6 4 10 5 8 6 2 7 1 8 3 9 7 10 11 12 9 14
REMARK H PARENT 7 11 11 13 9 15
REMARK Flexibility Score: inf
ROOT
ATOM      1  C   UNL     1     181.579 186.566 152.578  1.00  0.00     0.005 A 
ATOM      2  C   UNL     1     180.242 186.364 152.958  1.00  0.00     0.060 A 
ATOM      3  C   UNL     1     181.904 186.571 151.214  1.00  0.00     0.060 A 
ATOM      4  C   UNL     1     179.241 186.169 151.999  1.00  0.00     0.162 A 
ATOM      5  C   UNL     1     180.912 186.378 150.244  1.00  0.00     0.162 A 
ATOM      6  C   UNL     1     179.579 186.175 150.625  1.00  0.00     0.200 A 
ENDROOT
BRANCH   1   7
ATOM      7  C   UNL     1     182.632 186.773 153.598  1.00  0.00     0.072 C 
ATOM      8  O   UNL     1     183.841 186.879 153.259  1.00  0.00    -0.545 OA
ATOM      9  O   UNL     1     182.301 186.852 154.945  1.00  0.00    -0.545 OA
ENDBRANCH   1   7
BRANCH   4  10
ATOM     10  O   UNL     1     177.935 185.974 152.454  1.00  0.00    -0.504 OA
ATOM     11  H   UNL     1     177.287 185.314 152.048  1.00  0.00     0.293 HD
ENDBRANCH   4  10
BRANCH   5  12
ATOM     12  O   UNL     1     181.246 186.385 148.890  1.00  0.00    -0.504 OA
ATOM     13  H   UNL     1     181.156 187.221 148.324  1.00  0.00     0.293 HD
ENDBRANCH   5  12
BRANCH   6  14
ATOM     14  O   UNL     1     178.630 185.987 149.617  1.00  0.00    -0.502 OA
ATOM     15  H   UNL     1     178.390 185.088 149.226  1.00  0.00     0.293 HD
ENDBRANCH   6  14
TORSDOF 4
ENDMDL
MODEL 2
REMARK VINA RESULT:    -4.822      0.107      2.438
REMARK INTER + INTRA:          -5.579
REMARK INTER:                  -5.526
REMARK INTRA:                  -0.053
REMARK UNBOUND:                -0.053
REMARK SMILES O=C([O-])c1cc(O)c(O)c(O)c1
REMARK SMILES IDX 4 1 5 2 12 3 6 4 10 5 8 6 2 7 1 8 3 9 7 10 11 12 9 14
REMARK H PARENT 7 11 11 13 9 15
REMARK Flexibility Score: inf
ROOT
ATOM      1  C   UNL     1     181.608 186.636 152.620  1.00  0.00     0.005 A 
ATOM      2  C   UNL     1     181.922 186.619 151.251  1.00  0.00     0.060 A 
ATOM      3  C   UNL     1     180.276 186.448 153.014  1.00  0.00     0.060 A 
ATOM      4  C   UNL     1     180.927 186.420 150.285  1.00  0.00     0.162 A 
ATOM      5  C   UNL     1     179.271 186.246 152.059  1.00  0.00     0.162 A 
ATOM      6  C   UNL     1     179.585 186.232 150.693  1.00  0.00     0.200 A 
ENDROOT
BRANCH   1   7
ATOM      7  C   UNL     1     182.665 186.847 153.634  1.00  0.00     0.072 C 
ATOM      8  O   UNL     1     183.861 187.038 153.284  1.00  0.00    -0.545 OA
ATOM      9  O   UNL     1     182.354 186.838 154.989  1.00  0.00    -0.545 OA
ENDBRANCH   1   7
BRANCH   4  10
ATOM     10  O   UNL     1     181.316 186.417 148.944  1.00  0.00    -0.504 OA
ATOM     11  H   UNL     1     181.478 185.579 148.404  1.00  0.00     0.293 HD
ENDBRANCH   4  10
BRANCH   5  12
ATOM     12  O   UNL     1     177.949 186.060 152.462  1.00  0.00    -0.504 OA
ATOM     13  H   UNL     1     177.688 186.049 153.442  1.00  0.00     0.293 HD
ENDBRANCH   5  12
BRANCH   6  14
ATOM     14  O   UNL     1     178.545 186.027 149.783  1.00  0.00    -0.502 OA
ATOM     15  H   UNL     1     178.472 186.497 148.893  1.00  0.00     0.293 HD
ENDBRANCH   6  14
TORSDOF 4
ENDMDL
MODEL 3
REMARK VINA RESULT:    -4.658      1.783      4.493
REMARK INTER + INTRA:          -5.391
REMARK INTER:                  -5.347
REMARK INTRA:                  -0.045
REMARK UNBOUND:                -0.053
REMARK SMILES O=C([O-])c1cc(O)c(O)c(O)c1
REMARK SMILES IDX 4 1 5 2 12 3 6 4 10 5 8 6 2 7 1 8 3 9 7 10 11 12 9 14
REMARK H PARENT 7 11 11 13 9 15
REMARK Flexibility Score: inf
ROOT
ATOM      1  C   UNL     1     180.527 186.668 153.091  1.00  0.00     0.005 A 
ATOM      2  C   UNL     1     180.578 187.042 154.444  1.00  0.00     0.060 A 
ATOM      3  C   UNL     1     181.717 186.321 152.437  1.00  0.00     0.060 A 
ATOM      4  C   UNL     1     181.794 187.072 155.139  1.00  0.00     0.162 A 
ATOM      5  C   UNL     1     182.940 186.346 153.119  1.00  0.00     0.162 A 
ATOM      6  C   UNL     1     182.989 186.721 154.469  1.00  0.00     0.200 A 
ENDROOT
BRANCH   1   7
ATOM      7  C   UNL     1     179.238 186.639 152.364  1.00  0.00     0.072 C 
ATOM      8  O   UNL     1     178.878 187.618 151.658  1.00  0.00    -0.545 OA
ATOM      9  O   UNL     1     178.406 185.529 152.450  1.00  0.00    -0.545 OA
ENDBRANCH   1   7
BRANCH   4  10
ATOM     10  O   UNL     1     181.765 187.455 156.481  1.00  0.00    -0.504 OA
ATOM     11  H   UNL     1     180.917 187.616 157.005  1.00  0.00     0.293 HD
ENDBRANCH   4  10
BRANCH   5  12
ATOM     12  O   UNL     1     184.118 185.998 152.459  1.00  0.00    -0.504 OA
ATOM     13  H   UNL     1     184.997 186.461 152.661  1.00  0.00     0.293 HD
ENDBRANCH   5  12
BRANCH   6  14
ATOM     14  O   UNL     1     184.235 186.728 155.102  1.00  0.00    -0.502 OA
ATOM     15  H   UNL     1     184.422 186.280 155.987  1.00  0.00     0.293 HD
ENDBRANCH   6  14
TORSDOF 4
ENDMDL
MODEL 4
REMARK VINA RESULT:    -4.646      1.812      5.097
REMARK INTER + INTRA:          -5.378
REMARK INTER:                  -5.333
REMARK INTRA:                  -0.045
REMARK UNBOUND:                -0.053
REMARK SMILES O=C([O-])c1cc(O)c(O)c(O)c1
REMARK SMILES IDX 4 1 5 2 12 3 6 4 10 5 8 6 2 7 1 8 3 9 7 10 11 12 9 14
REMARK H PARENT 7 11 11 13 9 15
REMARK Flexibility Score: inf
ROOT
ATOM      1  C   UNL     1     180.532 186.651 153.144  1.00  0.00     0.005 A 
ATOM      2  C   UNL     1     181.716 186.310 152.470  1.00  0.00     0.060 A 
ATOM      3  C   UNL     1     180.603 187.036 154.490  1.00  0.00     0.060 A 
ATOM      4  C   UNL     1     182.955 186.351 153.122  1.00  0.00     0.162 A 
ATOM      5  C   UNL     1     181.835 187.082 155.155  1.00  0.00     0.162 A 
ATOM      6  C   UNL     1     183.016 186.741 154.481  1.00  0.00     0.200 A 
ENDROOT
BRANCH   1   7
ATOM      7  C   UNL     1     179.227 186.606 152.447  1.00  0.00     0.072 C 
ATOM      8  O   UNL     1     178.475 185.600 152.558  1.00  0.00    -0.545 OA
ATOM      9  O   UNL     1     178.811 187.673 151.659  1.00  0.00    -0.545 OA
ENDBRANCH   1   7
BRANCH   4  10
ATOM     10  O   UNL     1     184.088 185.998 152.387  1.00  0.00    -0.504 OA
ATOM     11  H   UNL     1     184.704 186.664 151.943  1.00  0.00     0.293 HD
ENDBRANCH   4  10
BRANCH   5  12
ATOM     12  O   UNL     1     181.894 187.467 156.494  1.00  0.00    -0.504 OA
ATOM     13  H   UNL     1     181.934 188.443 156.765  1.00  0.00     0.293 HD
ENDBRANCH   5  12
BRANCH   6  14
ATOM     14  O   UNL     1     184.217 186.804 155.191  1.00  0.00    -0.502 OA
ATOM     15  H   UNL     1     184.752 185.994 155.470  1.00  0.00     0.293 HD
ENDBRANCH   6  14
TORSDOF 4
ENDMDL
MODEL 5
REMARK VINA RESULT:    -4.530      1.692      2.929
REMARK INTER + INTRA:          -5.245
REMARK INTER:                  -5.192
REMARK INTRA:                  -0.053
REMARK UNBOUND:                -0.053
REMARK SMILES O=C([O-])c1cc(O)c(O)c(O)c1
REMARK SMILES IDX 4 1 5 2 12 3 6 4 10 5 8 6 2 7 1 8 3 9 7 10 11 12 9 14
REMARK H PARENT 7 11 11 13 9 15
REMARK Flexibility Score: inf
ROOT
ATOM      1  C   UNL     1     182.488 186.111 151.933  1.00  0.00     0.005 A 
ATOM      2  C   UNL     1     181.969 185.929 150.640  1.00  0.00     0.060 A 
ATOM      3  C   UNL     1     181.745 186.847 152.866  1.00  0.00     0.060 A 
ATOM      4  C   UNL     1     180.729 186.471 150.278  1.00  0.00     0.162 A 
ATOM      5  C   UNL     1     180.503 187.394 152.517  1.00  0.00     0.162 A 
ATOM      6  C   UNL     1     179.987 187.213 151.226  1.00  0.00     0.200 A 
ENDROOT
BRANCH   1   7
ATOM      7  C   UNL     1     183.798 185.534 152.308  1.00  0.00     0.072 C 
ATOM      8  O   UNL     1     184.235 185.647 153.485  1.00  0.00    -0.545 OA
ATOM      9  O   UNL     1     184.566 184.858 151.367  1.00  0.00    -0.545 OA
ENDBRANCH   1   7
BRANCH   4  10
ATOM     10  O   UNL     1     180.280 186.249 148.974  1.00  0.00    -0.504 OA
ATOM     11  H   UNL     1     180.176 185.334 148.561  1.00  0.00     0.293 HD
ENDBRANCH   4  10
BRANCH   5  12
ATOM     12  O   UNL     1     179.772 188.125 153.453  1.00  0.00    -0.504 OA
ATOM     13  H   UNL     1     179.351 187.682 154.262  1.00  0.00     0.293 HD
ENDBRANCH   5  12
BRANCH   6  14
ATOM     14  O   UNL     1     178.745 187.780 150.931  1.00  0.00    -0.502 OA
ATOM     15  H   UNL     1     177.884 187.530 151.396  1.00  0.00     0.293 HD
ENDBRANCH   6  14
TORSDOF 4
ENDMDL
MODEL 6
REMARK VINA RESULT:    -4.477      1.800      2.728
REMARK INTER + INTRA:          -5.185
REMARK INTER:                  -5.134
REMARK INTRA:                  -0.050
REMARK UNBOUND:                -0.053
REMARK SMILES O=C([O-])c1cc(O)c(O)c(O)c1
REMARK SMILES IDX 4 1 5 2 12 3 6 4 10 5 8 6 2 7 1 8 3 9 7 10 11 12 9 14
REMARK H PARENT 7 11 11 13 9 15
REMARK Flexibility Score: inf
ROOT
ATOM      1  C   UNL     1     182.969 186.187 152.427  1.00  0.00     0.005 A 
ATOM      2  C   UNL     1     183.124 185.171 151.470  1.00  0.00     0.060 A 
ATOM      3  C   UNL     1     181.987 187.167 152.225  1.00  0.00     0.060 A 
ATOM      4  C   UNL     1     182.316 185.126 150.327  1.00  0.00     0.162 A 
ATOM      5  C   UNL     1     181.171 187.134 151.086  1.00  0.00     0.162 A 
ATOM      6  C   UNL     1     181.328 186.120 150.132  1.00  0.00     0.200 A 
ENDROOT
BRANCH   1   7
ATOM      7  C   UNL     1     183.828 186.227 153.632  1.00  0.00     0.072 C 
ATOM      8  O   UNL     1     184.254 185.160 154.150  1.00  0.00    -0.545 OA
ATOM      9  O   UNL     1     184.176 187.442 154.209  1.00  0.00    -0.545 OA
ENDBRANCH   1   7
BRANCH   4  10
ATOM     10  O   UNL     1     182.530 184.086 149.421  1.00  0.00    -0.504 OA
ATOM     11  H   UNL     1     183.436 183.831 149.056  1.00  0.00     0.293 HD
ENDBRANCH   4  10
BRANCH   5  12
ATOM     12  O   UNL     1     180.197 188.113 150.895  1.00  0.00    -0.504 OA
ATOM     13  H   UNL     1     180.207 188.983 151.416  1.00  0.00     0.293 HD
ENDBRANCH   5  12
BRANCH   6  14
ATOM     14  O   UNL     1     180.488 186.134 149.015  1.00  0.00    -0.502 OA
ATOM     15  H   UNL     1     180.815 186.182 148.062  1.00  0.00     0.293 HD
ENDBRANCH   6  14
TORSDOF 4
ENDMDL
MODEL 7
REMARK VINA RESULT:    -4.454      3.110      4.600
REMARK INTER + INTRA:          -5.158
REMARK INTER:                  -5.105
REMARK INTRA:                  -0.053
REMARK UNBOUND:                -0.053
REMARK SMILES O=C([O-])c1cc(O)c(O)c(O)c1
REMARK SMILES IDX 4 1 5 2 12 3 6 4 10 5 8 6 2 7 1 8 3 9 7 10 11 12 9 14
REMARK H PARENT 7 11 11 13 9 15
REMARK Flexibility Score: inf
ROOT
ATOM      1  C   UNL     1     183.111 184.796 154.645  1.00  0.00     0.005 A 
ATOM      2  C   UNL     1     183.479 185.935 155.379  1.00  0.00     0.060 A 
ATOM      3  C   UNL     1     181.853 184.763 154.026  1.00  0.00     0.060 A 
ATOM      4  C   UNL     1     182.611 187.028 155.498  1.00  0.00     0.162 A 
ATOM      5  C   UNL     1     180.976 185.850 154.136  1.00  0.00     0.162 A 
ATOM      6  C   UNL     1     181.344 186.986 154.870  1.00  0.00     0.200 A 
ENDROOT
BRANCH   1   7
ATOM      7  C   UNL     1     184.034 183.645 154.524  1.00  0.00     0.072 C 
ATOM      8  O   UNL     1     183.729 182.651 153.811  1.00  0.00    -0.545 OA
ATOM      9  O   UNL     1     185.251 183.644 155.195  1.00  0.00    -0.545 OA
ENDBRANCH   1   7
BRANCH   4  10
ATOM     10  O   UNL     1     183.047 188.125 156.245  1.00  0.00    -0.504 OA
ATOM     11  H   UNL     1     183.865 188.116 156.838  1.00  0.00     0.293 HD
ENDBRANCH   4  10
BRANCH   5  12
ATOM     12  O   UNL     1     179.727 185.807 153.517  1.00  0.00    -0.504 OA
ATOM     13  H   UNL     1     178.954 186.379 153.838  1.00  0.00     0.293 HD
ENDBRANCH   5  12
BRANCH   6  14
ATOM     14  O   UNL     1     180.431 188.041 154.948  1.00  0.00    -0.502 OA
ATOM     15  H   UNL     1     179.692 188.099 155.633  1.00  0.00     0.293 HD
ENDBRANCH   6  14
TORSDOF 4
ENDMDL
MODEL 8
REMARK VINA RESULT:    -4.425      3.065      4.492
REMARK INTER + INTRA:          -5.125
REMARK INTER:                  -5.076
REMARK INTRA:                  -0.049
REMARK UNBOUND:                -0.053
REMARK SMILES O=C([O-])c1cc(O)c(O)c(O)c1
REMARK SMILES IDX 4 1 5 2 12 3 6 4 10 5 8 6 2 7 1 8 3 9 7 10 11 12 9 14
REMARK H PARENT 7 11 11 13 9 15
REMARK Flexibility Score: inf
ROOT
ATOM      1  C   UNL     1     183.028 184.899 154.387  1.00  0.00     0.005 A 
ATOM      2  C   UNL     1     181.738 184.904 153.833  1.00  0.00     0.060 A 
ATOM      3  C   UNL     1     183.423 185.971 155.200  1.00  0.00     0.060 A 
ATOM      4  C   UNL     1     180.850 185.959 154.082  1.00  0.00     0.162 A 
ATOM      5  C   UNL     1     182.546 187.031 155.458  1.00  0.00     0.162 A 
ATOM      6  C   UNL     1     181.258 187.036 154.904  1.00  0.00     0.200 A 
ENDROOT
BRANCH   1   7
ATOM      7  C   UNL     1     183.960 183.781 154.119  1.00  0.00     0.072 C 
ATOM      8  O   UNL     1     184.674 183.306 155.043  1.00  0.00    -0.545 OA
ATOM      9  O   UNL     1     184.060 183.237 152.844  1.00  0.00    -0.545 OA
ENDBRANCH   1   7
BRANCH   4  10
ATOM     10  O   UNL     1     179.584 185.894 153.497  1.00  0.00    -0.504 OA
ATOM     11  H   UNL     1     179.355 185.306 152.708  1.00  0.00     0.293 HD
ENDBRANCH   4  10
BRANCH   5  12
ATOM     12  O   UNL     1     182.948 188.092 156.269  1.00  0.00    -0.504 OA
ATOM     13  H   UNL     1     182.383 188.410 157.049  1.00  0.00     0.293 HD
ENDBRANCH   5  12
BRANCH   6  14
ATOM     14  O   UNL     1     180.423 188.118 155.194  1.00  0.00    -0.502 OA
ATOM     15  H   UNL     1     180.182 188.412 156.129  1.00  0.00     0.293 HD
ENDBRANCH   6  14
TORSDOF 4
ENDMDL
