MODEL 1
REMARK VINA RESULT:    -2.356      0.000      0.000
REMARK INTER + INTRA:          -2.356
REMARK INTER:                  -2.356
REMARK INTRA:                   0.000
REMARK UNBOUND:                 0.000
REMARK SMILES CC(=O)[O-]
REMARK SMILES IDX 1 1 2 2 3 3 4 4
REMARK H PARENT
REMARK Flexibility Score: inf
ROOT
ATOM      1  C   UNL     1      23.059  30.512  -0.326  1.00  0.00     0.063 C 
ATOM      2  C   UNL     1      22.278  30.512   0.944  1.00  0.00     0.038 C 
ATOM      3  O   UNL     1      21.919  29.424   1.465  1.00  0.00    -0.550 OA
ATOM      4  O   UNL     1      21.992  31.710   1.586  1.00  0.00    -0.550 OA
ENDROOT
TORSDOF 0
ENDMDL
MODEL 2
REMARK VINA RESULT:    -2.174     26.953     27.200
REMARK INTER + INTRA:          -2.174
REMARK INTER:                  -2.174
REMARK INTRA:                   0.000
REMARK UNBOUND:                 0.000
REMARK SMILES CC(=O)[O-]
REMARK SMILES IDX 1 1 2 2 3 3 4 4
REMARK H PARENT
REMARK Flexibility Score: inf
ROOT
ATOM      1  C   UNL     1       4.358  12.878 -10.212  1.00  0.00     0.063 C 
ATOM      2  C   UNL     1       5.086  13.562 -11.319  1.00  0.00     0.038 C 
ATOM      3  O   UNL     1       6.263  13.224 -11.605  1.00  0.00    -0.550 OA
ATOM      4  O   UNL     1       4.447  14.538 -12.073  1.00  0.00    -0.550 OA
ENDROOT
TORSDOF 0
ENDMDL
MODEL 3
REMARK VINA RESULT:    -2.038      7.127      7.357
REMARK INTER + INTRA:          -2.038
REMARK INTER:                  -2.038
REMARK INTRA:                   0.000
REMARK UNBOUND:                 0.000
REMARK SMILES CC(=O)[O-]
REMARK SMILES IDX 1 1 2 2 3 3 4 4
REMARK H PARENT
REMARK Flexibility Score: inf
ROOT
ATOM      1  C   UNL     1      23.047  23.334   1.406  1.00  0.00     0.063 C 
ATOM      2  C   UNL     1      21.725  23.452   0.727  1.00  0.00     0.038 C 
ATOM      3  O   UNL     1      21.658  23.875  -0.456  1.00  0.00    -0.550 OA
ATOM      4  O   UNL     1      20.568  23.043   1.378  1.00  0.00    -0.550 OA
ENDROOT
TORSDOF 0
ENDMDL
MODEL 4
REMARK VINA RESULT:    -1.941     18.225     18.801
REMARK INTER + INTRA:          -1.941
REMARK INTER:                  -1.941
REMARK INTRA:                   0.000
REMARK UNBOUND:                 0.000
REMARK SMILES CC(=O)[O-]
REMARK SMILES IDX 1 1 2 2 3 3 4 4
REMARK H PARENT
REMARK Flexibility Score: inf
ROOT
ATOM      1  C   UNL     1      10.182  14.797   0.916  1.00  0.00     0.063 C 
ATOM      2  C   UNL     1      10.299  16.186   1.446  1.00  0.00     0.038 C 
ATOM      3  O   UNL     1       9.319  16.729   2.018  1.00  0.00    -0.550 OA
ATOM      4  O   UNL     1      11.508  16.865   1.359  1.00  0.00    -0.550 OA
ENDROOT
TORSDOF 0
ENDMDL
MODEL 5
REMARK VINA RESULT:    -1.910     18.461     19.037
REMARK INTER + INTRA:          -1.910
REMARK INTER:                  -1.910
REMARK INTRA:                   0.000
REMARK UNBOUND:                 0.000
REMARK SMILES CC(=O)[O-]
REMARK SMILES IDX 1 1 2 2 3 3 4 4
REMARK H PARENT
REMARK Flexibility Score: inf
ROOT
ATOM      1  C   UNL     1      10.002  14.715   0.739  1.00  0.00     0.063 C 
ATOM      2  C   UNL     1      10.167  16.028   1.427  1.00  0.00     0.038 C 
ATOM      3  O   UNL     1      11.273  16.625   1.392  1.00  0.00    -0.550 OA
ATOM      4  O   UNL     1       9.084  16.620   2.064  1.00  0.00    -0.550 OA
ENDROOT
TORSDOF 0
ENDMDL
MODEL 6
REMARK VINA RESULT:    -1.890     19.336     19.891
REMARK INTER + INTRA:          -1.890
REMARK INTER:                  -1.890
REMARK INTRA:                   0.000
REMARK UNBOUND:                 0.000
REMARK SMILES CC(=O)[O-]
REMARK SMILES IDX 1 1 2 2 3 3 4 4
REMARK H PARENT
REMARK Flexibility Score: inf
ROOT
ATOM      1  C   UNL     1      10.386  13.913  -0.246  1.00  0.00     0.063 C 
ATOM      2  C   UNL     1      10.159  14.818   0.918  1.00  0.00     0.038 C 
ATOM      3  O   UNL     1       9.146  14.664   1.649  1.00  0.00    -0.550 OA
ATOM      4  O   UNL     1      11.092  15.798   1.230  1.00  0.00    -0.550 OA
ENDROOT
TORSDOF 0
ENDMDL
MODEL 7
REMARK VINA RESULT:    -1.862     19.694     19.921
REMARK INTER + INTRA:          -1.862
REMARK INTER:                  -1.862
REMARK INTRA:                   0.000
REMARK UNBOUND:                 0.000
REMARK SMILES CC(=O)[O-]
REMARK SMILES IDX 1 1 2 2 3 3 4 4
REMARK H PARENT
REMARK Flexibility Score: inf
ROOT
ATOM      1  C   UNL     1      10.559  13.715  -0.538  1.00  0.00     0.063 C 
ATOM      2  C   UNL     1      10.718  14.370   0.792  1.00  0.00     0.038 C 
ATOM      3  O   UNL     1      11.551  13.922   1.621  1.00  0.00    -0.550 OA
ATOM      4  O   UNL     1       9.985  15.510   1.098  1.00  0.00    -0.550 OA
ENDROOT
TORSDOF 0
ENDMDL
MODEL 8
REMARK VINA RESULT:    -1.671     16.920     17.321
REMARK INTER + INTRA:          -1.671
REMARK INTER:                  -1.671
REMARK INTRA:                   0.000
REMARK UNBOUND:                 0.000
REMARK SMILES CC(=O)[O-]
REMARK SMILES IDX 1 1 2 2 3 3 4 4
REMARK H PARENT
REMARK Flexibility Score: inf
ROOT
ATOM      1  C   UNL     1      19.808  21.143 -12.172  1.00  0.00     0.063 C 
ATOM      2  C   UNL     1      18.735  20.127 -12.367  1.00  0.00     0.038 C 
ATOM      3  O   UNL     1      17.828  20.321 -13.218  1.00  0.00    -0.550 OA
ATOM      4  O   UNL     1      18.762  18.938 -11.648  1.00  0.00    -0.550 OA
ENDROOT
TORSDOF 0
ENDMDL
MODEL 9
REMARK VINA RESULT:    -1.527     12.627     13.135
REMARK INTER + INTRA:          -1.527
REMARK INTER:                  -1.527
REMARK INTRA:                   0.000
REMARK UNBOUND:                 0.000
REMARK SMILES CC(=O)[O-]
REMARK SMILES IDX 1 1 2 2 3 3 4 4
REMARK H PARENT
REMARK Flexibility Score: inf
ROOT
ATOM      1  C   UNL     1      23.125  17.376  -0.345  1.00  0.00     0.063 C 
ATOM      2  C   UNL     1      22.783  17.391   1.106  1.00  0.00     0.038 C 
ATOM      3  O   UNL     1      23.046  16.394   1.828  1.00  0.00    -0.550 OA
ATOM      4  O   UNL     1      22.222  18.526   1.678  1.00  0.00    -0.550 OA
ENDROOT
TORSDOF 0
ENDMDL
