MODEL 1
REMARK VINA RESULT:    -5.293      0.000      0.000
REMARK INTER + INTRA:          -6.131
REMARK INTER:                  -5.912
REMARK INTRA:                  -0.219
REMARK UNBOUND:                -0.219
REMARK SMILES O=C([O-])c1ccccc1C(=O)[O-]
REMARK SMILES IDX 4 1 9 2 5 3 8 4 6 5 7 6 2 7 1 8 3 9 10 10 11 11 12 12
REMARK H PARENT
REMARK Flexibility Score: inf
ROOT
ATOM      1  C   UNL     1      21.971 -24.266  33.044  1.00  0.00     0.006 A 
ATOM      2  C   UNL     1      22.345 -22.897  33.156  1.00  0.00     0.006 A 
ATOM      3  C   UNL     1      20.608 -24.595  32.924  1.00  0.00     0.010 A 
ATOM      4  C   UNL     1      21.338 -21.916  33.209  1.00  0.00     0.010 A 
ATOM      5  C   UNL     1      19.628 -23.603  32.958  1.00  0.00     0.001 A 
ATOM      6  C   UNL     1      19.991 -22.267  33.111  1.00  0.00     0.001 A 
ENDROOT
BRANCH   1   7
ATOM      7  C   UNL     1      22.948 -25.377  33.118  1.00  0.00     0.072 C 
ATOM      8  O   UNL     1      23.132 -26.003  34.195  1.00  0.00    -0.545 OA
ATOM      9  O   UNL     1      23.627 -25.784  31.976  1.00  0.00    -0.545 OA
ENDBRANCH   1   7
BRANCH   2  10
ATOM     10  C   UNL     1      23.756 -22.450  33.147  1.00  0.00     0.072 C 
ATOM     11  O   UNL     1      24.320 -22.151  32.061  1.00  0.00    -0.545 OA
ATOM     12  O   UNL     1      24.497 -22.418  34.322  1.00  0.00    -0.545 OA
ENDBRANCH   2  10
TORSDOF 2
ENDMDL
MODEL 2
REMARK VINA RESULT:    -5.278      0.033      3.147
REMARK INTER + INTRA:          -6.114
REMARK INTER:                  -5.894
REMARK INTRA:                  -0.220
REMARK UNBOUND:                -0.219
REMARK SMILES O=C([O-])c1ccccc1C(=O)[O-]
REMARK SMILES IDX 4 1 9 2 5 3 8 4 6 5 7 6 2 7 1 8 3 9 10 10 11 11 12 12
REMARK H PARENT
REMARK Flexibility Score: inf
ROOT
ATOM      1  C   UNL     1      22.349 -22.929  33.148  1.00  0.00     0.006 A 
ATOM      2  C   UNL     1      21.965 -24.294  33.032  1.00  0.00     0.006 A 
ATOM      3  C   UNL     1      21.349 -21.940  33.210  1.00  0.00     0.010 A 
ATOM      4  C   UNL     1      20.599 -24.613  32.917  1.00  0.00     0.010 A 
ATOM      5  C   UNL     1      20.000 -22.282  33.116  1.00  0.00     0.001 A 
ATOM      6  C   UNL     1      19.626 -23.615  32.959  1.00  0.00     0.001 A 
ENDROOT
BRANCH   1   7
ATOM      7  C   UNL     1      23.762 -22.485  33.137  1.00  0.00     0.072 C 
ATOM      8  O   UNL     1      24.315 -22.122  32.066  1.00  0.00    -0.545 OA
ATOM      9  O   UNL     1      24.476 -22.402  34.327  1.00  0.00    -0.545 OA
ENDBRANCH   1   7
BRANCH   2  10
ATOM     10  C   UNL     1      22.939 -25.407  33.099  1.00  0.00     0.072 C 
ATOM     11  O   UNL     1      23.189 -25.967  34.201  1.00  0.00    -0.545 OA
ATOM     12  O   UNL     1      23.639 -25.807  31.967  1.00  0.00    -0.545 OA
ENDBRANCH   2  10
TORSDOF 2
ENDMDL
MODEL 3
REMARK VINA RESULT:    -5.060     10.123     11.793
REMARK INTER + INTRA:          -5.870
REMARK INTER:                  -5.645
REMARK INTRA:                  -0.225
REMARK UNBOUND:                -0.219
REMARK SMILES O=C([O-])c1ccccc1C(=O)[O-]
REMARK SMILES IDX 4 1 9 2 5 3 8 4 6 5 7 6 2 7 1 8 3 9 10 10 11 11 12 12
REMARK H PARENT
REMARK Flexibility Score: inf
ROOT
ATOM      1  C   UNL     1      16.577 -14.609  37.934  1.00  0.00     0.006 A 
ATOM      2  C   UNL     1      15.999 -15.909  37.925  1.00  0.00     0.006 A 
ATOM      3  C   UNL     1      16.331 -13.758  39.028  1.00  0.00     0.010 A 
ATOM      4  C   UNL     1      15.144 -16.285  38.978  1.00  0.00     0.010 A 
ATOM      5  C   UNL     1      15.497 -14.161  40.071  1.00  0.00     0.001 A 
ATOM      6  C   UNL     1      14.896 -15.417  40.041  1.00  0.00     0.001 A 
ENDROOT
BRANCH   1   7
ATOM      7  C   UNL     1      17.376 -14.074  36.807  1.00  0.00     0.072 C 
ATOM      8  O   UNL     1      18.620 -14.263  36.752  1.00  0.00    -0.545 OA
ATOM      9  O   UNL     1      16.747 -13.411  35.760  1.00  0.00    -0.545 OA
ENDBRANCH   1   7
BRANCH   2  10
ATOM     10  C   UNL     1      16.314 -16.917  36.887  1.00  0.00     0.072 C 
ATOM     11  O   UNL     1      17.315 -17.672  37.020  1.00  0.00    -0.545 OA
ATOM     12  O   UNL     1      15.555 -17.002  35.726  1.00  0.00    -0.545 OA
ENDBRANCH   2  10
TORSDOF 2
ENDMDL
MODEL 4
REMARK VINA RESULT:    -4.946     10.313     11.630
REMARK INTER + INTRA:          -5.744
REMARK INTER:                  -5.534
REMARK INTRA:                  -0.210
REMARK UNBOUND:                -0.219
REMARK SMILES O=C([O-])c1ccccc1C(=O)[O-]
REMARK SMILES IDX 4 1 9 2 5 3 8 4 6 5 7 6 2 7 1 8 3 9 10 10 11 11 12 12
REMARK H PARENT
REMARK Flexibility Score: inf
ROOT
ATOM      1  C   UNL     1      15.737 -15.830  37.698  1.00  0.00     0.006 A 
ATOM      2  C   UNL     1      16.261 -14.510  37.792  1.00  0.00     0.006 A 
ATOM      3  C   UNL     1      15.080 -16.386  38.812  1.00  0.00     0.010 A 
ATOM      4  C   UNL     1      16.167 -13.822  39.017  1.00  0.00     0.010 A 
ATOM      5  C   UNL     1      14.979 -15.676  40.009  1.00  0.00     0.001 A 
ATOM      6  C   UNL     1      15.531 -14.401  40.114  1.00  0.00     0.001 A 
ENDROOT
BRANCH   1   7
ATOM      7  C   UNL     1      15.909 -16.682  36.500  1.00  0.00     0.072 C 
ATOM      8  O   UNL     1      16.998 -17.277  36.283  1.00  0.00    -0.545 OA
ATOM      9  O   UNL     1      14.844 -16.888  35.631  1.00  0.00    -0.545 OA
ENDBRANCH   1   7
BRANCH   2  10
ATOM     10  C   UNL     1      16.843 -13.797  36.633  1.00  0.00     0.072 C 
ATOM     11  O   UNL     1      16.111 -13.086  35.893  1.00  0.00    -0.545 OA
ATOM     12  O   UNL     1      18.185 -13.950  36.305  1.00  0.00    -0.545 OA
ENDBRANCH   2  10
TORSDOF 2
ENDMDL
MODEL 5
REMARK VINA RESULT:    -4.787     10.467     12.151
REMARK INTER + INTRA:          -5.566
REMARK INTER:                  -5.384
REMARK INTRA:                  -0.182
REMARK UNBOUND:                -0.219
REMARK SMILES O=C([O-])c1ccccc1C(=O)[O-]
REMARK SMILES IDX 4 1 9 2 5 3 8 4 6 5 7 6 2 7 1 8 3 9 10 10 11 11 12 12
REMARK H PARENT
REMARK Flexibility Score: inf
ROOT
ATOM      1  C   UNL     1      15.727 -14.485  37.741  1.00  0.00     0.006 A 
ATOM      2  C   UNL     1      16.124 -15.658  37.038  1.00  0.00     0.006 A 
ATOM      3  C   UNL     1      15.918 -13.228  37.136  1.00  0.00     0.010 A 
ATOM      4  C   UNL     1      16.755 -15.526  35.787  1.00  0.00     0.010 A 
ATOM      5  C   UNL     1      16.526 -13.123  35.884  1.00  0.00     0.001 A 
ATOM      6  C   UNL     1      16.953 -14.269  35.216  1.00  0.00     0.001 A 
ENDROOT
BRANCH   1   7
ATOM      7  C   UNL     1      15.183 -14.515  39.118  1.00  0.00     0.072 C 
ATOM      8  O   UNL     1      15.905 -14.210  40.103  1.00  0.00    -0.545 OA
ATOM      9  O   UNL     1      13.844 -14.819  39.331  1.00  0.00    -0.545 OA
ENDBRANCH   1   7
BRANCH   2  10
ATOM     10  C   UNL     1      15.837 -17.022  37.535  1.00  0.00     0.072 C 
ATOM     11  O   UNL     1      16.774 -17.759  37.944  1.00  0.00    -0.545 OA
ATOM     12  O   UNL     1      14.545 -17.534  37.498  1.00  0.00    -0.545 OA
ENDBRANCH   2  10
TORSDOF 2
ENDMDL
MODEL 6
REMARK VINA RESULT:    -4.735     10.510     11.923
REMARK INTER + INTRA:          -5.508
REMARK INTER:                  -5.324
REMARK INTRA:                  -0.183
REMARK UNBOUND:                -0.219
REMARK SMILES O=C([O-])c1ccccc1C(=O)[O-]
REMARK SMILES IDX 4 1 9 2 5 3 8 4 6 5 7 6 2 7 1 8 3 9 10 10 11 11 12 12
REMARK H PARENT
REMARK Flexibility Score: inf
ROOT
ATOM      1  C   UNL     1      15.982 -15.696  37.016  1.00  0.00     0.006 A 
ATOM      2  C   UNL     1      15.613 -14.513  37.716  1.00  0.00     0.006 A 
ATOM      3  C   UNL     1      16.631 -15.581  35.772  1.00  0.00     0.010 A 
ATOM      4  C   UNL     1      15.848 -13.262  37.116  1.00  0.00     0.010 A 
ATOM      5  C   UNL     1      16.874 -14.328  35.207  1.00  0.00     0.001 A 
ATOM      6  C   UNL     1      16.473 -13.172  35.872  1.00  0.00     0.001 A 
ENDROOT
BRANCH   1   7
ATOM      7  C   UNL     1      15.652 -17.056  37.501  1.00  0.00     0.072 C 
ATOM      8  O   UNL     1      16.518 -17.759  38.086  1.00  0.00    -0.545 OA
ATOM      9  O   UNL     1      14.358 -17.546  37.374  1.00  0.00    -0.545 OA
ENDBRANCH   1   7
BRANCH   2  10
ATOM     10  C   UNL     1      15.053 -14.537  39.086  1.00  0.00     0.072 C 
ATOM     11  O   UNL     1      13.824 -14.752  39.266  1.00  0.00    -0.545 OA
ATOM     12  O   UNL     1      15.856 -14.257  40.185  1.00  0.00    -0.545 OA
ENDBRANCH   2  10
TORSDOF 2
ENDMDL
MODEL 7
REMARK VINA RESULT:    -4.726     10.592     12.083
REMARK INTER + INTRA:          -5.497
REMARK INTER:                  -5.298
REMARK INTRA:                  -0.200
REMARK UNBOUND:                -0.219
REMARK SMILES O=C([O-])c1ccccc1C(=O)[O-]
REMARK SMILES IDX 4 1 9 2 5 3 8 4 6 5 7 6 2 7 1 8 3 9 10 10 11 11 12 12
REMARK H PARENT
REMARK Flexibility Score: inf
ROOT
ATOM      1  C   UNL     1      16.182 -15.050  36.754  1.00  0.00     0.006 A 
ATOM      2  C   UNL     1      15.282 -14.849  37.838  1.00  0.00     0.006 A 
ATOM      3  C   UNL     1      15.904 -16.058  35.811  1.00  0.00     0.010 A 
ATOM      4  C   UNL     1      14.173 -15.706  37.974  1.00  0.00     0.010 A 
ATOM      5  C   UNL     1      14.787 -16.881  35.955  1.00  0.00     0.001 A 
ATOM      6  C   UNL     1      13.929 -16.713  37.040  1.00  0.00     0.001 A 
ENDROOT
BRANCH   1   7
ATOM      7  C   UNL     1      17.445 -14.292  36.605  1.00  0.00     0.072 C 
ATOM      8  O   UNL     1      18.441 -14.549  37.330  1.00  0.00    -0.545 OA
ATOM      9  O   UNL     1      17.565 -13.327  35.611  1.00  0.00    -0.545 OA
ENDBRANCH   1   7
BRANCH   2  10
ATOM     10  C   UNL     1      15.420 -13.728  38.795  1.00  0.00     0.072 C 
ATOM     11  O   UNL     1      14.939 -12.596  38.519  1.00  0.00    -0.545 OA
ATOM     12  O   UNL     1      16.135 -13.887  39.976  1.00  0.00    -0.545 OA
ENDBRANCH   2  10
TORSDOF 2
ENDMDL
MODEL 8
REMARK VINA RESULT:    -4.709     10.638     12.153
REMARK INTER + INTRA:          -5.478
REMARK INTER:                  -5.263
REMARK INTRA:                  -0.216
REMARK UNBOUND:                -0.219
REMARK SMILES O=C([O-])c1ccccc1C(=O)[O-]
REMARK SMILES IDX 4 1 9 2 5 3 8 4 6 5 7 6 2 7 1 8 3 9 10 10 11 11 12 12
REMARK H PARENT
REMARK Flexibility Score: inf
ROOT
ATOM      1  C   UNL     1      15.292 -14.836  37.843  1.00  0.00     0.006 A 
ATOM      2  C   UNL     1      16.130 -14.975  36.701  1.00  0.00     0.006 A 
ATOM      3  C   UNL     1      14.250 -15.760  38.044  1.00  0.00     0.010 A 
ATOM      4  C   UNL     1      15.853 -15.994  35.770  1.00  0.00     0.010 A 
ATOM      5  C   UNL     1      14.009 -16.776  37.119  1.00  0.00     0.001 A 
ATOM      6  C   UNL     1      14.801 -16.886  35.978  1.00  0.00     0.001 A 
ENDROOT
BRANCH   1   7
ATOM      7  C   UNL     1      15.419 -13.715  38.803  1.00  0.00     0.072 C 
ATOM      8  O   UNL     1      14.852 -12.612  38.585  1.00  0.00    -0.545 OA
ATOM      9  O   UNL     1      16.114 -13.893  39.993  1.00  0.00    -0.545 OA
ENDBRANCH   1   7
BRANCH   2  10
ATOM     10  C   UNL     1      17.330 -14.136  36.482  1.00  0.00     0.072 C 
ATOM     11  O   UNL     1      17.312 -13.215  35.622  1.00  0.00    -0.545 OA
ATOM     12  O   UNL     1      18.510 -14.392  37.170  1.00  0.00    -0.545 OA
ENDBRANCH   2  10
TORSDOF 2
ENDMDL
MODEL 9
REMARK VINA RESULT:    -4.696     10.472     12.012
REMARK INTER + INTRA:          -5.464
REMARK INTER:                  -5.239
REMARK INTRA:                  -0.224
REMARK UNBOUND:                -0.219
REMARK SMILES O=C([O-])c1ccccc1C(=O)[O-]
REMARK SMILES IDX 4 1 9 2 5 3 8 4 6 5 7 6 2 7 1 8 3 9 10 10 11 11 12 12
REMARK H PARENT
REMARK Flexibility Score: inf
ROOT
ATOM      1  C   UNL     1      16.243 -15.877  37.567  1.00  0.00     0.006 A 
ATOM      2  C   UNL     1      15.400 -15.277  38.545  1.00  0.00     0.006 A 
ATOM      3  C   UNL     1      16.465 -17.266  37.615  1.00  0.00     0.010 A 
ATOM      4  C   UNL     1      14.865 -16.079  39.571  1.00  0.00     0.010 A 
ATOM      5  C   UNL     1      15.906 -18.044  38.629  1.00  0.00     0.001 A 
ATOM      6  C   UNL     1      15.116 -17.450  39.611  1.00  0.00     0.001 A 
ENDROOT
BRANCH   1   7
ATOM      7  C   UNL     1      16.960 -15.096  36.534  1.00  0.00     0.072 C 
ATOM      8  O   UNL     1      16.489 -14.977  35.372  1.00  0.00    -0.545 OA
ATOM      9  O   UNL     1      18.135 -14.427  36.856  1.00  0.00    -0.545 OA
ENDBRANCH   1   7
BRANCH   2  10
ATOM     10  C   UNL     1      15.001 -13.853  38.491  1.00  0.00     0.072 C 
ATOM     11  O   UNL     1      15.538 -13.013  39.263  1.00  0.00    -0.545 OA
ATOM     12  O   UNL     1      13.986 -13.432  37.640  1.00  0.00    -0.545 OA
ENDBRANCH   2  10
TORSDOF 2
ENDMDL
