MODEL 1
REMARK VINA RESULT:    -4.137      0.000      0.000
REMARK INTER + INTRA:          -6.715
REMARK INTER:                  -5.950
REMARK INTRA:                  -0.765
REMARK UNBOUND:                -0.765
REMARK SMILES O=C(CO)[C@@H](O)[C@H](O)[C@H](O)CO
REMARK SMILES IDX 7 1 9 2 11 3 12 4 10 6 5 8 2 9 1 10 3 11 4 12 6 14 8 16
REMARK H PARENT 12 5 10 7 4 13 6 15 8 17
REMARK Flexibility Score: inf
ROOT
ATOM      1  C   UNL     1      61.820  -3.050  -5.881  1.00  0.00     0.181 C 
ENDROOT
BRANCH   1   2
ATOM      2  C   UNL     1      62.907  -3.964  -5.227  1.00  0.00     0.171 C 
BRANCH   2   3
ATOM      3  C   UNL     1      63.074  -3.727  -3.718  1.00  0.00     0.190 C 
BRANCH   3   4
ATOM      4  O   UNL     1      61.947  -4.207  -3.039  1.00  0.00    -0.394 OA
ATOM      5  H   UNL     1      62.229  -5.048  -2.595  1.00  0.00     0.210 HD
ENDBRANCH   3   4
ENDBRANCH   2   3
BRANCH   2   6
ATOM      6  O   UNL     1      62.559  -5.312  -5.422  1.00  0.00    -0.388 OA
ATOM      7  H   UNL     1      61.860  -5.332  -6.126  1.00  0.00     0.211 HD
ENDBRANCH   2   6
ENDBRANCH   1   2
BRANCH   1   8
ATOM      8  C   UNL     1      60.461  -3.742  -6.173  1.00  0.00     0.214 C 
BRANCH   8   9
ATOM      9  C   UNL     1      60.397  -4.430  -7.522  1.00  0.00     0.189 C 
ATOM     10  O   UNL     1      61.423  -4.824  -8.057  1.00  0.00    -0.294 OA
BRANCH   9  11
ATOM     11  C   UNL     1      59.083  -4.625  -8.228  1.00  0.00     0.234 C 
BRANCH  11  12
ATOM     12  O   UNL     1      58.133  -5.154  -7.344  1.00  0.00    -0.388 OA
ATOM     13  H   UNL     1      58.612  -5.801  -6.763  1.00  0.00     0.211 HD
ENDBRANCH  11  12
ENDBRANCH   9  11
ENDBRANCH   8   9
BRANCH   8  14
ATOM     14  O   UNL     1      60.091  -4.620  -5.136  1.00  0.00    -0.382 OA
ATOM     15  H   UNL     1      59.365  -4.196  -4.611  1.00  0.00     0.211 HD
ENDBRANCH   8  14
ENDBRANCH   1   8
BRANCH   1  16
ATOM     16  O   UNL     1      62.302  -2.460  -7.065  1.00  0.00    -0.387 OA
ATOM     17  H   UNL     1      61.578  -1.872  -7.408  1.00  0.00     0.211 HD
ENDBRANCH   1  16
TORSDOF 10
ENDMDL
MODEL 2
REMARK VINA RESULT:    -4.132     14.989     16.633
REMARK INTER + INTRA:          -6.708
REMARK INTER:                  -5.830
REMARK INTRA:                  -0.879
REMARK UNBOUND:                -0.765
REMARK SMILES O=C(CO)[C@@H](O)[C@H](O)[C@H](O)CO
REMARK SMILES IDX 7 1 9 2 11 3 12 4 10 6 5 8 2 9 1 10 3 11 4 12 6 14 8 16
REMARK H PARENT 12 5 10 7 4 13 6 15 8 17
REMARK Flexibility Score: inf
ROOT
ATOM      1  C   UNL     1      46.406  -7.119   2.404  1.00  0.00     0.181 C 
ENDROOT
BRANCH   1   2
ATOM      2  C   UNL     1      45.821  -6.105   1.367  1.00  0.00     0.171 C 
BRANCH   2   3
ATOM      3  C   UNL     1      45.599  -6.718  -0.025  1.00  0.00     0.190 C 
BRANCH   3   4
ATOM      4  O   UNL     1      46.588  -6.259  -0.904  1.00  0.00    -0.394 OA
ATOM      5  H   UNL     1      46.424  -6.716  -1.769  1.00  0.00     0.210 HD
ENDBRANCH   3   4
ENDBRANCH   2   3
BRANCH   2   6
ATOM      6  O   UNL     1      44.586  -5.622   1.834  1.00  0.00    -0.388 OA
ATOM      7  H   UNL     1      44.124  -5.212   1.057  1.00  0.00     0.211 HD
ENDBRANCH   2   6
ENDBRANCH   1   2
BRANCH   1   8
ATOM      8  C   UNL     1      47.927  -7.403   2.266  1.00  0.00     0.214 C 
BRANCH   8   9
ATOM      9  C   UNL     1      48.249  -8.751   1.654  1.00  0.00     0.189 C 
ATOM     10  O   UNL     1      48.205  -9.761   2.342  1.00  0.00    -0.294 OA
BRANCH   9  11
ATOM     11  C   UNL     1      48.640  -8.869   0.206  1.00  0.00     0.234 C 
BRANCH  11  12
ATOM     12  O   UNL     1      49.902  -8.296  -0.002  1.00  0.00    -0.388 OA
ATOM     13  H   UNL     1      50.534  -9.046  -0.157  1.00  0.00     0.211 HD
ENDBRANCH  11  12
ENDBRANCH   9  11
ENDBRANCH   8   9
BRANCH   8  14
ATOM     14  O   UNL     1      48.591  -6.363   1.588  1.00  0.00    -0.382 OA
ATOM     15  H   UNL     1      49.567  -6.489   1.699  1.00  0.00     0.211 HD
ENDBRANCH   8  14
ENDBRANCH   1   8
BRANCH   1  16
ATOM     16  O   UNL     1      45.704  -8.338   2.369  1.00  0.00    -0.387 OA
ATOM     17  H   UNL     1      46.291  -8.995   1.911  1.00  0.00     0.211 HD
ENDBRANCH   1  16
TORSDOF 10
ENDMDL
MODEL 3
REMARK VINA RESULT:    -4.057     14.927     16.537
REMARK INTER + INTRA:          -6.601
REMARK INTER:                  -5.936
REMARK INTRA:                  -0.665
REMARK UNBOUND:                -0.765
REMARK SMILES O=C(CO)[C@@H](O)[C@H](O)[C@H](O)CO
REMARK SMILES IDX 7 1 9 2 11 3 12 4 10 6 5 8 2 9 1 10 3 11 4 12 6 14 8 16
REMARK H PARENT 12 5 10 7 4 13 6 15 8 17
REMARK Flexibility Score: inf
ROOT
ATOM      1  C   UNL     1      46.794  -6.684   0.325  1.00  0.00     0.181 C 
ENDROOT
BRANCH   1   2
ATOM      2  C   UNL     1      45.289  -7.084   0.456  1.00  0.00     0.171 C 
BRANCH   2   3
ATOM      3  C   UNL     1      44.664  -6.671   1.799  1.00  0.00     0.190 C 
BRANCH   3   4
ATOM      4  O   UNL     1      44.660  -5.275   1.905  1.00  0.00    -0.394 OA
ATOM      5  H   UNL     1      44.324  -4.932   1.037  1.00  0.00     0.210 HD
ENDBRANCH   3   4
ENDBRANCH   2   3
BRANCH   2   6
ATOM      6  O   UNL     1      44.553  -6.472  -0.574  1.00  0.00    -0.388 OA
ATOM      7  H   UNL     1      43.595  -6.661  -0.395  1.00  0.00     0.211 HD
ENDBRANCH   2   6
ENDBRANCH   1   2
BRANCH   1   8
ATOM      8  C   UNL     1      47.684  -7.043   1.546  1.00  0.00     0.214 C 
BRANCH   8   9
ATOM      9  C   UNL     1      48.130  -8.491   1.578  1.00  0.00     0.189 C 
ATOM     10  O   UNL     1      47.932  -9.170   2.576  1.00  0.00    -0.294 OA
BRANCH   9  11
ATOM     11  C   UNL     1      48.833  -9.110   0.401  1.00  0.00     0.234 C 
BRANCH  11  12
ATOM     12  O   UNL     1      49.877  -8.279  -0.030  1.00  0.00    -0.388 OA
ATOM     13  H   UNL     1      50.121  -8.578  -0.944  1.00  0.00     0.211 HD
ENDBRANCH  11  12
ENDBRANCH   9  11
ENDBRANCH   8   9
BRANCH   8  14
ATOM     14  O   UNL     1      48.781  -6.168   1.667  1.00  0.00    -0.382 OA
ATOM     15  H   UNL     1      48.756  -5.757   2.568  1.00  0.00     0.211 HD
ENDBRANCH   8  14
ENDBRANCH   1   8
BRANCH   1  16
ATOM     16  O   UNL     1      46.930  -5.312   0.043  1.00  0.00    -0.387 OA
ATOM     17  H   UNL     1      46.028  -4.979  -0.209  1.00  0.00     0.211 HD
ENDBRANCH   1  16
TORSDOF 10
ENDMDL
MODEL 4
REMARK VINA RESULT:    -4.036      1.806      3.116
REMARK INTER + INTRA:          -6.570
REMARK INTER:                  -5.372
REMARK INTRA:                  -1.198
REMARK UNBOUND:                -0.765
REMARK SMILES O=C(CO)[C@@H](O)[C@H](O)[C@H](O)CO
REMARK SMILES IDX 7 1 9 2 11 3 12 4 10 6 5 8 2 9 1 10 3 11 4 12 6 14 8 16
REMARK H PARENT 12 5 10 7 4 13 6 15 8 17
REMARK Flexibility Score: inf
ROOT
ATOM      1  C   UNL     1      62.122  -3.443  -5.204  1.00  0.00     0.181 C 
ENDROOT
BRANCH   1   2
ATOM      2  C   UNL     1      61.893  -4.660  -4.250  1.00  0.00     0.171 C 
BRANCH   2   3
ATOM      3  C   UNL     1      63.146  -5.531  -4.062  1.00  0.00     0.190 C 
BRANCH   3   4
ATOM      4  O   UNL     1      63.505  -6.107  -5.287  1.00  0.00    -0.394 OA
ATOM      5  H   UNL     1      63.234  -5.459  -5.988  1.00  0.00     0.210 HD
ENDBRANCH   3   4
ENDBRANCH   2   3
BRANCH   2   6
ATOM      6  O   UNL     1      61.493  -4.192  -2.986  1.00  0.00    -0.388 OA
ATOM      7  H   UNL     1      61.727  -4.899  -2.329  1.00  0.00     0.211 HD
ENDBRANCH   2   6
ENDBRANCH   1   2
BRANCH   1   8
ATOM      8  C   UNL     1      61.710  -3.675  -6.683  1.00  0.00     0.214 C 
BRANCH   8   9
ATOM      9  C   UNL     1      62.861  -3.588  -7.665  1.00  0.00     0.189 C 
ATOM     10  O   UNL     1      63.662  -4.508  -7.752  1.00  0.00    -0.294 OA
BRANCH   9  11
ATOM     11  C   UNL     1      63.048  -2.373  -8.532  1.00  0.00     0.234 C 
BRANCH  11  12
ATOM     12  O   UNL     1      63.843  -1.426  -7.872  1.00  0.00    -0.388 OA
ATOM     13  H   UNL     1      64.550  -1.150  -8.511  1.00  0.00     0.211 HD
ENDBRANCH  11  12
ENDBRANCH   9  11
ENDBRANCH   8   9
BRANCH   8  14
ATOM     14  O   UNL     1      60.995  -4.878  -6.842  1.00  0.00    -0.382 OA
ATOM     15  H   UNL     1      60.146  -4.678  -7.310  1.00  0.00     0.211 HD
ENDBRANCH   8  14
ENDBRANCH   1   8
BRANCH   1  16
ATOM     16  O   UNL     1      63.461  -3.011  -5.160  1.00  0.00    -0.387 OA
ATOM     17  H   UNL     1      63.787  -3.178  -4.236  1.00  0.00     0.211 HD
ENDBRANCH   1  16
TORSDOF 10
ENDMDL
MODEL 5
REMARK VINA RESULT:    -4.031      1.846      4.195
REMARK INTER + INTRA:          -6.563
REMARK INTER:                  -5.853
REMARK INTRA:                  -0.711
REMARK UNBOUND:                -0.765
REMARK SMILES O=C(CO)[C@@H](O)[C@H](O)[C@H](O)CO
REMARK SMILES IDX 7 1 9 2 11 3 12 4 10 6 5 8 2 9 1 10 3 11 4 12 6 14 8 16
REMARK H PARENT 12 5 10 7 4 13 6 15 8 17
REMARK Flexibility Score: inf
ROOT
ATOM      1  C   UNL     1      62.417  -3.790  -6.142  1.00  0.00     0.181 C 
ENDROOT
BRANCH   1   2
ATOM      2  C   UNL     1      61.959  -3.371  -7.577  1.00  0.00     0.171 C 
BRANCH   2   3
ATOM      3  C   UNL     1      63.095  -2.787  -8.432  1.00  0.00     0.190 C 
BRANCH   3   4
ATOM      4  O   UNL     1      63.494  -1.553  -7.903  1.00  0.00    -0.394 OA
ATOM      5  H   UNL     1      62.925  -1.397  -7.106  1.00  0.00     0.210 HD
ENDBRANCH   3   4
ENDBRANCH   2   3
BRANCH   2   6
ATOM      6  O   UNL     1      61.440  -4.492  -8.247  1.00  0.00    -0.388 OA
ATOM      7  H   UNL     1      60.533  -4.244  -8.565  1.00  0.00     0.211 HD
ENDBRANCH   2   6
ENDBRANCH   1   2
BRANCH   1   8
ATOM      8  C   UNL     1      61.452  -4.750  -5.394  1.00  0.00     0.214 C 
BRANCH   8   9
ATOM      9  C   UNL     1      61.888  -5.085  -3.982  1.00  0.00     0.189 C 
ATOM     10  O   UNL     1      61.441  -4.450  -3.037  1.00  0.00    -0.294 OA
BRANCH   9  11
ATOM     11  C   UNL     1      62.881  -6.184  -3.719  1.00  0.00     0.234 C 
BRANCH  11  12
ATOM     12  O   UNL     1      63.725  -5.829  -2.659  1.00  0.00    -0.388 OA
ATOM     13  H   UNL     1      63.867  -6.649  -2.118  1.00  0.00     0.211 HD
ENDBRANCH  11  12
ENDBRANCH   9  11
ENDBRANCH   8   9
BRANCH   8  14
ATOM     14  O   UNL     1      60.125  -4.278  -5.419  1.00  0.00    -0.382 OA
ATOM     15  H   UNL     1      60.129  -3.320  -5.170  1.00  0.00     0.211 HD
ENDBRANCH   8  14
ENDBRANCH   1   8
BRANCH   1  16
ATOM     16  O   UNL     1      62.660  -2.661  -5.339  1.00  0.00    -0.387 OA
ATOM     17  H   UNL     1      62.020  -1.959  -5.628  1.00  0.00     0.211 HD
ENDBRANCH   1  16
TORSDOF 10
ENDMDL
MODEL 6
REMARK VINA RESULT:    -4.012     16.188     17.697
REMARK INTER + INTRA:          -6.536
REMARK INTER:                  -5.972
REMARK INTRA:                  -0.565
REMARK UNBOUND:                -0.765
REMARK SMILES O=C(CO)[C@@H](O)[C@H](O)[C@H](O)CO
REMARK SMILES IDX 7 1 9 2 11 3 12 4 10 6 5 8 2 9 1 10 3 11 4 12 6 14 8 16
REMARK H PARENT 12 5 10 7 4 13 6 15 8 17
REMARK Flexibility Score: inf
ROOT
ATOM      1  C   UNL     1      45.632  -6.470   1.335  1.00  0.00     0.181 C 
ENDROOT
BRANCH   1   2
ATOM      2  C   UNL     1      45.915  -7.007  -0.106  1.00  0.00     0.171 C 
BRANCH   2   3
ATOM      3  C   UNL     1      44.643  -7.429  -0.859  1.00  0.00     0.190 C 
BRANCH   3   4
ATOM      4  O   UNL     1      44.114  -6.326  -1.541  1.00  0.00    -0.394 OA
ATOM      5  H   UNL     1      44.025  -5.601  -0.869  1.00  0.00     0.210 HD
ENDBRANCH   3   4
ENDBRANCH   2   3
BRANCH   2   6
ATOM      6  O   UNL     1      46.556  -6.007  -0.858  1.00  0.00    -0.388 OA
ATOM      7  H   UNL     1      45.930  -5.743  -1.581  1.00  0.00     0.211 HD
ENDBRANCH   2   6
ENDBRANCH   1   2
BRANCH   1   8
ATOM      8  C   UNL     1      45.949  -7.463   2.486  1.00  0.00     0.214 C 
BRANCH   8   9
ATOM      9  C   UNL     1      47.423  -7.566   2.823  1.00  0.00     0.189 C 
ATOM     10  O   UNL     1      48.204  -6.719   2.414  1.00  0.00    -0.294 OA
BRANCH   9  11
ATOM     11  C   UNL     1      47.950  -8.710   3.646  1.00  0.00     0.234 C 
BRANCH  11  12
ATOM     12  O   UNL     1      46.897  -9.544   4.044  1.00  0.00    -0.388 OA
ATOM     13  H   UNL     1      46.714  -9.340   4.998  1.00  0.00     0.211 HD
ENDBRANCH  11  12
ENDBRANCH   9  11
ENDBRANCH   8   9
BRANCH   8  14
ATOM     14  O   UNL     1      45.181  -7.191   3.634  1.00  0.00    -0.382 OA
ATOM     15  H   UNL     1      45.638  -7.589   4.418  1.00  0.00     0.211 HD
ENDBRANCH   8  14
ENDBRANCH   1   8
BRANCH   1  16
ATOM     16  O   UNL     1      44.301  -6.030   1.458  1.00  0.00    -0.387 OA
ATOM     17  H   UNL     1      44.015  -6.237   2.387  1.00  0.00     0.211 HD
ENDBRANCH   1  16
TORSDOF 10
ENDMDL
MODEL 7
REMARK VINA RESULT:    -3.992      1.896      3.101
REMARK INTER + INTRA:          -6.508
REMARK INTER:                  -5.727
REMARK INTRA:                  -0.780
REMARK UNBOUND:                -0.765
REMARK SMILES O=C(CO)[C@@H](O)[C@H](O)[C@H](O)CO
REMARK SMILES IDX 7 1 9 2 11 3 12 4 10 6 5 8 2 9 1 10 3 11 4 12 6 14 8 16
REMARK H PARENT 12 5 10 7 4 13 6 15 8 17
REMARK Flexibility Score: inf
ROOT
ATOM      1  C   UNL     1      61.479  -4.781  -5.369  1.00  0.00     0.181 C 
ENDROOT
BRANCH   1   2
ATOM      2  C   UNL     1      61.920  -5.257  -3.947  1.00  0.00     0.171 C 
BRANCH   2   3
ATOM      3  C   UNL     1      63.377  -5.745  -3.894  1.00  0.00     0.190 C 
BRANCH   3   4
ATOM      4  O   UNL     1      63.993  -5.260  -2.734  1.00  0.00    -0.394 OA
ATOM      5  H   UNL     1      64.965  -5.223  -2.931  1.00  0.00     0.210 HD
ENDBRANCH   3   4
ENDBRANCH   2   3
BRANCH   2   6
ATOM      6  O   UNL     1      61.783  -4.195  -3.037  1.00  0.00    -0.388 OA
ATOM      7  H   UNL     1      62.028  -4.548  -2.142  1.00  0.00     0.211 HD
ENDBRANCH   2   6
ENDBRANCH   1   2
BRANCH   1   8
ATOM      8  C   UNL     1      62.463  -3.811  -6.078  1.00  0.00     0.214 C 
BRANCH   8   9
ATOM      9  C   UNL     1      62.106  -3.514  -7.520  1.00  0.00     0.189 C 
ATOM     10  O   UNL     1      61.033  -3.888  -7.973  1.00  0.00    -0.294 OA
BRANCH   9  11
ATOM     11  C   UNL     1      63.061  -2.775  -8.417  1.00  0.00     0.234 C 
BRANCH  11  12
ATOM     12  O   UNL     1      63.480  -1.588  -7.802  1.00  0.00    -0.388 OA
ATOM     13  H   UNL     1      63.726  -0.959  -8.530  1.00  0.00     0.211 HD
ENDBRANCH  11  12
ENDBRANCH   9  11
ENDBRANCH   8   9
BRANCH   8  14
ATOM     14  O   UNL     1      62.642  -2.623  -5.343  1.00  0.00    -0.382 OA
ATOM     15  H   UNL     1      63.606  -2.395  -5.345  1.00  0.00     0.211 HD
ENDBRANCH   8  14
ENDBRANCH   1   8
BRANCH   1  16
ATOM     16  O   UNL     1      60.200  -4.195  -5.332  1.00  0.00    -0.387 OA
ATOM     17  H   UNL     1      59.992  -4.020  -4.376  1.00  0.00     0.211 HD
ENDBRANCH   1  16
TORSDOF 10
ENDMDL
MODEL 8
REMARK VINA RESULT:    -3.921      1.347      4.505
REMARK INTER + INTRA:          -6.404
REMARK INTER:                  -5.659
REMARK INTRA:                  -0.746
REMARK UNBOUND:                -0.765
REMARK SMILES O=C(CO)[C@@H](O)[C@H](O)[C@H](O)CO
REMARK SMILES IDX 7 1 9 2 11 3 12 4 10 6 5 8 2 9 1 10 3 11 4 12 6 14 8 16
REMARK H PARENT 12 5 10 7 4 13 6 15 8 17
REMARK Flexibility Score: inf
ROOT
ATOM      1  C   UNL     1      60.424  -4.218  -6.009  1.00  0.00     0.181 C 
ENDROOT
BRANCH   1   2
ATOM      2  C   UNL     1      60.348  -4.610  -7.521  1.00  0.00     0.171 C 
BRANCH   2   3
ATOM      3  C   UNL     1      58.922  -4.559  -8.092  1.00  0.00     0.190 C 
BRANCH   3   4
ATOM      4  O   UNL     1      58.149  -5.576  -7.518  1.00  0.00    -0.394 OA
ATOM      5  H   UNL     1      58.783  -6.295  -7.263  1.00  0.00     0.210 HD
ENDBRANCH   3   4
ENDBRANCH   2   3
BRANCH   2   6
ATOM      6  O   UNL     1      61.151  -3.733  -8.270  1.00  0.00    -0.388 OA
ATOM      7  H   UNL     1      61.022  -3.969  -9.226  1.00  0.00     0.211 HD
ENDBRANCH   2   6
ENDBRANCH   1   2
BRANCH   1   8
ATOM      8  C   UNL     1      61.853  -4.201  -5.401  1.00  0.00     0.214 C 
BRANCH   8   9
ATOM      9  C   UNL     1      61.960  -4.902  -4.061  1.00  0.00     0.189 C 
ATOM     10  O   UNL     1      61.421  -4.421  -3.075  1.00  0.00    -0.294 OA
BRANCH   9  11
ATOM     11  C   UNL     1      62.737  -6.182  -3.918  1.00  0.00     0.234 C 
BRANCH  11  12
ATOM     12  O   UNL     1      62.161  -6.988  -2.927  1.00  0.00    -0.388 OA
ATOM     13  H   UNL     1      62.894  -7.539  -2.545  1.00  0.00     0.211 HD
ENDBRANCH  11  12
ENDBRANCH   9  11
ENDBRANCH   8   9
BRANCH   8  14
ATOM     14  O   UNL     1      62.811  -4.689  -6.309  1.00  0.00    -0.382 OA
ATOM     15  H   UNL     1      63.583  -4.069  -6.314  1.00  0.00     0.211 HD
ENDBRANCH   8  14
ENDBRANCH   1   8
BRANCH   1  16
ATOM     16  O   UNL     1      59.600  -5.050  -5.229  1.00  0.00    -0.387 OA
ATOM     17  H   UNL     1      58.978  -4.455  -4.732  1.00  0.00     0.211 HD
ENDBRANCH   1  16
TORSDOF 10
ENDMDL
MODEL 9
REMARK VINA RESULT:    -3.900      1.365      4.211
REMARK INTER + INTRA:          -6.375
REMARK INTER:                  -5.771
REMARK INTRA:                  -0.604
REMARK UNBOUND:                -0.765
REMARK SMILES O=C(CO)[C@@H](O)[C@H](O)[C@H](O)CO
REMARK SMILES IDX 7 1 9 2 11 3 12 4 10 6 5 8 2 9 1 10 3 11 4 12 6 14 8 16
REMARK H PARENT 12 5 10 7 4 13 6 15 8 17
REMARK Flexibility Score: inf
ROOT
ATOM      1  C   UNL     1      60.911  -4.125  -5.329  1.00  0.00     0.181 C 
ENDROOT
BRANCH   1   2
ATOM      2  C   UNL     1      61.893  -3.833  -6.510  1.00  0.00     0.171 C 
BRANCH   2   3
ATOM      3  C   UNL     1      61.208  -3.839  -7.887  1.00  0.00     0.190 C 
BRANCH   3   4
ATOM      4  O   UNL     1      60.844  -5.149  -8.224  1.00  0.00    -0.394 OA
ATOM      5  H   UNL     1      61.395  -5.395  -9.012  1.00  0.00     0.210 HD
ENDBRANCH   3   4
ENDBRANCH   2   3
BRANCH   2   6
ATOM      6  O   UNL     1      62.485  -2.572  -6.323  1.00  0.00    -0.388 OA
ATOM      7  H   UNL     1      62.830  -2.281  -7.207  1.00  0.00     0.211 HD
ENDBRANCH   2   6
ENDBRANCH   1   2
BRANCH   1   8
ATOM      8  C   UNL     1      61.417  -5.160  -4.288  1.00  0.00     0.214 C 
BRANCH   8   9
ATOM      9  C   UNL     1      62.919  -5.359  -4.297  1.00  0.00     0.189 C 
ATOM     10  O   UNL     1      63.417  -6.226  -5.001  1.00  0.00    -0.294 OA
BRANCH   9  11
ATOM     11  C   UNL     1      63.816  -4.512  -3.436  1.00  0.00     0.234 C 
BRANCH  11  12
ATOM     12  O   UNL     1      63.275  -3.228  -3.291  1.00  0.00    -0.388 OA
ATOM     13  H   UNL     1      62.288  -3.334  -3.266  1.00  0.00     0.211 HD
ENDBRANCH  11  12
ENDBRANCH   9  11
ENDBRANCH   8   9
BRANCH   8  14
ATOM     14  O   UNL     1      60.948  -4.867  -2.993  1.00  0.00    -0.382 OA
ATOM     15  H   UNL     1      61.250  -5.585  -2.381  1.00  0.00     0.211 HD
ENDBRANCH   8  14
ENDBRANCH   1   8
BRANCH   1  16
ATOM     16  O   UNL     1      59.651  -4.529  -5.808  1.00  0.00    -0.387 OA
ATOM     17  H   UNL     1      59.781  -5.405  -6.257  1.00  0.00     0.211 HD
ENDBRANCH   1  16
TORSDOF 10
ENDMDL
