MODEL 1
REMARK VINA RESULT:     3.213      0.000      0.000
REMARK INTER + INTRA:          11.245
REMARK INTER:                   8.473
REMARK INTRA:                   2.772
REMARK UNBOUND:                 2.772
REMARK SMILES CCCCCCCCCCCCCCCCCCCCCCCCCCCCCC(=O)[O-]
REMARK SMILES IDX 16 1 17 2 18 3 19 4 20 5 21 6 22 7 23 8 24 9 25 10 26 11
REMARK SMILES IDX 27 12 28 13 29 14 30 15 31 16 32 17 15 18 14 19 13 20 12 21
REMARK SMILES IDX 11 22 10 23 9 24 8 25 7 26 6 27 5 28 4 29 3 30 2 31 1 32
REMARK H PARENT
REMARK Flexibility Score: inf
ROOT
ATOM      1  C   UNL     1      -3.522  34.983  22.027  1.00  0.00     0.000 C 
ENDROOT
BRANCH   1   2
ATOM      2  C   UNL     1      -3.043  34.569  20.622  1.00  0.00     0.000 C 
BRANCH   2   3
ATOM      3  C   UNL     1      -3.988  33.616  19.862  1.00  0.00     0.000 C 
BRANCH   3   4
ATOM      4  C   UNL     1      -5.032  34.312  18.970  1.00  0.00     0.000 C 
BRANCH   4   5
ATOM      5  C   UNL     1      -4.424  35.409  18.080  1.00  0.00     0.000 C 
BRANCH   5   6
ATOM      6  C   UNL     1      -4.559  36.819  18.699  1.00  0.00     0.000 C 
BRANCH   6   7
ATOM      7  C   UNL     1      -3.397  37.763  18.343  1.00  0.00     0.000 C 
BRANCH   7   8
ATOM      8  C   UNL     1      -2.160  37.626  19.248  1.00  0.00     0.000 C 
BRANCH   8   9
ATOM      9  C   UNL     1      -0.828  37.522  18.469  1.00  0.00     0.000 C 
BRANCH   9  10
ATOM     10  C   UNL     1      -1.038  37.276  16.965  1.00  0.00     0.000 C 
BRANCH  10  11
ATOM     11  C   UNL     1      -1.827  35.988  16.682  1.00  0.00     0.000 C 
BRANCH  11  12
ATOM     12  C   UNL     1      -1.599  35.456  15.258  1.00  0.00     0.000 C 
BRANCH  12  13
ATOM     13  C   UNL     1      -2.398  36.271  14.230  1.00  0.00     0.006 C 
BRANCH  13  14
ATOM     14  C   UNL     1      -2.823  37.641  14.776  1.00  0.00     0.053 C 
BRANCH  14  15
ATOM     15  C   UNL     1      -4.187  38.034  14.292  1.00  0.00     0.041 C 
ATOM     16  O   UNL     1      -4.989  37.157  13.876  1.00  0.00    -0.550 OA
ATOM     17  O   UNL     1      -4.578  39.366  14.321  1.00  0.00    -0.550 OA
ENDBRANCH  14  15
ENDBRANCH  13  14
ENDBRANCH  12  13
ENDBRANCH  11  12
ENDBRANCH  10  11
ENDBRANCH   9  10
ENDBRANCH   8   9
ENDBRANCH   7   8
ENDBRANCH   6   7
ENDBRANCH   5   6
ENDBRANCH   4   5
ENDBRANCH   3   4
ENDBRANCH   2   3
ENDBRANCH   1   2
BRANCH   1  18
ATOM     18  C   UNL     1      -4.831  34.314  22.494  1.00  0.00     0.000 C 
BRANCH  18  19
ATOM     19  C   UNL     1      -6.068  35.229  22.471  1.00  0.00     0.000 C 
BRANCH  19  20
ATOM     20  C   UNL     1      -6.124  36.121  21.220  1.00  0.00     0.000 C 
BRANCH  20  21
ATOM     21  C   UNL     1      -6.014  37.618  21.547  1.00  0.00     0.000 C 
BRANCH  21  22
ATOM     22  C   UNL     1      -5.964  38.496  20.286  1.00  0.00     0.000 C 
BRANCH  22  23
ATOM     23  C   UNL     1      -6.090  39.993  20.612  1.00  0.00     0.000 C 
BRANCH  23  24
ATOM     24  C   UNL     1      -6.037  40.266  22.125  1.00  0.00    -0.000 C 
BRANCH  24  25
ATOM     25  C   UNL     1      -4.646  40.000  22.727  1.00  0.00    -0.000 C 
BRANCH  25  26
ATOM     26  C   UNL     1      -4.482  38.634  23.428  1.00  0.00    -0.000 C 
BRANCH  26  27
ATOM     27  C   UNL     1      -5.643  38.218  24.356  1.00  0.00    -0.000 C 
BRANCH  27  28
ATOM     28  C   UNL     1      -5.474  36.833  25.021  1.00  0.00    -0.000 C 
BRANCH  28  29
ATOM     29  C   UNL     1      -4.616  36.853  26.300  1.00  0.00    -0.000 C 
BRANCH  29  30
ATOM     30  C   UNL     1      -3.379  37.768  26.241  1.00  0.00    -0.000 C 
BRANCH  30  31
ATOM     31  C   UNL     1      -2.198  37.318  27.120  1.00  0.00    -0.003 C 
ATOM     32  C   UNL     1      -1.242  38.459  27.462  1.00  0.00     0.004 C 
ENDBRANCH  30  31
ENDBRANCH  29  30
ENDBRANCH  28  29
ENDBRANCH  27  28
ENDBRANCH  26  27
ENDBRANCH  25  26
ENDBRANCH  24  25
ENDBRANCH  23  24
ENDBRANCH  22  23
ENDBRANCH  21  22
ENDBRANCH  20  21
ENDBRANCH  19  20
ENDBRANCH  18  19
ENDBRANCH   1  18
TORSDOF 28
ENDMDL
MODEL 2
REMARK VINA RESULT:     3.383      4.347      8.836
REMARK INTER + INTRA:          11.694
REMARK INTER:                  11.770
REMARK INTRA:                  -0.076
REMARK UNBOUND:                 2.772
REMARK SMILES CCCCCCCCCCCCCCCCCCCCCCCCCCCCCC(=O)[O-]
REMARK SMILES IDX 16 1 17 2 18 3 19 4 20 5 21 6 22 7 23 8 24 9 25 10 26 11
REMARK SMILES IDX 27 12 28 13 29 14 30 15 31 16 32 17 15 18 14 19 13 20 12 21
REMARK SMILES IDX 11 22 10 23 9 24 8 25 7 26 6 27 5 28 4 29 3 30 2 31 1 32
REMARK H PARENT
REMARK Flexibility Score: inf
ROOT
ATOM      1  C   UNL     1      -3.988  34.791  21.876  1.00  0.00     0.000 C 
ENDROOT
BRANCH   1   2
ATOM      2  C   UNL     1      -5.391  35.030  22.467  1.00  0.00     0.000 C 
BRANCH   2   3
ATOM      3  C   UNL     1      -6.089  36.322  21.995  1.00  0.00     0.000 C 
BRANCH   3   4
ATOM      4  C   UNL     1      -5.175  37.329  21.274  1.00  0.00     0.000 C 
BRANCH   4   5
ATOM      5  C   UNL     1      -5.893  38.643  20.923  1.00  0.00     0.000 C 
BRANCH   5   6
ATOM      6  C   UNL     1      -5.683  39.739  21.992  1.00  0.00     0.000 C 
BRANCH   6   7
ATOM      7  C   UNL     1      -4.455  39.498  22.889  1.00  0.00     0.000 C 
BRANCH   7   8
ATOM      8  C   UNL     1      -4.783  39.282  24.378  1.00  0.00     0.000 C 
BRANCH   8   9
ATOM      9  C   UNL     1      -5.371  37.886  24.688  1.00  0.00     0.000 C 
BRANCH   9  10
ATOM     10  C   UNL     1      -4.415  37.010  25.515  1.00  0.00     0.000 C 
BRANCH  10  11
ATOM     11  C   UNL     1      -3.700  37.799  26.624  1.00  0.00     0.000 C 
BRANCH  11  12
ATOM     12  C   UNL     1      -2.340  37.189  27.001  1.00  0.00     0.000 C 
BRANCH  12  13
ATOM     13  C   UNL     1      -2.521  35.861  27.751  1.00  0.00     0.006 C 
BRANCH  13  14
ATOM     14  C   UNL     1      -1.252  35.440  28.505  1.00  0.00     0.053 C 
BRANCH  14  15
ATOM     15  C   UNL     1      -1.494  34.249  29.381  1.00  0.00     0.041 C 
ATOM     16  O   UNL     1      -0.792  33.211  29.249  1.00  0.00    -0.550 OA
ATOM     17  O   UNL     1      -2.482  34.292  30.357  1.00  0.00    -0.550 OA
ENDBRANCH  14  15
ENDBRANCH  13  14
ENDBRANCH  12  13
ENDBRANCH  11  12
ENDBRANCH  10  11
ENDBRANCH   9  10
ENDBRANCH   8   9
ENDBRANCH   7   8
ENDBRANCH   6   7
ENDBRANCH   5   6
ENDBRANCH   4   5
ENDBRANCH   3   4
ENDBRANCH   2   3
ENDBRANCH   1   2
BRANCH   1  18
ATOM     18  C   UNL     1      -3.967  34.364  20.394  1.00  0.00     0.000 C 
BRANCH  18  19
ATOM     19  C   UNL     1      -5.334  34.415  19.689  1.00  0.00     0.000 C 
BRANCH  19  20
ATOM     20  C   UNL     1      -5.221  34.778  18.199  1.00  0.00     0.000 C 
BRANCH  20  21
ATOM     21  C   UNL     1      -3.951  34.215  17.541  1.00  0.00     0.000 C 
BRANCH  21  22
ATOM     22  C   UNL     1      -3.552  34.987  16.273  1.00  0.00     0.000 C 
BRANCH  22  23
ATOM     23  C   UNL     1      -2.063  35.373  16.270  1.00  0.00     0.000 C 
BRANCH  23  24
ATOM     24  C   UNL     1      -1.692  36.251  15.062  1.00  0.00    -0.000 C 
BRANCH  24  25
ATOM     25  C   UNL     1      -2.923  36.875  14.381  1.00  0.00    -0.000 C 
BRANCH  25  26
ATOM     26  C   UNL     1      -3.657  37.953  15.208  1.00  0.00    -0.000 C 
BRANCH  26  27
ATOM     27  C   UNL     1      -3.055  38.252  16.597  1.00  0.00    -0.000 C 
BRANCH  27  28
ATOM     28  C   UNL     1      -3.717  37.488  17.767  1.00  0.00    -0.000 C 
BRANCH  28  29
ATOM     29  C   UNL     1      -3.122  37.821  19.148  1.00  0.00    -0.000 C 
BRANCH  29  30
ATOM     30  C   UNL     1      -1.672  38.339  19.127  1.00  0.00    -0.000 C 
BRANCH  30  31
ATOM     31  C   UNL     1      -0.598  37.250  18.957  1.00  0.00    -0.003 C 
ATOM     32  C   UNL     1       0.417  37.581  17.865  1.00  0.00     0.004 C 
ENDBRANCH  30  31
ENDBRANCH  29  30
ENDBRANCH  28  29
ENDBRANCH  27  28
ENDBRANCH  26  27
ENDBRANCH  25  26
ENDBRANCH  24  25
ENDBRANCH  23  24
ENDBRANCH  22  23
ENDBRANCH  21  22
ENDBRANCH  20  21
ENDBRANCH  19  20
ENDBRANCH  18  19
ENDBRANCH   1  18
TORSDOF 28
ENDMDL
MODEL 3
REMARK VINA RESULT:     3.412      4.542      9.716
REMARK INTER + INTRA:          11.768
REMARK INTER:                  11.744
REMARK INTRA:                   0.025
REMARK UNBOUND:                 2.772
REMARK SMILES CCCCCCCCCCCCCCCCCCCCCCCCCCCCCC(=O)[O-]
REMARK SMILES IDX 16 1 17 2 18 3 19 4 20 5 21 6 22 7 23 8 24 9 25 10 26 11
REMARK SMILES IDX 27 12 28 13 29 14 30 15 31 16 32 17 15 18 14 19 13 20 12 21
REMARK SMILES IDX 11 22 10 23 9 24 8 25 7 26 6 27 5 28 4 29 3 30 2 31 1 32
REMARK H PARENT
REMARK Flexibility Score: inf
ROOT
ATOM      1  C   UNL     1      -3.877  36.354  21.346  1.00  0.00     0.000 C 
ENDROOT
BRANCH   1   2
ATOM      2  C   UNL     1      -4.745  37.382  20.594  1.00  0.00     0.000 C 
BRANCH   2   3
ATOM      3  C   UNL     1      -4.404  38.859  20.877  1.00  0.00     0.000 C 
BRANCH   3   4
ATOM      4  C   UNL     1      -4.106  39.186  22.351  1.00  0.00     0.000 C 
BRANCH   4   5
ATOM      5  C   UNL     1      -5.297  39.842  23.071  1.00  0.00     0.000 C 
BRANCH   5   6
ATOM      6  C   UNL     1      -5.817  38.993  24.253  1.00  0.00     0.000 C 
BRANCH   6   7
ATOM      7  C   UNL     1      -5.967  37.498  23.920  1.00  0.00     0.000 C 
BRANCH   7   8
ATOM      8  C   UNL     1      -5.343  36.546  24.955  1.00  0.00     0.000 C 
BRANCH   8   9
ATOM      9  C   UNL     1      -4.860  37.256  26.241  1.00  0.00     0.000 C 
BRANCH   9  10
ATOM     10  C   UNL     1      -3.704  38.236  25.978  1.00  0.00     0.000 C 
BRANCH  10  11
ATOM     11  C   UNL     1      -2.546  38.067  26.975  1.00  0.00     0.000 C 
BRANCH  11  12
ATOM     12  C   UNL     1      -1.978  36.639  26.984  1.00  0.00     0.000 C 
BRANCH  12  13
ATOM     13  C   UNL     1      -1.616  36.199  28.410  1.00  0.00     0.006 C 
BRANCH  13  14
ATOM     14  C   UNL     1      -2.202  34.826  28.763  1.00  0.00     0.053 C 
BRANCH  14  15
ATOM     15  C   UNL     1      -1.325  34.075  29.718  1.00  0.00     0.041 C 
ATOM     16  O   UNL     1      -1.834  33.416  30.663  1.00  0.00    -0.550 OA
ATOM     17  O   UNL     1       0.054  34.085  29.551  1.00  0.00    -0.550 OA
ENDBRANCH  14  15
ENDBRANCH  13  14
ENDBRANCH  12  13
ENDBRANCH  11  12
ENDBRANCH  10  11
ENDBRANCH   9  10
ENDBRANCH   8   9
ENDBRANCH   7   8
ENDBRANCH   6   7
ENDBRANCH   5   6
ENDBRANCH   4   5
ENDBRANCH   3   4
ENDBRANCH   2   3
ENDBRANCH   1   2
BRANCH   1  18
ATOM     18  C   UNL     1      -4.632  35.109  21.853  1.00  0.00     0.000 C 
BRANCH  18  19
ATOM     19  C   UNL     1      -6.047  34.931  21.274  1.00  0.00     0.000 C 
BRANCH  19  20
ATOM     20  C   UNL     1      -6.105  33.870  20.163  1.00  0.00     0.000 C 
BRANCH  20  21
ATOM     21  C   UNL     1      -5.936  34.466  18.758  1.00  0.00     0.000 C 
BRANCH  21  22
ATOM     22  C   UNL     1      -4.468  34.493  18.301  1.00  0.00     0.000 C 
BRANCH  22  23
ATOM     23  C   UNL     1      -4.197  35.602  17.271  1.00  0.00     0.000 C 
BRANCH  23  24
ATOM     24  C   UNL     1      -3.820  36.936  17.938  1.00  0.00    -0.000 C 
BRANCH  24  25
ATOM     25  C   UNL     1      -2.351  37.325  17.695  1.00  0.00    -0.000 C 
BRANCH  25  26
ATOM     26  C   UNL     1      -1.874  37.216  16.231  1.00  0.00    -0.000 C 
BRANCH  26  27
ATOM     27  C   UNL     1      -2.393  35.992  15.450  1.00  0.00    -0.000 C 
BRANCH  27  28
ATOM     28  C   UNL     1      -3.631  36.266  14.564  1.00  0.00    -0.000 C 
BRANCH  28  29
ATOM     29  C   UNL     1      -3.615  37.645  13.878  1.00  0.00    -0.000 C 
BRANCH  29  30
ATOM     30  C   UNL     1      -4.785  38.574  14.250  1.00  0.00    -0.000 C 
BRANCH  30  31
ATOM     31  C   UNL     1      -4.413  40.060  14.390  1.00  0.00    -0.003 C 
ATOM     32  C   UNL     1      -5.505  40.998  13.877  1.00  0.00     0.004 C 
ENDBRANCH  30  31
ENDBRANCH  29  30
ENDBRANCH  28  29
ENDBRANCH  27  28
ENDBRANCH  26  27
ENDBRANCH  25  26
ENDBRANCH  24  25
ENDBRANCH  23  24
ENDBRANCH  22  23
ENDBRANCH  21  22
ENDBRANCH  20  21
ENDBRANCH  19  20
ENDBRANCH  18  19
ENDBRANCH   1  18
TORSDOF 28
ENDMDL
MODEL 4
REMARK VINA RESULT:     3.511      2.750      4.928
REMARK INTER + INTRA:          12.030
REMARK INTER:                  11.889
REMARK INTRA:                   0.141
REMARK UNBOUND:                 2.772
REMARK SMILES CCCCCCCCCCCCCCCCCCCCCCCCCCCCCC(=O)[O-]
REMARK SMILES IDX 16 1 17 2 18 3 19 4 20 5 21 6 22 7 23 8 24 9 25 10 26 11
REMARK SMILES IDX 27 12 28 13 29 14 30 15 31 16 32 17 15 18 14 19 13 20 12 21
REMARK SMILES IDX 11 22 10 23 9 24 8 25 7 26 6 27 5 28 4 29 3 30 2 31 1 32
REMARK H PARENT
REMARK Flexibility Score: inf
ROOT
ATOM      1  C   UNL     1      -3.490  38.369  19.697  1.00  0.00     0.000 C 
ENDROOT
BRANCH   1   2
ATOM      2  C   UNL     1      -2.775  37.020  19.901  1.00  0.00     0.000 C 
BRANCH   2   3
ATOM      3  C   UNL     1      -1.237  37.071  19.800  1.00  0.00     0.000 C 
BRANCH   3   4
ATOM      4  C   UNL     1      -0.691  37.915  18.634  1.00  0.00     0.000 C 
BRANCH   4   5
ATOM      5  C   UNL     1      -1.446  37.674  17.316  1.00  0.00     0.000 C 
BRANCH   5   6
ATOM      6  C   UNL     1      -1.048  36.342  16.639  1.00  0.00     0.000 C 
BRANCH   6   7
ATOM      7  C   UNL     1      -2.025  35.896  15.535  1.00  0.00     0.000 C 
BRANCH   7   8
ATOM      8  C   UNL     1      -3.357  36.666  15.510  1.00  0.00     0.000 C 
BRANCH   8   9
ATOM      9  C   UNL     1      -4.438  36.068  16.440  1.00  0.00     0.000 C 
BRANCH   9  10
ATOM     10  C   UNL     1      -3.857  35.082  17.467  1.00  0.00     0.000 C 
BRANCH  10  11
ATOM     11  C   UNL     1      -4.931  34.173  18.087  1.00  0.00     0.000 C 
BRANCH  11  12
ATOM     12  C   UNL     1      -6.043  34.967  18.790  1.00  0.00     0.000 C 
BRANCH  12  13
ATOM     13  C   UNL     1      -5.866  34.934  20.315  1.00  0.00     0.006 C 
BRANCH  13  14
ATOM     14  C   UNL     1      -4.403  35.133  20.736  1.00  0.00     0.053 C 
BRANCH  14  15
ATOM     15  C   UNL     1      -4.059  34.326  21.951  1.00  0.00     0.041 C 
ATOM     16  O   UNL     1      -4.961  33.984  22.762  1.00  0.00    -0.550 OA
ATOM     17  O   UNL     1      -2.746  33.932  22.177  1.00  0.00    -0.550 OA
ENDBRANCH  14  15
ENDBRANCH  13  14
ENDBRANCH  12  13
ENDBRANCH  11  12
ENDBRANCH  10  11
ENDBRANCH   9  10
ENDBRANCH   8   9
ENDBRANCH   7   8
ENDBRANCH   6   7
ENDBRANCH   5   6
ENDBRANCH   4   5
ENDBRANCH   3   4
ENDBRANCH   2   3
ENDBRANCH   1   2
BRANCH   1  18
ATOM     18  C   UNL     1      -4.987  38.268  19.338  1.00  0.00     0.000 C 
BRANCH  18  19
ATOM     19  C   UNL     1      -5.947  38.390  20.534  1.00  0.00     0.000 C 
BRANCH  19  20
ATOM     20  C   UNL     1      -5.837  39.746  21.249  1.00  0.00     0.000 C 
BRANCH  20  21
ATOM     21  C   UNL     1      -4.771  39.753  22.356  1.00  0.00     0.000 C 
BRANCH  21  22
ATOM     22  C   UNL     1      -5.092  38.764  23.489  1.00  0.00     0.000 C 
BRANCH  22  23
ATOM     23  C   UNL     1      -5.926  37.568  23.001  1.00  0.00     0.000 C 
BRANCH  23  24
ATOM     24  C   UNL     1      -5.969  36.428  24.033  1.00  0.00    -0.000 C 
BRANCH  24  25
ATOM     25  C   UNL     1      -4.871  36.555  25.104  1.00  0.00    -0.000 C 
BRANCH  25  26
ATOM     26  C   UNL     1      -5.117  37.643  26.172  1.00  0.00    -0.000 C 
BRANCH  26  27
ATOM     27  C   UNL     1      -3.888  38.035  27.019  1.00  0.00    -0.000 C 
BRANCH  27  28
ATOM     28  C   UNL     1      -2.565  37.359  26.592  1.00  0.00    -0.000 C 
BRANCH  28  29
ATOM     29  C   UNL     1      -1.775  36.737  27.759  1.00  0.00    -0.000 C 
BRANCH  29  30
ATOM     30  C   UNL     1      -2.152  35.283  28.101  1.00  0.00    -0.000 C 
BRANCH  30  31
ATOM     31  C   UNL     1      -1.278  34.625  29.183  1.00  0.00    -0.003 C 
ATOM     32  C   UNL     1      -2.093  34.053  30.341  1.00  0.00     0.004 C 
ENDBRANCH  30  31
ENDBRANCH  29  30
ENDBRANCH  28  29
ENDBRANCH  27  28
ENDBRANCH  26  27
ENDBRANCH  25  26
ENDBRANCH  24  25
ENDBRANCH  23  24
ENDBRANCH  22  23
ENDBRANCH  21  22
ENDBRANCH  20  21
ENDBRANCH  19  20
ENDBRANCH  18  19
ENDBRANCH   1  18
TORSDOF 28
ENDMDL
MODEL 5
REMARK VINA RESULT:     3.515      2.134      3.530
REMARK INTER + INTRA:          12.042
REMARK INTER:                   9.949
REMARK INTRA:                   2.093
REMARK UNBOUND:                 2.772
REMARK SMILES CCCCCCCCCCCCCCCCCCCCCCCCCCCCCC(=O)[O-]
REMARK SMILES IDX 16 1 17 2 18 3 19 4 20 5 21 6 22 7 23 8 24 9 25 10 26 11
REMARK SMILES IDX 27 12 28 13 29 14 30 15 31 16 32 17 15 18 14 19 13 20 12 21
REMARK SMILES IDX 11 22 10 23 9 24 8 25 7 26 6 27 5 28 4 29 3 30 2 31 1 32
REMARK H PARENT
REMARK Flexibility Score: inf
ROOT
ATOM      1  C   UNL     1      -3.896  35.250  21.735  1.00  0.00     0.000 C 
ENDROOT
BRANCH   1   2
ATOM      2  C   UNL     1      -3.875  34.721  20.287  1.00  0.00     0.000 C 
BRANCH   2   3
ATOM      3  C   UNL     1      -5.181  34.933  19.494  1.00  0.00     0.000 C 
BRANCH   3   4
ATOM      4  C   UNL     1      -5.097  34.581  17.998  1.00  0.00     0.000 C 
BRANCH   4   5
ATOM      5  C   UNL     1      -3.652  34.366  17.514  1.00  0.00     0.000 C 
BRANCH   5   6
ATOM      6  C   UNL     1      -3.423  34.889  16.078  1.00  0.00     0.000 C 
BRANCH   6   7
ATOM      7  C   UNL     1      -2.010  35.453  15.845  1.00  0.00     0.000 C 
BRANCH   7   8
ATOM      8  C   UNL     1      -1.835  36.216  14.520  1.00  0.00     0.000 C 
BRANCH   8   9
ATOM      9  C   UNL     1      -3.163  36.736  13.923  1.00  0.00     0.000 C 
BRANCH   9  10
ATOM     10  C   UNL     1      -3.591  38.088  14.518  1.00  0.00     0.000 C 
BRANCH  10  11
ATOM     11  C   UNL     1      -4.091  37.966  15.966  1.00  0.00     0.000 C 
BRANCH  11  12
ATOM     12  C   UNL     1      -2.986  37.522  16.938  1.00  0.00     0.000 C 
BRANCH  12  13
ATOM     13  C   UNL     1      -3.312  37.950  18.376  1.00  0.00     0.006 C 
BRANCH  13  14
ATOM     14  C   UNL     1      -2.233  37.508  19.374  1.00  0.00     0.053 C 
BRANCH  14  15
ATOM     15  C   UNL     1      -0.859  37.892  18.913  1.00  0.00     0.041 C 
ATOM     16  O   UNL     1       0.050  37.024  18.837  1.00  0.00    -0.550 OA
ATOM     17  O   UNL     1      -0.589  39.205  18.548  1.00  0.00    -0.550 OA
ENDBRANCH  14  15
ENDBRANCH  13  14
ENDBRANCH  12  13
ENDBRANCH  11  12
ENDBRANCH  10  11
ENDBRANCH   9  10
ENDBRANCH   8   9
ENDBRANCH   7   8
ENDBRANCH   6   7
ENDBRANCH   5   6
ENDBRANCH   4   5
ENDBRANCH   3   4
ENDBRANCH   2   3
ENDBRANCH   1   2
BRANCH   1  18
ATOM     18  C   UNL     1      -5.291  35.308  22.390  1.00  0.00     0.000 C 
BRANCH  18  19
ATOM     19  C   UNL     1      -6.082  36.597  22.109  1.00  0.00     0.000 C 
BRANCH  19  20
ATOM     20  C   UNL     1      -5.877  37.121  20.678  1.00  0.00     0.000 C 
BRANCH  20  21
ATOM     21  C   UNL     1      -5.450  38.596  20.637  1.00  0.00     0.000 C 
BRANCH  21  22
ATOM     22  C   UNL     1      -5.938  39.385  21.864  1.00  0.00     0.000 C 
BRANCH  22  23
ATOM     23  C   UNL     1      -4.775  39.897  22.729  1.00  0.00     0.000 C 
BRANCH  23  24
ATOM     24  C   UNL     1      -4.289  38.841  23.735  1.00  0.00    -0.000 C 
BRANCH  24  25
ATOM     25  C   UNL     1      -5.437  38.235  24.561  1.00  0.00    -0.000 C 
BRANCH  25  26
ATOM     26  C   UNL     1      -5.000  37.390  25.777  1.00  0.00    -0.000 C 
BRANCH  26  27
ATOM     27  C   UNL     1      -3.488  37.096  25.876  1.00  0.00    -0.000 C 
BRANCH  27  28
ATOM     28  C   UNL     1      -2.826  37.551  27.196  1.00  0.00    -0.000 C 
BRANCH  28  29
ATOM     29  C   UNL     1      -1.700  36.620  27.684  1.00  0.00    -0.000 C 
BRANCH  29  30
ATOM     30  C   UNL     1      -2.170  35.272  28.261  1.00  0.00    -0.000 C 
BRANCH  30  31
ATOM     31  C   UNL     1      -1.303  34.719  29.405  1.00  0.00    -0.003 C 
ATOM     32  C   UNL     1      -2.081  33.813  30.357  1.00  0.00     0.004 C 
ENDBRANCH  30  31
ENDBRANCH  29  30
ENDBRANCH  28  29
ENDBRANCH  27  28
ENDBRANCH  26  27
ENDBRANCH  25  26
ENDBRANCH  24  25
ENDBRANCH  23  24
ENDBRANCH  22  23
ENDBRANCH  21  22
ENDBRANCH  20  21
ENDBRANCH  19  20
ENDBRANCH  18  19
ENDBRANCH   1  18
TORSDOF 28
ENDMDL
MODEL 6
REMARK VINA RESULT:     3.589      1.958      3.092
REMARK INTER + INTRA:          12.235
REMARK INTER:                  10.214
REMARK INTRA:                   2.021
REMARK UNBOUND:                 2.772
REMARK SMILES CCCCCCCCCCCCCCCCCCCCCCCCCCCCCC(=O)[O-]
REMARK SMILES IDX 16 1 17 2 18 3 19 4 20 5 21 6 22 7 23 8 24 9 25 10 26 11
REMARK SMILES IDX 27 12 28 13 29 14 30 15 31 16 32 17 15 18 14 19 13 20 12 21
REMARK SMILES IDX 11 22 10 23 9 24 8 25 7 26 6 27 5 28 4 29 3 30 2 31 1 32
REMARK H PARENT
REMARK Flexibility Score: inf
ROOT
ATOM      1  C   UNL     1      -3.258  34.663  21.600  1.00  0.00     0.000 C 
ENDROOT
BRANCH   1   2
ATOM      2  C   UNL     1      -3.897  35.082  20.262  1.00  0.00     0.000 C 
BRANCH   2   3
ATOM      3  C   UNL     1      -4.476  33.925  19.422  1.00  0.00     0.000 C 
BRANCH   3   4
ATOM      4  C   UNL     1      -5.267  34.360  18.175  1.00  0.00     0.000 C 
BRANCH   4   5
ATOM      5  C   UNL     1      -4.481  35.328  17.275  1.00  0.00     0.000 C 
BRANCH   5   6
ATOM      6  C   UNL     1      -3.345  34.626  16.496  1.00  0.00     0.000 C 
BRANCH   6   7
ATOM      7  C   UNL     1      -2.171  35.557  16.144  1.00  0.00     0.000 C 
BRANCH   7   8
ATOM      8  C   UNL     1      -2.125  36.001  14.671  1.00  0.00     0.000 C 
BRANCH   8   9
ATOM      9  C   UNL     1      -3.409  36.722  14.199  1.00  0.00     0.000 C 
BRANCH   9  10
ATOM     10  C   UNL     1      -3.753  37.946  15.063  1.00  0.00     0.000 C 
BRANCH  10  11
ATOM     11  C   UNL     1      -2.847  38.071  16.298  1.00  0.00     0.000 C 
BRANCH  11  12
ATOM     12  C   UNL     1      -3.636  38.036  17.617  1.00  0.00     0.000 C 
BRANCH  12  13
ATOM     13  C   UNL     1      -2.690  38.035  18.827  1.00  0.00     0.006 C 
BRANCH  13  14
ATOM     14  C   UNL     1      -1.641  36.918  18.744  1.00  0.00     0.053 C 
BRANCH  14  15
ATOM     15  C   UNL     1      -0.245  37.464  18.769  1.00  0.00     0.041 C 
ATOM     16  O   UNL     1       0.134  38.280  17.888  1.00  0.00    -0.550 OA
ATOM     17  O   UNL     1       0.631  37.087  19.779  1.00  0.00    -0.550 OA
ENDBRANCH  14  15
ENDBRANCH  13  14
ENDBRANCH  12  13
ENDBRANCH  11  12
ENDBRANCH  10  11
ENDBRANCH   9  10
ENDBRANCH   8   9
ENDBRANCH   7   8
ENDBRANCH   6   7
ENDBRANCH   5   6
ENDBRANCH   4   5
ENDBRANCH   3   4
ENDBRANCH   2   3
ENDBRANCH   1   2
BRANCH   1  18
ATOM     18  C   UNL     1      -4.195  33.906  22.563  1.00  0.00     0.000 C 
BRANCH  18  19
ATOM     19  C   UNL     1      -5.434  34.699  23.014  1.00  0.00     0.000 C 
BRANCH  19  20
ATOM     20  C   UNL     1      -6.125  35.434  21.854  1.00  0.00     0.000 C 
BRANCH  20  21
ATOM     21  C   UNL     1      -5.895  36.953  21.887  1.00  0.00     0.000 C 
BRANCH  21  22
ATOM     22  C   UNL     1      -5.754  37.559  20.481  1.00  0.00     0.000 C 
BRANCH  22  23
ATOM     23  C   UNL     1      -5.775  39.096  20.504  1.00  0.00     0.000 C 
BRANCH  23  24
ATOM     24  C   UNL     1      -5.695  39.659  21.934  1.00  0.00    -0.000 C 
BRANCH  24  25
ATOM     25  C   UNL     1      -4.281  39.557  22.533  1.00  0.00    -0.000 C 
BRANCH  25  26
ATOM     26  C   UNL     1      -4.185  38.778  23.862  1.00  0.00    -0.000 C 
BRANCH  26  27
ATOM     27  C   UNL     1      -5.530  38.453  24.545  1.00  0.00    -0.000 C 
BRANCH  27  28
ATOM     28  C   UNL     1      -5.465  37.326  25.601  1.00  0.00    -0.000 C 
BRANCH  28  29
ATOM     29  C   UNL     1      -4.046  36.778  25.845  1.00  0.00    -0.000 C 
BRANCH  29  30
ATOM     30  C   UNL     1      -3.000  37.833  26.252  1.00  0.00    -0.000 C 
BRANCH  30  31
ATOM     31  C   UNL     1      -2.245  37.526  27.558  1.00  0.00    -0.003 C 
ATOM     32  C   UNL     1      -1.985  36.034  27.758  1.00  0.00     0.004 C 
ENDBRANCH  30  31
ENDBRANCH  29  30
ENDBRANCH  28  29
ENDBRANCH  27  28
ENDBRANCH  26  27
ENDBRANCH  25  26
ENDBRANCH  24  25
ENDBRANCH  23  24
ENDBRANCH  22  23
ENDBRANCH  21  22
ENDBRANCH  20  21
ENDBRANCH  19  20
ENDBRANCH  18  19
ENDBRANCH   1  18
TORSDOF 28
ENDMDL
MODEL 7
REMARK VINA RESULT:     3.750      4.393      8.637
REMARK INTER + INTRA:          12.660
REMARK INTER:                  13.637
REMARK INTRA:                  -0.977
REMARK UNBOUND:                 2.772
REMARK SMILES CCCCCCCCCCCCCCCCCCCCCCCCCCCCCC(=O)[O-]
REMARK SMILES IDX 16 1 17 2 18 3 19 4 20 5 21 6 22 7 23 8 24 9 25 10 26 11
REMARK SMILES IDX 27 12 28 13 29 14 30 15 31 16 32 17 15 18 14 19 13 20 12 21
REMARK SMILES IDX 11 22 10 23 9 24 8 25 7 26 6 27 5 28 4 29 3 30 2 31 1 32
REMARK H PARENT
REMARK Flexibility Score: inf
ROOT
ATOM      1  C   UNL     1      -4.952  34.241  17.904  1.00  0.00     0.000 C 
ENDROOT
BRANCH   1   2
ATOM      2  C   UNL     1      -3.856  34.386  18.977  1.00  0.00     0.000 C 
BRANCH   2   3
ATOM      3  C   UNL     1      -4.371  34.606  20.414  1.00  0.00     0.000 C 
BRANCH   3   4
ATOM      4  C   UNL     1      -5.846  35.035  20.517  1.00  0.00     0.000 C 
BRANCH   4   5
ATOM      5  C   UNL     1      -6.125  35.927  21.739  1.00  0.00     0.000 C 
BRANCH   5   6
ATOM      6  C   UNL     1      -5.107  35.707  22.881  1.00  0.00     0.000 C 
BRANCH   6   7
ATOM      7  C   UNL     1      -5.725  35.085  24.146  1.00  0.00     0.000 C 
BRANCH   7   8
ATOM      8  C   UNL     1      -5.616  35.959  25.408  1.00  0.00     0.000 C 
BRANCH   8   9
ATOM      9  C   UNL     1      -5.331  37.449  25.109  1.00  0.00     0.000 C 
BRANCH   9  10
ATOM     10  C   UNL     1      -4.009  37.935  25.727  1.00  0.00     0.000 C 
BRANCH  10  11
ATOM     11  C   UNL     1      -3.574  37.089  26.934  1.00  0.00     0.000 C 
BRANCH  11  12
ATOM     12  C   UNL     1      -2.204  37.512  27.489  1.00  0.00     0.000 C 
BRANCH  12  13
ATOM     13  C   UNL     1      -1.379  36.287  27.912  1.00  0.00     0.006 C 
BRANCH  13  14
ATOM     14  C   UNL     1      -2.262  35.126  28.389  1.00  0.00     0.053 C 
BRANCH  14  15
ATOM     15  C   UNL     1      -1.611  34.348  29.491  1.00  0.00     0.041 C 
ATOM     16  O   UNL     1      -2.065  34.407  30.664  1.00  0.00    -0.550 OA
ATOM     17  O   UNL     1      -0.513  33.541  29.219  1.00  0.00    -0.550 OA
ENDBRANCH  14  15
ENDBRANCH  13  14
ENDBRANCH  12  13
ENDBRANCH  11  12
ENDBRANCH  10  11
ENDBRANCH   9  10
ENDBRANCH   8   9
ENDBRANCH   7   8
ENDBRANCH   6   7
ENDBRANCH   5   6
ENDBRANCH   4   5
ENDBRANCH   3   4
ENDBRANCH   2   3
ENDBRANCH   1   2
BRANCH   1  18
ATOM     18  C   UNL     1      -5.057  35.420  16.914  1.00  0.00     0.000 C 
BRANCH  18  19
ATOM     19  C   UNL     1      -3.764  36.237  16.745  1.00  0.00     0.000 C 
BRANCH  19  20
ATOM     20  C   UNL     1      -3.627  36.851  15.342  1.00  0.00     0.000 C 
BRANCH  20  21
ATOM     21  C   UNL     1      -2.216  36.692  14.755  1.00  0.00     0.000 C 
BRANCH  21  22
ATOM     22  C   UNL     1      -1.311  35.807  15.629  1.00  0.00     0.000 C 
BRANCH  22  23
ATOM     23  C   UNL     1      -1.403  36.172  17.119  1.00  0.00     0.000 C 
BRANCH  23  24
ATOM     24  C   UNL     1      -0.588  37.430  17.462  1.00  0.00    -0.000 C 
BRANCH  24  25
ATOM     25  C   UNL     1      -1.034  38.085  18.782  1.00  0.00    -0.000 C 
BRANCH  25  26
ATOM     26  C   UNL     1      -2.344  37.530  19.382  1.00  0.00    -0.000 C 
BRANCH  26  27
ATOM     27  C   UNL     1      -3.523  38.524  19.444  1.00  0.00    -0.000 C 
BRANCH  27  28
ATOM     28  C   UNL     1      -4.917  37.867  19.565  1.00  0.00    -0.000 C 
BRANCH  28  29
ATOM     29  C   UNL     1      -6.064  38.871  19.785  1.00  0.00    -0.000 C 
BRANCH  29  30
ATOM     30  C   UNL     1      -5.772  39.985  20.807  1.00  0.00    -0.000 C 
BRANCH  30  31
ATOM     31  C   UNL     1      -5.760  39.529  22.276  1.00  0.00    -0.003 C 
ATOM     32  C   UNL     1      -4.350  39.316  22.823  1.00  0.00     0.004 C 
ENDBRANCH  30  31
ENDBRANCH  29  30
ENDBRANCH  28  29
ENDBRANCH  27  28
ENDBRANCH  26  27
ENDBRANCH  25  26
ENDBRANCH  24  25
ENDBRANCH  23  24
ENDBRANCH  22  23
ENDBRANCH  21  22
ENDBRANCH  20  21
ENDBRANCH  19  20
ENDBRANCH  18  19
ENDBRANCH   1  18
TORSDOF 28
ENDMDL
MODEL 8
REMARK VINA RESULT:     4.344      4.360      8.751
REMARK INTER + INTRA:          14.226
REMARK INTER:                  13.325
REMARK INTRA:                   0.901
REMARK UNBOUND:                 2.772
REMARK SMILES CCCCCCCCCCCCCCCCCCCCCCCCCCCCCC(=O)[O-]
REMARK SMILES IDX 16 1 17 2 18 3 19 4 20 5 21 6 22 7 23 8 24 9 25 10 26 11
REMARK SMILES IDX 27 12 28 13 29 14 30 15 31 16 32 17 15 18 14 19 13 20 12 21
REMARK SMILES IDX 11 22 10 23 9 24 8 25 7 26 6 27 5 28 4 29 3 30 2 31 1 32
REMARK H PARENT
REMARK Flexibility Score: inf
ROOT
ATOM      1  C   UNL     1      -5.887  36.363  20.274  1.00  0.00     0.000 C 
ENDROOT
BRANCH   1   2
ATOM      2  C   UNL     1      -5.936  37.899  20.384  1.00  0.00     0.000 C 
BRANCH   2   3
ATOM      3  C   UNL     1      -4.561  38.593  20.476  1.00  0.00     0.000 C 
BRANCH   3   4
ATOM      4  C   UNL     1      -4.129  38.992  21.898  1.00  0.00     0.000 C 
BRANCH   4   5
ATOM      5  C   UNL     1      -5.291  39.536  22.747  1.00  0.00     0.000 C 
BRANCH   5   6
ATOM      6  C   UNL     1      -5.701  38.571  23.882  1.00  0.00     0.000 C 
BRANCH   6   7
ATOM      7  C   UNL     1      -6.000  37.141  23.398  1.00  0.00     0.000 C 
BRANCH   7   8
ATOM      8  C   UNL     1      -6.124  36.097  24.522  1.00  0.00     0.000 C 
BRANCH   8   9
ATOM      9  C   UNL     1      -5.564  36.577  25.881  1.00  0.00     0.000 C 
BRANCH   9  10
ATOM     10  C   UNL     1      -4.224  37.319  25.740  1.00  0.00     0.000 C 
BRANCH  10  11
ATOM     11  C   UNL     1      -3.517  37.525  27.090  1.00  0.00     0.000 C 
BRANCH  11  12
ATOM     12  C   UNL     1      -1.987  37.562  26.957  1.00  0.00     0.000 C 
BRANCH  12  13
ATOM     13  C   UNL     1      -1.322  36.618  27.970  1.00  0.00     0.006 C 
BRANCH  13  14
ATOM     14  C   UNL     1      -2.151  35.350  28.215  1.00  0.00     0.053 C 
BRANCH  14  15
ATOM     15  C   UNL     1      -1.582  34.520  29.327  1.00  0.00     0.041 C 
ATOM     16  O   UNL     1      -0.414  34.059  29.241  1.00  0.00    -0.550 OA
ATOM     17  O   UNL     1      -2.337  34.274  30.467  1.00  0.00    -0.550 OA
ENDBRANCH  14  15
ENDBRANCH  13  14
ENDBRANCH  12  13
ENDBRANCH  11  12
ENDBRANCH  10  11
ENDBRANCH   9  10
ENDBRANCH   8   9
ENDBRANCH   7   8
ENDBRANCH   6   7
ENDBRANCH   5   6
ENDBRANCH   4   5
ENDBRANCH   3   4
ENDBRANCH   2   3
ENDBRANCH   1   2
BRANCH   1  18
ATOM     18  C   UNL     1      -5.964  35.808  18.837  1.00  0.00     0.000 C 
BRANCH  18  19
ATOM     19  C   UNL     1      -5.552  34.332  18.693  1.00  0.00     0.000 C 
BRANCH  19  20
ATOM     20  C   UNL     1      -4.531  34.108  17.565  1.00  0.00     0.000 C 
BRANCH  20  21
ATOM     21  C   UNL     1      -3.920  35.417  17.043  1.00  0.00     0.000 C 
BRANCH  21  22
ATOM     22  C   UNL     1      -2.887  35.183  15.928  1.00  0.00     0.000 C 
BRANCH  22  23
ATOM     23  C   UNL     1      -2.996  36.225  14.803  1.00  0.00     0.000 C 
BRANCH  23  24
ATOM     24  C   UNL     1      -3.443  37.601  15.326  1.00  0.00    -0.000 C 
BRANCH  24  25
ATOM     25  C   UNL     1      -2.904  37.904  16.735  1.00  0.00    -0.000 C 
BRANCH  25  26
ATOM     26  C   UNL     1      -1.521  37.297  17.056  1.00  0.00    -0.000 C 
BRANCH  26  27
ATOM     27  C   UNL     1      -0.830  37.844  18.322  1.00  0.00    -0.000 C 
BRANCH  27  28
ATOM     28  C   UNL     1      -1.606  37.605  19.638  1.00  0.00    -0.000 C 
BRANCH  28  29
ATOM     29  C   UNL     1      -2.316  36.239  19.706  1.00  0.00    -0.000 C 
BRANCH  29  30
ATOM     30  C   UNL     1      -2.754  35.801  21.115  1.00  0.00    -0.000 C 
BRANCH  30  31
ATOM     31  C   UNL     1      -3.379  34.397  21.192  1.00  0.00    -0.003 C 
ATOM     32  C   UNL     1      -4.161  34.162  22.483  1.00  0.00     0.004 C 
ENDBRANCH  30  31
ENDBRANCH  29  30
ENDBRANCH  28  29
ENDBRANCH  27  28
ENDBRANCH  26  27
ENDBRANCH  25  26
ENDBRANCH  24  25
ENDBRANCH  23  24
ENDBRANCH  22  23
ENDBRANCH  21  22
ENDBRANCH  20  21
ENDBRANCH  19  20
ENDBRANCH  18  19
ENDBRANCH   1  18
TORSDOF 28
ENDMDL
MODEL 9
REMARK VINA RESULT:     4.438      2.273      3.805
REMARK INTER + INTRA:          14.475
REMARK INTER:                  13.598
REMARK INTRA:                   0.877
REMARK UNBOUND:                 2.772
REMARK SMILES CCCCCCCCCCCCCCCCCCCCCCCCCCCCCC(=O)[O-]
REMARK SMILES IDX 16 1 17 2 18 3 19 4 20 5 21 6 22 7 23 8 24 9 25 10 26 11
REMARK SMILES IDX 27 12 28 13 29 14 30 15 31 16 32 17 15 18 14 19 13 20 12 21
REMARK SMILES IDX 11 22 10 23 9 24 8 25 7 26 6 27 5 28 4 29 3 30 2 31 1 32
REMARK H PARENT
REMARK Flexibility Score: inf
ROOT
ATOM      1  C   UNL     1      -3.926  36.567  21.665  1.00  0.00     0.000 C 
ENDROOT
BRANCH   1   2
ATOM      2  C   UNL     1      -5.277  36.493  22.402  1.00  0.00     0.000 C 
BRANCH   2   3
ATOM      3  C   UNL     1      -5.627  35.111  22.991  1.00  0.00     0.000 C 
BRANCH   3   4
ATOM      4  C   UNL     1      -4.765  33.946  22.472  1.00  0.00     0.000 C 
BRANCH   4   5
ATOM      5  C   UNL     1      -4.658  33.918  20.937  1.00  0.00     0.000 C 
BRANCH   5   6
ATOM      6  C   UNL     1      -5.916  34.489  20.244  1.00  0.00     0.000 C 
BRANCH   6   7
ATOM      7  C   UNL     1      -5.626  35.140  18.879  1.00  0.00     0.000 C 
BRANCH   7   8
ATOM      8  C   UNL     1      -4.814  34.261  17.910  1.00  0.00     0.000 C 
BRANCH   8   9
ATOM      9  C   UNL     1      -3.977  35.069  16.892  1.00  0.00     0.000 C 
BRANCH   9  10
ATOM     10  C   UNL     1      -4.304  36.572  16.916  1.00  0.00     0.000 C 
BRANCH  10  11
ATOM     11  C   UNL     1      -3.383  37.392  15.998  1.00  0.00     0.000 C 
BRANCH  11  12
ATOM     12  C   UNL     1      -2.200  36.571  15.461  1.00  0.00     0.000 C 
BRANCH  12  13
ATOM     13  C   UNL     1      -1.018  36.600  16.442  1.00  0.00     0.006 C 
BRANCH  13  14
ATOM     14  C   UNL     1      -1.476  36.575  17.906  1.00  0.00     0.053 C 
BRANCH  14  15
ATOM     15  C   UNL     1      -0.752  37.595  18.733  1.00  0.00     0.041 C 
ATOM     16  O   UNL     1       0.229  37.254  19.445  1.00  0.00    -0.550 OA
ATOM     17  O   UNL     1      -1.149  38.926  18.699  1.00  0.00    -0.550 OA
ENDBRANCH  14  15
ENDBRANCH  13  14
ENDBRANCH  12  13
ENDBRANCH  11  12
ENDBRANCH  10  11
ENDBRANCH   9  10
ENDBRANCH   8   9
ENDBRANCH   7   8
ENDBRANCH   6   7
ENDBRANCH   5   6
ENDBRANCH   4   5
ENDBRANCH   3   4
ENDBRANCH   2   3
ENDBRANCH   1   2
BRANCH   1  18
ATOM     18  C   UNL     1      -3.733  37.814  20.779  1.00  0.00     0.000 C 
BRANCH  18  19
ATOM     19  C   UNL     1      -4.915  38.132  19.846  1.00  0.00     0.000 C 
BRANCH  19  20
ATOM     20  C   UNL     1      -6.124  38.715  20.596  1.00  0.00     0.000 C 
BRANCH  20  21
ATOM     21  C   UNL     1      -5.947  40.200  20.950  1.00  0.00     0.000 C 
BRANCH  21  22
ATOM     22  C   UNL     1      -5.383  40.405  22.366  1.00  0.00     0.000 C 
BRANCH  22  23
ATOM     23  C   UNL     1      -5.814  39.289  23.333  1.00  0.00     0.000 C 
BRANCH  23  24
ATOM     24  C   UNL     1      -4.670  38.852  24.264  1.00  0.00    -0.000 C 
BRANCH  24  25
ATOM     25  C   UNL     1      -5.086  37.724  25.225  1.00  0.00    -0.000 C 
BRANCH  25  26
ATOM     26  C   UNL     1      -3.951  37.157  26.105  1.00  0.00    -0.000 C 
BRANCH  26  27
ATOM     27  C   UNL     1      -2.996  38.203  26.717  1.00  0.00    -0.000 C 
BRANCH  27  28
ATOM     28  C   UNL     1      -1.895  37.617  27.631  1.00  0.00    -0.000 C 
BRANCH  28  29
ATOM     29  C   UNL     1      -1.663  36.106  27.442  1.00  0.00    -0.000 C 
BRANCH  29  30
ATOM     30  C   UNL     1      -2.407  35.201  28.441  1.00  0.00    -0.000 C 
BRANCH  30  31
ATOM     31  C   UNL     1      -1.518  34.186  29.181  1.00  0.00    -0.003 C 
ATOM     32  C   UNL     1      -1.727  34.204  30.694  1.00  0.00     0.004 C 
ENDBRANCH  30  31
ENDBRANCH  29  30
ENDBRANCH  28  29
ENDBRANCH  27  28
ENDBRANCH  26  27
ENDBRANCH  25  26
ENDBRANCH  24  25
ENDBRANCH  23  24
ENDBRANCH  22  23
ENDBRANCH  21  22
ENDBRANCH  20  21
ENDBRANCH  19  20
ENDBRANCH  18  19
ENDBRANCH   1  18
TORSDOF 28
ENDMDL
