MODEL 1
REMARK VINA RESULT:    -3.760      0.000      0.000
REMARK INTER + INTRA:          -6.318
REMARK INTER:                  -5.739
REMARK INTRA:                  -0.579
REMARK UNBOUND:                -0.579
REMARK SMILES O=C([O-])CCCCCCCCC(=O)[O-]
REMARK SMILES IDX 7 1 6 2 5 3 4 4 2 5 1 6 3 7 8 8 9 9 10 10 11 11 12 12 13 13
REMARK SMILES IDX 14 14
REMARK H PARENT
REMARK Flexibility Score: inf
ROOT
ATOM      1  C   UNL     1      16.169  15.893  29.730  1.00  0.00     0.000 C 
ENDROOT
BRANCH   1   2
ATOM      2  C   UNL     1      15.175  14.868  29.162  1.00  0.00     0.000 C 
BRANCH   2   3
ATOM      3  C   UNL     1      15.280  14.725  27.634  1.00  0.00     0.006 C 
BRANCH   3   4
ATOM      4  C   UNL     1      16.039  15.895  26.994  1.00  0.00     0.053 C 
BRANCH   4   5
ATOM      5  C   UNL     1      17.288  15.438  26.305  1.00  0.00     0.041 C 
ATOM      6  O   UNL     1      18.270  15.031  26.980  1.00  0.00    -0.550 OA
ATOM      7  O   UNL     1      17.380  15.494  24.920  1.00  0.00    -0.550 OA
ENDBRANCH   4   5
ENDBRANCH   3   4
ENDBRANCH   2   3
ENDBRANCH   1   2
BRANCH   1   8
ATOM      8  C   UNL     1      17.194  15.258  30.681  1.00  0.00     0.000 C 
BRANCH   8   9
ATOM      9  C   UNL     1      16.671  13.932  31.247  1.00  0.00     0.000 C 
BRANCH   9  10
ATOM     10  C   UNL     1      17.775  13.183  32.007  1.00  0.00     0.006 C 
BRANCH  10  11
ATOM     11  C   UNL     1      18.883  14.124  32.496  1.00  0.00     0.053 C 
BRANCH  11  12
ATOM     12  C   UNL     1      20.212  13.774  31.898  1.00  0.00     0.041 C 
ATOM     13  O   UNL     1      20.998  13.002  32.507  1.00  0.00    -0.550 OA
ATOM     14  O   UNL     1      20.567  14.276  30.652  1.00  0.00    -0.550 OA
ENDBRANCH  11  12
ENDBRANCH  10  11
ENDBRANCH   9  10
ENDBRANCH   8   9
ENDBRANCH   1   8
TORSDOF 9
ENDMDL
MODEL 2
REMARK VINA RESULT:    -3.584      1.290      5.825
REMARK INTER + INTRA:          -6.049
REMARK INTER:                  -5.523
REMARK INTRA:                  -0.526
REMARK UNBOUND:                -0.579
REMARK SMILES O=C([O-])CCCCCCCCC(=O)[O-]
REMARK SMILES IDX 7 1 6 2 5 3 4 4 2 5 1 6 3 7 8 8 9 9 10 10 11 11 12 12 13 13
REMARK SMILES IDX 14 14
REMARK H PARENT
REMARK Flexibility Score: inf
ROOT
ATOM      1  C   UNL     1      16.471  13.934  30.856  1.00  0.00     0.000 C 
ENDROOT
BRANCH   1   2
ATOM      2  C   UNL     1      17.359  13.278  31.926  1.00  0.00     0.000 C 
BRANCH   2   3
ATOM      3  C   UNL     1      18.516  14.187  32.374  1.00  0.00     0.006 C 
BRANCH   3   4
ATOM      4  C   UNL     1      19.875  13.480  32.287  1.00  0.00     0.053 C 
BRANCH   4   5
ATOM      5  C   UNL     1      20.437  13.525  30.900  1.00  0.00     0.041 C 
ATOM      6  O   UNL     1      20.360  14.582  30.220  1.00  0.00    -0.550 OA
ATOM      7  O   UNL     1      21.015  12.390  30.345  1.00  0.00    -0.550 OA
ENDBRANCH   4   5
ENDBRANCH   3   4
ENDBRANCH   2   3
ENDBRANCH   1   2
BRANCH   1   8
ATOM      8  C   UNL     1      16.939  15.350  30.487  1.00  0.00     0.000 C 
BRANCH   8   9
ATOM      9  C   UNL     1      16.022  15.972  29.427  1.00  0.00     0.000 C 
BRANCH   9  10
ATOM     10  C   UNL     1      15.992  15.116  28.153  1.00  0.00     0.006 C 
BRANCH  10  11
ATOM     11  C   UNL     1      16.050  15.969  26.879  1.00  0.00     0.053 C 
BRANCH  11  12
ATOM     12  C   UNL     1      15.861  15.139  25.646  1.00  0.00     0.041 C 
ATOM     13  O   UNL     1      15.931  13.884  25.709  1.00  0.00    -0.550 OA
ATOM     14  O   UNL     1      15.575  15.752  24.433  1.00  0.00    -0.550 OA
ENDBRANCH  11  12
ENDBRANCH  10  11
ENDBRANCH   9  10
ENDBRANCH   8   9
ENDBRANCH   1   8
TORSDOF 9
ENDMDL
MODEL 3
REMARK VINA RESULT:    -3.570      3.780      5.786
REMARK INTER + INTRA:          -6.027
REMARK INTER:                  -5.316
REMARK INTRA:                  -0.711
REMARK UNBOUND:                -0.579
REMARK SMILES O=C([O-])CCCCCCCCC(=O)[O-]
REMARK SMILES IDX 7 1 6 2 5 3 4 4 2 5 1 6 3 7 8 8 9 9 10 10 11 11 12 12 13 13
REMARK SMILES IDX 14 14
REMARK H PARENT
REMARK Flexibility Score: inf
ROOT
ATOM      1  C   UNL     1      16.727  13.051  31.017  1.00  0.00     0.000 C 
ENDROOT
BRANCH   1   2
ATOM      2  C   UNL     1      17.274  14.444  31.366  1.00  0.00     0.000 C 
BRANCH   2   3
ATOM      3  C   UNL     1      17.495  15.322  30.122  1.00  0.00     0.006 C 
BRANCH   3   4
ATOM      4  C   UNL     1      16.172  15.829  29.530  1.00  0.00     0.053 C 
BRANCH   4   5
ATOM      5  C   UNL     1      16.014  15.424  28.097  1.00  0.00     0.041 C 
ATOM      6  O   UNL     1      14.958  14.856  27.713  1.00  0.00    -0.550 OA
ATOM      7  O   UNL     1      17.046  15.642  27.193  1.00  0.00    -0.550 OA
ENDBRANCH   4   5
ENDBRANCH   3   4
ENDBRANCH   2   3
ENDBRANCH   1   2
BRANCH   1   8
ATOM      8  C   UNL     1      15.326  12.804  31.595  1.00  0.00     0.000 C 
BRANCH   8   9
ATOM      9  C   UNL     1      14.265  12.817  30.487  1.00  0.00     0.000 C 
BRANCH   9  10
ATOM     10  C   UNL     1      13.180  13.866  30.775  1.00  0.00     0.006 C 
BRANCH  10  11
ATOM     11  C   UNL     1      12.310  14.152  29.545  1.00  0.00     0.053 C 
BRANCH  11  12
ATOM     12  C   UNL     1      11.106  14.971  29.896  1.00  0.00     0.041 C 
ATOM     13  O   UNL     1      10.364  15.431  28.988  1.00  0.00    -0.550 OA
ATOM     14  O   UNL     1      10.784  15.198  31.228  1.00  0.00    -0.550 OA
ENDBRANCH  11  12
ENDBRANCH  10  11
ENDBRANCH   9  10
ENDBRANCH   8   9
ENDBRANCH   1   8
TORSDOF 9
ENDMDL
MODEL 4
REMARK VINA RESULT:    -3.545      3.670      5.485
REMARK INTER + INTRA:          -5.990
REMARK INTER:                  -5.203
REMARK INTRA:                  -0.786
REMARK UNBOUND:                -0.579
REMARK SMILES O=C([O-])CCCCCCCCC(=O)[O-]
REMARK SMILES IDX 7 1 6 2 5 3 4 4 2 5 1 6 3 7 8 8 9 9 10 10 11 11 12 12 13 13
REMARK SMILES IDX 14 14
REMARK H PARENT
REMARK Flexibility Score: inf
ROOT
ATOM      1  C   UNL     1      15.331  12.558  30.941  1.00  0.00     0.000 C 
ENDROOT
BRANCH   1   2
ATOM      2  C   UNL     1      14.213  12.184  31.927  1.00  0.00     0.000 C 
BRANCH   2   3
ATOM      3  C   UNL     1      12.905  12.948  31.656  1.00  0.00     0.006 C 
BRANCH   3   4
ATOM      4  C   UNL     1      13.117  14.143  30.716  1.00  0.00     0.053 C 
BRANCH   4   5
ATOM      5  C   UNL     1      11.819  14.672  30.189  1.00  0.00     0.041 C 
ATOM      6  O   UNL     1      10.992  15.211  30.970  1.00  0.00    -0.550 OA
ATOM      7  O   UNL     1      11.507  14.538  28.842  1.00  0.00    -0.550 OA
ENDBRANCH   4   5
ENDBRANCH   3   4
ENDBRANCH   2   3
ENDBRANCH   1   2
BRANCH   1   8
ATOM      8  C   UNL     1      16.627  12.979  31.649  1.00  0.00     0.000 C 
BRANCH   8   9
ATOM      9  C   UNL     1      17.006  14.421  31.289  1.00  0.00     0.000 C 
BRANCH   9  10
ATOM     10  C   UNL     1      17.102  14.601  29.766  1.00  0.00     0.006 C 
BRANCH  10  11
ATOM     11  C   UNL     1      16.174  15.709  29.254  1.00  0.00     0.053 C 
BRANCH  11  12
ATOM     12  C   UNL     1      15.641  15.399  27.889  1.00  0.00     0.041 C 
ATOM     13  O   UNL     1      14.805  14.472  27.729  1.00  0.00    -0.550 OA
ATOM     14  O   UNL     1      16.043  16.158  26.797  1.00  0.00    -0.550 OA
ENDBRANCH  11  12
ENDBRANCH  10  11
ENDBRANCH   9  10
ENDBRANCH   8   9
ENDBRANCH   1   8
TORSDOF 9
ENDMDL
MODEL 5
REMARK VINA RESULT:    -3.520      1.463      4.935
REMARK INTER + INTRA:          -5.951
REMARK INTER:                  -5.054
REMARK INTRA:                  -0.897
REMARK UNBOUND:                -0.579
REMARK SMILES O=C([O-])CCCCCCCCC(=O)[O-]
REMARK SMILES IDX 7 1 6 2 5 3 4 4 2 5 1 6 3 7 8 8 9 9 10 10 11 11 12 12 13 13
REMARK SMILES IDX 14 14
REMARK H PARENT
REMARK Flexibility Score: inf
ROOT
ATOM      1  C   UNL     1      16.285  13.797  30.898  1.00  0.00     0.000 C 
ENDROOT
BRANCH   1   2
ATOM      2  C   UNL     1      17.498  14.633  31.334  1.00  0.00     0.000 C 
BRANCH   2   3
ATOM      3  C   UNL     1      18.374  13.907  32.371  1.00  0.00     0.006 C 
BRANCH   3   4
ATOM      4  C   UNL     1      19.850  13.859  31.950  1.00  0.00     0.053 C 
BRANCH   4   5
ATOM      5  C   UNL     1      20.084  12.863  30.857  1.00  0.00     0.041 C 
ATOM      6  O   UNL     1      20.941  13.093  29.964  1.00  0.00    -0.550 OA
ATOM      7  O   UNL     1      19.331  11.697  30.804  1.00  0.00    -0.550 OA
ENDBRANCH   4   5
ENDBRANCH   3   4
ENDBRANCH   2   3
ENDBRANCH   1   2
BRANCH   1   8
ATOM      8  C   UNL     1      15.264  14.615  30.092  1.00  0.00     0.000 C 
BRANCH   8   9
ATOM      9  C   UNL     1      15.964  15.680  29.238  1.00  0.00     0.000 C 
BRANCH   9  10
ATOM     10  C   UNL     1      15.756  15.409  27.741  1.00  0.00     0.006 C 
BRANCH  10  11
ATOM     11  C   UNL     1      17.078  15.416  26.962  1.00  0.00     0.053 C 
BRANCH  11  12
ATOM     12  C   UNL     1      18.131  14.601  27.648  1.00  0.00     0.041 C 
ATOM     13  O   UNL     1      19.171  15.153  28.093  1.00  0.00    -0.550 OA
ATOM     14  O   UNL     1      17.947  13.236  27.825  1.00  0.00    -0.550 OA
ENDBRANCH  11  12
ENDBRANCH  10  11
ENDBRANCH   9  10
ENDBRANCH   8   9
ENDBRANCH   1   8
TORSDOF 9
ENDMDL
MODEL 6
REMARK VINA RESULT:    -3.505      1.137      1.781
REMARK INTER + INTRA:          -5.929
REMARK INTER:                  -5.292
REMARK INTRA:                  -0.637
REMARK UNBOUND:                -0.579
REMARK SMILES O=C([O-])CCCCCCCCC(=O)[O-]
REMARK SMILES IDX 7 1 6 2 5 3 4 4 2 5 1 6 3 7 8 8 9 9 10 10 11 11 12 12 13 13
REMARK SMILES IDX 14 14
REMARK H PARENT
REMARK Flexibility Score: inf
ROOT
ATOM      1  C   UNL     1      15.797  14.327  28.594  1.00  0.00     0.000 C 
ENDROOT
BRANCH   1   2
ATOM      2  C   UNL     1      15.910  14.532  27.075  1.00  0.00     0.000 C 
BRANCH   2   3
ATOM      3  C   UNL     1      16.078  16.011  26.688  1.00  0.00     0.006 C 
BRANCH   3   4
ATOM      4  C   UNL     1      16.833  16.181  25.362  1.00  0.00     0.053 C 
BRANCH   4   5
ATOM      5  C   UNL     1      18.149  15.467  25.377  1.00  0.00     0.041 C 
ATOM      6  O   UNL     1      19.064  15.842  26.157  1.00  0.00    -0.550 OA
ATOM      7  O   UNL     1      18.379  14.410  24.505  1.00  0.00    -0.550 OA
ENDBRANCH   4   5
ENDBRANCH   3   4
ENDBRANCH   2   3
ENDBRANCH   1   2
BRANCH   1   8
ATOM      8  C   UNL     1      15.830  15.651  29.373  1.00  0.00     0.000 C 
BRANCH   8   9
ATOM      9  C   UNL     1      16.975  15.660  30.393  1.00  0.00     0.000 C 
BRANCH   9  10
ATOM     10  C   UNL     1      16.968  14.378  31.239  1.00  0.00     0.006 C 
BRANCH  10  11
ATOM     11  C   UNL     1      18.346  14.073  31.840  1.00  0.00     0.053 C 
BRANCH  11  12
ATOM     12  C   UNL     1      19.335  13.675  30.788  1.00  0.00     0.041 C 
ATOM     13  O   UNL     1      19.073  12.735  29.993  1.00  0.00    -0.550 OA
ATOM     14  O   UNL     1      20.535  14.366  30.664  1.00  0.00    -0.550 OA
ENDBRANCH  11  12
ENDBRANCH  10  11
ENDBRANCH   9  10
ENDBRANCH   8   9
ENDBRANCH   1   8
TORSDOF 9
ENDMDL
MODEL 7
REMARK VINA RESULT:    -3.500      2.039      6.360
REMARK INTER + INTRA:          -5.921
REMARK INTER:                  -5.275
REMARK INTRA:                  -0.646
REMARK UNBOUND:                -0.579
REMARK SMILES O=C([O-])CCCCCCCCC(=O)[O-]
REMARK SMILES IDX 7 1 6 2 5 3 4 4 2 5 1 6 3 7 8 8 9 9 10 10 11 11 12 12 13 13
REMARK SMILES IDX 14 14
REMARK H PARENT
REMARK Flexibility Score: inf
ROOT
ATOM      1  C   UNL     1      15.919  15.611  28.071  1.00  0.00     0.000 C 
ENDROOT
BRANCH   1   2
ATOM      2  C   UNL     1      15.756  15.259  29.558  1.00  0.00     0.000 C 
BRANCH   2   3
ATOM      3  C   UNL     1      16.954  15.716  30.408  1.00  0.00     0.006 C 
BRANCH   3   4
ATOM      4  C   UNL     1      17.454  14.609  31.348  1.00  0.00     0.053 C 
BRANCH   4   5
ATOM      5  C   UNL     1      18.496  13.755  30.695  1.00  0.00     0.041 C 
ATOM      6  O   UNL     1      18.320  12.513  30.587  1.00  0.00    -0.550 OA
ATOM      7  O   UNL     1      19.678  14.325  30.238  1.00  0.00    -0.550 OA
ENDBRANCH   4   5
ENDBRANCH   3   4
ENDBRANCH   2   3
ENDBRANCH   1   2
BRANCH   1   8
ATOM      8  C   UNL     1      17.262  15.140  27.495  1.00  0.00     0.000 C 
BRANCH   8   9
ATOM      9  C   UNL     1      17.359  15.455  25.997  1.00  0.00     0.000 C 
BRANCH   9  10
ATOM     10  C   UNL     1      16.161  16.297  25.533  1.00  0.00     0.006 C 
BRANCH  10  11
ATOM     11  C   UNL     1      15.682  15.900  24.131  1.00  0.00     0.053 C 
BRANCH  11  12
ATOM     12  C   UNL     1      15.134  14.506  24.107  1.00  0.00     0.041 C 
ATOM     13  O   UNL     1      14.358  14.112  25.016  1.00  0.00    -0.550 OA
ATOM     14  O   UNL     1      15.455  13.651  23.059  1.00  0.00    -0.550 OA
ENDBRANCH  11  12
ENDBRANCH  10  11
ENDBRANCH   9  10
ENDBRANCH   8   9
ENDBRANCH   1   8
TORSDOF 9
ENDMDL
MODEL 8
REMARK VINA RESULT:    -3.482      1.840      2.542
REMARK INTER + INTRA:          -5.893
REMARK INTER:                  -4.747
REMARK INTRA:                  -1.147
REMARK UNBOUND:                -0.579
REMARK SMILES O=C([O-])CCCCCCCCC(=O)[O-]
REMARK SMILES IDX 7 1 6 2 5 3 4 4 2 5 1 6 3 7 8 8 9 9 10 10 11 11 12 12 13 13
REMARK SMILES IDX 14 14
REMARK H PARENT
REMARK Flexibility Score: inf
ROOT
ATOM      1  C   UNL     1      15.912  15.638  28.078  1.00  0.00     0.000 C 
ENDROOT
BRANCH   1   2
ATOM      2  C   UNL     1      15.982  14.224  27.480  1.00  0.00     0.000 C 
BRANCH   2   3
ATOM      3  C   UNL     1      17.382  13.878  26.943  1.00  0.00     0.006 C 
BRANCH   3   4
ATOM      4  C   UNL     1      18.212  13.082  27.959  1.00  0.00     0.053 C 
BRANCH   4   5
ATOM      5  C   UNL     1      19.416  13.848  28.414  1.00  0.00     0.041 C 
ATOM      6  O   UNL     1      20.490  13.243  28.671  1.00  0.00    -0.550 OA
ATOM      7  O   UNL     1      19.342  15.224  28.588  1.00  0.00    -0.550 OA
ENDBRANCH   4   5
ENDBRANCH   3   4
ENDBRANCH   2   3
ENDBRANCH   1   2
BRANCH   1   8
ATOM      8  C   UNL     1      15.946  15.632  29.614  1.00  0.00     0.000 C 
BRANCH   8   9
ATOM      9  C   UNL     1      15.369  14.325  30.171  1.00  0.00     0.000 C 
BRANCH   9  10
ATOM     10  C   UNL     1      16.352  13.661  31.147  1.00  0.00     0.006 C 
BRANCH  10  11
ATOM     11  C   UNL     1      17.526  14.582  31.504  1.00  0.00     0.053 C 
BRANCH  11  12
ATOM     12  C   UNL     1      18.589  13.855  32.270  1.00  0.00     0.041 C 
ATOM     13  O   UNL     1      18.273  13.048  33.183  1.00  0.00    -0.550 OA
ATOM     14  O   UNL     1      19.928  14.045  31.952  1.00  0.00    -0.550 OA
ENDBRANCH  11  12
ENDBRANCH  10  11
ENDBRANCH   9  10
ENDBRANCH   8   9
ENDBRANCH   1   8
TORSDOF 9
ENDMDL
MODEL 9
REMARK VINA RESULT:    -3.475      3.560      5.789
REMARK INTER + INTRA:          -5.882
REMARK INTER:                  -5.187
REMARK INTRA:                  -0.695
REMARK UNBOUND:                -0.579
REMARK SMILES O=C([O-])CCCCCCCCC(=O)[O-]
REMARK SMILES IDX 7 1 6 2 5 3 4 4 2 5 1 6 3 7 8 8 9 9 10 10 11 11 12 12 13 13
REMARK SMILES IDX 14 14
REMARK H PARENT
REMARK Flexibility Score: inf
ROOT
ATOM      1  C   UNL     1      15.933  13.728  31.061  1.00  0.00     0.000 C 
ENDROOT
BRANCH   1   2
ATOM      2  C   UNL     1      14.704  12.984  30.513  1.00  0.00     0.000 C 
BRANCH   2   3
ATOM      3  C   UNL     1      13.382  13.688  30.861  1.00  0.00     0.006 C 
BRANCH   3   4
ATOM      4  C   UNL     1      12.714  14.310  29.627  1.00  0.00     0.053 C 
BRANCH   4   5
ATOM      5  C   UNL     1      11.392  14.929  29.963  1.00  0.00     0.041 C 
ATOM      6  O   UNL     1      10.654  15.379  29.048  1.00  0.00    -0.550 OA
ATOM      7  O   UNL     1      10.992  15.041  31.288  1.00  0.00    -0.550 OA
ENDBRANCH   4   5
ENDBRANCH   3   4
ENDBRANCH   2   3
ENDBRANCH   1   2
BRANCH   1   8
ATOM      8  C   UNL     1      16.798  14.339  29.949  1.00  0.00     0.000 C 
BRANCH   8   9
ATOM      9  C   UNL     1      16.267  15.716  29.533  1.00  0.00     0.000 C 
BRANCH   9  10
ATOM     10  C   UNL     1      15.808  15.710  28.067  1.00  0.00     0.006 C 
BRANCH  10  11
ATOM     11  C   UNL     1      16.784  14.954  27.157  1.00  0.00     0.053 C 
BRANCH  11  12
ATOM     12  C   UNL     1      17.265  15.811  26.026  1.00  0.00     0.041 C 
ATOM     13  O   UNL     1      16.449  16.505  25.365  1.00  0.00    -0.550 OA
ATOM     14  O   UNL     1      18.620  15.867  25.724  1.00  0.00    -0.550 OA
ENDBRANCH  11  12
ENDBRANCH  10  11
ENDBRANCH   9  10
ENDBRANCH   8   9
ENDBRANCH   1   8
TORSDOF 9
ENDMDL
