MODEL 1
REMARK VINA RESULT:    -5.375      0.000      0.000
REMARK INTER + INTRA:          -6.998
REMARK INTER:                  -6.475
REMARK INTRA:                  -0.523
REMARK UNBOUND:                -0.523
REMARK SMILES CCCCc1oc(O)c2ccccc12
REMARK SMILES IDX 4 1 5 2 7 3 6 4 9 5 14 6 10 7 13 8 11 9 12 10 8 11 3 13 2 14
REMARK SMILES IDX 1 15
REMARK H PARENT 8 12
REMARK Flexibility Score: inf
ROOT
ATOM      1  C   UNL     1       6.116 -14.113  -3.806  1.00  0.00     0.076 C 
ENDROOT
BRANCH   1   2
ATOM      2  C   UNL     1       7.426 -14.548  -4.387  1.00  0.00     0.116 A 
ATOM      3  C   UNL     1       9.394 -15.392  -4.506  1.00  0.00     0.290 A 
ATOM      4  O   UNL     1       8.398 -15.109  -3.688  1.00  0.00    -0.430 OA
ATOM      5  C   UNL     1       9.068 -15.010  -5.786  1.00  0.00     0.066 A 
ATOM      6  C   UNL     1       7.812 -14.472  -5.714  1.00  0.00     0.027 A 
ATOM      7  C   UNL     1       9.768 -15.098  -6.988  1.00  0.00     0.016 A 
ATOM      8  C   UNL     1       7.156 -13.986  -6.847  1.00  0.00     0.012 A 
ATOM      9  C   UNL     1       9.136 -14.613  -8.147  1.00  0.00     0.001 A 
ATOM     10  C   UNL     1       7.835 -14.060  -8.078  1.00  0.00     0.001 A 
BRANCH   3  11
ATOM     11  O   UNL     1      10.586 -15.989  -4.114  1.00  0.00    -0.480 OA
ATOM     12  H   UNL     1      10.631 -16.987  -3.953  1.00  0.00     0.297 HD
ENDBRANCH   3  11
ENDBRANCH   1   2
BRANCH   1  13
ATOM     13  C   UNL     1       5.129 -15.286  -3.772  1.00  0.00     0.008 C 
BRANCH  13  14
ATOM     14  C   UNL     1       4.232 -15.338  -5.018  1.00  0.00    -0.003 C 
ATOM     15  C   UNL     1       3.693 -13.963  -5.412  1.00  0.00     0.004 C 
ENDBRANCH  13  14
ENDBRANCH   1  13
TORSDOF 4
ENDMDL
MODEL 2
REMARK VINA RESULT:    -5.239      2.028      4.611
REMARK INTER + INTRA:          -6.834
REMARK INTER:                  -6.339
REMARK INTRA:                  -0.495
REMARK UNBOUND:                -0.523
REMARK SMILES CCCCc1oc(O)c2ccccc12
REMARK SMILES IDX 4 1 5 2 7 3 6 4 9 5 14 6 10 7 13 8 11 9 12 10 8 11 3 13 2 14
REMARK SMILES IDX 1 15
REMARK H PARENT 8 12
REMARK Flexibility Score: inf
ROOT
ATOM      1  C   UNL     1       8.902 -16.155  -4.768  1.00  0.00     0.076 C 
ENDROOT
BRANCH   1   2
ATOM      2  C   UNL     1       7.899 -15.380  -5.565  1.00  0.00     0.116 A 
ATOM      3  C   UNL     1       6.953 -14.446  -7.248  1.00  0.00     0.290 A 
ATOM      4  O   UNL     1       8.017 -15.122  -6.857  1.00  0.00    -0.430 OA
ATOM      5  C   UNL     1       6.105 -14.254  -6.182  1.00  0.00     0.066 A 
ATOM      6  C   UNL     1       6.705 -14.850  -5.107  1.00  0.00     0.027 A 
ATOM      7  C   UNL     1       4.870 -13.616  -6.082  1.00  0.00     0.016 A 
ATOM      8  C   UNL     1       6.108 -14.857  -3.845  1.00  0.00     0.012 A 
ATOM      9  C   UNL     1       4.244 -13.603  -4.822  1.00  0.00     0.001 A 
ATOM     10  C   UNL     1       4.859 -14.221  -3.708  1.00  0.00     0.001 A 
BRANCH   3  11
ATOM     11  O   UNL     1       6.739 -14.005  -8.548  1.00  0.00    -0.480 OA
ATOM     12  H   UNL     1       5.894 -14.261  -9.044  1.00  0.00     0.297 HD
ENDBRANCH   3  11
ENDBRANCH   1   2
BRANCH   1  13
ATOM     13  C   UNL     1      10.123 -15.284  -4.451  1.00  0.00     0.008 C 
BRANCH  13  14
ATOM     14  C   UNL     1      10.220 -14.925  -2.961  1.00  0.00    -0.003 C 
ATOM     15  C   UNL     1       9.422 -13.672  -2.604  1.00  0.00     0.004 C 
ENDBRANCH  13  14
ENDBRANCH   1  13
TORSDOF 4
ENDMDL
MODEL 3
REMARK VINA RESULT:    -5.146      1.569      4.358
REMARK INTER + INTRA:          -6.722
REMARK INTER:                  -6.195
REMARK INTRA:                  -0.527
REMARK UNBOUND:                -0.523
REMARK SMILES CCCCc1oc(O)c2ccccc12
REMARK SMILES IDX 4 1 5 2 7 3 6 4 9 5 14 6 10 7 13 8 11 9 12 10 8 11 3 13 2 14
REMARK SMILES IDX 1 15
REMARK H PARENT 8 12
REMARK Flexibility Score: inf
ROOT
ATOM      1  C   UNL     1      10.695 -14.759  -6.690  1.00  0.00     0.076 C 
ENDROOT
BRANCH   1   2
ATOM      2  C   UNL     1       9.926 -14.562  -5.421  1.00  0.00     0.116 A 
ATOM      3  C   UNL     1       9.513 -14.089  -3.370  1.00  0.00     0.290 A 
ATOM      4  O   UNL     1      10.470 -14.194  -4.273  1.00  0.00    -0.430 OA
ATOM      5  C   UNL     1       8.299 -14.394  -3.940  1.00  0.00     0.066 A 
ATOM      6  C   UNL     1       8.559 -14.695  -5.249  1.00  0.00     0.027 A 
ATOM      7  C   UNL     1       7.009 -14.423  -3.415  1.00  0.00     0.016 A 
ATOM      8  C   UNL     1       7.540 -15.044  -6.137  1.00  0.00     0.012 A 
ATOM      9  C   UNL     1       5.960 -14.775  -4.285  1.00  0.00     0.001 A 
ATOM     10  C   UNL     1       6.223 -15.083  -5.640  1.00  0.00     0.001 A 
BRANCH   3  11
ATOM     11  O   UNL     1       9.721 -13.721  -2.047  1.00  0.00    -0.480 OA
ATOM     12  H   UNL     1       8.953 -13.722  -1.387  1.00  0.00     0.297 HD
ENDBRANCH   3  11
ENDBRANCH   1   2
BRANCH   1  13
ATOM     13  C   UNL     1      10.856 -13.425  -7.430  1.00  0.00     0.008 C 
BRANCH  13  14
ATOM     14  C   UNL     1       9.845 -13.260  -8.575  1.00  0.00    -0.003 C 
ATOM     15  C   UNL     1       9.545 -14.578  -9.289  1.00  0.00     0.004 C 
ENDBRANCH  13  14
ENDBRANCH   1  13
TORSDOF 4
ENDMDL
MODEL 4
REMARK VINA RESULT:    -5.127      1.991      4.718
REMARK INTER + INTRA:          -6.700
REMARK INTER:                  -6.229
REMARK INTRA:                  -0.471
REMARK UNBOUND:                -0.523
REMARK SMILES CCCCc1oc(O)c2ccccc12
REMARK SMILES IDX 4 1 5 2 7 3 6 4 9 5 14 6 10 7 13 8 11 9 12 10 8 11 3 13 2 14
REMARK SMILES IDX 1 15
REMARK H PARENT 8 12
REMARK Flexibility Score: inf
ROOT
ATOM      1  C   UNL     1       9.353 -13.324  -5.045  1.00  0.00     0.076 C 
ENDROOT
BRANCH   1   2
ATOM      2  C   UNL     1       8.035 -13.984  -5.307  1.00  0.00     0.116 A 
ATOM      3  C   UNL     1       6.581 -15.309  -6.164  1.00  0.00     0.290 A 
ATOM      4  O   UNL     1       7.845 -14.929  -6.212  1.00  0.00    -0.430 OA
ATOM      5  C   UNL     1       5.918 -14.594  -5.194  1.00  0.00     0.066 A 
ATOM      6  C   UNL     1       6.842 -13.749  -4.644  1.00  0.00     0.027 A 
ATOM      7  C   UNL     1       4.594 -14.629  -4.759  1.00  0.00     0.016 A 
ATOM      8  C   UNL     1       6.511 -12.875  -3.608  1.00  0.00     0.012 A 
ATOM      9  C   UNL     1       4.228 -13.756  -3.717  1.00  0.00     0.001 A 
ATOM     10  C   UNL     1       5.182 -12.884  -3.143  1.00  0.00     0.001 A 
BRANCH   3  11
ATOM     11  O   UNL     1       6.025 -16.287  -6.978  1.00  0.00    -0.480 OA
ATOM     12  H   UNL     1       5.033 -16.486  -6.937  1.00  0.00     0.297 HD
ENDBRANCH   3  11
ENDBRANCH   1   2
BRANCH   1  13
ATOM     13  C   UNL     1      10.440 -14.378  -4.804  1.00  0.00     0.008 C 
BRANCH  13  14
ATOM     14  C   UNL     1      10.217 -15.167  -3.505  1.00  0.00    -0.003 C 
ATOM     15  C   UNL     1       9.909 -14.263  -2.312  1.00  0.00     0.004 C 
ENDBRANCH  13  14
ENDBRANCH   1  13
TORSDOF 4
ENDMDL
MODEL 5
REMARK VINA RESULT:    -4.963     10.315     11.978
REMARK INTER + INTRA:          -6.502
REMARK INTER:                  -6.266
REMARK INTRA:                  -0.236
REMARK UNBOUND:                -0.523
REMARK SMILES CCCCc1oc(O)c2ccccc12
REMARK SMILES IDX 4 1 5 2 7 3 6 4 9 5 14 6 10 7 13 8 11 9 12 10 8 11 3 13 2 14
REMARK SMILES IDX 1 15
REMARK H PARENT 8 12
REMARK Flexibility Score: inf
ROOT
ATOM      1  C   UNL     1       2.500 -22.676   2.111  1.00  0.00     0.076 C 
ENDROOT
BRANCH   1   2
ATOM      2  C   UNL     1       2.287 -23.622   0.971  1.00  0.00     0.116 A 
ATOM      3  C   UNL     1       1.873 -25.444  -0.082  1.00  0.00     0.290 A 
ATOM      4  O   UNL     1       2.033 -24.912   1.115  1.00  0.00    -0.430 OA
ATOM      5  C   UNL     1       2.021 -24.474  -1.046  1.00  0.00     0.066 A 
ATOM      6  C   UNL     1       2.284 -23.310  -0.378  1.00  0.00     0.027 A 
ATOM      7  C   UNL     1       1.940 -24.528  -2.436  1.00  0.00     0.016 A 
ATOM      8  C   UNL     1       2.481 -22.105  -1.054  1.00  0.00     0.012 A 
ATOM      9  C   UNL     1       2.138 -23.330  -3.147  1.00  0.00     0.001 A 
ATOM     10  C   UNL     1       2.406 -22.123  -2.460  1.00  0.00     0.001 A 
BRANCH   3  11
ATOM     11  O   UNL     1       1.594 -26.785  -0.313  1.00  0.00    -0.480 OA
ATOM     12  H   UNL     1       1.625 -27.454   0.446  1.00  0.00     0.297 HD
ENDBRANCH   3  11
ENDBRANCH   1   2
BRANCH   1  13
ATOM     13  C   UNL     1       1.219 -21.883   2.396  1.00  0.00     0.008 C 
BRANCH  13  14
ATOM     14  C   UNL     1       1.285 -21.114   3.724  1.00  0.00    -0.003 C 
ATOM     15  C   UNL     1       1.129 -19.605   3.538  1.00  0.00     0.004 C 
ENDBRANCH  13  14
ENDBRANCH   1  13
TORSDOF 4
ENDMDL
MODEL 6
REMARK VINA RESULT:    -4.929      1.957      2.791
REMARK INTER + INTRA:          -6.461
REMARK INTER:                  -6.163
REMARK INTRA:                  -0.298
REMARK UNBOUND:                -0.523
REMARK SMILES CCCCc1oc(O)c2ccccc12
REMARK SMILES IDX 4 1 5 2 7 3 6 4 9 5 14 6 10 7 13 8 11 9 12 10 8 11 3 13 2 14
REMARK SMILES IDX 1 15
REMARK H PARENT 8 12
REMARK Flexibility Score: inf
ROOT
ATOM      1  C   UNL     1       5.609 -15.093  -3.677  1.00  0.00     0.076 C 
ENDROOT
BRANCH   1   2
ATOM      2  C   UNL     1       6.467 -15.028  -4.903  1.00  0.00     0.116 A 
ATOM      3  C   UNL     1       7.014 -14.907  -6.973  1.00  0.00     0.290 A 
ATOM      4  O   UNL     1       5.995 -14.987  -6.137  1.00  0.00    -0.430 OA
ATOM      5  C   UNL     1       8.194 -14.892  -6.268  1.00  0.00     0.066 A 
ATOM      6  C   UNL     1       7.849 -14.968  -4.946  1.00  0.00     0.027 A 
ATOM      7  C   UNL     1       9.522 -14.813  -6.683  1.00  0.00     0.016 A 
ATOM      8  C   UNL     1       8.812 -14.964  -3.935  1.00  0.00     0.012 A 
ATOM      9  C   UNL     1      10.517 -14.811  -5.688  1.00  0.00     0.001 A 
ATOM     10  C   UNL     1      10.164 -14.885  -4.320  1.00  0.00     0.001 A 
BRANCH   3  11
ATOM     11  O   UNL     1       6.891 -14.846  -8.355  1.00  0.00    -0.480 OA
ATOM     12  H   UNL     1       7.090 -13.986  -8.851  1.00  0.00     0.297 HD
ENDBRANCH   3  11
ENDBRANCH   1   2
BRANCH   1  13
ATOM     13  C   UNL     1       4.668 -13.883  -3.618  1.00  0.00     0.008 C 
BRANCH  13  14
ATOM     14  C   UNL     1       3.189 -14.281  -3.737  1.00  0.00    -0.003 C 
ATOM     15  C   UNL     1       2.643 -14.099  -5.153  1.00  0.00     0.004 C 
ENDBRANCH  13  14
ENDBRANCH   1  13
TORSDOF 4
ENDMDL
MODEL 7
REMARK VINA RESULT:    -4.857     10.568     12.110
REMARK INTER + INTRA:          -6.374
REMARK INTER:                  -6.194
REMARK INTRA:                  -0.180
REMARK UNBOUND:                -0.523
REMARK SMILES CCCCc1oc(O)c2ccccc12
REMARK SMILES IDX 4 1 5 2 7 3 6 4 9 5 14 6 10 7 13 8 11 9 12 10 8 11 3 13 2 14
REMARK SMILES IDX 1 15
REMARK H PARENT 8 12
REMARK Flexibility Score: inf
ROOT
ATOM      1  C   UNL     1       1.510 -22.204   2.357  1.00  0.00     0.076 C 
ENDROOT
BRANCH   1   2
ATOM      2  C   UNL     1       1.608 -22.511   0.895  1.00  0.00     0.116 A 
ATOM      3  C   UNL     1       1.713 -22.200  -1.225  1.00  0.00     0.290 A 
ATOM      4  O   UNL     1       1.577 -21.596  -0.060  1.00  0.00    -0.430 OA
ATOM      5  C   UNL     1       1.841 -23.556  -1.034  1.00  0.00     0.066 A 
ATOM      6  C   UNL     1       1.776 -23.758   0.318  1.00  0.00     0.027 A 
ATOM      7  C   UNL     1       2.013 -24.607  -1.933  1.00  0.00     0.016 A 
ATOM      8  C   UNL     1       1.883 -25.033   0.874  1.00  0.00     0.012 A 
ATOM      9  C   UNL     1       2.121 -25.906  -1.402  1.00  0.00     0.001 A 
ATOM     10  C   UNL     1       2.058 -26.119  -0.005  1.00  0.00     0.001 A 
BRANCH   3  11
ATOM     11  O   UNL     1       1.726 -21.546  -2.451  1.00  0.00    -0.480 OA
ATOM     12  H   UNL     1       2.076 -20.599  -2.523  1.00  0.00     0.297 HD
ENDBRANCH   3  11
ENDBRANCH   1   2
BRANCH   1  13
ATOM     13  C   UNL     1       0.885 -20.820   2.572  1.00  0.00     0.008 C 
BRANCH  13  14
ATOM     14  C   UNL     1       1.499 -20.077   3.768  1.00  0.00    -0.003 C 
ATOM     15  C   UNL     1       0.876 -18.699   3.988  1.00  0.00     0.004 C 
ENDBRANCH  13  14
ENDBRANCH   1  13
TORSDOF 4
ENDMDL
MODEL 8
REMARK VINA RESULT:    -4.793      9.757     11.651
REMARK INTER + INTRA:          -6.296
REMARK INTER:                  -6.100
REMARK INTRA:                  -0.196
REMARK UNBOUND:                -0.523
REMARK SMILES CCCCc1oc(O)c2ccccc12
REMARK SMILES IDX 4 1 5 2 7 3 6 4 9 5 14 6 10 7 13 8 11 9 12 10 8 11 3 13 2 14
REMARK SMILES IDX 1 15
REMARK H PARENT 8 12
REMARK Flexibility Score: inf
ROOT
ATOM      1  C   UNL     1       1.283 -22.284  -1.583  1.00  0.00     0.076 C 
ENDROOT
BRANCH   1   2
ATOM      2  C   UNL     1       1.856 -22.600  -0.237  1.00  0.00     0.116 A 
ATOM      3  C   UNL     1       3.020 -23.578   1.277  1.00  0.00     0.290 A 
ATOM      4  O   UNL     1       2.690 -23.600  -0.001  1.00  0.00    -0.430 OA
ATOM      5  C   UNL     1       2.388 -22.530   1.903  1.00  0.00     0.066 A 
ATOM      6  C   UNL     1       1.645 -21.903   0.940  1.00  0.00     0.027 A 
ATOM      7  C   UNL     1       2.414 -22.086   3.224  1.00  0.00     0.016 A 
ATOM      8  C   UNL     1       0.875 -20.774   1.227  1.00  0.00     0.012 A 
ATOM      9  C   UNL     1       1.644 -20.953   3.546  1.00  0.00     0.001 A 
ATOM     10  C   UNL     1       0.879 -20.299   2.552  1.00  0.00     0.001 A 
BRANCH   3  11
ATOM     11  O   UNL     1       3.881 -24.487   1.880  1.00  0.00    -0.480 OA
ATOM     12  H   UNL     1       3.755 -24.747   2.850  1.00  0.00     0.297 HD
ENDBRANCH   3  11
ENDBRANCH   1   2
BRANCH   1  13
ATOM     13  C   UNL     1       1.953 -23.141  -2.665  1.00  0.00     0.008 C 
BRANCH  13  14
ATOM     14  C   UNL     1       2.358 -22.320  -3.899  1.00  0.00    -0.003 C 
ATOM     15  C   UNL     1       1.196 -21.514  -4.477  1.00  0.00     0.004 C 
ENDBRANCH  13  14
ENDBRANCH   1  13
TORSDOF 4
ENDMDL
MODEL 9
REMARK VINA RESULT:    -4.710      9.025     10.639
REMARK INTER + INTRA:          -6.197
REMARK INTER:                  -5.917
REMARK INTRA:                  -0.279
REMARK UNBOUND:                -0.523
REMARK SMILES CCCCc1oc(O)c2ccccc12
REMARK SMILES IDX 4 1 5 2 7 3 6 4 9 5 14 6 10 7 13 8 11 9 12 10 8 11 3 13 2 14
REMARK SMILES IDX 1 15
REMARK H PARENT 8 12
REMARK Flexibility Score: inf
ROOT
ATOM      1  C   UNL     1       2.098 -23.528   1.300  1.00  0.00     0.076 C 
ENDROOT
BRANCH   1   2
ATOM      2  C   UNL     1       2.812 -23.007   0.091  1.00  0.00     0.116 A 
ATOM      3  C   UNL     1       4.389 -22.219  -1.131  1.00  0.00     0.290 A 
ATOM      4  O   UNL     1       4.064 -22.580   0.096  1.00  0.00    -0.430 OA
ATOM      5  C   UNL     1       3.319 -22.417  -1.973  1.00  0.00     0.066 A 
ATOM      6  C   UNL     1       2.312 -22.921  -1.196  1.00  0.00     0.027 A 
ATOM      7  C   UNL     1       3.163 -22.200  -3.340  1.00  0.00     0.016 A 
ATOM      8  C   UNL     1       1.068 -23.254  -1.735  1.00  0.00     0.012 A 
ATOM      9  C   UNL     1       1.918 -22.521  -3.912  1.00  0.00     0.001 A 
ATOM     10  C   UNL     1       0.875 -23.047  -3.114  1.00  0.00     0.001 A 
BRANCH   3  11
ATOM     11  O   UNL     1       5.631 -21.718  -1.498  1.00  0.00    -0.480 OA
ATOM     12  H   UNL     1       6.282 -21.392  -0.794  1.00  0.00     0.297 HD
ENDBRANCH   3  11
ENDBRANCH   1   2
BRANCH   1  13
ATOM     13  C   UNL     1       1.202 -22.439   1.902  1.00  0.00     0.008 C 
BRANCH  13  14
ATOM     14  C   UNL     1       1.839 -21.762   3.125  1.00  0.00    -0.003 C 
ATOM     15  C   UNL     1       1.238 -20.388   3.417  1.00  0.00     0.004 C 
ENDBRANCH  13  14
ENDBRANCH   1  13
TORSDOF 4
ENDMDL
