MODEL 1
REMARK VINA RESULT:    -4.038      0.000      0.000
REMARK INTER + INTRA:          -4.689
REMARK INTER:                  -4.982
REMARK INTRA:                   0.294
REMARK UNBOUND:                 0.294
REMARK SMILES COc1cc(-c2oc3cc(O)cc(O)c3c(=O)c2O)ccc1O
REMARK SMILES IDX 6 1 18 2 16 3 17 4 15 5 13 6 12 7 10 8 9 9 8 10 7 11 5 12
REMARK SMILES IDX 3 13 22 14 4 15 21 16 20 17 2 18 1 19 23 20 19 22 14 24
REMARK SMILES IDX 11 26
REMARK H PARENT 23 21 19 23 14 25 11 27
REMARK Flexibility Score: inf
ROOT
ATOM      1  C   UNL     1     -13.905  30.353  11.591  1.00  0.00     0.180 A 
ATOM      2  C   UNL     1     -12.958  29.413  12.035  1.00  0.00     0.208 A 
ATOM      3  C   UNL     1     -13.140  28.802  13.287  1.00  0.00     0.238 A 
ATOM      4  O   UNL     1     -12.318  27.923  13.655  1.00  0.00    -0.285 OA
ATOM      5  C   UNL     1     -14.257  29.150  14.085  1.00  0.00     0.111 A 
ATOM      6  C   UNL     1     -14.518  28.623  15.385  1.00  0.00     0.134 A 
ATOM      7  C   UNL     1     -15.722  28.939  16.029  1.00  0.00     0.093 A 
ATOM      8  C   UNL     1     -16.641  29.812  15.449  1.00  0.00     0.123 A 
ATOM      9  C   UNL     1     -16.367  30.379  14.203  1.00  0.00     0.094 A 
ATOM     10  C   UNL     1     -15.193  30.055  13.521  1.00  0.00     0.146 A 
ATOM     11  O   UNL     1     -14.976  30.608  12.334  1.00  0.00    -0.452 OA
ENDROOT
BRANCH   1  12
ATOM     12  C   UNL     1     -13.768  31.056  10.296  1.00  0.00     0.025 A 
ATOM     13  C   UNL     1     -14.748  32.151   8.340  1.00  0.00     0.161 A 
ATOM     14  C   UNL     1     -13.464  32.339   7.811  1.00  0.00     0.157 A 
ATOM     15  C   UNL     1     -14.895  31.501   9.582  1.00  0.00     0.062 A 
ATOM     16  C   UNL     1     -12.340  31.876   8.509  1.00  0.00     0.051 A 
ATOM     17  C   UNL     1     -12.492  31.233   9.739  1.00  0.00     0.016 A 
BRANCH  13  18
ATOM     18  O   UNL     1     -15.849  32.617   7.605  1.00  0.00    -0.493 OA
ATOM     19  C   UNL     1     -17.143  32.024   7.626  1.00  0.00     0.278 C 
ENDBRANCH  13  18
BRANCH  14  20
ATOM     20  O   UNL     1     -13.311  32.983   6.584  1.00  0.00    -0.504 OA
ATOM     21  H   UNL     1     -12.839  32.537   5.806  1.00  0.00     0.293 HD
ENDBRANCH  14  20
ENDBRANCH   1  12
BRANCH   2  22
ATOM     22  O   UNL     1     -11.875  29.069  11.223  1.00  0.00    -0.502 OA
ATOM     23  H   UNL     1     -11.961  28.954  10.220  1.00  0.00     0.293 HD
ENDBRANCH   2  22
BRANCH   6  24
ATOM     24  O   UNL     1     -13.625  27.815  16.095  1.00  0.00    -0.507 OA
ATOM     25  H   UNL     1     -13.864  27.277  16.915  1.00  0.00     0.293 HD
ENDBRANCH   6  24
BRANCH   8  26
ATOM     26  O   UNL     1     -17.821  30.117  16.125  1.00  0.00    -0.508 OA
ATOM     27  H   UNL     1     -18.700  30.228  15.633  1.00  0.00     0.293 HD
ENDBRANCH   8  26
TORSDOF 6
ENDMDL
MODEL 2
REMARK VINA RESULT:    -3.937      1.294      2.859
REMARK INTER + INTRA:          -4.564
REMARK INTER:                  -4.617
REMARK INTRA:                   0.053
REMARK UNBOUND:                 0.294
REMARK SMILES COc1cc(-c2oc3cc(O)cc(O)c3c(=O)c2O)ccc1O
REMARK SMILES IDX 6 1 18 2 16 3 17 4 15 5 13 6 12 7 10 8 9 9 8 10 7 11 5 12
REMARK SMILES IDX 3 13 22 14 4 15 21 16 20 17 2 18 1 19 23 20 19 22 14 24
REMARK SMILES IDX 11 26
REMARK H PARENT 23 21 19 23 14 25 11 27
REMARK Flexibility Score: inf
ROOT
ATOM      1  C   UNL     1     -13.881  30.302  11.727  1.00  0.00     0.180 A 
ATOM      2  C   UNL     1     -14.908  30.770  12.565  1.00  0.00     0.208 A 
ATOM      3  C   UNL     1     -15.183  30.081  13.757  1.00  0.00     0.238 A 
ATOM      4  O   UNL     1     -16.067  30.535  14.529  1.00  0.00    -0.285 OA
ATOM      5  C   UNL     1     -14.439  28.922  14.088  1.00  0.00     0.111 A 
ATOM      6  C   UNL     1     -14.659  28.122  15.249  1.00  0.00     0.134 A 
ATOM      7  C   UNL     1     -13.777  27.074  15.543  1.00  0.00     0.093 A 
ATOM      8  C   UNL     1     -12.726  26.756  14.685  1.00  0.00     0.123 A 
ATOM      9  C   UNL     1     -12.537  27.495  13.516  1.00  0.00     0.094 A 
ATOM     10  C   UNL     1     -13.377  28.568  13.214  1.00  0.00     0.146 A 
ATOM     11  O   UNL     1     -13.158  29.252  12.098  1.00  0.00    -0.452 OA
ENDROOT
BRANCH   1  12
ATOM     12  C   UNL     1     -13.550  30.962  10.444  1.00  0.00     0.025 A 
ATOM     13  C   UNL     1     -14.226  32.053   8.361  1.00  0.00     0.161 A 
ATOM     14  C   UNL     1     -12.878  32.159   7.989  1.00  0.00     0.157 A 
ATOM     15  C   UNL     1     -14.557  31.445   9.590  1.00  0.00     0.062 A 
ATOM     16  C   UNL     1     -11.875  31.658   8.828  1.00  0.00     0.051 A 
ATOM     17  C   UNL     1     -12.209  31.057  10.044  1.00  0.00     0.016 A 
BRANCH  13  18
ATOM     18  O   UNL     1     -15.202  32.556   7.488  1.00  0.00    -0.493 OA
ATOM     19  C   UNL     1     -16.606  32.397   7.668  1.00  0.00     0.278 C 
ENDBRANCH  13  18
BRANCH  14  20
ATOM     20  O   UNL     1     -12.544  32.761   6.777  1.00  0.00    -0.504 OA
ATOM     21  H   UNL     1     -12.029  33.633   6.742  1.00  0.00     0.293 HD
ENDBRANCH  14  20
ENDBRANCH   1  12
BRANCH   2  22
ATOM     22  O   UNL     1     -15.616  31.928  12.231  1.00  0.00    -0.502 OA
ATOM     23  H   UNL     1     -15.952  32.108  11.292  1.00  0.00     0.293 HD
ENDBRANCH   2  22
BRANCH   6  24
ATOM     24  O   UNL     1     -15.735  28.295  16.125  1.00  0.00    -0.507 OA
ATOM     25  H   UNL     1     -15.739  28.927  16.912  1.00  0.00     0.293 HD
ENDBRANCH   6  24
BRANCH   8  26
ATOM     26  O   UNL     1     -11.877  25.696  15.000  1.00  0.00    -0.508 OA
ATOM     27  H   UNL     1     -10.874  25.766  14.877  1.00  0.00     0.293 HD
ENDBRANCH   8  26
TORSDOF 6
ENDMDL
MODEL 3
REMARK VINA RESULT:    -3.358      4.746      7.358
REMARK INTER + INTRA:          -3.849
REMARK INTER:                  -4.256
REMARK INTRA:                   0.407
REMARK UNBOUND:                 0.294
REMARK SMILES COc1cc(-c2oc3cc(O)cc(O)c3c(=O)c2O)ccc1O
REMARK SMILES IDX 6 1 18 2 16 3 17 4 15 5 13 6 12 7 10 8 9 9 8 10 7 11 5 12
REMARK SMILES IDX 3 13 22 14 4 15 21 16 20 17 2 18 1 19 23 20 19 22 14 24
REMARK SMILES IDX 11 26
REMARK H PARENT 23 21 19 23 14 25 11 27
REMARK Flexibility Score: inf
ROOT
ATOM      1  C   UNL     1     -16.918  29.069  15.581  1.00  0.00     0.180 A 
ATOM      2  C   UNL     1     -16.196  27.866  15.495  1.00  0.00     0.208 A 
ATOM      3  C   UNL     1     -14.804  27.918  15.319  1.00  0.00     0.238 A 
ATOM      4  O   UNL     1     -14.157  26.838  15.296  1.00  0.00    -0.285 OA
ATOM      5  C   UNL     1     -14.153  29.171  15.214  1.00  0.00     0.111 A 
ATOM      6  C   UNL     1     -12.754  29.341  14.993  1.00  0.00     0.134 A 
ATOM      7  C   UNL     1     -12.199  30.627  15.037  1.00  0.00     0.093 A 
ATOM      8  C   UNL     1     -13.001  31.751  15.227  1.00  0.00     0.123 A 
ATOM      9  C   UNL     1     -14.380  31.600  15.384  1.00  0.00     0.094 A 
ATOM     10  C   UNL     1     -14.957  30.329  15.382  1.00  0.00     0.146 A 
ATOM     11  O   UNL     1     -16.271  30.228  15.545  1.00  0.00    -0.452 OA
ENDROOT
BRANCH   1  12
ATOM     12  C   UNL     1     -18.389  29.094  15.743  1.00  0.00     0.025 A 
ATOM     13  C   UNL     1     -20.535  27.946  15.994  1.00  0.00     0.161 A 
ATOM     14  C   UNL     1     -21.190  29.186  15.992  1.00  0.00     0.157 A 
ATOM     15  C   UNL     1     -19.132  27.906  15.861  1.00  0.00     0.062 A 
ATOM     16  C   UNL     1     -20.454  30.370  15.851  1.00  0.00     0.051 A 
ATOM     17  C   UNL     1     -19.064  30.323  15.720  1.00  0.00     0.016 A 
BRANCH  13  18
ATOM     18  O   UNL     1     -21.308  26.782  16.125  1.00  0.00    -0.493 OA
ATOM     19  C   UNL     1     -20.853  25.471  15.809  1.00  0.00     0.278 C 
ENDBRANCH  13  18
BRANCH  14  20
ATOM     20  O   UNL     1     -22.577  29.233  16.125  1.00  0.00    -0.504 OA
ATOM     21  H   UNL     1     -23.019  29.309  17.033  1.00  0.00     0.293 HD
ENDBRANCH  14  20
ENDBRANCH   1  12
BRANCH   2  22
ATOM     22  O   UNL     1     -16.855  26.640  15.623  1.00  0.00    -0.502 OA
ATOM     23  H   UNL     1     -17.810  26.567  15.954  1.00  0.00     0.293 HD
ENDBRANCH   2  22
BRANCH   6  24
ATOM     24  O   UNL     1     -11.876  28.293  14.701  1.00  0.00    -0.507 OA
ATOM     25  H   UNL     1     -10.871  28.345  14.785  1.00  0.00     0.293 HD
ENDBRANCH   6  24
BRANCH   8  26
ATOM     26  O   UNL     1     -12.418  33.016  15.249  1.00  0.00    -0.508 OA
ATOM     27  H   UNL     1     -11.420  33.138  15.379  1.00  0.00     0.293 HD
ENDBRANCH   8  26
TORSDOF 6
ENDMDL
MODEL 4
REMARK VINA RESULT:    -3.210      4.854      7.207
REMARK INTER + INTRA:          -3.667
REMARK INTER:                  -3.959
REMARK INTRA:                   0.292
REMARK UNBOUND:                 0.294
REMARK SMILES COc1cc(-c2oc3cc(O)cc(O)c3c(=O)c2O)ccc1O
REMARK SMILES IDX 6 1 18 2 16 3 17 4 15 5 13 6 12 7 10 8 9 9 8 10 7 11 5 12
REMARK SMILES IDX 3 13 22 14 4 15 21 16 20 17 2 18 1 19 23 20 19 22 14 24
REMARK SMILES IDX 11 26
REMARK H PARENT 23 21 19 23 14 25 11 27
REMARK Flexibility Score: inf
ROOT
ATOM      1  C   UNL     1     -17.159  28.247  15.576  1.00  0.00     0.180 A 
ATOM      2  C   UNL     1     -18.256  29.109  15.747  1.00  0.00     0.208 A 
ATOM      3  C   UNL     1     -19.536  28.556  15.919  1.00  0.00     0.238 A 
ATOM      4  O   UNL     1     -20.506  29.331  16.125  1.00  0.00    -0.285 OA
ATOM      5  C   UNL     1     -19.705  27.150  15.900  1.00  0.00     0.111 A 
ATOM      6  C   UNL     1     -20.961  26.484  16.022  1.00  0.00     0.134 A 
ATOM      7  C   UNL     1     -20.993  25.087  16.122  1.00  0.00     0.093 A 
ATOM      8  C   UNL     1     -19.825  24.331  16.037  1.00  0.00     0.123 A 
ATOM      9  C   UNL     1     -18.598  24.970  15.857  1.00  0.00     0.094 A 
ATOM     10  C   UNL     1     -18.528  26.363  15.790  1.00  0.00     0.146 A 
ATOM     11  O   UNL     1     -17.340  26.933  15.629  1.00  0.00    -0.452 OA
ENDROOT
BRANCH   1  12
ATOM     12  C   UNL     1     -15.784  28.756  15.365  1.00  0.00     0.025 A 
ATOM     13  C   UNL     1     -13.504  28.477  14.525  1.00  0.00     0.161 A 
ATOM     14  C   UNL     1     -13.169  29.738  15.037  1.00  0.00     0.157 A 
ATOM     15  C   UNL     1     -14.814  27.987  14.699  1.00  0.00     0.062 A 
ATOM     16  C   UNL     1     -14.128  30.497  15.721  1.00  0.00     0.051 A 
ATOM     17  C   UNL     1     -15.424  30.006  15.890  1.00  0.00     0.016 A 
BRANCH  13  18
ATOM     18  O   UNL     1     -12.513  27.742  13.857  1.00  0.00    -0.493 OA
ATOM     19  C   UNL     1     -12.015  26.479  14.287  1.00  0.00     0.278 C 
ENDBRANCH  13  18
BRANCH  14  20
ATOM     20  O   UNL     1     -11.876  30.230  14.866  1.00  0.00    -0.504 OA
ATOM     21  H   UNL     1     -11.612  31.152  15.193  1.00  0.00     0.293 HD
ENDBRANCH  14  20
ENDBRANCH   1  12
BRANCH   2  22
ATOM     22  O   UNL     1     -18.064  30.492  15.784  1.00  0.00    -0.502 OA
ATOM     23  H   UNL     1     -17.376  30.963  15.209  1.00  0.00     0.293 HD
ENDBRANCH   2  22
BRANCH   6  24
ATOM     24  O   UNL     1     -22.196  27.138  16.024  1.00  0.00    -0.507 OA
ATOM     25  H   UNL     1     -23.058  26.737  16.362  1.00  0.00     0.293 HD
ENDBRANCH   6  24
BRANCH   8  26
ATOM     26  O   UNL     1     -19.897  22.942  16.123  1.00  0.00    -0.508 OA
ATOM     27  H   UNL     1     -20.315  22.482  16.924  1.00  0.00     0.293 HD
ENDBRANCH   8  26
TORSDOF 6
ENDMDL
MODEL 5
REMARK VINA RESULT:    -2.382      1.479      7.029
REMARK INTER + INTRA:          -2.646
REMARK INTER:                  -2.522
REMARK INTRA:                  -0.124
REMARK UNBOUND:                 0.294
REMARK SMILES COc1cc(-c2oc3cc(O)cc(O)c3c(=O)c2O)ccc1O
REMARK SMILES IDX 6 1 18 2 16 3 17 4 15 5 13 6 12 7 10 8 9 9 8 10 7 11 5 12
REMARK SMILES IDX 3 13 22 14 4 15 21 16 20 17 2 18 1 19 23 20 19 22 14 24
REMARK SMILES IDX 11 26
REMARK H PARENT 23 21 19 23 14 25 11 27
REMARK Flexibility Score: inf
ROOT
ATOM      1  C   UNL     1     -14.501  30.519  11.256  1.00  0.00     0.180 A 
ATOM      2  C   UNL     1     -13.201  30.804  10.802  1.00  0.00     0.208 A 
ATOM      3  C   UNL     1     -13.038  31.468   9.575  1.00  0.00     0.238 A 
ATOM      4  O   UNL     1     -11.875  31.768   9.201  1.00  0.00    -0.285 OA
ATOM      5  C   UNL     1     -14.176  31.824   8.810  1.00  0.00     0.111 A 
ATOM      6  C   UNL     1     -14.126  32.462   7.535  1.00  0.00     0.134 A 
ATOM      7  C   UNL     1     -15.316  32.885   6.928  1.00  0.00     0.093 A 
ATOM      8  C   UNL     1     -16.554  32.634   7.519  1.00  0.00     0.123 A 
ATOM      9  C   UNL     1     -16.616  31.958   8.738  1.00  0.00     0.094 A 
ATOM     10  C   UNL     1     -15.446  31.556   9.385  1.00  0.00     0.146 A 
ATOM     11  O   UNL     1     -15.548  30.924  10.547  1.00  0.00    -0.452 OA
ENDROOT
BRANCH   1  12
ATOM     12  C   UNL     1     -14.751  29.801  12.527  1.00  0.00     0.025 A 
ATOM     13  C   UNL     1     -14.404  27.884  14.006  1.00  0.00     0.161 A 
ATOM     14  C   UNL     1     -15.298  28.445  14.930  1.00  0.00     0.157 A 
ATOM     15  C   UNL     1     -14.140  28.565  12.800  1.00  0.00     0.062 A 
ATOM     16  C   UNL     1     -15.925  29.666  14.649  1.00  0.00     0.051 A 
ATOM     17  C   UNL     1     -15.659  30.335  13.453  1.00  0.00     0.016 A 
BRANCH  13  18
ATOM     18  O   UNL     1     -13.805  26.654  14.318  1.00  0.00    -0.493 OA
ATOM     19  C   UNL     1     -12.400  26.423  14.337  1.00  0.00     0.278 C 
ENDBRANCH  13  18
BRANCH  14  20
ATOM     20  O   UNL     1     -15.562  27.778  16.125  1.00  0.00    -0.504 OA
ATOM     21  H   UNL     1     -16.287  28.095  16.759  1.00  0.00     0.293 HD
ENDBRANCH  14  20
ENDBRANCH   1  12
BRANCH   2  22
ATOM     22  O   UNL     1     -12.094  30.464  11.583  1.00  0.00    -0.502 OA
ATOM     23  H   UNL     1     -11.190  30.908  11.469  1.00  0.00     0.293 HD
ENDBRANCH   2  22
BRANCH   6  24
ATOM     24  O   UNL     1     -12.948  32.677   6.814  1.00  0.00    -0.507 OA
ATOM     25  H   UNL     1     -12.578  32.047   6.118  1.00  0.00     0.293 HD
ENDBRANCH   6  24
BRANCH   8  26
ATOM     26  O   UNL     1     -17.718  33.055   6.879  1.00  0.00    -0.508 OA
ATOM     27  H   UNL     1     -18.195  33.907   7.152  1.00  0.00     0.293 HD
ENDBRANCH   8  26
TORSDOF 6
ENDMDL
