MODEL 1
REMARK VINA RESULT:    -4.579      0.000      0.000
REMARK INTER + INTRA:         -10.496
REMARK INTER:                  -8.595
REMARK INTRA:                  -1.901
REMARK UNBOUND:                -1.901
REMARK SMILES CCCCCCCCC=CCCCCCCCC(=O)[O-]
REMARK SMILES IDX 10 1 9 2 11 3 12 4 13 5 14 6 15 7 16 8 17 9 18 10 19 11
REMARK SMILES IDX 20 12 8 13 7 14 6 15 5 16 4 17 3 18 2 19 1 20
REMARK H PARENT
REMARK Flexibility Score: inf
ROOT
ATOM      1  C   UNL     1       2.975  10.413  85.099  1.00  0.00    -0.031 C 
ATOM      2  C   UNL     1       3.319  10.254  86.391  1.00  0.00    -0.031 C 
ENDROOT
BRANCH   1   3
ATOM      3  C   UNL     1       2.117   9.450  84.309  1.00  0.00     0.027 C 
BRANCH   3   4
ATOM      4  C   UNL     1       2.641   9.285  82.876  1.00  0.00     0.004 C 
BRANCH   4   5
ATOM      5  C   UNL     1       4.140   9.614  82.774  1.00  0.00     0.000 C 
BRANCH   5   6
ATOM      6  C   UNL     1       4.955   8.503  82.089  1.00  0.00     0.000 C 
BRANCH   6   7
ATOM      7  C   UNL     1       6.475   8.744  82.043  1.00  0.00     0.000 C 
BRANCH   7   8
ATOM      8  C   UNL     1       7.060   8.624  80.628  1.00  0.00     0.006 C 
BRANCH   8   9
ATOM      9  C   UNL     1       6.941   7.189  80.104  1.00  0.00     0.053 C 
BRANCH   9  10
ATOM     10  C   UNL     1       8.281   6.668  79.695  1.00  0.00     0.041 C 
ATOM     11  O   UNL     1       9.122   7.436  79.158  1.00  0.00    -0.550 OA
ATOM     12  O   UNL     1       8.584   5.321  79.860  1.00  0.00    -0.550 OA
ENDBRANCH   9  10
ENDBRANCH   8   9
ENDBRANCH   7   8
ENDBRANCH   6   7
ENDBRANCH   5   6
ENDBRANCH   4   5
ENDBRANCH   3   4
ENDBRANCH   1   3
BRANCH   2  13
ATOM     13  C   UNL     1       2.845   9.130  87.275  1.00  0.00     0.027 C 
BRANCH  13  14
ATOM     14  C   UNL     1       1.804   9.631  88.289  1.00  0.00     0.004 C 
BRANCH  14  15
ATOM     15  C   UNL     1       0.373   9.177  87.949  1.00  0.00     0.000 C 
BRANCH  15  16
ATOM     16  C   UNL     1       0.238   7.690  87.576  1.00  0.00     0.000 C 
BRANCH  16  17
ATOM     17  C   UNL     1      -0.237   7.477  86.131  1.00  0.00    -0.000 C 
BRANCH  17  18
ATOM     18  C   UNL     1       0.391   6.211  85.527  1.00  0.00    -0.000 C 
BRANCH  18  19
ATOM     19  C   UNL     1       1.684   5.793  86.242  1.00  0.00    -0.003 C 
ATOM     20  C   UNL     1       2.931   6.011  85.385  1.00  0.00     0.004 C 
ENDBRANCH  18  19
ENDBRANCH  17  18
ENDBRANCH  16  17
ENDBRANCH  15  16
ENDBRANCH  14  15
ENDBRANCH  13  14
ENDBRANCH   2  13
TORSDOF 15
ENDMDL
MODEL 2
REMARK VINA RESULT:    -4.462      1.433      2.486
REMARK INTER + INTRA:         -10.276
REMARK INTER:                  -8.843
REMARK INTRA:                  -1.433
REMARK UNBOUND:                -1.901
REMARK SMILES CCCCCCCCC=CCCCCCCCC(=O)[O-]
REMARK SMILES IDX 10 1 9 2 11 3 12 4 13 5 14 6 15 7 16 8 17 9 18 10 19 11
REMARK SMILES IDX 20 12 8 13 7 14 6 15 5 16 4 17 3 18 2 19 1 20
REMARK H PARENT
REMARK Flexibility Score: inf
ROOT
ATOM      1  C   UNL     1       2.932  11.689  83.152  1.00  0.00    -0.031 C 
ATOM      2  C   UNL     1       2.135  10.860  83.852  1.00  0.00    -0.031 C 
ENDROOT
BRANCH   1   3
ATOM      3  C   UNL     1       3.224  11.563  81.674  1.00  0.00     0.027 C 
BRANCH   3   4
ATOM      4  C   UNL     1       4.708  11.261  81.423  1.00  0.00     0.004 C 
BRANCH   4   5
ATOM      5  C   UNL     1       5.269  10.262  82.449  1.00  0.00     0.000 C 
BRANCH   5   6
ATOM      6  C   UNL     1       5.414   8.837  81.885  1.00  0.00     0.000 C 
BRANCH   6   7
ATOM      7  C   UNL     1       6.831   8.465  81.413  1.00  0.00     0.000 C 
BRANCH   7   8
ATOM      8  C   UNL     1       6.837   7.374  80.332  1.00  0.00     0.006 C 
BRANCH   8   9
ATOM      9  C   UNL     1       7.868   7.686  79.243  1.00  0.00     0.053 C 
BRANCH   9  10
ATOM     10  C   UNL     1       8.968   6.672  79.259  1.00  0.00     0.041 C 
ATOM     11  O   UNL     1       8.708   5.459  79.472  1.00  0.00    -0.550 OA
ATOM     12  O   UNL     1      10.287   7.076  79.089  1.00  0.00    -0.550 OA
ENDBRANCH   9  10
ENDBRANCH   8   9
ENDBRANCH   7   8
ENDBRANCH   6   7
ENDBRANCH   5   6
ENDBRANCH   4   5
ENDBRANCH   3   4
ENDBRANCH   1   3
BRANCH   2  13
ATOM     13  C   UNL     1       1.350   9.718  83.260  1.00  0.00     0.027 C 
BRANCH  13  14
ATOM     14  C   UNL     1      -0.029   9.596  83.927  1.00  0.00     0.004 C 
BRANCH  14  15
ATOM     15  C   UNL     1      -0.148   8.352  84.828  1.00  0.00     0.000 C 
BRANCH  15  16
ATOM     16  C   UNL     1       0.175   8.595  86.313  1.00  0.00     0.000 C 
BRANCH  16  17
ATOM     17  C   UNL     1       1.245   7.638  86.857  1.00  0.00    -0.000 C 
BRANCH  17  18
ATOM     18  C   UNL     1       2.594   7.866  86.157  1.00  0.00    -0.000 C 
BRANCH  18  19
ATOM     19  C   UNL     1       3.044   6.654  85.328  1.00  0.00    -0.003 C 
ATOM     20  C   UNL     1       2.233   5.395  85.634  1.00  0.00     0.004 C 
ENDBRANCH  18  19
ENDBRANCH  17  18
ENDBRANCH  16  17
ENDBRANCH  15  16
ENDBRANCH  14  15
ENDBRANCH  13  14
ENDBRANCH   2  13
TORSDOF 15
ENDMDL
MODEL 3
REMARK VINA RESULT:    -4.439      1.452      2.233
REMARK INTER + INTRA:         -10.233
REMARK INTER:                  -8.301
REMARK INTRA:                  -1.932
REMARK UNBOUND:                -1.901
REMARK SMILES CCCCCCCCC=CCCCCCCCC(=O)[O-]
REMARK SMILES IDX 10 1 9 2 11 3 12 4 13 5 14 6 15 7 16 8 17 9 18 10 19 11
REMARK SMILES IDX 20 12 8 13 7 14 6 15 5 16 4 17 3 18 2 19 1 20
REMARK H PARENT
REMARK Flexibility Score: inf
ROOT
ATOM      1  C   UNL     1       0.443   9.786  83.386  1.00  0.00    -0.031 C 
ATOM      2  C   UNL     1      -0.275  10.309  84.398  1.00  0.00    -0.031 C 
ENDROOT
BRANCH   1   3
ATOM      3  C   UNL     1       1.688  10.411  82.797  1.00  0.00     0.027 C 
BRANCH   3   4
ATOM      4  C   UNL     1       2.893   9.470  82.918  1.00  0.00     0.004 C 
BRANCH   4   5
ATOM      5  C   UNL     1       4.208  10.246  83.100  1.00  0.00     0.000 C 
BRANCH   5   6
ATOM      6  C   UNL     1       5.181  10.069  81.920  1.00  0.00     0.000 C 
BRANCH   6   7
ATOM      7  C   UNL     1       5.720   8.639  81.729  1.00  0.00     0.000 C 
BRANCH   7   8
ATOM      8  C   UNL     1       7.199   8.606  81.316  1.00  0.00     0.006 C 
BRANCH   8   9
ATOM      9  C   UNL     1       7.343   8.353  79.812  1.00  0.00     0.053 C 
BRANCH   9  10
ATOM     10  C   UNL     1       8.231   7.176  79.562  1.00  0.00     0.041 C 
ATOM     11  O   UNL     1       9.287   7.311  78.890  1.00  0.00    -0.550 OA
ATOM     12  O   UNL     1       7.866   5.917  80.027  1.00  0.00    -0.550 OA
ENDBRANCH   9  10
ENDBRANCH   8   9
ENDBRANCH   7   8
ENDBRANCH   6   7
ENDBRANCH   5   6
ENDBRANCH   4   5
ENDBRANCH   3   4
ENDBRANCH   1   3
BRANCH   2  13
ATOM     13  C   UNL     1       0.089  11.560  85.154  1.00  0.00     0.027 C 
BRANCH  13  14
ATOM     14  C   UNL     1       0.503  11.230  86.596  1.00  0.00     0.004 C 
BRANCH  14  15
ATOM     15  C   UNL     1       2.029  11.243  86.797  1.00  0.00     0.000 C 
BRANCH  15  16
ATOM     16  C   UNL     1       2.729   9.899  86.528  1.00  0.00     0.000 C 
BRANCH  16  17
ATOM     17  C   UNL     1       2.176   8.754  87.390  1.00  0.00    -0.000 C 
BRANCH  17  18
ATOM     18  C   UNL     1       1.639   7.614  86.510  1.00  0.00    -0.000 C 
BRANCH  18  19
ATOM     19  C   UNL     1       2.717   7.013  85.597  1.00  0.00    -0.003 C 
ATOM     20  C   UNL     1       2.679   5.485  85.561  1.00  0.00     0.004 C 
ENDBRANCH  18  19
ENDBRANCH  17  18
ENDBRANCH  16  17
ENDBRANCH  15  16
ENDBRANCH  14  15
ENDBRANCH  13  14
ENDBRANCH   2  13
TORSDOF 15
ENDMDL
MODEL 4
REMARK VINA RESULT:    -4.431      3.450      5.489
REMARK INTER + INTRA:         -10.217
REMARK INTER:                  -8.025
REMARK INTRA:                  -2.192
REMARK UNBOUND:                -1.901
REMARK SMILES CCCCCCCCC=CCCCCCCCC(=O)[O-]
REMARK SMILES IDX 10 1 9 2 11 3 12 4 13 5 14 6 15 7 16 8 17 9 18 10 19 11
REMARK SMILES IDX 20 12 8 13 7 14 6 15 5 16 4 17 3 18 2 19 1 20
REMARK H PARENT
REMARK Flexibility Score: inf
ROOT
ATOM      1  C   UNL     1       4.230  12.461  83.677  1.00  0.00    -0.031 C 
ATOM      2  C   UNL     1       2.906  12.680  83.781  1.00  0.00    -0.031 C 
ENDROOT
BRANCH   1   3
ATOM      3  C   UNL     1       4.893  11.106  83.788  1.00  0.00     0.027 C 
BRANCH   3   4
ATOM      4  C   UNL     1       5.115  10.480  82.405  1.00  0.00     0.004 C 
BRANCH   4   5
ATOM      5  C   UNL     1       4.590   9.036  82.340  1.00  0.00     0.000 C 
BRANCH   5   6
ATOM      6  C   UNL     1       5.580   8.064  81.673  1.00  0.00     0.000 C 
BRANCH   6   7
ATOM      7  C   UNL     1       6.896   8.703  81.192  1.00  0.00     0.000 C 
BRANCH   7   8
ATOM      8  C   UNL     1       7.380   8.143  79.847  1.00  0.00     0.006 C 
BRANCH   8   9
ATOM      9  C   UNL     1       7.370   6.611  79.855  1.00  0.00     0.053 C 
BRANCH   9  10
ATOM     10  C   UNL     1       8.732   6.077  79.547  1.00  0.00     0.041 C 
ATOM     11  O   UNL     1       9.042   4.903  79.881  1.00  0.00    -0.550 OA
ATOM     12  O   UNL     1       9.678   6.893  78.938  1.00  0.00    -0.550 OA
ENDBRANCH   9  10
ENDBRANCH   8   9
ENDBRANCH   7   8
ENDBRANCH   6   7
ENDBRANCH   5   6
ENDBRANCH   4   5
ENDBRANCH   3   4
ENDBRANCH   1   3
BRANCH   2  13
ATOM     13  C   UNL     1       1.867  11.603  83.952  1.00  0.00     0.027 C 
BRANCH  13  14
ATOM     14  C   UNL     1       1.427  11.043  82.591  1.00  0.00     0.004 C 
BRANCH  14  15
ATOM     15  C   UNL     1       1.208  12.143  81.536  1.00  0.00     0.000 C 
BRANCH  15  16
ATOM     16  C   UNL     1       2.120  12.045  80.300  1.00  0.00     0.000 C 
BRANCH  16  17
ATOM     17  C   UNL     1       3.066  13.246  80.158  1.00  0.00    -0.000 C 
BRANCH  17  18
ATOM     18  C   UNL     1       4.198  12.940  79.164  1.00  0.00    -0.000 C 
BRANCH  18  19
ATOM     19  C   UNL     1       5.553  12.733  79.855  1.00  0.00    -0.003 C 
ATOM     20  C   UNL     1       6.450  11.741  79.114  1.00  0.00     0.004 C 
ENDBRANCH  18  19
ENDBRANCH  17  18
ENDBRANCH  16  17
ENDBRANCH  15  16
ENDBRANCH  14  15
ENDBRANCH  13  14
ENDBRANCH   2  13
TORSDOF 15
ENDMDL
MODEL 5
REMARK VINA RESULT:    -4.419      2.104      3.792
REMARK INTER + INTRA:         -10.195
REMARK INTER:                  -8.355
REMARK INTRA:                  -1.840
REMARK UNBOUND:                -1.901
REMARK SMILES CCCCCCCCC=CCCCCCCCC(=O)[O-]
REMARK SMILES IDX 10 1 9 2 11 3 12 4 13 5 14 6 15 7 16 8 17 9 18 10 19 11
REMARK SMILES IDX 20 12 8 13 7 14 6 15 5 16 4 17 3 18 2 19 1 20
REMARK H PARENT
REMARK Flexibility Score: inf
ROOT
ATOM      1  C   UNL     1       3.000  12.346  80.259  1.00  0.00    -0.031 C 
ATOM      2  C   UNL     1       1.776  11.786  80.271  1.00  0.00    -0.031 C 
ENDROOT
BRANCH   1   3
ATOM      3  C   UNL     1       3.596  13.143  81.398  1.00  0.00     0.027 C 
BRANCH   3   4
ATOM      4  C   UNL     1       4.345  12.235  82.381  1.00  0.00     0.004 C 
BRANCH   4   5
ATOM      5  C   UNL     1       4.914  10.986  81.685  1.00  0.00     0.000 C 
BRANCH   5   6
ATOM      6  C   UNL     1       4.887   9.734  82.580  1.00  0.00     0.000 C 
BRANCH   6   7
ATOM      7  C   UNL     1       5.219   8.413  81.862  1.00  0.00     0.000 C 
BRANCH   7   8
ATOM      8  C   UNL     1       6.628   8.400  81.249  1.00  0.00     0.006 C 
BRANCH   8   9
ATOM      9  C   UNL     1       6.773   7.264  80.232  1.00  0.00     0.053 C 
BRANCH   9  10
ATOM     10  C   UNL     1       8.210   7.071  79.865  1.00  0.00     0.041 C 
ATOM     11  O   UNL     1       8.646   5.920  79.597  1.00  0.00    -0.550 OA
ATOM     12  O   UNL     1       9.080   8.155  79.868  1.00  0.00    -0.550 OA
ENDBRANCH   9  10
ENDBRANCH   8   9
ENDBRANCH   7   8
ENDBRANCH   6   7
ENDBRANCH   5   6
ENDBRANCH   4   5
ENDBRANCH   3   4
ENDBRANCH   1   3
BRANCH   2  13
ATOM     13  C   UNL     1       0.834  11.801  81.447  1.00  0.00     0.027 C 
BRANCH  13  14
ATOM     14  C   UNL     1       0.345  10.382  81.778  1.00  0.00     0.004 C 
BRANCH  14  15
ATOM     15  C   UNL     1       0.460  10.045  83.276  1.00  0.00     0.000 C 
BRANCH  15  16
ATOM     16  C   UNL     1       1.518  10.858  84.043  1.00  0.00     0.000 C 
BRANCH  16  17
ATOM     17  C   UNL     1       2.235  10.036  85.124  1.00  0.00    -0.000 C 
BRANCH  17  18
ATOM     18  C   UNL     1       1.798   8.564  85.076  1.00  0.00    -0.000 C 
BRANCH  18  19
ATOM     19  C   UNL     1       2.678   7.655  85.947  1.00  0.00    -0.003 C 
ATOM     20  C   UNL     1       2.929   6.288  85.310  1.00  0.00     0.004 C 
ENDBRANCH  18  19
ENDBRANCH  17  18
ENDBRANCH  16  17
ENDBRANCH  15  16
ENDBRANCH  14  15
ENDBRANCH  13  14
ENDBRANCH   2  13
TORSDOF 15
ENDMDL
MODEL 6
REMARK VINA RESULT:    -4.375      3.754      8.228
REMARK INTER + INTRA:         -10.113
REMARK INTER:                  -9.146
REMARK INTRA:                  -0.967
REMARK UNBOUND:                -1.901
REMARK SMILES CCCCCCCCC=CCCCCCCCC(=O)[O-]
REMARK SMILES IDX 10 1 9 2 11 3 12 4 13 5 14 6 15 7 16 8 17 9 18 10 19 11
REMARK SMILES IDX 20 12 8 13 7 14 6 15 5 16 4 17 3 18 2 19 1 20
REMARK H PARENT
REMARK Flexibility Score: inf
ROOT
ATOM      1  C   UNL     1       1.657   8.926  84.149  1.00  0.00    -0.031 C 
ATOM      2  C   UNL     1       2.274   9.835  83.372  1.00  0.00    -0.031 C 
ENDROOT
BRANCH   1   3
ATOM      3  C   UNL     1       2.292   8.225  85.330  1.00  0.00     0.027 C 
BRANCH   3   4
ATOM      4  C   UNL     1       2.812   6.836  84.940  1.00  0.00     0.004 C 
BRANCH   4   5
ATOM      5  C   UNL     1       2.438   5.771  85.984  1.00  0.00     0.000 C 
BRANCH   5   6
ATOM      6  C   UNL     1       1.026   5.967  86.565  1.00  0.00     0.000 C 
BRANCH   6   7
ATOM      7  C   UNL     1       0.779   5.283  87.922  1.00  0.00     0.000 C 
BRANCH   7   8
ATOM      8  C   UNL     1       0.537   3.771  87.797  1.00  0.00     0.006 C 
BRANCH   8   9
ATOM      9  C   UNL     1       1.365   2.996  88.826  1.00  0.00     0.053 C 
BRANCH   9  10
ATOM     10  C   UNL     1       2.383   2.141  88.140  1.00  0.00     0.041 C 
ATOM     11  O   UNL     1       2.603   0.969  88.547  1.00  0.00    -0.550 OA
ATOM     12  O   UNL     1       3.127   2.656  87.085  1.00  0.00    -0.550 OA
ENDBRANCH   9  10
ENDBRANCH   8   9
ENDBRANCH   7   8
ENDBRANCH   6   7
ENDBRANCH   5   6
ENDBRANCH   4   5
ENDBRANCH   3   4
ENDBRANCH   1   3
BRANCH   2  13
ATOM     13  C   UNL     1       3.671  10.354  83.598  1.00  0.00     0.027 C 
BRANCH  13  14
ATOM     14  C   UNL     1       4.531  10.182  82.336  1.00  0.00     0.004 C 
BRANCH  14  15
ATOM     15  C   UNL     1       5.092   8.755  82.186  1.00  0.00     0.000 C 
BRANCH  15  16
ATOM     16  C   UNL     1       6.483   8.672  81.534  1.00  0.00     0.000 C 
BRANCH  16  17
ATOM     17  C   UNL     1       6.630   7.470  80.589  1.00  0.00    -0.000 C 
BRANCH  17  18
ATOM     18  C   UNL     1       7.415   7.857  79.326  1.00  0.00    -0.000 C 
BRANCH  18  19
ATOM     19  C   UNL     1       8.932   7.692  79.497  1.00  0.00    -0.003 C 
ATOM     20  C   UNL     1       9.644   9.016  79.773  1.00  0.00     0.004 C 
ENDBRANCH  18  19
ENDBRANCH  17  18
ENDBRANCH  16  17
ENDBRANCH  15  16
ENDBRANCH  14  15
ENDBRANCH  13  14
ENDBRANCH   2  13
TORSDOF 15
ENDMDL
MODEL 7
REMARK VINA RESULT:    -4.364      1.755      3.488
REMARK INTER + INTRA:         -10.091
REMARK INTER:                  -8.457
REMARK INTRA:                  -1.634
REMARK UNBOUND:                -1.901
REMARK SMILES CCCCCCCCC=CCCCCCCCC(=O)[O-]
REMARK SMILES IDX 10 1 9 2 11 3 12 4 13 5 14 6 15 7 16 8 17 9 18 10 19 11
REMARK SMILES IDX 20 12 8 13 7 14 6 15 5 16 4 17 3 18 2 19 1 20
REMARK H PARENT
REMARK Flexibility Score: inf
ROOT
ATOM      1  C   UNL     1       2.210  12.556  81.445  1.00  0.00    -0.031 C 
ATOM      2  C   UNL     1       1.178  12.059  82.152  1.00  0.00    -0.031 C 
ENDROOT
BRANCH   1   3
ATOM      3  C   UNL     1       3.437  11.770  81.038  1.00  0.00     0.027 C 
BRANCH   3   4
ATOM      4  C   UNL     1       4.610  12.037  81.991  1.00  0.00     0.004 C 
BRANCH   4   5
ATOM      5  C   UNL     1       4.910  10.820  82.882  1.00  0.00     0.000 C 
BRANCH   5   6
ATOM      6  C   UNL     1       4.388   9.498  82.292  1.00  0.00     0.000 C 
BRANCH   6   7
ATOM      7  C   UNL     1       5.457   8.409  82.088  1.00  0.00     0.000 C 
BRANCH   7   8
ATOM      8  C   UNL     1       6.629   8.874  81.210  1.00  0.00     0.006 C 
BRANCH   8   9
ATOM      9  C   UNL     1       7.200   7.710  80.395  1.00  0.00     0.053 C 
BRANCH   9  10
ATOM     10  C   UNL     1       8.570   8.042  79.897  1.00  0.00     0.041 C 
ATOM     11  O   UNL     1       9.207   9.009  80.393  1.00  0.00    -0.550 OA
ATOM     12  O   UNL     1       9.124   7.318  78.848  1.00  0.00    -0.550 OA
ENDBRANCH   9  10
ENDBRANCH   8   9
ENDBRANCH   7   8
ENDBRANCH   6   7
ENDBRANCH   5   6
ENDBRANCH   4   5
ENDBRANCH   3   4
ENDBRANCH   1   3
BRANCH   2  13
ATOM     13  C   UNL     1       1.045  10.623  82.587  1.00  0.00     0.027 C 
BRANCH  13  14
ATOM     14  C   UNL     1       1.262  10.486  84.102  1.00  0.00     0.004 C 
BRANCH  14  15
ATOM     15  C   UNL     1       1.059   9.045  84.607  1.00  0.00     0.000 C 
BRANCH  15  16
ATOM     16  C   UNL     1       2.355   8.298  84.967  1.00  0.00     0.000 C 
BRANCH  16  17
ATOM     17  C   UNL     1       2.519   8.078  86.478  1.00  0.00    -0.000 C 
BRANCH  17  18
ATOM     18  C   UNL     1       2.880   9.392  87.188  1.00  0.00    -0.000 C 
BRANCH  18  19
ATOM     19  C   UNL     1       2.518   9.378  88.680  1.00  0.00    -0.003 C 
ATOM     20  C   UNL     1       1.643  10.563  89.088  1.00  0.00     0.004 C 
ENDBRANCH  18  19
ENDBRANCH  17  18
ENDBRANCH  16  17
ENDBRANCH  15  16
ENDBRANCH  14  15
ENDBRANCH  13  14
ENDBRANCH   2  13
TORSDOF 15
ENDMDL
MODEL 8
REMARK VINA RESULT:    -4.363      1.932      2.773
REMARK INTER + INTRA:         -10.090
REMARK INTER:                  -8.981
REMARK INTRA:                  -1.109
REMARK UNBOUND:                -1.901
REMARK SMILES CCCCCCCCC=CCCCCCCCC(=O)[O-]
REMARK SMILES IDX 10 1 9 2 11 3 12 4 13 5 14 6 15 7 16 8 17 9 18 10 19 11
REMARK SMILES IDX 20 12 8 13 7 14 6 15 5 16 4 17 3 18 2 19 1 20
REMARK H PARENT
REMARK Flexibility Score: inf
ROOT
ATOM      1  C   UNL     1       2.816   7.749  85.012  1.00  0.00    -0.031 C 
ATOM      2  C   UNL     1       2.177   6.709  85.580  1.00  0.00    -0.031 C 
ENDROOT
BRANCH   1   3
ATOM      3  C   UNL     1       2.149   8.830  84.191  1.00  0.00     0.027 C 
BRANCH   3   4
ATOM      4  C   UNL     1       3.169   9.577  83.321  1.00  0.00     0.004 C 
BRANCH   4   5
ATOM      5  C   UNL     1       4.149   8.612  82.633  1.00  0.00     0.000 C 
BRANCH   5   6
ATOM      6  C   UNL     1       5.327   9.334  81.954  1.00  0.00     0.000 C 
BRANCH   6   7
ATOM      7  C   UNL     1       6.495   8.422  81.535  1.00  0.00     0.000 C 
BRANCH   7   8
ATOM      8  C   UNL     1       7.222   8.917  80.276  1.00  0.00     0.006 C 
BRANCH   8   9
ATOM      9  C   UNL     1       7.979   7.773  79.594  1.00  0.00     0.053 C 
BRANCH   9  10
ATOM     10  C   UNL     1       9.449   8.051  79.585  1.00  0.00     0.041 C 
ATOM     11  O   UNL     1      10.234   7.283  78.969  1.00  0.00    -0.550 OA
ATOM     12  O   UNL     1       9.957   9.128  80.301  1.00  0.00    -0.550 OA
ENDBRANCH   9  10
ENDBRANCH   8   9
ENDBRANCH   7   8
ENDBRANCH   6   7
ENDBRANCH   5   6
ENDBRANCH   4   5
ENDBRANCH   3   4
ENDBRANCH   1   3
BRANCH   2  13
ATOM     13  C   UNL     1       0.685   6.497  85.550  1.00  0.00     0.027 C 
BRANCH  13  14
ATOM     14  C   UNL     1       0.005   7.210  86.729  1.00  0.00     0.004 C 
BRANCH  14  15
ATOM     15  C   UNL     1      -0.320   6.259  87.895  1.00  0.00     0.000 C 
BRANCH  15  16
ATOM     16  C   UNL     1      -0.453   4.777  87.504  1.00  0.00     0.000 C 
BRANCH  16  17
ATOM     17  C   UNL     1      -0.189   3.822  88.677  1.00  0.00    -0.000 C 
BRANCH  17  18
ATOM     18  C   UNL     1       1.308   3.497  88.796  1.00  0.00    -0.000 C 
BRANCH  18  19
ATOM     19  C   UNL     1       2.022   3.491  87.436  1.00  0.00    -0.003 C 
ATOM     20  C   UNL     1       3.208   2.528  87.395  1.00  0.00     0.004 C 
ENDBRANCH  18  19
ENDBRANCH  17  18
ENDBRANCH  16  17
ENDBRANCH  15  16
ENDBRANCH  14  15
ENDBRANCH  13  14
ENDBRANCH   2  13
TORSDOF 15
ENDMDL
MODEL 9
REMARK VINA RESULT:    -4.309      4.452      8.962
REMARK INTER + INTRA:          -9.989
REMARK INTER:                  -8.242
REMARK INTRA:                  -1.747
REMARK UNBOUND:                -1.901
REMARK SMILES CCCCCCCCC=CCCCCCCCC(=O)[O-]
REMARK SMILES IDX 10 1 9 2 11 3 12 4 13 5 14 6 15 7 16 8 17 9 18 10 19 11
REMARK SMILES IDX 20 12 8 13 7 14 6 15 5 16 4 17 3 18 2 19 1 20
REMARK H PARENT
REMARK Flexibility Score: inf
ROOT
ATOM      1  C   UNL     1       5.997  11.723  79.656  1.00  0.00    -0.031 C 
ATOM      2  C   UNL     1       6.140  12.387  78.493  1.00  0.00    -0.031 C 
ENDROOT
BRANCH   1   3
ATOM      3  C   UNL     1       4.822  11.872  80.597  1.00  0.00     0.027 C 
BRANCH   3   4
ATOM      4  C   UNL     1       5.117  11.233  81.960  1.00  0.00     0.004 C 
BRANCH   4   5
ATOM      5  C   UNL     1       4.161  10.067  82.264  1.00  0.00     0.000 C 
BRANCH   5   6
ATOM      6  C   UNL     1       4.856   8.694  82.228  1.00  0.00     0.000 C 
BRANCH   6   7
ATOM      7  C   UNL     1       6.330   8.721  81.784  1.00  0.00     0.000 C 
BRANCH   7   8
ATOM      8  C   UNL     1       6.641   7.713  80.668  1.00  0.00     0.006 C 
BRANCH   8   9
ATOM      9  C   UNL     1       7.748   8.235  79.749  1.00  0.00     0.053 C 
BRANCH   9  10
ATOM     10  C   UNL     1       8.734   7.151  79.448  1.00  0.00     0.041 C 
ATOM     11  O   UNL     1       9.896   7.442  79.058  1.00  0.00    -0.550 OA
ATOM     12  O   UNL     1       8.354   5.818  79.549  1.00  0.00    -0.550 OA
ENDBRANCH   9  10
ENDBRANCH   8   9
ENDBRANCH   7   8
ENDBRANCH   6   7
ENDBRANCH   5   6
ENDBRANCH   4   5
ENDBRANCH   3   4
ENDBRANCH   1   3
BRANCH   2  13
ATOM     13  C   UNL     1       5.118  13.329  77.909  1.00  0.00     0.027 C 
BRANCH  13  14
ATOM     14  C   UNL     1       5.779  14.637  77.447  1.00  0.00     0.004 C 
BRANCH  14  15
ATOM     15  C   UNL     1       6.344  14.547  76.017  1.00  0.00     0.000 C 
BRANCH  15  16
ATOM     16  C   UNL     1       7.850  14.837  75.897  1.00  0.00     0.000 C 
BRANCH  16  17
ATOM     17  C   UNL     1       8.722  13.614  76.219  1.00  0.00    -0.000 C 
BRANCH  17  18
ATOM     18  C   UNL     1       9.564  13.857  77.482  1.00  0.00    -0.000 C 
BRANCH  18  19
ATOM     19  C   UNL     1       9.781  12.578  78.303  1.00  0.00    -0.003 C 
ATOM     20  C   UNL     1      10.047  12.862  79.781  1.00  0.00     0.004 C 
ENDBRANCH  18  19
ENDBRANCH  17  18
ENDBRANCH  16  17
ENDBRANCH  15  16
ENDBRANCH  14  15
ENDBRANCH  13  14
ENDBRANCH   2  13
TORSDOF 15
ENDMDL
