MODEL 1
REMARK VINA RESULT:     6.648      0.000      0.000
REMARK INTER + INTRA:           7.523
REMARK INTER:                   7.814
REMARK INTRA:                  -0.291
REMARK UNBOUND:                -0.291
REMARK SMILES O=c1cc(-c2ccc(O)c(O)c2)oc2cc(O)cc(O)c12
REMARK SMILES IDX 4 1 3 2 2 3 1 4 21 5 19 6 18 7 16 8 15 9 14 10 13 11 5 12
REMARK SMILES IDX 6 13 7 14 8 15 12 16 10 17 9 18 11 20 20 22 17 24
REMARK H PARENT 9 19 11 21 20 23 17 25
REMARK Flexibility Score: inf
ROOT
ATOM      1  C   UNL     1      -5.397   1.496  -5.799  1.00  0.00     0.138 A 
ATOM      2  C   UNL     1      -5.667   0.132  -5.615  1.00  0.00     0.100 A 
ATOM      3  C   UNL     1      -6.796  -0.434  -6.207  1.00  0.00     0.197 A 
ATOM      4  O   UNL     1      -7.046  -1.645  -5.973  1.00  0.00    -0.289 OA
ATOM      5  C   UNL     1      -7.643   0.363  -7.014  1.00  0.00     0.107 A 
ATOM      6  C   UNL     1      -8.798  -0.115  -7.700  1.00  0.00     0.134 A 
ATOM      7  C   UNL     1      -9.625   0.791  -8.375  1.00  0.00     0.093 A 
ATOM      8  C   UNL     1      -9.304   2.151  -8.438  1.00  0.00     0.123 A 
ATOM      9  C   UNL     1      -8.149   2.619  -7.817  1.00  0.00     0.094 A 
ATOM     10  C   UNL     1      -7.323   1.745  -7.107  1.00  0.00     0.146 A 
ATOM     11  O   UNL     1      -6.237   2.235  -6.516  1.00  0.00    -0.456 OA
ENDROOT
BRANCH   1  12
ATOM     12  C   UNL     1      -4.209   2.148  -5.192  1.00  0.00     0.021 A 
ATOM     13  C   UNL     1      -3.912   1.919  -3.839  1.00  0.00     0.016 A 
ATOM     14  C   UNL     1      -2.805   2.527  -3.244  1.00  0.00     0.051 A 
ATOM     15  C   UNL     1      -1.978   3.382  -3.979  1.00  0.00     0.157 A 
ATOM     16  C   UNL     1      -3.387   3.021  -5.929  1.00  0.00     0.062 A 
ATOM     17  C   UNL     1      -2.276   3.637  -5.338  1.00  0.00     0.158 A 
BRANCH  15  18
ATOM     18  O   UNL     1      -0.885   3.954  -3.325  1.00  0.00    -0.504 OA
ATOM     19  H   UNL     1      -0.057   3.441  -3.056  1.00  0.00     0.293 HD
ENDBRANCH  15  18
BRANCH  17  20
ATOM     20  O   UNL     1      -1.506   4.492  -6.131  1.00  0.00    -0.504 OA
ATOM     21  H   UNL     1      -0.530   4.688  -5.965  1.00  0.00     0.293 HD
ENDBRANCH  17  20
ENDBRANCH   1  12
BRANCH   6  22
ATOM     22  O   UNL     1      -9.162  -1.463  -7.771  1.00  0.00    -0.507 OA
ATOM     23  H   UNL     1      -9.548  -1.914  -8.585  1.00  0.00     0.293 HD
ENDBRANCH   6  22
BRANCH   8  24
ATOM     24  O   UNL     1     -10.125   3.042  -9.125  1.00  0.00    -0.508 OA
ATOM     25  H   UNL     1     -10.387   3.937  -8.726  1.00  0.00     0.293 HD
ENDBRANCH   8  24
TORSDOF 5
ENDMDL
MODEL 2
REMARK VINA RESULT:     7.635     13.473     14.549
REMARK INTER + INTRA:           8.683
REMARK INTER:                   8.948
REMARK INTRA:                  -0.265
REMARK UNBOUND:                -0.291
REMARK SMILES O=c1cc(-c2ccc(O)c(O)c2)oc2cc(O)cc(O)c12
REMARK SMILES IDX 4 1 3 2 2 3 1 4 21 5 19 6 18 7 16 8 15 9 14 10 13 11 5 12
REMARK SMILES IDX 6 13 7 14 8 15 12 16 10 17 9 18 11 20 20 22 17 24
REMARK H PARENT 9 19 11 21 20 23 17 25
REMARK Flexibility Score: inf
ROOT
ATOM      1  C   UNL     1      -1.856  -0.078   6.675  1.00  0.00     0.138 A 
ATOM      2  C   UNL     1      -0.523  -0.041   6.241  1.00  0.00     0.100 A 
ATOM      3  C   UNL     1       0.082  -1.205   5.767  1.00  0.00     0.197 A 
ATOM      4  O   UNL     1       1.297  -1.154   5.444  1.00  0.00    -0.289 OA
ATOM      5  C   UNL     1      -0.662  -2.407   5.700  1.00  0.00     0.107 A 
ATOM      6  C   UNL     1      -0.162  -3.645   5.197  1.00  0.00     0.134 A 
ATOM      7  C   UNL     1      -0.953  -4.797   5.287  1.00  0.00     0.093 A 
ATOM      8  C   UNL     1      -2.250  -4.742   5.807  1.00  0.00     0.123 A 
ATOM      9  C   UNL     1      -2.766  -3.528   6.250  1.00  0.00     0.094 A 
ATOM     10  C   UNL     1      -1.989  -2.368   6.206  1.00  0.00     0.146 A 
ATOM     11  O   UNL     1      -2.515  -1.232   6.652  1.00  0.00    -0.456 OA
ENDROOT
BRANCH   1  12
ATOM     12  C   UNL     1      -2.548   1.131   7.187  1.00  0.00     0.021 A 
ATOM     13  C   UNL     1      -3.574   1.714   6.425  1.00  0.00     0.016 A 
ATOM     14  C   UNL     1      -4.235   2.855   6.882  1.00  0.00     0.051 A 
ATOM     15  C   UNL     1      -3.882   3.447   8.099  1.00  0.00     0.157 A 
ATOM     16  C   UNL     1      -2.182   1.734   8.404  1.00  0.00     0.062 A 
ATOM     17  C   UNL     1      -2.838   2.882   8.868  1.00  0.00     0.158 A 
BRANCH  15  18
ATOM     18  O   UNL     1      -4.586   4.584   8.500  1.00  0.00    -0.504 OA
ATOM     19  H   UNL     1      -4.239   5.527   8.401  1.00  0.00     0.293 HD
ENDBRANCH  15  18
BRANCH  17  20
ATOM     20  O   UNL     1      -2.420   3.425  10.085  1.00  0.00    -0.504 OA
ATOM     21  H   UNL     1      -3.037   3.879  10.742  1.00  0.00     0.293 HD
ENDBRANCH  17  20
ENDBRANCH   1  12
BRANCH   6  22
ATOM     22  O   UNL     1       1.085  -3.791   4.582  1.00  0.00    -0.507 OA
ATOM     23  H   UNL     1       1.397  -3.268   3.778  1.00  0.00     0.293 HD
ENDBRANCH   6  22
BRANCH   8  24
ATOM     24  O   UNL     1      -3.034  -5.890   5.878  1.00  0.00    -0.508 OA
ATOM     25  H   UNL     1      -3.567  -6.220   5.081  1.00  0.00     0.293 HD
ENDBRANCH   8  24
TORSDOF 5
ENDMDL
MODEL 3
REMARK VINA RESULT:     7.925     14.037     14.492
REMARK INTER + INTRA:           9.024
REMARK INTER:                   9.339
REMARK INTRA:                  -0.315
REMARK UNBOUND:                -0.291
REMARK SMILES O=c1cc(-c2ccc(O)c(O)c2)oc2cc(O)cc(O)c12
REMARK SMILES IDX 4 1 3 2 2 3 1 4 21 5 19 6 18 7 16 8 15 9 14 10 13 11 5 12
REMARK SMILES IDX 6 13 7 14 8 15 12 16 10 17 9 18 11 20 20 22 17 24
REMARK H PARENT 9 19 11 21 20 23 17 25
REMARK Flexibility Score: inf
ROOT
ATOM      1  C   UNL     1      -1.341  -1.668   6.301  1.00  0.00     0.138 A 
ATOM      2  C   UNL     1      -0.125  -1.898   5.641  1.00  0.00     0.100 A 
ATOM      3  C   UNL     1       0.156  -3.167   5.134  1.00  0.00     0.197 A 
ATOM      4  O   UNL     1       1.280  -3.358   4.602  1.00  0.00    -0.289 OA
ATOM      5  C   UNL     1      -0.798  -4.203   5.264  1.00  0.00     0.107 A 
ATOM      6  C   UNL     1      -0.637  -5.525   4.751  1.00  0.00     0.134 A 
ATOM      7  C   UNL     1      -1.600  -6.500   5.041  1.00  0.00     0.093 A 
ATOM      8  C   UNL     1      -2.747  -6.184   5.775  1.00  0.00     0.123 A 
ATOM      9  C   UNL     1      -2.940  -4.884   6.233  1.00  0.00     0.094 A 
ATOM     10  C   UNL     1      -1.981  -3.897   5.990  1.00  0.00     0.146 A 
ATOM     11  O   UNL     1      -2.196  -2.672   6.457  1.00  0.00    -0.456 OA
ENDROOT
BRANCH   1  12
ATOM     12  C   UNL     1      -1.690  -0.336   6.858  1.00  0.00     0.021 A 
ATOM     13  C   UNL     1      -0.688   0.636   7.003  1.00  0.00     0.016 A 
ATOM     14  C   UNL     1      -0.990   1.893   7.531  1.00  0.00     0.051 A 
ATOM     15  C   UNL     1      -2.293   2.204   7.934  1.00  0.00     0.157 A 
ATOM     16  C   UNL     1      -2.998  -0.029   7.277  1.00  0.00     0.062 A 
ATOM     17  C   UNL     1      -3.309   1.228   7.810  1.00  0.00     0.158 A 
BRANCH  15  18
ATOM     18  O   UNL     1      -2.529   3.481   8.448  1.00  0.00    -0.504 OA
ATOM     19  H   UNL     1      -1.880   3.980   9.040  1.00  0.00     0.293 HD
ENDBRANCH  15  18
BRANCH  17  20
ATOM     20  O   UNL     1      -4.629   1.460   8.206  1.00  0.00    -0.504 OA
ATOM     21  H   UNL     1      -5.118   0.904   8.891  1.00  0.00     0.293 HD
ENDBRANCH  17  20
ENDBRANCH   1  12
BRANCH   6  22
ATOM     22  O   UNL     1       0.428  -5.922   3.938  1.00  0.00    -0.507 OA
ATOM     23  H   UNL     1       1.401  -5.745   4.134  1.00  0.00     0.293 HD
ENDBRANCH   6  22
BRANCH   8  24
ATOM     24  O   UNL     1      -3.706  -7.157   6.045  1.00  0.00    -0.508 OA
ATOM     25  H   UNL     1      -4.564  -6.935   6.537  1.00  0.00     0.293 HD
ENDBRANCH   8  24
TORSDOF 5
ENDMDL
MODEL 4
REMARK VINA RESULT:     8.328      1.518      2.849
REMARK INTER + INTRA:           9.498
REMARK INTER:                   9.774
REMARK INTRA:                  -0.276
REMARK UNBOUND:                -0.291
REMARK SMILES O=c1cc(-c2ccc(O)c(O)c2)oc2cc(O)cc(O)c12
REMARK SMILES IDX 4 1 3 2 2 3 1 4 21 5 19 6 18 7 16 8 15 9 14 10 13 11 5 12
REMARK SMILES IDX 6 13 7 14 8 15 12 16 10 17 9 18 11 20 20 22 17 24
REMARK H PARENT 9 19 11 21 20 23 17 25
REMARK Flexibility Score: inf
ROOT
ATOM      1  C   UNL     1      -5.869   1.309  -6.327  1.00  0.00     0.138 A 
ATOM      2  C   UNL     1      -6.833   2.193  -6.831  1.00  0.00     0.100 A 
ATOM      3  C   UNL     1      -7.870   1.703  -7.626  1.00  0.00     0.197 A 
ATOM      4  O   UNL     1      -8.685   2.529  -8.115  1.00  0.00    -0.289 OA
ATOM      5  C   UNL     1      -7.957   0.316  -7.893  1.00  0.00     0.107 A 
ATOM      6  C   UNL     1      -8.992  -0.301  -8.656  1.00  0.00     0.134 A 
ATOM      7  C   UNL     1      -8.911  -1.667  -8.951  1.00  0.00     0.093 A 
ATOM      8  C   UNL     1      -7.863  -2.450  -8.459  1.00  0.00     0.123 A 
ATOM      9  C   UNL     1      -6.876  -1.867  -7.667  1.00  0.00     0.094 A 
ATOM     10  C   UNL     1      -6.911  -0.500  -7.384  1.00  0.00     0.146 A 
ATOM     11  O   UNL     1      -5.943   0.019  -6.637  1.00  0.00    -0.456 OA
ENDROOT
BRANCH   1  12
ATOM     12  C   UNL     1      -4.746   1.778  -5.475  1.00  0.00     0.021 A 
ATOM     13  C   UNL     1      -4.457   1.099  -4.280  1.00  0.00     0.016 A 
ATOM     14  C   UNL     1      -3.411   1.524  -3.459  1.00  0.00     0.051 A 
ATOM     15  C   UNL     1      -2.639   2.638  -3.804  1.00  0.00     0.157 A 
ATOM     16  C   UNL     1      -3.980   2.908  -5.815  1.00  0.00     0.062 A 
ATOM     17  C   UNL     1      -2.931   3.342  -4.995  1.00  0.00     0.158 A 
BRANCH  15  18
ATOM     18  O   UNL     1      -1.605   3.007  -2.941  1.00  0.00    -0.504 OA
ATOM     19  H   UNL     1      -0.684   2.592  -2.953  1.00  0.00     0.293 HD
ENDBRANCH  15  18
BRANCH  17  20
ATOM     20  O   UNL     1      -2.214   4.473  -5.397  1.00  0.00    -0.504 OA
ATOM     21  H   UNL     1      -1.488   4.905  -4.846  1.00  0.00     0.293 HD
ENDBRANCH  17  20
ENDBRANCH   1  12
BRANCH   6  22
ATOM     22  O   UNL     1     -10.125   0.372  -9.123  1.00  0.00    -0.507 OA
ATOM     23  H   UNL     1     -11.062   0.000  -9.112  1.00  0.00     0.293 HD
ENDBRANCH   6  22
BRANCH   8  24
ATOM     24  O   UNL     1      -7.799  -3.812  -8.745  1.00  0.00    -0.508 OA
ATOM     25  H   UNL     1      -7.228  -4.168  -9.503  1.00  0.00     0.293 HD
ENDBRANCH   8  24
TORSDOF 5
ENDMDL
MODEL 5
REMARK VINA RESULT:     8.697     14.005     15.012
REMARK INTER + INTRA:           9.932
REMARK INTER:                  10.228
REMARK INTRA:                  -0.296
REMARK UNBOUND:                -0.291
REMARK SMILES O=c1cc(-c2ccc(O)c(O)c2)oc2cc(O)cc(O)c12
REMARK SMILES IDX 4 1 3 2 2 3 1 4 21 5 19 6 18 7 16 8 15 9 14 10 13 11 5 12
REMARK SMILES IDX 6 13 7 14 8 15 12 16 10 17 9 18 11 20 20 22 17 24
REMARK H PARENT 9 19 11 21 20 23 17 25
REMARK Flexibility Score: inf
ROOT
ATOM      1  C   UNL     1      -1.445  -2.779   6.056  1.00  0.00     0.138 A 
ATOM      2  C   UNL     1      -0.190  -2.215   5.784  1.00  0.00     0.100 A 
ATOM      3  C   UNL     1       0.035  -0.866   6.058  1.00  0.00     0.197 A 
ATOM      4  O   UNL     1       1.150  -0.374   5.746  1.00  0.00    -0.289 OA
ATOM      5  C   UNL     1      -0.994  -0.084   6.636  1.00  0.00     0.107 A 
ATOM      6  C   UNL     1      -0.866   1.290   6.996  1.00  0.00     0.134 A 
ATOM      7  C   UNL     1      -1.988   1.992   7.453  1.00  0.00     0.093 A 
ATOM      8  C   UNL     1      -3.219   1.351   7.621  1.00  0.00     0.123 A 
ATOM      9  C   UNL     1      -3.341  -0.003   7.324  1.00  0.00     0.094 A 
ATOM     10  C   UNL     1      -2.249  -0.722   6.833  1.00  0.00     0.146 A 
ATOM     11  O   UNL     1      -2.411  -2.010   6.548  1.00  0.00    -0.456 OA
ENDROOT
BRANCH   1  12
ATOM     12  C   UNL     1      -1.737  -4.209   5.785  1.00  0.00     0.021 A 
ATOM     13  C   UNL     1      -2.934  -4.771   6.257  1.00  0.00     0.016 A 
ATOM     14  C   UNL     1      -3.228  -6.115   6.021  1.00  0.00     0.051 A 
ATOM     15  C   UNL     1      -2.333  -6.930   5.320  1.00  0.00     0.157 A 
ATOM     16  C   UNL     1      -0.829  -5.032   5.093  1.00  0.00     0.062 A 
ATOM     17  C   UNL     1      -1.115  -6.382   4.855  1.00  0.00     0.158 A 
BRANCH  15  18
ATOM     18  O   UNL     1      -2.690  -8.264   5.114  1.00  0.00    -0.504 OA
ATOM     19  H   UNL     1      -2.910  -8.656   4.209  1.00  0.00     0.293 HD
ENDBRANCH  15  18
BRANCH  17  20
ATOM     20  O   UNL     1      -0.165  -7.138   4.162  1.00  0.00    -0.504 OA
ATOM     21  H   UNL     1       0.512  -6.745   3.525  1.00  0.00     0.293 HD
ENDBRANCH  17  20
ENDBRANCH   1  12
BRANCH   6  22
ATOM     22  O   UNL     1       0.337   2.001   6.946  1.00  0.00    -0.507 OA
ATOM     23  H   UNL     1       1.097   1.806   6.314  1.00  0.00     0.293 HD
ENDBRANCH   6  22
BRANCH   8  24
ATOM     24  O   UNL     1      -4.326   2.054   8.091  1.00  0.00    -0.508 OA
ATOM     25  H   UNL     1      -4.674   2.877   7.612  1.00  0.00     0.293 HD
ENDBRANCH   8  24
TORSDOF 5
ENDMDL
MODEL 6
REMARK VINA RESULT:     8.807     13.679     14.215
REMARK INTER + INTRA:          10.061
REMARK INTER:                  10.343
REMARK INTRA:                  -0.282
REMARK UNBOUND:                -0.291
REMARK SMILES O=c1cc(-c2ccc(O)c(O)c2)oc2cc(O)cc(O)c12
REMARK SMILES IDX 4 1 3 2 2 3 1 4 21 5 19 6 18 7 16 8 15 9 14 10 13 11 5 12
REMARK SMILES IDX 6 13 7 14 8 15 12 16 10 17 9 18 11 20 20 22 17 24
REMARK H PARENT 9 19 11 21 20 23 17 25
REMARK Flexibility Score: inf
ROOT
ATOM      1  C   UNL     1      -1.036  -3.108   5.657  1.00  0.00     0.138 A 
ATOM      2  C   UNL     1      -2.084  -3.889   6.163  1.00  0.00     0.100 A 
ATOM      3  C   UNL     1      -2.191  -5.229   5.788  1.00  0.00     0.197 A 
ATOM      4  O   UNL     1      -3.177  -5.887   6.210  1.00  0.00    -0.289 OA
ATOM      5  C   UNL     1      -1.225  -5.797   4.925  1.00  0.00     0.107 A 
ATOM      6  C   UNL     1      -1.209  -7.161   4.507  1.00  0.00     0.134 A 
ATOM      7  C   UNL     1      -0.270  -7.582   3.559  1.00  0.00     0.093 A 
ATOM      8  C   UNL     1       0.694  -6.701   3.057  1.00  0.00     0.123 A 
ATOM      9  C   UNL     1       0.720  -5.381   3.499  1.00  0.00     0.094 A 
ATOM     10  C   UNL     1      -0.225  -4.922   4.419  1.00  0.00     0.146 A 
ATOM     11  O   UNL     1      -0.173  -3.651   4.804  1.00  0.00    -0.456 OA
ENDROOT
BRANCH   1  12
ATOM     12  C   UNL     1      -0.875  -1.679   6.024  1.00  0.00     0.021 A 
ATOM     13  C   UNL     1       0.413  -1.162   6.238  1.00  0.00     0.016 A 
ATOM     14  C   UNL     1       0.589   0.177   6.591  1.00  0.00     0.051 A 
ATOM     15  C   UNL     1      -0.511   1.026   6.749  1.00  0.00     0.157 A 
ATOM     16  C   UNL     1      -1.984  -0.829   6.197  1.00  0.00     0.062 A 
ATOM     17  C   UNL     1      -1.815   0.515   6.554  1.00  0.00     0.158 A 
BRANCH  15  18
ATOM     18  O   UNL     1      -0.265   2.356   7.098  1.00  0.00    -0.504 OA
ATOM     19  H   UNL     1      -0.012   3.076   6.436  1.00  0.00     0.293 HD
ENDBRANCH  15  18
BRANCH  17  20
ATOM     20  O   UNL     1      -2.963   1.297   6.709  1.00  0.00    -0.504 OA
ATOM     21  H   UNL     1      -3.895   0.920   6.794  1.00  0.00     0.293 HD
ENDBRANCH  17  20
ENDBRANCH   1  12
BRANCH   6  22
ATOM     22  O   UNL     1      -2.072  -8.140   5.009  1.00  0.00    -0.507 OA
ATOM     23  H   UNL     1      -3.066  -8.172   4.845  1.00  0.00     0.293 HD
ENDBRANCH   6  22
BRANCH   8  24
ATOM     24  O   UNL     1       1.633  -7.133   2.125  1.00  0.00    -0.508 OA
ATOM     25  H   UNL     1       1.513  -6.965   1.133  1.00  0.00     0.293 HD
ENDBRANCH   8  24
TORSDOF 5
ENDMDL
MODEL 7
REMARK VINA RESULT:     9.632      1.355      2.115
REMARK INTER + INTRA:          11.031
REMARK INTER:                  11.321
REMARK INTRA:                  -0.290
REMARK UNBOUND:                -0.291
REMARK SMILES O=c1cc(-c2ccc(O)c(O)c2)oc2cc(O)cc(O)c12
REMARK SMILES IDX 4 1 3 2 2 3 1 4 21 5 19 6 18 7 16 8 15 9 14 10 13 11 5 12
REMARK SMILES IDX 6 13 7 14 8 15 12 16 10 17 9 18 11 20 20 22 17 24
REMARK H PARENT 9 19 11 21 20 23 17 25
REMARK Flexibility Score: inf
ROOT
ATOM      1  C   UNL     1      -4.719   1.400  -5.216  1.00  0.00     0.138 A 
ATOM      2  C   UNL     1      -5.028   0.402  -4.282  1.00  0.00     0.100 A 
ATOM      3  C   UNL     1      -6.139  -0.416  -4.487  1.00  0.00     0.197 A 
ATOM      4  O   UNL     1      -6.426  -1.262  -3.600  1.00  0.00    -0.289 OA
ATOM      5  C   UNL     1      -6.929  -0.251  -5.650  1.00  0.00     0.107 A 
ATOM      6  C   UNL     1      -8.061  -1.052  -5.984  1.00  0.00     0.134 A 
ATOM      7  C   UNL     1      -8.834  -0.722  -7.103  1.00  0.00     0.093 A 
ATOM      8  C   UNL     1      -8.481   0.345  -7.935  1.00  0.00     0.123 A 
ATOM      9  C   UNL     1      -7.347   1.100  -7.647  1.00  0.00     0.094 A 
ATOM     10  C   UNL     1      -6.574   0.817  -6.518  1.00  0.00     0.146 A 
ATOM     11  O   UNL     1      -5.508   1.570  -6.272  1.00  0.00    -0.456 OA
ENDROOT
BRANCH   1  12
ATOM     12  C   UNL     1      -3.547   2.297  -5.047  1.00  0.00     0.021 A 
ATOM     13  C   UNL     1      -2.964   2.891  -6.177  1.00  0.00     0.016 A 
ATOM     14  C   UNL     1      -1.857   3.732  -6.045  1.00  0.00     0.051 A 
ATOM     15  C   UNL     1      -1.302   3.990  -4.788  1.00  0.00     0.157 A 
ATOM     16  C   UNL     1      -2.979   2.543  -3.783  1.00  0.00     0.062 A 
ATOM     17  C   UNL     1      -1.868   3.383  -3.642  1.00  0.00     0.158 A 
BRANCH  15  18
ATOM     18  O   UNL     1      -0.199   4.844  -4.724  1.00  0.00    -0.504 OA
ATOM     19  H   UNL     1      -0.021   5.480  -3.960  1.00  0.00     0.293 HD
ENDBRANCH  15  18
BRANCH  17  20
ATOM     20  O   UNL     1      -1.358   3.580  -2.356  1.00  0.00    -0.504 OA
ATOM     21  H   UNL     1      -1.873   3.387  -1.510  1.00  0.00     0.293 HD
ENDBRANCH  17  20
ENDBRANCH   1  12
BRANCH   6  22
ATOM     22  O   UNL     1      -8.451  -2.189  -5.270  1.00  0.00    -0.507 OA
ATOM     23  H   UNL     1      -9.127  -2.197  -4.522  1.00  0.00     0.293 HD
ENDBRANCH   6  22
BRANCH   8  24
ATOM     24  O   UNL     1      -9.248   0.657  -9.054  1.00  0.00    -0.508 OA
ATOM     25  H   UNL     1      -9.721  -0.062  -9.590  1.00  0.00     0.293 HD
ENDBRANCH   8  24
TORSDOF 5
ENDMDL
