MODEL 1
REMARK VINA RESULT:    -3.803      0.000      0.000
REMARK INTER + INTRA:          -5.449
REMARK INTER:                  -5.137
REMARK INTRA:                  -0.311
REMARK UNBOUND:                -0.311
REMARK SMILES CCCCCCCC(=O)[O-]
REMARK SMILES IDX 5 1 6 2 7 3 8 4 9 5 10 6 4 7 3 8 2 9 1 10
REMARK H PARENT
REMARK Flexibility Score: inf
ROOT
ATOM      1  C   UNL     1       8.520  12.694  21.592  1.00  0.00     0.000 C 
ENDROOT
BRANCH   1   2
ATOM      2  C   UNL     1       9.901  13.362  21.598  1.00  0.00     0.006 C 
BRANCH   2   3
ATOM      3  C   UNL     1       9.944  14.525  22.594  1.00  0.00     0.053 C 
BRANCH   3   4
ATOM      4  C   UNL     1      11.050  14.328  23.582  1.00  0.00     0.041 C 
ATOM      5  O   UNL     1      11.928  13.447  23.383  1.00  0.00    -0.550 OA
ATOM      6  O   UNL     1      11.142  15.151  24.697  1.00  0.00    -0.550 OA
ENDBRANCH   3   4
ENDBRANCH   2   3
ENDBRANCH   1   2
BRANCH   1   7
ATOM      7  C   UNL     1       7.511  13.509  22.409  1.00  0.00     0.000 C 
BRANCH   7   8
ATOM      8  C   UNL     1       6.553  12.590  23.175  1.00  0.00    -0.000 C 
BRANCH   8   9
ATOM      9  C   UNL     1       6.363  11.258  22.442  1.00  0.00    -0.003 C 
ATOM     10  C   UNL     1       4.897  10.835  22.436  1.00  0.00     0.004 C 
ENDBRANCH   8   9
ENDBRANCH   7   8
ENDBRANCH   1   7
TORSDOF 6
ENDMDL
MODEL 2
REMARK VINA RESULT:    -3.746      7.294      8.126
REMARK INTER + INTRA:          -5.371
REMARK INTER:                  -4.797
REMARK INTRA:                  -0.574
REMARK UNBOUND:                -0.311
REMARK SMILES CCCCCCCC(=O)[O-]
REMARK SMILES IDX 5 1 6 2 7 3 8 4 9 5 10 6 4 7 3 8 2 9 1 10
REMARK H PARENT
REMARK Flexibility Score: inf
ROOT
ATOM      1  C   UNL     1      14.392  18.363  24.117  1.00  0.00     0.000 C 
ENDROOT
BRANCH   1   2
ATOM      2  C   UNL     1      14.323  18.697  22.621  1.00  0.00     0.006 C 
BRANCH   2   3
ATOM      3  C   UNL     1      14.261  20.210  22.399  1.00  0.00     0.053 C 
BRANCH   3   4
ATOM      4  C   UNL     1      12.841  20.667  22.292  1.00  0.00     0.041 C 
ATOM      5  O   UNL     1      11.996  19.969  21.670  1.00  0.00    -0.550 OA
ATOM      6  O   UNL     1      12.436  21.838  22.920  1.00  0.00    -0.550 OA
ENDBRANCH   3   4
ENDBRANCH   2   3
ENDBRANCH   1   2
BRANCH   1   7
ATOM      7  C   UNL     1      13.321  17.335  24.501  1.00  0.00     0.000 C 
BRANCH   7   8
ATOM      8  C   UNL     1      12.637  17.719  25.818  1.00  0.00    -0.000 C 
BRANCH   8   9
ATOM      9  C   UNL     1      12.208  19.191  25.807  1.00  0.00    -0.003 C 
ATOM     10  C   UNL     1      10.893  19.377  25.055  1.00  0.00     0.004 C 
ENDBRANCH   8   9
ENDBRANCH   7   8
ENDBRANCH   1   7
TORSDOF 6
ENDMDL
MODEL 3
REMARK VINA RESULT:    -3.597      6.148      7.180
REMARK INTER + INTRA:          -5.170
REMARK INTER:                  -4.492
REMARK INTRA:                  -0.679
REMARK UNBOUND:                -0.311
REMARK SMILES CCCCCCCC(=O)[O-]
REMARK SMILES IDX 5 1 6 2 7 3 8 4 9 5 10 6 4 7 3 8 2 9 1 10
REMARK H PARENT
REMARK Flexibility Score: inf
ROOT
ATOM      1  C   UNL     1      11.308  19.017  24.736  1.00  0.00     0.000 C 
ENDROOT
BRANCH   1   2
ATOM      2  C   UNL     1      12.093  19.912  23.769  1.00  0.00     0.006 C 
BRANCH   2   3
ATOM      3  C   UNL     1      12.472  19.148  22.498  1.00  0.00     0.053 C 
BRANCH   3   4
ATOM      4  C   UNL     1      13.877  18.642  22.590  1.00  0.00     0.041 C 
ATOM      5  O   UNL     1      14.318  17.835  21.730  1.00  0.00    -0.550 OA
ATOM      6  O   UNL     1      14.717  19.099  23.598  1.00  0.00    -0.550 OA
ENDBRANCH   3   4
ENDBRANCH   2   3
ENDBRANCH   1   2
BRANCH   1   7
ATOM      7  C   UNL     1      12.085  18.798  26.038  1.00  0.00     0.000 C 
BRANCH   7   8
ATOM      8  C   UNL     1      12.798  17.441  26.033  1.00  0.00    -0.000 C 
BRANCH   8   9
ATOM      9  C   UNL     1      12.097  16.455  25.091  1.00  0.00    -0.003 C 
ATOM     10  C   UNL     1      13.101  15.520  24.424  1.00  0.00     0.004 C 
ENDBRANCH   8   9
ENDBRANCH   7   8
ENDBRANCH   1   7
TORSDOF 6
ENDMDL
MODEL 4
REMARK VINA RESULT:    -3.581      4.727      6.465
REMARK INTER + INTRA:          -5.149
REMARK INTER:                  -4.619
REMARK INTRA:                  -0.530
REMARK UNBOUND:                -0.311
REMARK SMILES CCCCCCCC(=O)[O-]
REMARK SMILES IDX 5 1 6 2 7 3 8 4 9 5 10 6 4 7 3 8 2 9 1 10
REMARK H PARENT
REMARK Flexibility Score: inf
ROOT
ATOM      1  C   UNL     1      12.497  17.731  25.828  1.00  0.00     0.000 C 
ENDROOT
BRANCH   1   2
ATOM      2  C   UNL     1      13.174  18.662  24.814  1.00  0.00     0.006 C 
BRANCH   2   3
ATOM      3  C   UNL     1      14.241  17.915  24.009  1.00  0.00     0.053 C 
BRANCH   3   4
ATOM      4  C   UNL     1      13.952  18.006  22.544  1.00  0.00     0.041 C 
ATOM      5  O   UNL     1      14.736  18.630  21.781  1.00  0.00    -0.550 OA
ATOM      6  O   UNL     1      12.843  17.360  22.012  1.00  0.00    -0.550 OA
ENDBRANCH   3   4
ENDBRANCH   2   3
ENDBRANCH   1   2
BRANCH   1   7
ATOM      7  C   UNL     1      12.695  16.261  25.442  1.00  0.00     0.000 C 
BRANCH   7   8
ATOM      8  C   UNL     1      11.412  15.670  24.846  1.00  0.00    -0.000 C 
BRANCH   8   9
ATOM      9  C   UNL     1      11.733  14.558  23.842  1.00  0.00    -0.003 C 
ATOM     10  C   UNL     1      13.165  14.058  24.010  1.00  0.00     0.004 C 
ENDBRANCH   8   9
ENDBRANCH   7   8
ENDBRANCH   1   7
TORSDOF 6
ENDMDL
MODEL 5
REMARK VINA RESULT:    -3.580      5.621      8.186
REMARK INTER + INTRA:          -5.147
REMARK INTER:                  -4.753
REMARK INTRA:                  -0.393
REMARK UNBOUND:                -0.311
REMARK SMILES CCCCCCCC(=O)[O-]
REMARK SMILES IDX 5 1 6 2 7 3 8 4 9 5 10 6 4 7 3 8 2 9 1 10
REMARK H PARENT
REMARK Flexibility Score: inf
ROOT
ATOM      1  C   UNL     1      14.440  18.348  24.096  1.00  0.00     0.000 C 
ENDROOT
BRANCH   1   2
ATOM      2  C   UNL     1      13.247  18.637  25.017  1.00  0.00     0.006 C 
BRANCH   2   3
ATOM      3  C   UNL     1      12.683  17.342  25.607  1.00  0.00     0.053 C 
BRANCH   3   4
ATOM      4  C   UNL     1      11.591  16.803  24.738  1.00  0.00     0.041 C 
ATOM      5  O   UNL     1      11.255  15.592  24.822  1.00  0.00    -0.550 OA
ATOM      6  O   UNL     1      10.911  17.647  23.871  1.00  0.00    -0.550 OA
ENDBRANCH   3   4
ENDBRANCH   2   3
ENDBRANCH   1   2
BRANCH   1   7
ATOM      7  C   UNL     1      14.097  18.666  22.636  1.00  0.00     0.000 C 
BRANCH   7   8
ATOM      8  C   UNL     1      14.427  20.125  22.299  1.00  0.00    -0.000 C 
BRANCH   8   9
ATOM      9  C   UNL     1      13.206  20.845  21.718  1.00  0.00    -0.003 C 
ATOM     10  C   UNL     1      12.398  21.535  22.814  1.00  0.00     0.004 C 
ENDBRANCH   8   9
ENDBRANCH   7   8
ENDBRANCH   1   7
TORSDOF 6
ENDMDL
MODEL 6
REMARK VINA RESULT:    -3.576      6.740      8.372
REMARK INTER + INTRA:          -5.141
REMARK INTER:                  -4.575
REMARK INTRA:                  -0.567
REMARK UNBOUND:                -0.311
REMARK SMILES CCCCCCCC(=O)[O-]
REMARK SMILES IDX 5 1 6 2 7 3 8 4 9 5 10 6 4 7 3 8 2 9 1 10
REMARK H PARENT
REMARK Flexibility Score: inf
ROOT
ATOM      1  C   UNL     1      14.437  18.723  23.927  1.00  0.00     0.000 C 
ENDROOT
BRANCH   1   2
ATOM      2  C   UNL     1      13.806  17.393  24.358  1.00  0.00     0.006 C 
BRANCH   2   3
ATOM      3  C   UNL     1      12.722  17.616  25.416  1.00  0.00     0.053 C 
BRANCH   3   4
ATOM      4  C   UNL     1      11.558  18.348  24.827  1.00  0.00     0.041 C 
ATOM      5  O   UNL     1      11.141  19.410  25.361  1.00  0.00    -0.550 OA
ATOM      6  O   UNL     1      10.965  17.887  23.659  1.00  0.00    -0.550 OA
ENDBRANCH   3   4
ENDBRANCH   2   3
ENDBRANCH   1   2
BRANCH   1   7
ATOM      7  C   UNL     1      14.412  18.876  22.402  1.00  0.00     0.000 C 
BRANCH   7   8
ATOM      8  C   UNL     1      14.114  20.325  22.000  1.00  0.00    -0.000 C 
BRANCH   8   9
ATOM      9  C   UNL     1      12.604  20.580  21.939  1.00  0.00    -0.003 C 
ATOM     10  C   UNL     1      12.200  21.725  22.865  1.00  0.00     0.004 C 
ENDBRANCH   8   9
ENDBRANCH   7   8
ENDBRANCH   1   7
TORSDOF 6
ENDMDL
MODEL 7
REMARK VINA RESULT:    -3.498      5.936      7.217
REMARK INTER + INTRA:          -5.036
REMARK INTER:                  -4.376
REMARK INTRA:                  -0.660
REMARK UNBOUND:                -0.311
REMARK SMILES CCCCCCCC(=O)[O-]
REMARK SMILES IDX 5 1 6 2 7 3 8 4 9 5 10 6 4 7 3 8 2 9 1 10
REMARK H PARENT
REMARK Flexibility Score: inf
ROOT
ATOM      1  C   UNL     1      12.163  16.462  22.902  1.00  0.00     0.000 C 
ENDROOT
BRANCH   1   2
ATOM      2  C   UNL     1      13.623  16.933  22.873  1.00  0.00     0.006 C 
BRANCH   2   3
ATOM      3  C   UNL     1      13.770  18.211  22.043  1.00  0.00     0.053 C 
BRANCH   3   4
ATOM      4  C   UNL     1      14.398  19.296  22.860  1.00  0.00     0.041 C 
ATOM      5  O   UNL     1      14.272  20.501  22.516  1.00  0.00    -0.550 OA
ATOM      6  O   UNL     1      15.081  18.982  24.028  1.00  0.00    -0.550 OA
ENDBRANCH   3   4
ENDBRANCH   2   3
ENDBRANCH   1   2
BRANCH   1   7
ATOM      7  C   UNL     1      11.413  17.067  24.095  1.00  0.00     0.000 C 
BRANCH   7   8
ATOM      8  C   UNL     1      12.304  17.107  25.342  1.00  0.00    -0.000 C 
BRANCH   8   9
ATOM      9  C   UNL     1      12.218  18.471  26.036  1.00  0.00    -0.003 C 
ATOM     10  C   UNL     1      11.360  19.446  25.233  1.00  0.00     0.004 C 
ENDBRANCH   8   9
ENDBRANCH   7   8
ENDBRANCH   1   7
TORSDOF 6
ENDMDL
MODEL 8
REMARK VINA RESULT:    -3.461      4.995      6.922
REMARK INTER + INTRA:          -4.987
REMARK INTER:                  -4.482
REMARK INTRA:                  -0.504
REMARK UNBOUND:                -0.311
REMARK SMILES CCCCCCCC(=O)[O-]
REMARK SMILES IDX 5 1 6 2 7 3 8 4 9 5 10 6 4 7 3 8 2 9 1 10
REMARK H PARENT
REMARK Flexibility Score: inf
ROOT
ATOM      1  C   UNL     1      13.206  18.731  25.039  1.00  0.00     0.000 C 
ENDROOT
BRANCH   1   2
ATOM      2  C   UNL     1      14.362  18.188  24.190  1.00  0.00     0.006 C 
BRANCH   2   3
ATOM      3  C   UNL     1      14.597  19.067  22.958  1.00  0.00     0.053 C 
BRANCH   3   4
ATOM      4  C   UNL     1      14.047  18.407  21.732  1.00  0.00     0.041 C 
ATOM      5  O   UNL     1      13.648  19.104  20.762  1.00  0.00    -0.550 OA
ATOM      6  O   UNL     1      14.022  17.021  21.639  1.00  0.00    -0.550 OA
ENDBRANCH   3   4
ENDBRANCH   2   3
ENDBRANCH   1   2
BRANCH   1   7
ATOM      7  C   UNL     1      12.430  17.589  25.706  1.00  0.00     0.000 C 
BRANCH   7   8
ATOM      8  C   UNL     1      12.801  16.237  25.087  1.00  0.00    -0.000 C 
BRANCH   8   9
ATOM      9  C   UNL     1      11.559  15.520  24.544  1.00  0.00    -0.003 C 
ATOM     10  C   UNL     1      11.059  16.179  23.261  1.00  0.00     0.004 C 
ENDBRANCH   8   9
ENDBRANCH   7   8
ENDBRANCH   1   7
TORSDOF 6
ENDMDL
MODEL 9
REMARK VINA RESULT:    -3.443      4.201      6.777
REMARK INTER + INTRA:          -4.962
REMARK INTER:                  -4.367
REMARK INTRA:                  -0.595
REMARK UNBOUND:                -0.311
REMARK SMILES CCCCCCCC(=O)[O-]
REMARK SMILES IDX 5 1 6 2 7 3 8 4 9 5 10 6 4 7 3 8 2 9 1 10
REMARK H PARENT
REMARK Flexibility Score: inf
ROOT
ATOM      1  C   UNL     1      13.858  17.630  22.583  1.00  0.00     0.000 C 
ENDROOT
BRANCH   1   2
ATOM      2  C   UNL     1      12.991  16.524  21.967  1.00  0.00     0.006 C 
BRANCH   2   3
ATOM      3  C   UNL     1      11.504  16.786  22.223  1.00  0.00     0.053 C 
BRANCH   3   4
ATOM      4  C   UNL     1      10.880  15.621  22.924  1.00  0.00     0.041 C 
ATOM      5  O   UNL     1      11.059  15.455  24.159  1.00  0.00    -0.550 OA
ATOM      6  O   UNL     1      10.060  14.745  22.224  1.00  0.00    -0.550 OA
ENDBRANCH   3   4
ENDBRANCH   2   3
ENDBRANCH   1   2
BRANCH   1   7
ATOM      7  C   UNL     1      13.990  17.444  24.099  1.00  0.00     0.000 C 
BRANCH   7   8
ATOM      8  C   UNL     1      13.563  18.712  24.848  1.00  0.00    -0.000 C 
BRANCH   8   9
ATOM      9  C   UNL     1      12.256  18.484  25.616  1.00  0.00    -0.003 C 
ATOM     10  C   UNL     1      11.107  19.277  24.999  1.00  0.00     0.004 C 
ENDBRANCH   8   9
ENDBRANCH   7   8
ENDBRANCH   1   7
TORSDOF 6
ENDMDL
