MODEL 1
REMARK VINA RESULT:    -7.133      0.000      0.000
REMARK INTER + INTRA:         -11.361
REMARK INTER:                 -10.260
REMARK INTRA:                  -1.100
REMARK UNBOUND:                -1.100
REMARK SMILES CC(C)=CCCC(C)=CCCC(C)=CCO
REMARK SMILES IDX 10 1 9 2 7 3 8 4 6 5 5 6 4 7 1 8 2 9 3 10 11 11 12 12 14 13
REMARK SMILES IDX 13 14 15 15 16 16
REMARK H PARENT 16 17
REMARK Flexibility Score: inf
ROOT
ATOM      1  C   UNL     1      -3.959   3.308  -3.264  1.00  0.00     0.032 C 
ENDROOT
BRANCH   1   2
ATOM      2  C   UNL     1      -4.290   3.397  -1.795  1.00  0.00    -0.028 C 
ATOM      3  C   UNL     1      -3.721   2.633  -0.835  1.00  0.00    -0.077 C 
ATOM      4  C   UNL     1      -2.637   1.629  -1.152  1.00  0.00     0.039 C 
BRANCH   3   5
ATOM      5  C   UNL     1      -4.177   2.796   0.599  1.00  0.00     0.034 C 
BRANCH   5   6
ATOM      6  C   UNL     1      -5.617   3.318   0.660  1.00  0.00     0.032 C 
BRANCH   6   7
ATOM      7  C   UNL     1      -6.578   2.227   1.065  1.00  0.00    -0.028 C 
ATOM      8  C   UNL     1      -7.678   2.242  -1.177  1.00  0.00     0.039 C 
ATOM      9  C   UNL     1      -7.520   1.730   0.235  1.00  0.00    -0.080 C 
ATOM     10  C   UNL     1      -8.429   0.640   0.741  1.00  0.00     0.039 C 
ENDBRANCH   6   7
ENDBRANCH   5   6
ENDBRANCH   3   5
ENDBRANCH   1   2
BRANCH   1  11
ATOM     11  C   UNL     1      -4.754   2.182  -3.933  1.00  0.00     0.034 C 
BRANCH  11  12
ATOM     12  C   UNL     1      -4.136   1.812  -5.266  1.00  0.00    -0.075 C 
ATOM     13  C   UNL     1      -3.354   0.722  -5.435  1.00  0.00    -0.000 C 
ATOM     14  C   UNL     1      -4.463   2.653  -6.472  1.00  0.00     0.039 C 
BRANCH  13  15
ATOM     15  C   UNL     1      -2.954  -0.220  -4.328  1.00  0.00     0.183 C 
BRANCH  15  16
ATOM     16  O   UNL     1      -2.028  -1.163  -4.793  1.00  0.00    -0.392 OA
ATOM     17  H   UNL     1      -2.553  -1.879  -5.240  1.00  0.00     0.210 HD
ENDBRANCH  15  16
ENDBRANCH  13  15
ENDBRANCH  11  12
ENDBRANCH   1  11
TORSDOF 8
ENDMDL
MODEL 2
REMARK VINA RESULT:    -6.732      2.627      6.297
REMARK INTER + INTRA:         -10.784
REMARK INTER:                  -9.956
REMARK INTRA:                  -0.828
REMARK UNBOUND:                -1.100
REMARK SMILES CC(C)=CCCC(C)=CCCC(C)=CCO
REMARK SMILES IDX 10 1 9 2 7 3 8 4 6 5 5 6 4 7 1 8 2 9 3 10 11 11 12 12 14 13
REMARK SMILES IDX 13 14 15 15 16 16
REMARK H PARENT 16 17
REMARK Flexibility Score: inf
ROOT
ATOM      1  C   UNL     1      -5.585   4.023  -1.655  1.00  0.00     0.032 C 
ENDROOT
BRANCH   1   2
ATOM      2  C   UNL     1      -4.880   3.930  -2.985  1.00  0.00    -0.028 C 
ATOM      3  C   UNL     1      -3.620   3.467  -3.152  1.00  0.00    -0.077 C 
ATOM      4  C   UNL     1      -2.803   2.941  -1.995  1.00  0.00     0.039 C 
BRANCH   3   5
ATOM      5  C   UNL     1      -3.016   3.466  -4.540  1.00  0.00     0.034 C 
BRANCH   5   6
ATOM      6  C   UNL     1      -4.108   3.350  -5.611  1.00  0.00     0.032 C 
BRANCH   6   7
ATOM      7  C   UNL     1      -4.473   1.907  -5.865  1.00  0.00    -0.028 C 
ATOM      8  C   UNL     1      -3.256   1.891  -8.046  1.00  0.00     0.039 C 
ATOM      9  C   UNL     1      -4.090   1.234  -6.971  1.00  0.00    -0.080 C 
ATOM     10  C   UNL     1      -4.509  -0.204  -7.126  1.00  0.00     0.039 C 
ENDBRANCH   6   7
ENDBRANCH   5   6
ENDBRANCH   3   5
ENDBRANCH   1   2
BRANCH   1  11
ATOM     11  C   UNL     1      -6.363   2.737  -1.361  1.00  0.00     0.034 C 
BRANCH  11  12
ATOM     12  C   UNL     1      -6.375   2.449   0.127  1.00  0.00    -0.075 C 
ATOM     13  C   UNL     1      -7.327   1.694   0.721  1.00  0.00    -0.000 C 
ATOM     14  C   UNL     1      -5.240   2.966   0.972  1.00  0.00     0.039 C 
BRANCH  13  15
ATOM     15  C   UNL     1      -8.512   1.098   0.004  1.00  0.00     0.183 C 
BRANCH  15  16
ATOM     16  O   UNL     1      -9.029   0.014   0.725  1.00  0.00    -0.392 OA
ATOM     17  H   UNL     1      -9.986   0.220   0.900  1.00  0.00     0.210 HD
ENDBRANCH  15  16
ENDBRANCH  13  15
ENDBRANCH  11  12
ENDBRANCH   1  11
TORSDOF 8
ENDMDL
MODEL 3
REMARK VINA RESULT:    -6.718      1.310      1.783
REMARK INTER + INTRA:         -10.764
REMARK INTER:                  -9.343
REMARK INTRA:                  -1.422
REMARK UNBOUND:                -1.100
REMARK SMILES CC(C)=CCCC(C)=CCCC(C)=CCO
REMARK SMILES IDX 10 1 9 2 7 3 8 4 6 5 5 6 4 7 1 8 2 9 3 10 11 11 12 12 14 13
REMARK SMILES IDX 13 14 15 15 16 16
REMARK H PARENT 16 17
REMARK Flexibility Score: inf
ROOT
ATOM      1  C   UNL     1      -4.483   2.244  -4.346  1.00  0.00     0.032 C 
ENDROOT
BRANCH   1   2
ATOM      2  C   UNL     1      -4.659   2.168  -2.850  1.00  0.00    -0.028 C 
ATOM      3  C   UNL     1      -3.854   2.780  -1.953  1.00  0.00    -0.077 C 
ATOM      4  C   UNL     1      -2.703   3.661  -2.384  1.00  0.00     0.039 C 
BRANCH   3   5
ATOM      5  C   UNL     1      -4.119   2.587  -0.475  1.00  0.00     0.034 C 
BRANCH   5   6
ATOM      6  C   UNL     1      -5.441   3.248  -0.067  1.00  0.00     0.032 C 
BRANCH   6   7
ATOM      7  C   UNL     1      -6.357   2.263   0.618  1.00  0.00    -0.028 C 
ATOM      8  C   UNL     1      -7.936   2.252  -1.316  1.00  0.00     0.039 C 
ATOM      9  C   UNL     1      -7.495   1.804   0.057  1.00  0.00    -0.080 C 
ATOM     10  C   UNL     1      -8.337   0.821   0.828  1.00  0.00     0.039 C 
ENDBRANCH   6   7
ENDBRANCH   5   6
ENDBRANCH   3   5
ENDBRANCH   1   2
BRANCH   1  11
ATOM     11  C   UNL     1      -3.902   0.936  -4.893  1.00  0.00     0.034 C 
BRANCH  11  12
ATOM     12  C   UNL     1      -2.400   0.896  -4.696  1.00  0.00    -0.075 C 
ATOM     13  C   UNL     1      -1.795   0.047  -3.834  1.00  0.00    -0.000 C 
ATOM     14  C   UNL     1      -1.536   1.790  -5.546  1.00  0.00     0.039 C 
BRANCH  13  15
ATOM     15  C   UNL     1      -2.525  -0.914  -2.931  1.00  0.00     0.183 C 
BRANCH  15  16
ATOM     16  O   UNL     1      -2.360  -0.550  -1.588  1.00  0.00    -0.392 OA
ATOM     17  H   UNL     1      -1.412  -0.738  -1.357  1.00  0.00     0.210 HD
ENDBRANCH  15  16
ENDBRANCH  13  15
ENDBRANCH  11  12
ENDBRANCH   1  11
TORSDOF 8
ENDMDL
MODEL 4
REMARK VINA RESULT:    -6.700      1.908      2.398
REMARK INTER + INTRA:         -10.738
REMARK INTER:                  -9.939
REMARK INTRA:                  -0.799
REMARK UNBOUND:                -1.100
REMARK SMILES CC(C)=CCCC(C)=CCCC(C)=CCO
REMARK SMILES IDX 10 1 9 2 7 3 8 4 6 5 5 6 4 7 1 8 2 9 3 10 11 11 12 12 14 13
REMARK SMILES IDX 13 14 15 15 16 16
REMARK H PARENT 16 17
REMARK Flexibility Score: inf
ROOT
ATOM      1  C   UNL     1      -4.300   1.794  -4.030  1.00  0.00     0.032 C 
ENDROOT
BRANCH   1   2
ATOM      2  C   UNL     1      -4.424   2.382  -2.647  1.00  0.00    -0.028 C 
ATOM      3  C   UNL     1      -3.718   1.965  -1.572  1.00  0.00    -0.077 C 
ATOM      4  C   UNL     1      -2.676   0.875  -1.676  1.00  0.00     0.039 C 
BRANCH   3   5
ATOM      5  C   UNL     1      -3.970   2.616  -0.229  1.00  0.00     0.034 C 
BRANCH   5   6
ATOM      6  C   UNL     1      -5.399   3.167  -0.149  1.00  0.00     0.032 C 
BRANCH   6   7
ATOM      7  C   UNL     1      -6.312   2.215   0.585  1.00  0.00    -0.028 C 
ATOM      8  C   UNL     1      -7.941   2.179  -1.308  1.00  0.00     0.039 C 
ATOM      9  C   UNL     1      -7.472   1.759   0.065  1.00  0.00    -0.080 C 
ATOM     10  C   UNL     1      -8.309   0.810   0.883  1.00  0.00     0.039 C 
ENDBRANCH   6   7
ENDBRANCH   5   6
ENDBRANCH   3   5
ENDBRANCH   1   2
BRANCH   1  11
ATOM     11  C   UNL     1      -3.935   2.877  -5.051  1.00  0.00     0.034 C 
BRANCH  11  12
ATOM     12  C   UNL     1      -3.372   4.099  -4.355  1.00  0.00    -0.075 C 
ATOM     13  C   UNL     1      -2.053   4.256  -4.101  1.00  0.00    -0.000 C 
ATOM     14  C   UNL     1      -4.310   5.220  -3.992  1.00  0.00     0.039 C 
BRANCH  13  15
ATOM     15  C   UNL     1      -0.996   3.230  -4.420  1.00  0.00     0.183 C 
BRANCH  15  16
ATOM     16  O   UNL     1       0.285   3.759  -4.209  1.00  0.00    -0.392 OA
ATOM     17  H   UNL     1       0.551   4.205  -5.056  1.00  0.00     0.210 HD
ENDBRANCH  15  16
ENDBRANCH  13  15
ENDBRANCH  11  12
ENDBRANCH   1  11
TORSDOF 8
ENDMDL
MODEL 5
REMARK VINA RESULT:    -6.678      2.521      6.203
REMARK INTER + INTRA:         -10.706
REMARK INTER:                  -9.613
REMARK INTRA:                  -1.093
REMARK UNBOUND:                -1.100
REMARK SMILES CC(C)=CCCC(C)=CCCC(C)=CCO
REMARK SMILES IDX 10 1 9 2 7 3 8 4 6 5 5 6 4 7 1 8 2 9 3 10 11 11 12 12 14 13
REMARK SMILES IDX 13 14 15 15 16 16
REMARK H PARENT 16 17
REMARK Flexibility Score: inf
ROOT
ATOM      1  C   UNL     1      -4.891   3.255  -1.825  1.00  0.00     0.032 C 
ENDROOT
BRANCH   1   2
ATOM      2  C   UNL     1      -4.446   2.107  -2.695  1.00  0.00    -0.028 C 
ATOM      3  C   UNL     1      -3.374   1.323  -2.438  1.00  0.00    -0.077 C 
ATOM      4  C   UNL     1      -2.536   1.500  -1.193  1.00  0.00     0.039 C 
BRANCH   3   5
ATOM      5  C   UNL     1      -3.012   0.228  -3.419  1.00  0.00     0.034 C 
BRANCH   5   6
ATOM      6  C   UNL     1      -2.445   0.821  -4.714  1.00  0.00     0.032 C 
BRANCH   6   7
ATOM      7  C   UNL     1      -3.062   0.171  -5.929  1.00  0.00    -0.028 C 
ATOM      8  C   UNL     1      -4.520   2.152  -6.357  1.00  0.00     0.039 C 
ATOM      9  C   UNL     1      -4.008   0.770  -6.684  1.00  0.00    -0.080 C 
ATOM     10  C   UNL     1      -4.557   0.032  -7.877  1.00  0.00     0.039 C 
ENDBRANCH   6   7
ENDBRANCH   5   6
ENDBRANCH   3   5
ENDBRANCH   1   2
BRANCH   1  11
ATOM     11  C   UNL     1      -6.291   2.995  -1.257  1.00  0.00     0.034 C 
BRANCH  11  12
ATOM     12  C   UNL     1      -6.207   2.570   0.195  1.00  0.00    -0.075 C 
ATOM     13  C   UNL     1      -7.090   1.716   0.761  1.00  0.00    -0.000 C 
ATOM     14  C   UNL     1      -5.053   3.064   1.027  1.00  0.00     0.039 C 
BRANCH  13  15
ATOM     15  C   UNL     1      -8.283   1.129   0.051  1.00  0.00     0.183 C 
BRANCH  15  16
ATOM     16  O   UNL     1      -8.827   0.072   0.793  1.00  0.00    -0.392 OA
ATOM     17  H   UNL     1      -8.343  -0.749   0.515  1.00  0.00     0.210 HD
ENDBRANCH  15  16
ENDBRANCH  13  15
ENDBRANCH  11  12
ENDBRANCH   1  11
TORSDOF 8
ENDMDL
MODEL 6
REMARK VINA RESULT:    -6.612      2.642      5.885
REMARK INTER + INTRA:         -10.612
REMARK INTER:                  -9.500
REMARK INTRA:                  -1.112
REMARK UNBOUND:                -1.100
REMARK SMILES CC(C)=CCCC(C)=CCCC(C)=CCO
REMARK SMILES IDX 10 1 9 2 7 3 8 4 6 5 5 6 4 7 1 8 2 9 3 10 11 11 12 12 14 13
REMARK SMILES IDX 13 14 15 15 16 16
REMARK H PARENT 16 17
REMARK Flexibility Score: inf
ROOT
ATOM      1  C   UNL     1      -5.849   3.377  -2.105  1.00  0.00     0.032 C 
ENDROOT
BRANCH   1   2
ATOM      2  C   UNL     1      -5.197   2.495  -3.140  1.00  0.00    -0.028 C 
ATOM      3  C   UNL     1      -4.139   2.860  -3.899  1.00  0.00    -0.077 C 
ATOM      4  C   UNL     1      -3.466   4.203  -3.737  1.00  0.00     0.039 C 
BRANCH   3   5
ATOM      5  C   UNL     1      -3.606   1.890  -4.932  1.00  0.00     0.034 C 
BRANCH   5   6
ATOM      6  C   UNL     1      -2.339   1.193  -4.425  1.00  0.00     0.032 C 
BRANCH   6   7
ATOM      7  C   UNL     1      -2.664  -0.134  -3.782  1.00  0.00    -0.028 C 
ATOM      8  C   UNL     1      -2.185   0.755  -1.498  1.00  0.00     0.039 C 
ATOM      9  C   UNL     1      -2.598  -0.343  -2.450  1.00  0.00    -0.080 C 
ATOM     10  C   UNL     1      -2.945  -1.707  -1.913  1.00  0.00     0.039 C 
ENDBRANCH   6   7
ENDBRANCH   5   6
ENDBRANCH   3   5
ENDBRANCH   1   2
BRANCH   1  11
ATOM     11  C   UNL     1      -7.012   2.648  -1.424  1.00  0.00     0.034 C 
BRANCH  11  12
ATOM     12  C   UNL     1      -6.657   2.295   0.006  1.00  0.00    -0.075 C 
ATOM     13  C   UNL     1      -7.375   1.420   0.746  1.00  0.00    -0.000 C 
ATOM     14  C   UNL     1      -5.411   2.890   0.609  1.00  0.00     0.039 C 
BRANCH  13  15
ATOM     15  C   UNL     1      -8.632   0.736   0.274  1.00  0.00     0.183 C 
BRANCH  15  16
ATOM     16  O   UNL     1      -9.113  -0.142   1.255  1.00  0.00    -0.392 OA
ATOM     17  H   UNL     1      -8.326  -0.432   1.788  1.00  0.00     0.210 HD
ENDBRANCH  15  16
ENDBRANCH  13  15
ENDBRANCH  11  12
ENDBRANCH   1  11
TORSDOF 8
ENDMDL
MODEL 7
REMARK VINA RESULT:    -6.554      1.503      2.913
REMARK INTER + INTRA:         -10.528
REMARK INTER:                  -9.724
REMARK INTRA:                  -0.804
REMARK UNBOUND:                -1.100
REMARK SMILES CC(C)=CCCC(C)=CCCC(C)=CCO
REMARK SMILES IDX 10 1 9 2 7 3 8 4 6 5 5 6 4 7 1 8 2 9 3 10 11 11 12 12 14 13
REMARK SMILES IDX 13 14 15 15 16 16
REMARK H PARENT 16 17
REMARK Flexibility Score: inf
ROOT
ATOM      1  C   UNL     1      -4.176   2.630  -6.738  1.00  0.00     0.032 C 
ENDROOT
BRANCH   1   2
ATOM      2  C   UNL     1      -4.596   2.210  -5.352  1.00  0.00    -0.028 C 
ATOM      3  C   UNL     1      -4.397   2.947  -4.236  1.00  0.00    -0.077 C 
ATOM      4  C   UNL     1      -3.763   4.319  -4.288  1.00  0.00     0.039 C 
BRANCH   3   5
ATOM      5  C   UNL     1      -4.832   2.388  -2.898  1.00  0.00     0.034 C 
BRANCH   5   6
ATOM      6  C   UNL     1      -5.852   3.313  -2.224  1.00  0.00     0.032 C 
BRANCH   6   7
ATOM      7  C   UNL     1      -6.855   2.525  -1.416  1.00  0.00    -0.028 C 
ATOM      8  C   UNL     1      -5.557   2.864   0.690  1.00  0.00     0.039 C 
ATOM      9  C   UNL     1      -6.729   2.315  -0.089  1.00  0.00    -0.080 C 
ATOM     10  C   UNL     1      -7.789   1.514   0.622  1.00  0.00     0.039 C 
ENDBRANCH   6   7
ENDBRANCH   5   6
ENDBRANCH   3   5
ENDBRANCH   1   2
BRANCH   1  11
ATOM     11  C   UNL     1      -2.936   1.852  -7.189  1.00  0.00     0.034 C 
BRANCH  11  12
ATOM     12  C   UNL     1      -3.300   0.425  -7.545  1.00  0.00    -0.075 C 
ATOM     13  C   UNL     1      -2.905  -0.638  -6.809  1.00  0.00    -0.000 C 
ATOM     14  C   UNL     1      -4.199   0.183  -8.729  1.00  0.00     0.039 C 
BRANCH  13  15
ATOM     15  C   UNL     1      -2.019  -0.551  -5.593  1.00  0.00     0.183 C 
BRANCH  15  16
ATOM     16  O   UNL     1      -2.753  -0.811  -4.428  1.00  0.00    -0.392 OA
ATOM     17  H   UNL     1      -3.478  -1.441  -4.684  1.00  0.00     0.210 HD
ENDBRANCH  15  16
ENDBRANCH  13  15
ENDBRANCH  11  12
ENDBRANCH   1  11
TORSDOF 8
ENDMDL
MODEL 8
REMARK VINA RESULT:    -6.444      1.606      3.380
REMARK INTER + INTRA:         -10.370
REMARK INTER:                  -9.093
REMARK INTRA:                  -1.277
REMARK UNBOUND:                -1.100
REMARK SMILES CC(C)=CCCC(C)=CCCC(C)=CCO
REMARK SMILES IDX 10 1 9 2 7 3 8 4 6 5 5 6 4 7 1 8 2 9 3 10 11 11 12 12 14 13
REMARK SMILES IDX 13 14 15 15 16 16
REMARK H PARENT 16 17
REMARK Flexibility Score: inf
ROOT
ATOM      1  C   UNL     1      -3.302   1.139  -4.619  1.00  0.00     0.032 C 
ENDROOT
BRANCH   1   2
ATOM      2  C   UNL     1      -4.333   2.088  -4.061  1.00  0.00    -0.028 C 
ATOM      3  C   UNL     1      -4.081   3.369  -3.709  1.00  0.00    -0.077 C 
ATOM      4  C   UNL     1      -2.719   3.996  -3.896  1.00  0.00     0.039 C 
BRANCH   3   5
ATOM      5  C   UNL     1      -5.200   4.202  -3.121  1.00  0.00     0.034 C 
BRANCH   5   6
ATOM      6  C   UNL     1      -5.900   3.453  -1.981  1.00  0.00     0.032 C 
BRANCH   6   7
ATOM      7  C   UNL     1      -5.092   3.517  -0.708  1.00  0.00    -0.028 C 
ATOM      8  C   UNL     1      -6.695   2.024   0.490  1.00  0.00     0.039 C 
ATOM      9  C   UNL     1      -5.446   2.870   0.423  1.00  0.00    -0.080 C 
ATOM     10  C   UNL     1      -4.566   3.002   1.639  1.00  0.00     0.039 C 
ENDBRANCH   6   7
ENDBRANCH   5   6
ENDBRANCH   3   5
ENDBRANCH   1   2
BRANCH   1  11
ATOM     11  C   UNL     1      -3.030  -0.006  -3.638  1.00  0.00     0.034 C 
BRANCH  11  12
ATOM     12  C   UNL     1      -2.061   0.435  -2.559  1.00  0.00    -0.075 C 
ATOM     13  C   UNL     1      -0.718   0.371  -2.708  1.00  0.00    -0.000 C 
ATOM     14  C   UNL     1      -2.614   1.034  -1.293  1.00  0.00     0.039 C 
BRANCH  13  15
ATOM     15  C   UNL     1      -0.021  -0.189  -3.921  1.00  0.00     0.183 C 
BRANCH  15  16
ATOM     16  O   UNL     1       0.484  -1.468  -3.653  1.00  0.00    -0.392 OA
ATOM     17  H   UNL     1       0.762  -1.853  -4.526  1.00  0.00     0.210 HD
ENDBRANCH  15  16
ENDBRANCH  13  15
ENDBRANCH  11  12
ENDBRANCH   1  11
TORSDOF 8
ENDMDL
MODEL 9
REMARK VINA RESULT:    -6.371      1.513      1.986
REMARK INTER + INTRA:         -10.264
REMARK INTER:                  -9.294
REMARK INTRA:                  -0.970
REMARK UNBOUND:                -1.100
REMARK SMILES CC(C)=CCCC(C)=CCCC(C)=CCO
REMARK SMILES IDX 10 1 9 2 7 3 8 4 6 5 5 6 4 7 1 8 2 9 3 10 11 11 12 12 14 13
REMARK SMILES IDX 13 14 15 15 16 16
REMARK H PARENT 16 17
REMARK Flexibility Score: inf
ROOT
ATOM      1  C   UNL     1      -2.720   2.735  -4.347  1.00  0.00     0.032 C 
ENDROOT
BRANCH   1   2
ATOM      2  C   UNL     1      -3.040   2.405  -2.910  1.00  0.00    -0.028 C 
ATOM      3  C   UNL     1      -4.015   3.000  -2.187  1.00  0.00    -0.077 C 
ATOM      4  C   UNL     1      -4.931   4.041  -2.787  1.00  0.00     0.039 C 
BRANCH   3   5
ATOM      5  C   UNL     1      -4.203   2.602  -0.739  1.00  0.00     0.034 C 
BRANCH   5   6
ATOM      6  C   UNL     1      -5.431   3.295  -0.136  1.00  0.00     0.032 C 
BRANCH   6   7
ATOM      7  C   UNL     1      -6.310   2.311   0.596  1.00  0.00    -0.028 C 
ATOM      8  C   UNL     1      -7.923   2.200  -1.307  1.00  0.00     0.039 C 
ATOM      9  C   UNL     1      -7.447   1.806   0.071  1.00  0.00    -0.080 C 
ATOM     10  C   UNL     1      -8.251   0.829   0.888  1.00  0.00     0.039 C 
ENDBRANCH   6   7
ENDBRANCH   5   6
ENDBRANCH   3   5
ENDBRANCH   1   2
BRANCH   1  11
ATOM     11  C   UNL     1      -2.852   1.492  -5.233  1.00  0.00     0.034 C 
BRANCH  11  12
ATOM     12  C   UNL     1      -3.801   1.756  -6.385  1.00  0.00    -0.075 C 
ATOM     13  C   UNL     1      -4.125   0.814  -7.299  1.00  0.00    -0.000 C 
ATOM     14  C   UNL     1      -4.465   3.105  -6.479  1.00  0.00     0.039 C 
BRANCH  13  15
ATOM     15  C   UNL     1      -3.554  -0.581  -7.325  1.00  0.00     0.183 C 
BRANCH  15  16
ATOM     16  O   UNL     1      -3.338  -1.001  -8.644  1.00  0.00    -0.392 OA
ATOM     17  H   UNL     1      -3.129  -1.971  -8.602  1.00  0.00     0.210 HD
ENDBRANCH  15  16
ENDBRANCH  13  15
ENDBRANCH  11  12
ENDBRANCH   1  11
TORSDOF 8
ENDMDL
