MODEL 1
REMARK VINA RESULT:    -6.853      0.000      0.000
REMARK INTER + INTRA:          -8.347
REMARK INTER:                  -8.255
REMARK INTRA:                  -0.092
REMARK UNBOUND:                -0.092
REMARK SMILES O=c1c(O)c(-c2ccc(O)c(O)c2)oc2cc(O)cc(O)c12
REMARK SMILES IDX 5 1 3 2 2 3 1 4 22 5 20 6 19 7 17 8 16 9 15 10 14 11 6 12
REMARK SMILES IDX 7 13 8 14 9 15 13 16 11 17 10 18 12 20 4 22 21 24 18 26
REMARK H PARENT 10 19 12 21 4 23 21 25 18 27
REMARK Flexibility Score: inf
ROOT
ATOM      1  C   UNL     1       6.941  16.151  18.105  1.00  0.00     0.180 A 
ATOM      2  C   UNL     1       7.045  15.153  19.094  1.00  0.00     0.208 A 
ATOM      3  C   UNL     1       6.314  13.964  18.937  1.00  0.00     0.238 A 
ATOM      4  O   UNL     1       6.392  13.067  19.820  1.00  0.00    -0.285 OA
ATOM      5  C   UNL     1       5.513  13.785  17.790  1.00  0.00     0.111 A 
ATOM      6  C   UNL     1       4.749  12.616  17.554  1.00  0.00     0.134 A 
ATOM      7  C   UNL     1       3.983  12.511  16.385  1.00  0.00     0.093 A 
ATOM      8  C   UNL     1       3.965  13.546  15.448  1.00  0.00     0.123 A 
ATOM      9  C   UNL     1       4.716  14.704  15.676  1.00  0.00     0.094 A 
ATOM     10  C   UNL     1       5.485  14.829  16.837  1.00  0.00     0.146 A 
ATOM     11  O   UNL     1       6.186  15.941  17.031  1.00  0.00    -0.452 OA
ENDROOT
BRANCH   1  12
ATOM     12  C   UNL     1       7.664  17.438  18.208  1.00  0.00     0.025 A 
ATOM     13  C   UNL     1       7.520  18.272  19.332  1.00  0.00     0.016 A 
ATOM     14  C   UNL     1       8.195  19.494  19.396  1.00  0.00     0.051 A 
ATOM     15  C   UNL     1       9.011  19.907  18.335  1.00  0.00     0.157 A 
ATOM     16  C   UNL     1       8.468  17.868  17.139  1.00  0.00     0.062 A 
ATOM     17  C   UNL     1       9.145  19.093  17.203  1.00  0.00     0.158 A 
BRANCH  15  18
ATOM     18  O   UNL     1       9.686  21.124  18.396  1.00  0.00    -0.504 OA
ATOM     19  H   UNL     1       9.652  21.708  19.224  1.00  0.00     0.293 HD
ENDBRANCH  15  18
BRANCH  17  20
ATOM     20  O   UNL     1       9.953  19.510  16.146  1.00  0.00    -0.504 OA
ATOM     21  H   UNL     1      10.921  19.771  16.289  1.00  0.00     0.293 HD
ENDBRANCH  17  20
ENDBRANCH   1  12
BRANCH   2  22
ATOM     22  O   UNL     1       7.886  15.334  20.194  1.00  0.00    -0.502 OA
ATOM     23  H   UNL     1       8.830  15.690  20.103  1.00  0.00     0.293 HD
ENDBRANCH   2  22
BRANCH   6  24
ATOM     24  O   UNL     1       4.747  11.563  18.471  1.00  0.00    -0.507 OA
ATOM     25  H   UNL     1       3.928  10.984  18.614  1.00  0.00     0.293 HD
ENDBRANCH   6  24
BRANCH   8  26
ATOM     26  O   UNL     1       3.196  13.416  14.294  1.00  0.00    -0.508 OA
ATOM     27  H   UNL     1       3.496  12.836  13.519  1.00  0.00     0.293 HD
ENDBRANCH   8  26
TORSDOF 6
ENDMDL
MODEL 2
REMARK VINA RESULT:    -6.255      2.115      7.665
REMARK INTER + INTRA:          -7.626
REMARK INTER:                  -7.527
REMARK INTRA:                  -0.099
REMARK UNBOUND:                -0.092
REMARK SMILES O=c1c(O)c(-c2ccc(O)c(O)c2)oc2cc(O)cc(O)c12
REMARK SMILES IDX 5 1 3 2 2 3 1 4 22 5 20 6 19 7 17 8 16 9 15 10 14 11 6 12
REMARK SMILES IDX 7 13 8 14 9 15 13 16 11 17 10 18 12 20 4 22 21 24 18 26
REMARK H PARENT 10 19 12 21 4 23 21 25 18 27
REMARK Flexibility Score: inf
ROOT
ATOM      1  C   UNL     1       5.893  13.181  17.869  1.00  0.00     0.180 A 
ATOM      2  C   UNL     1       5.903  14.051  16.762  1.00  0.00     0.208 A 
ATOM      3  C   UNL     1       6.292  15.387  16.952  1.00  0.00     0.238 A 
ATOM      4  O   UNL     1       6.295  16.177  15.970  1.00  0.00    -0.285 OA
ATOM      5  C   UNL     1       6.683  15.822  18.235  1.00  0.00     0.111 A 
ATOM      6  C   UNL     1       7.093  17.150  18.510  1.00  0.00     0.134 A 
ATOM      7  C   UNL     1       7.476  17.503  19.811  1.00  0.00     0.093 A 
ATOM      8  C   UNL     1       7.459  16.560  20.841  1.00  0.00     0.123 A 
ATOM      9  C   UNL     1       7.054  15.248  20.576  1.00  0.00     0.094 A 
ATOM     10  C   UNL     1       6.667  14.876  19.285  1.00  0.00     0.146 A 
ATOM     11  O   UNL     1       6.283  13.624  19.061  1.00  0.00    -0.452 OA
ENDROOT
BRANCH   1  12
ATOM     12  C   UNL     1       5.478  11.765  17.754  1.00  0.00     0.025 A 
ATOM     13  C   UNL     1       6.133  10.878  16.881  1.00  0.00     0.016 A 
ATOM     14  C   UNL     1       5.708   9.552  16.771  1.00  0.00     0.051 A 
ATOM     15  C   UNL     1       4.615   9.095  17.519  1.00  0.00     0.157 A 
ATOM     16  C   UNL     1       4.369  11.307  18.485  1.00  0.00     0.062 A 
ATOM     17  C   UNL     1       3.943   9.976  18.376  1.00  0.00     0.158 A 
BRANCH  15  18
ATOM     18  O   UNL     1       4.189   7.773  17.413  1.00  0.00    -0.504 OA
ATOM     19  H   UNL     1       3.934   7.231  18.231  1.00  0.00     0.293 HD
ENDBRANCH  15  18
BRANCH  17  20
ATOM     20  O   UNL     1       2.850   9.522  19.114  1.00  0.00    -0.504 OA
ATOM     21  H   UNL     1       2.285   8.742  18.798  1.00  0.00     0.293 HD
ENDBRANCH  17  20
ENDBRANCH   1  12
BRANCH   2  22
ATOM     22  O   UNL     1       5.559  13.582  15.492  1.00  0.00    -0.502 OA
ATOM     23  H   UNL     1       4.659  13.773  15.068  1.00  0.00     0.293 HD
ENDBRANCH   2  22
BRANCH   6  24
ATOM     24  O   UNL     1       7.122  18.115  17.502  1.00  0.00    -0.507 OA
ATOM     25  H   UNL     1       6.340  18.250  16.872  1.00  0.00     0.293 HD
ENDBRANCH   6  24
BRANCH   8  26
ATOM     26  O   UNL     1       7.845  16.937  22.125  1.00  0.00    -0.508 OA
ATOM     27  H   UNL     1       7.165  17.094  22.859  1.00  0.00     0.293 HD
ENDBRANCH   8  26
TORSDOF 6
ENDMDL
MODEL 3
REMARK VINA RESULT:    -6.043     14.258     15.461
REMARK INTER + INTRA:          -7.372
REMARK INTER:                  -7.041
REMARK INTRA:                  -0.330
REMARK UNBOUND:                -0.092
REMARK SMILES O=c1c(O)c(-c2ccc(O)c(O)c2)oc2cc(O)cc(O)c12
REMARK SMILES IDX 5 1 3 2 2 3 1 4 22 5 20 6 19 7 17 8 16 9 15 10 14 11 6 12
REMARK SMILES IDX 7 13 8 14 9 15 13 16 11 17 10 18 12 20 4 22 21 24 18 26
REMARK H PARENT 10 19 12 21 4 23 21 25 18 27
REMARK Flexibility Score: inf
ROOT
ATOM      1  C   UNL     1       0.184  11.682   4.775  1.00  0.00     0.180 A 
ATOM      2  C   UNL     1      -0.325  12.018   6.045  1.00  0.00     0.208 A 
ATOM      3  C   UNL     1      -1.195  11.121   6.685  1.00  0.00     0.238 A 
ATOM      4  O   UNL     1      -1.665  11.416   7.818  1.00  0.00    -0.285 OA
ATOM      5  C   UNL     1      -1.524   9.902   6.058  1.00  0.00     0.111 A 
ATOM      6  C   UNL     1      -2.390   8.942   6.638  1.00  0.00     0.134 A 
ATOM      7  C   UNL     1      -2.662   7.749   5.954  1.00  0.00     0.093 A 
ATOM      8  C   UNL     1      -2.086   7.493   4.708  1.00  0.00     0.123 A 
ATOM      9  C   UNL     1      -1.231   8.438   4.130  1.00  0.00     0.094 A 
ATOM     10  C   UNL     1      -0.949   9.635   4.794  1.00  0.00     0.146 A 
ATOM     11  O   UNL     1      -0.137  10.517   4.222  1.00  0.00    -0.452 OA
ENDROOT
BRANCH   1  12
ATOM     12  C   UNL     1       1.092  12.582   4.028  1.00  0.00     0.025 A 
ATOM     13  C   UNL     1       0.596  13.527   3.111  1.00  0.00     0.016 A 
ATOM     14  C   UNL     1       1.473  14.349   2.400  1.00  0.00     0.051 A 
ATOM     15  C   UNL     1       2.857  14.232   2.583  1.00  0.00     0.157 A 
ATOM     16  C   UNL     1       2.481  12.455   4.192  1.00  0.00     0.062 A 
ATOM     17  C   UNL     1       3.361  13.281   3.479  1.00  0.00     0.158 A 
BRANCH  15  18
ATOM     18  O   UNL     1       3.734  15.051   1.877  1.00  0.00    -0.504 OA
ATOM     19  H   UNL     1       3.675  16.062   1.930  1.00  0.00     0.293 HD
ENDBRANCH  15  18
BRANCH  17  20
ATOM     20  O   UNL     1       4.740  13.161   3.654  1.00  0.00    -0.504 OA
ATOM     21  H   UNL     1       5.252  13.783   4.268  1.00  0.00     0.293 HD
ENDBRANCH  17  20
ENDBRANCH   1  12
BRANCH   2  22
ATOM     22  O   UNL     1       0.057  13.209   6.666  1.00  0.00    -0.502 OA
ATOM     23  H   UNL     1       0.056  13.321   7.673  1.00  0.00     0.293 HD
ENDBRANCH   2  22
BRANCH   6  24
ATOM     24  O   UNL     1      -2.980   9.168   7.882  1.00  0.00    -0.507 OA
ATOM     25  H   UNL     1      -3.987   9.165   8.003  1.00  0.00     0.293 HD
ENDBRANCH   6  24
BRANCH   8  26
ATOM     26  O   UNL     1      -2.371   6.300   4.051  1.00  0.00    -0.508 OA
ATOM     27  H   UNL     1      -2.905   6.282   3.189  1.00  0.00     0.293 HD
ENDBRANCH   8  26
TORSDOF 6
ENDMDL
MODEL 4
REMARK VINA RESULT:    -6.025      2.269      7.682
REMARK INTER + INTRA:          -7.350
REMARK INTER:                  -7.186
REMARK INTRA:                  -0.164
REMARK UNBOUND:                -0.092
REMARK SMILES O=c1c(O)c(-c2ccc(O)c(O)c2)oc2cc(O)cc(O)c12
REMARK SMILES IDX 5 1 3 2 2 3 1 4 22 5 20 6 19 7 17 8 16 9 15 10 14 11 6 12
REMARK SMILES IDX 7 13 8 14 9 15 13 16 11 17 10 18 12 20 4 22 21 24 18 26
REMARK H PARENT 10 19 12 21 4 23 21 25 18 27
REMARK Flexibility Score: inf
ROOT
ATOM      1  C   UNL     1       5.849  12.965  17.530  1.00  0.00     0.180 A 
ATOM      2  C   UNL     1       5.009  13.968  17.010  1.00  0.00     0.208 A 
ATOM      3  C   UNL     1       5.459  15.298  17.013  1.00  0.00     0.238 A 
ATOM      4  O   UNL     1       4.711  16.207  16.559  1.00  0.00    -0.285 OA
ATOM      5  C   UNL     1       6.743  15.598  17.514  1.00  0.00     0.111 A 
ATOM      6  C   UNL     1       7.273  16.911  17.548  1.00  0.00     0.134 A 
ATOM      7  C   UNL     1       8.563  17.126  18.054  1.00  0.00     0.093 A 
ATOM      8  C   UNL     1       9.332  16.060  18.524  1.00  0.00     0.123 A 
ATOM      9  C   UNL     1       8.814  14.761  18.493  1.00  0.00     0.094 A 
ATOM     10  C   UNL     1       7.529  14.525  17.995  1.00  0.00     0.146 A 
ATOM     11  O   UNL     1       7.058  13.283  17.981  1.00  0.00    -0.452 OA
ENDROOT
BRANCH   1  12
ATOM     12  C   UNL     1       5.438  11.543  17.580  1.00  0.00     0.025 A 
ATOM     13  C   UNL     1       6.079  10.568  16.795  1.00  0.00     0.016 A 
ATOM     14  C   UNL     1       5.659   9.236  16.840  1.00  0.00     0.051 A 
ATOM     15  C   UNL     1       4.586   8.861  17.658  1.00  0.00     0.157 A 
ATOM     16  C   UNL     1       4.349  11.165  18.382  1.00  0.00     0.062 A 
ATOM     17  C   UNL     1       3.928   9.828  18.429  1.00  0.00     0.158 A 
BRANCH  15  18
ATOM     18  O   UNL     1       4.165   7.534  17.707  1.00  0.00    -0.504 OA
ATOM     19  H   UNL     1       3.377   7.249  18.278  1.00  0.00     0.293 HD
ENDBRANCH  15  18
BRANCH  17  20
ATOM     20  O   UNL     1       2.855   9.454  19.237  1.00  0.00    -0.504 OA
ATOM     21  H   UNL     1       1.964   9.179  18.840  1.00  0.00     0.293 HD
ENDBRANCH  17  20
ENDBRANCH   1  12
BRANCH   2  22
ATOM     22  O   UNL     1       3.762  13.638  16.474  1.00  0.00    -0.502 OA
ATOM     23  H   UNL     1       2.961  14.255  16.542  1.00  0.00     0.293 HD
ENDBRANCH   2  22
BRANCH   6  24
ATOM     24  O   UNL     1       6.529  17.997  17.085  1.00  0.00    -0.507 OA
ATOM     25  H   UNL     1       5.924  17.922  16.275  1.00  0.00     0.293 HD
ENDBRANCH   6  24
BRANCH   8  26
ATOM     26  O   UNL     1      10.610  16.301  19.021  1.00  0.00    -0.508 OA
ATOM     27  H   UNL     1      11.141  17.119  18.746  1.00  0.00     0.293 HD
ENDBRANCH   8  26
TORSDOF 6
ENDMDL
MODEL 5
REMARK VINA RESULT:    -5.831      1.567      7.189
REMARK INTER + INTRA:          -7.116
REMARK INTER:                  -6.796
REMARK INTRA:                  -0.320
REMARK UNBOUND:                -0.092
REMARK SMILES O=c1c(O)c(-c2ccc(O)c(O)c2)oc2cc(O)cc(O)c12
REMARK SMILES IDX 5 1 3 2 2 3 1 4 22 5 20 6 19 7 17 8 16 9 15 10 14 11 6 12
REMARK SMILES IDX 7 13 8 14 9 15 13 16 11 17 10 18 12 20 4 22 21 24 18 26
REMARK H PARENT 10 19 12 21 4 23 21 25 18 27
REMARK Flexibility Score: inf
ROOT
ATOM      1  C   UNL     1       6.952  16.217  18.297  1.00  0.00     0.180 A 
ATOM      2  C   UNL     1       7.806  16.546  17.227  1.00  0.00     0.208 A 
ATOM      3  C   UNL     1       8.467  17.785  17.244  1.00  0.00     0.238 A 
ATOM      4  O   UNL     1       9.227  18.095  16.287  1.00  0.00    -0.285 OA
ATOM      5  C   UNL     1       8.282  18.658  18.336  1.00  0.00     0.111 A 
ATOM      6  C   UNL     1       8.914  19.922  18.432  1.00  0.00     0.134 A 
ATOM      7  C   UNL     1       8.685  20.730  19.554  1.00  0.00     0.093 A 
ATOM      8  C   UNL     1       7.839  20.303  20.580  1.00  0.00     0.123 A 
ATOM      9  C   UNL     1       7.210  19.057  20.490  1.00  0.00     0.094 A 
ATOM     10  C   UNL     1       7.425  18.237  19.379  1.00  0.00     0.146 A 
ATOM     11  O   UNL     1       6.812  17.060  19.315  1.00  0.00    -0.452 OA
ENDROOT
BRANCH   1  12
ATOM     12  C   UNL     1       6.204  14.939  18.342  1.00  0.00     0.025 A 
ATOM     13  C   UNL     1       6.729  13.806  18.989  1.00  0.00     0.016 A 
ATOM     14  C   UNL     1       6.017  12.604  18.998  1.00  0.00     0.051 A 
ATOM     15  C   UNL     1       4.778  12.512  18.351  1.00  0.00     0.157 A 
ATOM     16  C   UNL     1       4.971  14.835  17.677  1.00  0.00     0.062 A 
ATOM     17  C   UNL     1       4.255  13.630  17.687  1.00  0.00     0.158 A 
BRANCH  15  18
ATOM     18  O   UNL     1       4.064  11.316  18.359  1.00  0.00    -0.504 OA
ATOM     19  H   UNL     1       4.287  10.570  19.008  1.00  0.00     0.293 HD
ENDBRANCH  15  18
BRANCH  17  20
ATOM     20  O   UNL     1       3.025  13.534  17.038  1.00  0.00    -0.504 OA
ATOM     21  H   UNL     1       2.151  13.578  17.549  1.00  0.00     0.293 HD
ENDBRANCH  17  20
ENDBRANCH   1  12
BRANCH   2  22
ATOM     22  O   UNL     1       8.012  15.642  16.183  1.00  0.00    -0.502 OA
ATOM     23  H   UNL     1       8.771  14.971  16.188  1.00  0.00     0.293 HD
ENDBRANCH   2  22
BRANCH   6  24
ATOM     24  O   UNL     1       9.766  20.377  17.424  1.00  0.00    -0.507 OA
ATOM     25  H   UNL     1      10.115  19.757  16.702  1.00  0.00     0.293 HD
ENDBRANCH   6  24
BRANCH   8  26
ATOM     26  O   UNL     1       7.629  21.125  21.684  1.00  0.00    -0.508 OA
ATOM     27  H   UNL     1       7.853  22.113  21.662  1.00  0.00     0.293 HD
ENDBRANCH   8  26
TORSDOF 6
ENDMDL
MODEL 6
REMARK VINA RESULT:    -5.766      1.506      6.787
REMARK INTER + INTRA:          -7.038
REMARK INTER:                  -6.739
REMARK INTRA:                  -0.299
REMARK UNBOUND:                -0.092
REMARK SMILES O=c1c(O)c(-c2ccc(O)c(O)c2)oc2cc(O)cc(O)c12
REMARK SMILES IDX 5 1 3 2 2 3 1 4 22 5 20 6 19 7 17 8 16 9 15 10 14 11 6 12
REMARK SMILES IDX 7 13 8 14 9 15 13 16 11 17 10 18 12 20 4 22 21 24 18 26
REMARK H PARENT 10 19 12 21 4 23 21 25 18 27
REMARK Flexibility Score: inf
ROOT
ATOM      1  C   UNL     1       6.964  15.629  18.596  1.00  0.00     0.180 A 
ATOM      2  C   UNL     1       6.844  16.122  19.910  1.00  0.00     0.208 A 
ATOM      3  C   UNL     1       7.340  17.403  20.201  1.00  0.00     0.238 A 
ATOM      4  O   UNL     1       7.248  17.852  21.376  1.00  0.00    -0.285 OA
ATOM      5  C   UNL     1       7.926  18.173  19.174  1.00  0.00     0.111 A 
ATOM      6  C   UNL     1       8.446  19.474  19.384  1.00  0.00     0.134 A 
ATOM      7  C   UNL     1       9.006  20.179  18.309  1.00  0.00     0.093 A 
ATOM      8  C   UNL     1       9.055  19.615  17.033  1.00  0.00     0.123 A 
ATOM      9  C   UNL     1       8.544  18.330  16.820  1.00  0.00     0.094 A 
ATOM     10  C   UNL     1       7.984  17.609  17.879  1.00  0.00     0.146 A 
ATOM     11  O   UNL     1       7.509  16.389  17.652  1.00  0.00    -0.452 OA
ENDROOT
BRANCH   1  12
ATOM     12  C   UNL     1       6.483  14.282  18.215  1.00  0.00     0.025 A 
ATOM     13  C   UNL     1       7.369  13.198  18.080  1.00  0.00     0.016 A 
ATOM     14  C   UNL     1       6.895  11.941  17.696  1.00  0.00     0.051 A 
ATOM     15  C   UNL     1       5.533  11.751  17.428  1.00  0.00     0.157 A 
ATOM     16  C   UNL     1       5.121  14.090  17.924  1.00  0.00     0.062 A 
ATOM     17  C   UNL     1       4.645  12.829  17.540  1.00  0.00     0.158 A 
BRANCH  15  18
ATOM     18  O   UNL     1       5.057  10.499  17.046  1.00  0.00    -0.504 OA
ATOM     19  H   UNL     1       5.542   9.935  16.357  1.00  0.00     0.293 HD
ENDBRANCH  15  18
BRANCH  17  20
ATOM     20  O   UNL     1       3.292  12.639  17.265  1.00  0.00    -0.504 OA
ATOM     21  H   UNL     1       2.972  11.875  16.681  1.00  0.00     0.293 HD
ENDBRANCH  17  20
ENDBRANCH   1  12
BRANCH   2  22
ATOM     22  O   UNL     1       6.214  15.360  20.896  1.00  0.00    -0.502 OA
ATOM     23  H   UNL     1       6.730  14.885  21.627  1.00  0.00     0.293 HD
ENDBRANCH   2  22
BRANCH   6  24
ATOM     24  O   UNL     1       8.411  20.066  20.647  1.00  0.00    -0.507 OA
ATOM     25  H   UNL     1       7.546  20.405  21.052  1.00  0.00     0.293 HD
ENDBRANCH   6  24
BRANCH   8  26
ATOM     26  O   UNL     1       9.615  20.337  15.983  1.00  0.00    -0.508 OA
ATOM     27  H   UNL     1       9.064  20.627  15.184  1.00  0.00     0.293 HD
ENDBRANCH   8  26
TORSDOF 6
ENDMDL
MODEL 7
REMARK VINA RESULT:    -5.644     14.061     15.449
REMARK INTER + INTRA:          -6.891
REMARK INTER:                  -6.599
REMARK INTRA:                  -0.292
REMARK UNBOUND:                -0.092
REMARK SMILES O=c1c(O)c(-c2ccc(O)c(O)c2)oc2cc(O)cc(O)c12
REMARK SMILES IDX 5 1 3 2 2 3 1 4 22 5 20 6 19 7 17 8 16 9 15 10 14 11 6 12
REMARK SMILES IDX 7 13 8 14 9 15 13 16 11 17 10 18 12 20 4 22 21 24 18 26
REMARK H PARENT 10 19 12 21 4 23 21 25 18 27
REMARK Flexibility Score: inf
ROOT
ATOM      1  C   UNL     1       0.070  11.447   4.669  1.00  0.00     0.180 A 
ATOM      2  C   UNL     1      -0.155  10.208   4.039  1.00  0.00     0.208 A 
ATOM      3  C   UNL     1      -0.918   9.237   4.707  1.00  0.00     0.238 A 
ATOM      4  O   UNL     1      -1.118   8.120   4.157  1.00  0.00    -0.285 OA
ATOM      5  C   UNL     1      -1.457   9.527   5.977  1.00  0.00     0.111 A 
ATOM      6  C   UNL     1      -2.240   8.605   6.715  1.00  0.00     0.134 A 
ATOM      7  C   UNL     1      -2.748   8.972   7.969  1.00  0.00     0.093 A 
ATOM      8  C   UNL     1      -2.492  10.237   8.500  1.00  0.00     0.123 A 
ATOM      9  C   UNL     1      -1.719  11.152   7.777  1.00  0.00     0.094 A 
ATOM     10  C   UNL     1      -1.201  10.805   6.525  1.00  0.00     0.146 A 
ATOM     11  O   UNL     1      -0.467  11.690   5.861  1.00  0.00    -0.452 OA
ENDROOT
BRANCH   1  12
ATOM     12  C   UNL     1       0.879  12.515   4.038  1.00  0.00     0.025 A 
ATOM     13  C   UNL     1       0.274  13.587   3.357  1.00  0.00     0.016 A 
ATOM     14  C   UNL     1       1.058  14.570   2.749  1.00  0.00     0.051 A 
ATOM     15  C   UNL     1       2.456  14.491   2.800  1.00  0.00     0.157 A 
ATOM     16  C   UNL     1       2.281  12.430   4.068  1.00  0.00     0.062 A 
ATOM     17  C   UNL     1       3.068  13.417   3.459  1.00  0.00     0.158 A 
BRANCH  15  18
ATOM     18  O   UNL     1       3.241  15.470   2.196  1.00  0.00    -0.504 OA
ATOM     19  H   UNL     1       4.126  15.243   1.757  1.00  0.00     0.293 HD
ENDBRANCH  15  18
BRANCH  17  20
ATOM     20  O   UNL     1       4.459  13.337   3.502  1.00  0.00    -0.504 OA
ATOM     21  H   UNL     1       4.948  12.478   3.276  1.00  0.00     0.293 HD
ENDBRANCH  17  20
ENDBRANCH   1  12
BRANCH   2  22
ATOM     22  O   UNL     1       0.347   9.965   2.759  1.00  0.00    -0.502 OA
ATOM     23  H   UNL     1       0.669   9.050   2.467  1.00  0.00     0.293 HD
ENDBRANCH   2  22
BRANCH   6  24
ATOM     24  O   UNL     1      -2.514   7.332   6.211  1.00  0.00    -0.507 OA
ATOM     25  H   UNL     1      -3.003   7.201   5.333  1.00  0.00     0.293 HD
ENDBRANCH   6  24
BRANCH   8  26
ATOM     26  O   UNL     1      -3.009  10.577   9.747  1.00  0.00    -0.508 OA
ATOM     27  H   UNL     1      -3.388   9.877  10.374  1.00  0.00     0.293 HD
ENDBRANCH   8  26
TORSDOF 6
ENDMDL
MODEL 8
REMARK VINA RESULT:    -5.253     13.715     14.802
REMARK INTER + INTRA:          -6.420
REMARK INTER:                  -6.341
REMARK INTRA:                  -0.079
REMARK UNBOUND:                -0.092
REMARK SMILES O=c1c(O)c(-c2ccc(O)c(O)c2)oc2cc(O)cc(O)c12
REMARK SMILES IDX 5 1 3 2 2 3 1 4 22 5 20 6 19 7 17 8 16 9 15 10 14 11 6 12
REMARK SMILES IDX 7 13 8 14 9 15 13 16 11 17 10 18 12 20 4 22 21 24 18 26
REMARK H PARENT 10 19 12 21 4 23 21 25 18 27
REMARK Flexibility Score: inf
ROOT
ATOM      1  C   UNL     1      -1.235  12.548   6.163  1.00  0.00     0.180 A 
ATOM      2  C   UNL     1      -1.526  12.353   7.527  1.00  0.00     0.208 A 
ATOM      3  C   UNL     1      -1.923  11.078   7.960  1.00  0.00     0.238 A 
ATOM      4  O   UNL     1      -2.195  10.893   9.177  1.00  0.00    -0.285 OA
ATOM      5  C   UNL     1      -2.002  10.020   7.031  1.00  0.00     0.111 A 
ATOM      6  C   UNL     1      -2.389   8.705   7.386  1.00  0.00     0.134 A 
ATOM      7  C   UNL     1      -2.436   7.705   6.405  1.00  0.00     0.093 A 
ATOM      8  C   UNL     1      -2.102   7.990   5.079  1.00  0.00     0.123 A 
ATOM      9  C   UNL     1      -1.720   9.288   4.721  1.00  0.00     0.094 A 
ATOM     10  C   UNL     1      -1.669  10.299   5.685  1.00  0.00     0.146 A 
ATOM     11  O   UNL     1      -1.307  11.524   5.319  1.00  0.00    -0.452 OA
ENDROOT
BRANCH   1  12
ATOM     12  C   UNL     1      -0.829  13.867   5.626  1.00  0.00     0.025 A 
ATOM     13  C   UNL     1      -1.615  15.015   5.830  1.00  0.00     0.016 A 
ATOM     14  C   UNL     1      -1.223  16.244   5.294  1.00  0.00     0.051 A 
ATOM     15  C   UNL     1      -0.050  16.342   4.535  1.00  0.00     0.157 A 
ATOM     16  C   UNL     1       0.336  13.967   4.847  1.00  0.00     0.062 A 
ATOM     17  C   UNL     1       0.730  15.201   4.309  1.00  0.00     0.158 A 
BRANCH  15  18
ATOM     18  O   UNL     1       0.345  17.566   3.999  1.00  0.00    -0.504 OA
ATOM     19  H   UNL     1      -0.132  18.428   4.241  1.00  0.00     0.293 HD
ENDBRANCH  15  18
BRANCH  17  20
ATOM     20  O   UNL     1       1.893  15.299   3.547  1.00  0.00    -0.504 OA
ATOM     21  H   UNL     1       2.256  16.197   3.247  1.00  0.00     0.293 HD
ENDBRANCH  17  20
ENDBRANCH   1  12
BRANCH   2  22
ATOM     22  O   UNL     1      -1.390  13.405   8.435  1.00  0.00    -0.502 OA
ATOM     23  H   UNL     1      -0.569  13.517   9.019  1.00  0.00     0.293 HD
ENDBRANCH   2  22
BRANCH   6  24
ATOM     24  O   UNL     1      -2.728   8.387   8.703  1.00  0.00    -0.507 OA
ATOM     25  H   UNL     1      -2.904   7.432   8.992  1.00  0.00     0.293 HD
ENDBRANCH   6  24
BRANCH   8  26
ATOM     26  O   UNL     1      -2.156   6.979   4.124  1.00  0.00    -0.508 OA
ATOM     27  H   UNL     1      -1.949   6.015   4.358  1.00  0.00     0.293 HD
ENDBRANCH   8  26
TORSDOF 6
ENDMDL
MODEL 9
REMARK VINA RESULT:    -5.094     13.053     15.247
REMARK INTER + INTRA:          -6.228
REMARK INTER:                  -6.022
REMARK INTRA:                  -0.206
REMARK UNBOUND:                -0.092
REMARK SMILES O=c1c(O)c(-c2ccc(O)c(O)c2)oc2cc(O)cc(O)c12
REMARK SMILES IDX 5 1 3 2 2 3 1 4 22 5 20 6 19 7 17 8 16 9 15 10 14 11 6 12
REMARK SMILES IDX 7 13 8 14 9 15 13 16 11 17 10 18 12 20 4 22 21 24 18 26
REMARK H PARENT 10 19 12 21 4 23 21 25 18 27
REMARK Flexibility Score: inf
ROOT
ATOM      1  C   UNL     1      -1.218  12.472   7.016  1.00  0.00     0.180 A 
ATOM      2  C   UNL     1      -1.924  13.638   6.664  1.00  0.00     0.208 A 
ATOM      3  C   UNL     1      -1.419  14.453   5.638  1.00  0.00     0.238 A 
ATOM      4  O   UNL     1      -2.038  15.504   5.320  1.00  0.00    -0.285 OA
ATOM      5  C   UNL     1      -0.234  14.079   4.971  1.00  0.00     0.111 A 
ATOM      6  C   UNL     1       0.339  14.842   3.925  1.00  0.00     0.134 A 
ATOM      7  C   UNL     1       1.516  14.399   3.305  1.00  0.00     0.093 A 
ATOM      8  C   UNL     1       2.130  13.212   3.708  1.00  0.00     0.123 A 
ATOM      9  C   UNL     1       1.570  12.454   4.743  1.00  0.00     0.094 A 
ATOM     10  C   UNL     1       0.398  12.880   5.374  1.00  0.00     0.146 A 
ATOM     11  O   UNL     1      -0.111  12.144   6.356  1.00  0.00    -0.452 OA
ENDROOT
BRANCH   1  12
ATOM     12  C   UNL     1      -1.675  11.572   8.100  1.00  0.00     0.025 A 
ATOM     13  C   UNL     1      -1.700  11.993   9.441  1.00  0.00     0.016 A 
ATOM     14  C   UNL     1      -2.113  11.119  10.449  1.00  0.00     0.051 A 
ATOM     15  C   UNL     1      -2.494   9.807  10.135  1.00  0.00     0.157 A 
ATOM     16  C   UNL     1      -2.038  10.249   7.793  1.00  0.00     0.062 A 
ATOM     17  C   UNL     1      -2.453   9.372   8.804  1.00  0.00     0.158 A 
BRANCH  15  18
ATOM     18  O   UNL     1      -2.908   8.933  11.137  1.00  0.00    -0.504 OA
ATOM     19  H   UNL     1      -3.859   8.585  11.177  1.00  0.00     0.293 HD
ENDBRANCH  15  18
BRANCH  17  20
ATOM     20  O   UNL     1      -2.826   8.064   8.495  1.00  0.00    -0.504 OA
ATOM     21  H   UNL     1      -3.165   7.428   9.207  1.00  0.00     0.293 HD
ENDBRANCH  17  20
ENDBRANCH   1  12
BRANCH   2  22
ATOM     22  O   UNL     1      -3.123  13.958   7.305  1.00  0.00    -0.502 OA
ATOM     23  H   UNL     1      -3.387  14.913   7.516  1.00  0.00     0.293 HD
ENDBRANCH   2  22
BRANCH   6  24
ATOM     24  O   UNL     1      -0.252  16.033   3.499  1.00  0.00    -0.507 OA
ATOM     25  H   UNL     1      -0.758  16.092   2.622  1.00  0.00     0.293 HD
ENDBRANCH   6  24
BRANCH   8  26
ATOM     26  O   UNL     1       3.299  12.793   3.076  1.00  0.00    -0.508 OA
ATOM     27  H   UNL     1       4.177  12.725   3.576  1.00  0.00     0.293 HD
ENDBRANCH   8  26
TORSDOF 6
ENDMDL
