MODEL 1
REMARK VINA RESULT:    -5.291      0.000      0.000
REMARK INTER + INTRA:          -6.162
REMARK INTER:                  -6.065
REMARK INTRA:                  -0.097
REMARK UNBOUND:                -0.097
REMARK SMILES COc1cc(C(=O)[O-])ccc1O
REMARK SMILES IDX 5 1 9 2 4 3 10 4 3 5 11 6 6 7 7 8 8 9 2 10 1 11 12 12
REMARK H PARENT 12 13
REMARK Flexibility Score: inf
ROOT
ATOM      1  C   UNL     1     137.667 141.236 141.262  1.00  0.00     0.001 A 
ATOM      2  C   UNL     1     138.011 140.289 140.284  1.00  0.00     0.014 A 
ATOM      3  C   UNL     1     136.630 142.148 140.996  1.00  0.00     0.060 A 
ATOM      4  C   UNL     1     137.334 140.254 139.064  1.00  0.00     0.051 A 
ATOM      5  C   UNL     1     135.944 142.117 139.766  1.00  0.00     0.161 A 
ATOM      6  C   UNL     1     136.302 141.164 138.802  1.00  0.00     0.157 A 
ENDROOT
BRANCH   1   7
ATOM      7  C   UNL     1     138.389 141.267 142.554  1.00  0.00     0.072 C 
ATOM      8  O   UNL     1     138.474 140.230 143.266  1.00  0.00    -0.545 OA
ATOM      9  O   UNL     1     138.984 142.440 143.001  1.00  0.00    -0.545 OA
ENDBRANCH   1   7
BRANCH   5  10
ATOM     10  O   UNL     1     134.904 143.011 139.465  1.00  0.00    -0.493 OA
ATOM     11  C   UNL     1     135.093 144.347 139.013  1.00  0.00     0.278 C 
ENDBRANCH   5  10
BRANCH   6  12
ATOM     12  O   UNL     1     135.626 141.128 137.583  1.00  0.00    -0.504 OA
ATOM     13  H   UNL     1     136.082 140.819 136.733  1.00  0.00     0.293 HD
ENDBRANCH   6  12
TORSDOF 3
ENDMDL
MODEL 2
REMARK VINA RESULT:    -5.247      1.431      4.283
REMARK INTER + INTRA:          -6.111
REMARK INTER:                  -6.009
REMARK INTRA:                  -0.102
REMARK UNBOUND:                -0.097
REMARK SMILES COc1cc(C(=O)[O-])ccc1O
REMARK SMILES IDX 5 1 9 2 4 3 10 4 3 5 11 6 6 7 7 8 8 9 2 10 1 11 12 12
REMARK H PARENT 12 13
REMARK Flexibility Score: inf
ROOT
ATOM      1  C   UNL     1     135.772 142.765 139.604  1.00  0.00     0.001 A 
ATOM      2  C   UNL     1     135.813 141.694 138.697  1.00  0.00     0.014 A 
ATOM      3  C   UNL     1     136.417 142.634 140.847  1.00  0.00     0.060 A 
ATOM      4  C   UNL     1     136.484 140.514 139.026  1.00  0.00     0.051 A 
ATOM      5  C   UNL     1     137.095 141.445 141.183  1.00  0.00     0.161 A 
ATOM      6  C   UNL     1     137.124 140.387 140.265  1.00  0.00     0.157 A 
ENDROOT
BRANCH   1   7
ATOM      7  C   UNL     1     135.059 144.013 139.249  1.00  0.00     0.072 C 
ATOM      8  O   UNL     1     134.651 144.796 140.149  1.00  0.00    -0.545 OA
ATOM      9  O   UNL     1     134.828 144.339 137.918  1.00  0.00    -0.545 OA
ENDBRANCH   1   7
BRANCH   5  10
ATOM     10  O   UNL     1     137.749 141.279 142.414  1.00  0.00    -0.493 OA
ATOM     11  C   UNL     1     138.978 141.905 142.766  1.00  0.00     0.278 C 
ENDBRANCH   5  10
BRANCH   6  12
ATOM     12  O   UNL     1     137.795 139.209 140.591  1.00  0.00    -0.504 OA
ATOM     13  H   UNL     1     138.426 138.760 139.938  1.00  0.00     0.293 HD
ENDBRANCH   6  12
TORSDOF 3
ENDMDL
MODEL 3
REMARK VINA RESULT:    -5.117      1.512      3.789
REMARK INTER + INTRA:          -5.962
REMARK INTER:                  -5.866
REMARK INTRA:                  -0.095
REMARK UNBOUND:                -0.097
REMARK SMILES COc1cc(C(=O)[O-])ccc1O
REMARK SMILES IDX 5 1 9 2 4 3 10 4 3 5 11 6 6 7 7 8 8 9 2 10 1 11 12 12
REMARK H PARENT 12 13
REMARK Flexibility Score: inf
ROOT
ATOM      1  C   UNL     1     136.515 140.735 139.605  1.00  0.00     0.001 A 
ATOM      2  C   UNL     1     137.741 140.499 140.249  1.00  0.00     0.014 A 
ATOM      3  C   UNL     1     135.823 141.931 139.869  1.00  0.00     0.060 A 
ATOM      4  C   UNL     1     138.265 141.439 141.139  1.00  0.00     0.051 A 
ATOM      5  C   UNL     1     136.348 142.882 140.768  1.00  0.00     0.161 A 
ATOM      6  C   UNL     1     137.573 142.628 141.400  1.00  0.00     0.157 A 
ENDROOT
BRANCH   1   7
ATOM      7  C   UNL     1     135.966 139.735 138.663  1.00  0.00     0.072 C 
ATOM      8  O   UNL     1     135.512 140.093 137.542  1.00  0.00    -0.545 OA
ATOM      9  O   UNL     1     135.941 138.387 138.999  1.00  0.00    -0.545 OA
ENDBRANCH   1   7
BRANCH   5  10
ATOM     10  O   UNL     1     135.686 144.086 141.055  1.00  0.00    -0.493 OA
ATOM     11  C   UNL     1     135.434 145.116 140.105  1.00  0.00     0.278 C 
ENDBRANCH   5  10
BRANCH   6  12
ATOM     12  O   UNL     1     138.098 143.565 142.288  1.00  0.00    -0.504 OA
ATOM     13  H   UNL     1     137.540 143.958 143.037  1.00  0.00     0.293 HD
ENDBRANCH   6  12
TORSDOF 3
ENDMDL
MODEL 4
REMARK VINA RESULT:    -5.024      1.612      4.574
REMARK INTER + INTRA:          -5.855
REMARK INTER:                  -5.778
REMARK INTRA:                  -0.077
REMARK UNBOUND:                -0.097
REMARK SMILES COc1cc(C(=O)[O-])ccc1O
REMARK SMILES IDX 5 1 9 2 4 3 10 4 3 5 11 6 6 7 7 8 8 9 2 10 1 11 12 12
REMARK H PARENT 12 13
REMARK Flexibility Score: inf
ROOT
ATOM      1  C   UNL     1     136.243 141.069 139.634  1.00  0.00     0.001 A 
ATOM      2  C   UNL     1     135.454 142.224 139.747  1.00  0.00     0.014 A 
ATOM      3  C   UNL     1     137.450 140.992 140.354  1.00  0.00     0.060 A 
ATOM      4  C   UNL     1     135.861 143.283 140.560  1.00  0.00     0.051 A 
ATOM      5  C   UNL     1     137.865 142.059 141.176  1.00  0.00     0.161 A 
ATOM      6  C   UNL     1     137.063 143.204 141.274  1.00  0.00     0.157 A 
ENDROOT
BRANCH   1   7
ATOM      7  C   UNL     1     135.806 139.949 138.770  1.00  0.00     0.072 C 
ATOM      8  O   UNL     1     135.497 140.153 137.566  1.00  0.00    -0.545 OA
ATOM      9  O   UNL     1     135.728 138.657 139.275  1.00  0.00    -0.545 OA
ENDBRANCH   1   7
BRANCH   5  10
ATOM     10  O   UNL     1     139.063 142.018 141.908  1.00  0.00    -0.493 OA
ATOM     11  C   UNL     1     139.186 141.492 143.224  1.00  0.00     0.278 C 
ENDBRANCH   5  10
BRANCH   6  12
ATOM     12  O   UNL     1     137.468 144.262 142.086  1.00  0.00    -0.504 OA
ATOM     13  H   UNL     1     137.910 145.089 141.701  1.00  0.00     0.293 HD
ENDBRANCH   6  12
TORSDOF 3
ENDMDL
MODEL 5
REMARK VINA RESULT:    -4.888      7.202      9.140
REMARK INTER + INTRA:          -5.699
REMARK INTER:                  -5.610
REMARK INTRA:                  -0.088
REMARK UNBOUND:                -0.097
REMARK SMILES COc1cc(C(=O)[O-])ccc1O
REMARK SMILES IDX 5 1 9 2 4 3 10 4 3 5 11 6 6 7 7 8 8 9 2 10 1 11 12 12
REMARK H PARENT 12 13
REMARK Flexibility Score: inf
ROOT
ATOM      1  C   UNL     1     134.463 136.507 147.892  1.00  0.00     0.001 A 
ATOM      2  C   UNL     1     134.336 137.889 148.104  1.00  0.00     0.014 A 
ATOM      3  C   UNL     1     135.347 136.045 146.900  1.00  0.00     0.060 A 
ATOM      4  C   UNL     1     135.076 138.793 147.340  1.00  0.00     0.051 A 
ATOM      5  C   UNL     1     136.096 136.954 146.126  1.00  0.00     0.161 A 
ATOM      6  C   UNL     1     135.955 138.330 146.353  1.00  0.00     0.157 A 
ENDROOT
BRANCH   1   7
ATOM      7  C   UNL     1     133.675 135.554 148.706  1.00  0.00     0.072 C 
ATOM      8  O   UNL     1     132.970 135.963 149.668  1.00  0.00    -0.545 OA
ATOM      9  O   UNL     1     133.700 134.194 148.422  1.00  0.00    -0.545 OA
ENDBRANCH   1   7
BRANCH   5  10
ATOM     10  O   UNL     1     136.988 136.530 145.128  1.00  0.00    -0.493 OA
ATOM     11  C   UNL     1     136.738 135.459 144.224  1.00  0.00     0.278 C 
ENDBRANCH   5  10
BRANCH   6  12
ATOM     12  O   UNL     1     136.694 139.234 145.591  1.00  0.00    -0.504 OA
ATOM     13  H   UNL     1     136.245 139.962 145.048  1.00  0.00     0.293 HD
ENDBRANCH   6  12
TORSDOF 3
ENDMDL
MODEL 6
REMARK VINA RESULT:    -4.871      7.701      9.689
REMARK INTER + INTRA:          -5.680
REMARK INTER:                  -5.593
REMARK INTRA:                  -0.086
REMARK UNBOUND:                -0.097
REMARK SMILES COc1cc(C(=O)[O-])ccc1O
REMARK SMILES IDX 5 1 9 2 4 3 10 4 3 5 11 6 6 7 7 8 8 9 2 10 1 11 12 12
REMARK H PARENT 12 13
REMARK Flexibility Score: inf
ROOT
ATOM      1  C   UNL     1     134.677 135.313 147.501  1.00  0.00     0.001 A 
ATOM      2  C   UNL     1     133.656 135.917 148.253  1.00  0.00     0.014 A 
ATOM      3  C   UNL     1     135.750 136.102 147.048  1.00  0.00     0.060 A 
ATOM      4  C   UNL     1     133.705 137.281 148.545  1.00  0.00     0.051 A 
ATOM      5  C   UNL     1     135.804 137.479 147.340  1.00  0.00     0.161 A 
ATOM      6  C   UNL     1     134.775 138.063 148.092  1.00  0.00     0.157 A 
ENDROOT
BRANCH   1   7
ATOM      7  C   UNL     1     134.619 133.866 147.194  1.00  0.00     0.072 C 
ATOM      8  O   UNL     1     133.557 133.347 146.757  1.00  0.00    -0.545 OA
ATOM      9  O   UNL     1     135.734 133.060 147.384  1.00  0.00    -0.545 OA
ENDBRANCH   1   7
BRANCH   5  10
ATOM     10  O   UNL     1     136.859 138.297 146.905  1.00  0.00    -0.493 OA
ATOM     11  C   UNL     1     137.398 138.286 145.588  1.00  0.00     0.278 C 
ENDBRANCH   5  10
BRANCH   6  12
ATOM     12  O   UNL     1     134.823 139.425 148.386  1.00  0.00    -0.504 OA
ATOM     13  H   UNL     1     134.482 139.790 149.268  1.00  0.00     0.293 HD
ENDBRANCH   6  12
TORSDOF 3
ENDMDL
MODEL 7
REMARK VINA RESULT:    -4.523     10.990     12.374
REMARK INTER + INTRA:          -5.281
REMARK INTER:                  -5.192
REMARK INTRA:                  -0.089
REMARK UNBOUND:                -0.097
REMARK SMILES COc1cc(C(=O)[O-])ccc1O
REMARK SMILES IDX 5 1 9 2 4 3 10 4 3 5 11 6 6 7 7 8 8 9 2 10 1 11 12 12
REMARK H PARENT 12 13
REMARK Flexibility Score: inf
ROOT
ATOM      1  C   UNL     1     133.641 133.543 147.204  1.00  0.00     0.001 A 
ATOM      2  C   UNL     1     133.701 133.011 148.502  1.00  0.00     0.014 A 
ATOM      3  C   UNL     1     133.215 132.719 146.146  1.00  0.00     0.060 A 
ATOM      4  C   UNL     1     133.345 131.683 148.740  1.00  0.00     0.051 A 
ATOM      5  C   UNL     1     132.855 131.377 146.382  1.00  0.00     0.161 A 
ATOM      6  C   UNL     1     132.922 130.865 147.685  1.00  0.00     0.157 A 
ENDROOT
BRANCH   1   7
ATOM      7  C   UNL     1     134.021 134.953 146.959  1.00  0.00     0.072 C 
ATOM      8  O   UNL     1     134.334 135.340 145.801  1.00  0.00    -0.545 OA
ATOM      9  O   UNL     1     134.038 135.870 148.002  1.00  0.00    -0.545 OA
ENDBRANCH   1   7
BRANCH   5  10
ATOM     10  O   UNL     1     132.425 130.526 145.351  1.00  0.00    -0.493 OA
ATOM     11  C   UNL     1     133.292 129.752 144.529  1.00  0.00     0.278 C 
ENDBRANCH   5  10
BRANCH   6  12
ATOM     12  O   UNL     1     132.565 129.539 147.924  1.00  0.00    -0.504 OA
ATOM     13  H   UNL     1     132.223 129.236 148.828  1.00  0.00     0.293 HD
ENDBRANCH   6  12
TORSDOF 3
ENDMDL
MODEL 8
REMARK VINA RESULT:    -4.319      9.082     10.509
REMARK INTER + INTRA:          -5.047
REMARK INTER:                  -4.957
REMARK INTRA:                  -0.090
REMARK UNBOUND:                -0.097
REMARK SMILES COc1cc(C(=O)[O-])ccc1O
REMARK SMILES IDX 5 1 9 2 4 3 10 4 3 5 11 6 6 7 7 8 8 9 2 10 1 11 12 12
REMARK H PARENT 12 13
REMARK Flexibility Score: inf
ROOT
ATOM      1  C   UNL     1     134.459 133.284 147.393  1.00  0.00     0.001 A 
ATOM      2  C   UNL     1     135.423 133.079 146.393  1.00  0.00     0.014 A 
ATOM      3  C   UNL     1     134.006 134.591 147.649  1.00  0.00     0.060 A 
ATOM      4  C   UNL     1     135.927 134.158 145.664  1.00  0.00     0.051 A 
ATOM      5  C   UNL     1     134.512 135.683 146.915  1.00  0.00     0.161 A 
ATOM      6  C   UNL     1     135.474 135.458 145.922  1.00  0.00     0.157 A 
ENDROOT
BRANCH   1   7
ATOM      7  C   UNL     1     133.929 132.135 148.162  1.00  0.00     0.072 C 
ATOM      8  O   UNL     1     132.720 132.104 148.516  1.00  0.00    -0.545 OA
ATOM      9  O   UNL     1     134.758 131.074 148.506  1.00  0.00    -0.545 OA
ENDBRANCH   1   7
BRANCH   5  10
ATOM     10  O   UNL     1     134.083 137.000 147.143  1.00  0.00    -0.493 OA
ATOM     11  C   UNL     1     134.019 137.618 148.424  1.00  0.00     0.278 C 
ENDBRANCH   5  10
BRANCH   6  12
ATOM     12  O   UNL     1     135.977 136.534 145.192  1.00  0.00    -0.504 OA
ATOM     13  H   UNL     1     136.964 136.762 145.195  1.00  0.00     0.293 HD
ENDBRANCH   6  12
TORSDOF 3
ENDMDL
