MODEL 1
REMARK VINA RESULT:    -4.555      0.000      0.000
REMARK INTER + INTRA:          -6.647
REMARK INTER:                  -6.153
REMARK INTRA:                  -0.494
REMARK UNBOUND:                -0.494
REMARK SMILES O=C[C@H](O)[C@H](O)[C@H](O)CO
REMARK SMILES IDX 7 1 9 2 10 3 5 5 3 6 2 7 1 8 4 9 6 11 8 13
REMARK H PARENT 10 4 4 10 6 12 8 14
REMARK Flexibility Score: inf
ROOT
ATOM      1  C   UNL     1      -0.542  -3.091   0.080  1.00  0.00     0.171 C 
ENDROOT
BRANCH   1   2
ATOM      2  C   UNL     1      -0.738  -3.982  -1.157  1.00  0.00     0.190 C 
BRANCH   2   3
ATOM      3  O   UNL     1      -0.776  -3.210  -2.326  1.00  0.00    -0.394 OA
ATOM      4  H   UNL     1      -0.369  -2.336  -2.093  1.00  0.00     0.210 HD
ENDBRANCH   2   3
ENDBRANCH   1   2
BRANCH   1   5
ATOM      5  C   UNL     1       0.818  -2.337   0.106  1.00  0.00     0.181 C 
BRANCH   5   6
ATOM      6  C   UNL     1       0.858  -1.178   1.131  1.00  0.00     0.209 C 
BRANCH   6   7
ATOM      7  C   UNL     1       2.267  -0.929   1.595  1.00  0.00     0.258 C 
ATOM      8  O   UNL     1       3.112  -0.508   0.820  1.00  0.00    -0.300 OA
ENDBRANCH   6   7
BRANCH   6   9
ATOM      9  O   UNL     1       0.073  -1.495   2.253  1.00  0.00    -0.383 OA
ATOM     10  H   UNL     1      -0.070  -0.654   2.760  1.00  0.00     0.211 HD
ENDBRANCH   6   9
ENDBRANCH   5   6
BRANCH   5  11
ATOM     11  O   UNL     1       1.127  -1.843  -1.174  1.00  0.00    -0.387 OA
ATOM     12  H   UNL     1       0.387  -2.115  -1.777  1.00  0.00     0.211 HD
ENDBRANCH   5  11
ENDBRANCH   1   5
BRANCH   1  13
ATOM     13  O   UNL     1      -0.669  -3.885   1.232  1.00  0.00    -0.388 OA
ATOM     14  H   UNL     1      -0.187  -3.415   1.962  1.00  0.00     0.211 HD
ENDBRANCH   1  13
TORSDOF 8
ENDMDL
MODEL 2
REMARK VINA RESULT:    -3.867      0.686      3.994
REMARK INTER + INTRA:          -5.718
REMARK INTER:                  -5.270
REMARK INTRA:                  -0.448
REMARK UNBOUND:                -0.494
REMARK SMILES O=C[C@H](O)[C@H](O)[C@H](O)CO
REMARK SMILES IDX 7 1 9 2 10 3 5 5 3 6 2 7 1 8 4 9 6 11 8 13
REMARK H PARENT 10 4 4 10 6 12 8 14
REMARK Flexibility Score: inf
ROOT
ATOM      1  C   UNL     1       0.948  -1.775   1.317  1.00  0.00     0.171 C 
ENDROOT
BRANCH   1   2
ATOM      2  C   UNL     1       2.101  -0.778   1.121  1.00  0.00     0.190 C 
BRANCH   2   3
ATOM      3  O   UNL     1       2.963  -0.789   2.226  1.00  0.00    -0.394 OA
ATOM      4  H   UNL     1       2.414  -1.078   3.001  1.00  0.00     0.210 HD
ENDBRANCH   2   3
ENDBRANCH   1   2
BRANCH   1   5
ATOM      5  C   UNL     1       0.268  -2.222  -0.008  1.00  0.00     0.181 C 
BRANCH   5   6
ATOM      6  C   UNL     1      -0.082  -3.729  -0.041  1.00  0.00     0.209 C 
BRANCH   6   7
ATOM      7  C   UNL     1      -0.952  -4.046  -1.227  1.00  0.00     0.258 C 
ATOM      8  O   UNL     1      -0.489  -4.034  -2.357  1.00  0.00    -0.300 OA
ENDBRANCH   6   7
BRANCH   6   9
ATOM      9  O   UNL     1      -0.780  -4.091   1.125  1.00  0.00    -0.383 OA
ATOM     10  H   UNL     1      -1.369  -4.854   0.892  1.00  0.00     0.211 HD
ENDBRANCH   6   9
ENDBRANCH   5   6
BRANCH   5  11
ATOM     11  O   UNL     1       1.088  -1.907  -1.107  1.00  0.00    -0.387 OA
ATOM     12  H   UNL     1       0.487  -1.654  -1.855  1.00  0.00     0.211 HD
ENDBRANCH   5  11
ENDBRANCH   1   5
BRANCH   1  13
ATOM     13  O   UNL     1      -0.006  -1.198   2.171  1.00  0.00    -0.388 OA
ATOM     14  H   UNL     1      -0.866  -1.665   2.002  1.00  0.00     0.211 HD
ENDBRANCH   1  13
TORSDOF 8
ENDMDL
MODEL 3
REMARK VINA RESULT:    -3.708      0.898      4.178
REMARK INTER + INTRA:          -5.503
REMARK INTER:                  -5.166
REMARK INTRA:                  -0.337
REMARK UNBOUND:                -0.494
REMARK SMILES O=C[C@H](O)[C@H](O)[C@H](O)CO
REMARK SMILES IDX 7 1 9 2 10 3 5 5 3 6 2 7 1 8 4 9 6 11 8 13
REMARK H PARENT 10 4 4 10 6 12 8 14
REMARK Flexibility Score: inf
ROOT
ATOM      1  C   UNL     1       0.744  -1.503   0.297  1.00  0.00     0.171 C 
ENDROOT
BRANCH   1   2
ATOM      2  C   UNL     1       1.678  -1.164   1.470  1.00  0.00     0.190 C 
BRANCH   2   3
ATOM      3  O   UNL     1       2.923  -0.722   1.003  1.00  0.00    -0.394 OA
ATOM      4  H   UNL     1       3.014  -1.076   0.081  1.00  0.00     0.210 HD
ENDBRANCH   2   3
ENDBRANCH   1   2
BRANCH   1   5
ATOM      5  C   UNL     1      -0.005  -2.857   0.458  1.00  0.00     0.181 C 
BRANCH   5   6
ATOM      6  C   UNL     1      -1.104  -3.081  -0.608  1.00  0.00     0.209 C 
BRANCH   6   7
ATOM      7  C   UNL     1      -0.672  -4.125  -1.602  1.00  0.00     0.258 C 
ATOM      8  O   UNL     1      -0.372  -3.809  -2.743  1.00  0.00    -0.300 OA
ENDBRANCH   6   7
BRANCH   6   9
ATOM      9  O   UNL     1      -1.354  -1.886  -1.305  1.00  0.00    -0.383 OA
ATOM     10  H   UNL     1      -0.610  -1.263  -1.099  1.00  0.00     0.211 HD
ENDBRANCH   6   9
ENDBRANCH   5   6
BRANCH   5  11
ATOM     11  O   UNL     1      -0.571  -2.951   1.743  1.00  0.00    -0.387 OA
ATOM     12  H   UNL     1      -0.495  -3.899   2.026  1.00  0.00     0.211 HD
ENDBRANCH   5  11
ENDBRANCH   1   5
BRANCH   1  13
ATOM     13  O   UNL     1       1.497  -1.514  -0.889  1.00  0.00    -0.388 OA
ATOM     14  H   UNL     1       2.052  -2.337  -0.872  1.00  0.00     0.211 HD
ENDBRANCH   1  13
TORSDOF 8
ENDMDL
MODEL 4
REMARK VINA RESULT:    -3.596     15.756     17.841
REMARK INTER + INTRA:          -5.352
REMARK INTER:                  -4.895
REMARK INTRA:                  -0.457
REMARK UNBOUND:                -0.494
REMARK SMILES O=C[C@H](O)[C@H](O)[C@H](O)CO
REMARK SMILES IDX 7 1 9 2 10 3 5 5 3 6 2 7 1 8 4 9 6 11 8 13
REMARK H PARENT 10 4 4 10 6 12 8 14
REMARK Flexibility Score: inf
ROOT
ATOM      1  C   UNL     1      12.919  -2.055  11.086  1.00  0.00     0.171 C 
ENDROOT
BRANCH   1   2
ATOM      2  C   UNL     1      11.683  -2.952  10.915  1.00  0.00     0.190 C 
BRANCH   2   3
ATOM      3  O   UNL     1      11.344  -3.081   9.561  1.00  0.00    -0.394 OA
ATOM      4  H   UNL     1      10.493  -3.591   9.537  1.00  0.00     0.210 HD
ENDBRANCH   2   3
ENDBRANCH   1   2
BRANCH   1   5
ATOM      5  C   UNL     1      13.836  -2.462  12.275  1.00  0.00     0.181 C 
BRANCH   5   6
ATOM      6  C   UNL     1      15.189  -1.712  12.292  1.00  0.00     0.209 C 
BRANCH   6   7
ATOM      7  C   UNL     1      16.125  -2.330  13.296  1.00  0.00     0.258 C 
ATOM      8  O   UNL     1      15.688  -2.969  14.240  1.00  0.00    -0.300 OA
ENDBRANCH   6   7
BRANCH   6   9
ATOM      9  O   UNL     1      14.993  -0.365  12.643  1.00  0.00    -0.383 OA
ATOM     10  H   UNL     1      15.794  -0.073  13.151  1.00  0.00     0.211 HD
ENDBRANCH   6   9
ENDBRANCH   5   6
BRANCH   5  11
ATOM     11  O   UNL     1      14.069  -3.850  12.257  1.00  0.00    -0.387 OA
ATOM     12  H   UNL     1      13.332  -4.262  11.735  1.00  0.00     0.211 HD
ENDBRANCH   5  11
ENDBRANCH   1   5
BRANCH   1  13
ATOM     13  O   UNL     1      12.493  -0.726  11.247  1.00  0.00    -0.388 OA
ATOM     14  H   UNL     1      13.211  -0.249  11.740  1.00  0.00     0.211 HD
ENDBRANCH   1  13
TORSDOF 8
ENDMDL
MODEL 5
REMARK VINA RESULT:    -3.390     16.044     18.472
REMARK INTER + INTRA:          -5.073
REMARK INTER:                  -4.610
REMARK INTRA:                  -0.463
REMARK UNBOUND:                -0.494
REMARK SMILES O=C[C@H](O)[C@H](O)[C@H](O)CO
REMARK SMILES IDX 7 1 9 2 10 3 5 5 3 6 2 7 1 8 4 9 6 11 8 13
REMARK H PARENT 10 4 4 10 6 12 8 14
REMARK Flexibility Score: inf
ROOT
ATOM      1  C   UNL     1      15.272  -1.873  12.775  1.00  0.00     0.171 C 
ENDROOT
BRANCH   1   2
ATOM      2  C   UNL     1      16.125  -2.735  13.719  1.00  0.00     0.190 C 
BRANCH   2   3
ATOM      3  O   UNL     1      15.425  -3.025  14.898  1.00  0.00    -0.394 OA
ATOM      4  H   UNL     1      14.462  -2.990  14.663  1.00  0.00     0.210 HD
ENDBRANCH   2   3
ENDBRANCH   1   2
BRANCH   1   5
ATOM      5  C   UNL     1      14.199  -2.675  11.985  1.00  0.00     0.181 C 
BRANCH   5   6
ATOM      6  C   UNL     1      12.881  -1.892  11.771  1.00  0.00     0.209 C 
BRANCH   6   7
ATOM      7  C   UNL     1      11.918  -2.693  10.937  1.00  0.00     0.258 C 
ATOM      8  O   UNL     1      10.788  -2.281  10.727  1.00  0.00    -0.300 OA
ENDBRANCH   6   7
BRANCH   6   9
ATOM      9  O   UNL     1      13.139  -0.681  11.105  1.00  0.00    -0.383 OA
ATOM     10  H   UNL     1      13.934  -0.825  10.529  1.00  0.00     0.211 HD
ENDBRANCH   6   9
ENDBRANCH   5   6
BRANCH   5  11
ATOM     11  O   UNL     1      13.921  -3.891  12.636  1.00  0.00    -0.387 OA
ATOM     12  H   UNL     1      14.627  -4.021  13.321  1.00  0.00     0.211 HD
ENDBRANCH   5  11
ENDBRANCH   1   5
BRANCH   1  13
ATOM     13  O   UNL     1      16.125  -1.208  11.879  1.00  0.00    -0.388 OA
ATOM     14  H   UNL     1      15.807  -1.424  10.963  1.00  0.00     0.211 HD
ENDBRANCH   1  13
TORSDOF 8
ENDMDL
MODEL 6
REMARK VINA RESULT:    -3.310     15.070     17.126
REMARK INTER + INTRA:          -4.965
REMARK INTER:                  -4.553
REMARK INTRA:                  -0.412
REMARK UNBOUND:                -0.494
REMARK SMILES O=C[C@H](O)[C@H](O)[C@H](O)CO
REMARK SMILES IDX 7 1 9 2 10 3 5 5 3 6 2 7 1 8 4 9 6 11 8 13
REMARK H PARENT 10 4 4 10 6 12 8 14
REMARK Flexibility Score: inf
ROOT
ATOM      1  C   UNL     1      12.066  -2.642  11.437  1.00  0.00     0.171 C 
ENDROOT
BRANCH   1   2
ATOM      2  C   UNL     1      10.929  -1.658  11.118  1.00  0.00     0.190 C 
BRANCH   2   3
ATOM      3  O   UNL     1       9.943  -2.274  10.335  1.00  0.00    -0.394 OA
ATOM      4  H   UNL     1       9.089  -2.161  10.827  1.00  0.00     0.210 HD
ENDBRANCH   2   3
ENDBRANCH   1   2
BRANCH   1   5
ATOM      5  C   UNL     1      13.482  -1.999  11.413  1.00  0.00     0.181 C 
BRANCH   5   6
ATOM      6  C   UNL     1      14.397  -2.485  12.562  1.00  0.00     0.209 C 
BRANCH   6   7
ATOM      7  C   UNL     1      15.805  -1.992  12.364  1.00  0.00     0.258 C 
ATOM      8  O   UNL     1      16.024  -0.811  12.143  1.00  0.00    -0.300 OA
ENDBRANCH   6   7
BRANCH   6   9
ATOM      9  O   UNL     1      14.423  -3.890  12.600  1.00  0.00    -0.383 OA
ATOM     10  H   UNL     1      13.652  -4.184  13.151  1.00  0.00     0.211 HD
ENDBRANCH   6   9
ENDBRANCH   5   6
BRANCH   5  11
ATOM     11  O   UNL     1      13.381  -0.596  11.454  1.00  0.00    -0.387 OA
ATOM     12  H   UNL     1      12.559  -0.349  10.957  1.00  0.00     0.211 HD
ENDBRANCH   5  11
ENDBRANCH   1   5
BRANCH   1  13
ATOM     13  O   UNL     1      12.010  -3.706  10.523  1.00  0.00    -0.388 OA
ATOM     14  H   UNL     1      11.067  -3.781  10.222  1.00  0.00     0.211 HD
ENDBRANCH   1  13
TORSDOF 8
ENDMDL
MODEL 7
REMARK VINA RESULT:    -3.227     14.598     17.082
REMARK INTER + INTRA:          -4.853
REMARK INTER:                  -4.752
REMARK INTRA:                  -0.100
REMARK UNBOUND:                -0.494
REMARK SMILES O=C[C@H](O)[C@H](O)[C@H](O)CO
REMARK SMILES IDX 7 1 9 2 10 3 5 5 3 6 2 7 1 8 4 9 6 11 8 13
REMARK H PARENT 10 4 4 10 6 12 8 14
REMARK Flexibility Score: inf
ROOT
ATOM      1  C   UNL     1      13.673  -1.419  11.991  1.00  0.00     0.171 C 
ENDROOT
BRANCH   1   2
ATOM      2  C   UNL     1      15.144  -1.550  12.417  1.00  0.00     0.190 C 
BRANCH   2   3
ATOM      3  O   UNL     1      15.694  -0.292  12.702  1.00  0.00    -0.394 OA
ATOM      4  H   UNL     1      15.075   0.375  12.307  1.00  0.00     0.210 HD
ENDBRANCH   2   3
ENDBRANCH   1   2
BRANCH   1   5
ATOM      5  C   UNL     1      13.086  -2.706  11.345  1.00  0.00     0.181 C 
BRANCH   5   6
ATOM      6  C   UNL     1      11.557  -2.636  11.117  1.00  0.00     0.209 C 
BRANCH   6   7
ATOM      7  C   UNL     1      11.153  -3.511   9.961  1.00  0.00     0.258 C 
ATOM      8  O   UNL     1       9.987  -3.572   9.606  1.00  0.00    -0.300 OA
ENDBRANCH   6   7
BRANCH   6   9
ATOM      9  O   UNL     1      11.170  -1.316  10.826  1.00  0.00    -0.383 OA
ATOM     10  H   UNL     1      10.206  -1.337  10.590  1.00  0.00     0.211 HD
ENDBRANCH   6   9
ENDBRANCH   5   6
BRANCH   5  11
ATOM     11  O   UNL     1      13.392  -3.830  12.134  1.00  0.00    -0.387 OA
ATOM     12  H   UNL     1      13.871  -4.474  11.550  1.00  0.00     0.211 HD
ENDBRANCH   5  11
ENDBRANCH   1   5
BRANCH   1  13
ATOM     13  O   UNL     1      13.558  -0.342  11.096  1.00  0.00    -0.388 OA
ATOM     14  H   UNL     1      14.239  -0.481  10.387  1.00  0.00     0.211 HD
ENDBRANCH   1  13
TORSDOF 8
ENDMDL
MODEL 8
REMARK VINA RESULT:    -3.126     15.618     18.023
REMARK INTER + INTRA:          -4.717
REMARK INTER:                  -4.284
REMARK INTRA:                  -0.433
REMARK UNBOUND:                -0.494
REMARK SMILES O=C[C@H](O)[C@H](O)[C@H](O)CO
REMARK SMILES IDX 7 1 9 2 10 3 5 5 3 6 2 7 1 8 4 9 6 11 8 13
REMARK H PARENT 10 4 4 10 6 12 8 14
REMARK Flexibility Score: inf
ROOT
ATOM      1  C   UNL     1      15.109  -2.240  12.375  1.00  0.00     0.171 C 
ENDROOT
BRANCH   1   2
ATOM      2  C   UNL     1      16.125  -1.088  12.302  1.00  0.00     0.190 C 
BRANCH   2   3
ATOM      3  O   UNL     1      15.595   0.080  12.864  1.00  0.00    -0.394 OA
ATOM      4  H   UNL     1      15.874   0.080  13.816  1.00  0.00     0.210 HD
ENDBRANCH   2   3
ENDBRANCH   1   2
BRANCH   1   5
ATOM      5  C   UNL     1      13.646  -1.811  12.067  1.00  0.00     0.181 C 
BRANCH   5   6
ATOM      6  C   UNL     1      12.766  -2.968  11.536  1.00  0.00     0.209 C 
BRANCH   6   7
ATOM      7  C   UNL     1      11.528  -2.430  10.871  1.00  0.00     0.258 C 
ATOM      8  O   UNL     1      10.895  -3.118  10.086  1.00  0.00    -0.300 OA
ENDBRANCH   6   7
BRANCH   6   9
ATOM      9  O   UNL     1      12.370  -3.802  12.596  1.00  0.00    -0.383 OA
ATOM     10  H   UNL     1      12.042  -3.216  13.326  1.00  0.00     0.211 HD
ENDBRANCH   6   9
ENDBRANCH   5   6
BRANCH   5  11
ATOM     11  O   UNL     1      13.633  -0.749  11.144  1.00  0.00    -0.387 OA
ATOM     12  H   UNL     1      13.348  -1.126  10.271  1.00  0.00     0.211 HD
ENDBRANCH   5  11
ENDBRANCH   1   5
BRANCH   1  13
ATOM     13  O   UNL     1      15.177  -2.819  13.653  1.00  0.00    -0.388 OA
ATOM     14  H   UNL     1      14.301  -3.257  13.819  1.00  0.00     0.211 HD
ENDBRANCH   1  13
TORSDOF 8
ENDMDL
MODEL 9
REMARK VINA RESULT:    -2.939     16.946     19.287
REMARK INTER + INTRA:          -4.464
REMARK INTER:                  -4.218
REMARK INTRA:                  -0.245
REMARK UNBOUND:                -0.494
REMARK SMILES O=C[C@H](O)[C@H](O)[C@H](O)CO
REMARK SMILES IDX 7 1 9 2 10 3 5 5 3 6 2 7 1 8 4 9 6 11 8 13
REMARK H PARENT 10 4 4 10 6 12 8 14
REMARK Flexibility Score: inf
ROOT
ATOM      1  C   UNL     1      16.119  -2.923  13.270  1.00  0.00     0.171 C 
ENDROOT
BRANCH   1   2
ATOM      2  C   UNL     1      15.802  -3.615  14.604  1.00  0.00     0.190 C 
BRANCH   2   3
ATOM      3  O   UNL     1      15.710  -2.678  15.642  1.00  0.00    -0.394 OA
ATOM      4  H   UNL     1      16.210  -3.064  16.408  1.00  0.00     0.210 HD
ENDBRANCH   2   3
ENDBRANCH   1   2
BRANCH   1   5
ATOM      5  C   UNL     1      15.133  -1.777  12.903  1.00  0.00     0.181 C 
BRANCH   5   6
ATOM      6  C   UNL     1      14.099  -2.179  11.824  1.00  0.00     0.209 C 
BRANCH   6   7
ATOM      7  C   UNL     1      13.047  -1.113  11.676  1.00  0.00     0.258 C 
ATOM      8  O   UNL     1      12.027  -1.332  11.041  1.00  0.00    -0.300 OA
ENDBRANCH   6   7
BRANCH   6   9
ATOM      9  O   UNL     1      13.463  -3.379  12.185  1.00  0.00    -0.383 OA
ATOM     10  H   UNL     1      13.795  -4.085  11.572  1.00  0.00     0.211 HD
ENDBRANCH   6   9
ENDBRANCH   5   6
BRANCH   5  11
ATOM     11  O   UNL     1      15.844  -0.641  12.472  1.00  0.00    -0.387 OA
ATOM     12  H   UNL     1      15.482  -0.393  11.582  1.00  0.00     0.211 HD
ENDBRANCH   5  11
ENDBRANCH   1   5
BRANCH   1  13
ATOM     13  O   UNL     1      16.125  -3.890  12.251  1.00  0.00    -0.388 OA
ATOM     14  H   UNL     1      16.811  -4.565  12.496  1.00  0.00     0.211 HD
ENDBRANCH   1  13
TORSDOF 8
ENDMDL
