MODEL 1
REMARK VINA RESULT:    -4.561      0.000      0.000
REMARK INTER + INTRA:          -4.561
REMARK INTER:                  -4.561
REMARK INTRA:                   0.000
REMARK UNBOUND:                 0.000
REMARK SMILES C=C1CCCC(C)(C)[C@@]12CC=C(C)CC2
REMARK SMILES IDX 13 1 12 2 11 3 10 4 9 5 15 6 14 7 2 8 1 9 3 10 4 11 5 12
REMARK SMILES IDX 6 13 7 14 8 15
REMARK H PARENT
REMARK Flexibility Score: inf
ROOT
ATOM      1  C   UNL     1      24.309  64.722  18.665  1.00  0.00     0.039 C 
ATOM      2  C   UNL     1      23.374  64.570  17.498  1.00  0.00    -0.077 C 
ATOM      3  C   UNL     1      22.671  65.637  17.081  1.00  0.00    -0.027 C 
ATOM      4  C   UNL     1      21.771  65.570  15.882  1.00  0.00     0.039 C 
ATOM      5  C   UNL     1      21.034  64.200  15.784  1.00  0.00    -0.000 C 
ATOM      6  C   UNL     1      22.171  63.120  15.720  1.00  0.00     0.017 C 
ATOM      7  C   UNL     1      23.206  63.201  16.870  1.00  0.00     0.031 C 
ATOM      8  C   UNL     1      20.130  64.025  17.025  1.00  0.00    -0.070 C 
ATOM      9  C   UNL     1      20.295  63.008  17.891  1.00  0.00     0.008 C 
ATOM     10  C   UNL     1      18.954  64.965  17.186  1.00  0.00     0.031 C 
ATOM     11  C   UNL     1      18.064  64.887  15.948  1.00  0.00     0.005 C 
ATOM     12  C   UNL     1      18.868  65.113  14.659  1.00  0.00     0.008 C 
ATOM     13  C   UNL     1      20.083  64.140  14.496  1.00  0.00    -0.026 C 
ATOM     14  C   UNL     1      20.805  64.549  13.183  1.00  0.00     0.012 C 
ATOM     15  C   UNL     1      19.536  62.701  14.277  1.00  0.00     0.012 C 
ENDROOT
TORSDOF 0
ENDMDL
MODEL 2
REMARK VINA RESULT:    -4.554      1.350      2.918
REMARK INTER + INTRA:          -4.554
REMARK INTER:                  -4.554
REMARK INTRA:                   0.000
REMARK UNBOUND:                 0.000
REMARK SMILES C=C1CCCC(C)(C)[C@@]12CC=C(C)CC2
REMARK SMILES IDX 13 1 12 2 11 3 10 4 9 5 15 6 14 7 2 8 1 9 3 10 4 11 5 12
REMARK SMILES IDX 6 13 7 14 8 15
REMARK H PARENT
REMARK Flexibility Score: inf
ROOT
ATOM      1  C   UNL     1      24.860  62.068  17.539  1.00  0.00     0.039 C 
ATOM      2  C   UNL     1      23.622  62.396  16.752  1.00  0.00    -0.077 C 
ATOM      3  C   UNL     1      23.686  62.409  15.409  1.00  0.00    -0.027 C 
ATOM      4  C   UNL     1      22.472  62.662  14.563  1.00  0.00     0.039 C 
ATOM      5  C   UNL     1      21.532  63.728  15.201  1.00  0.00    -0.000 C 
ATOM      6  C   UNL     1      21.149  63.154  16.612  1.00  0.00     0.017 C 
ATOM      7  C   UNL     1      22.357  62.763  17.500  1.00  0.00     0.031 C 
ATOM      8  C   UNL     1      22.288  65.072  15.302  1.00  0.00    -0.070 C 
ATOM      9  C   UNL     1      22.513  65.677  16.482  1.00  0.00     0.008 C 
ATOM     10  C   UNL     1      22.670  65.770  14.014  1.00  0.00     0.031 C 
ATOM     11  C   UNL     1      21.420  66.003  13.168  1.00  0.00     0.005 C 
ATOM     12  C   UNL     1      20.630  64.702  12.959  1.00  0.00     0.008 C 
ATOM     13  C   UNL     1      20.237  63.983  14.292  1.00  0.00    -0.026 C 
ATOM     14  C   UNL     1      19.505  62.673  13.889  1.00  0.00     0.012 C 
ATOM     15  C   UNL     1      19.198  64.865  15.040  1.00  0.00     0.012 C 
ENDROOT
TORSDOF 0
ENDMDL
MODEL 3
REMARK VINA RESULT:    -4.551      1.238      2.735
REMARK INTER + INTRA:          -4.551
REMARK INTER:                  -4.551
REMARK INTRA:                   0.000
REMARK UNBOUND:                 0.000
REMARK SMILES C=C1CCCC(C)(C)[C@@]12CC=C(C)CC2
REMARK SMILES IDX 13 1 12 2 11 3 10 4 9 5 15 6 14 7 2 8 1 9 3 10 4 11 5 12
REMARK SMILES IDX 6 13 7 14 8 15
REMARK H PARENT
REMARK Flexibility Score: inf
ROOT
ATOM      1  C   UNL     1      24.265  62.368  17.705  1.00  0.00     0.039 C 
ATOM      2  C   UNL     1      23.104  63.200  17.237  1.00  0.00    -0.077 C 
ATOM      3  C   UNL     1      21.853  62.769  17.475  1.00  0.00    -0.027 C 
ATOM      4  C   UNL     1      20.652  63.583  17.094  1.00  0.00     0.039 C 
ATOM      5  C   UNL     1      20.859  64.327  15.740  1.00  0.00    -0.000 C 
ATOM      6  C   UNL     1      22.128  65.227  15.951  1.00  0.00     0.017 C 
ATOM      7  C   UNL     1      23.382  64.468  16.455  1.00  0.00     0.031 C 
ATOM      8  C   UNL     1      21.060  63.284  14.617  1.00  0.00    -0.070 C 
ATOM      9  C   UNL     1      22.188  63.233  13.886  1.00  0.00     0.008 C 
ATOM     10  C   UNL     1      19.895  62.385  14.267  1.00  0.00     0.031 C 
ATOM     11  C   UNL     1      18.684  63.237  13.896  1.00  0.00     0.005 C 
ATOM     12  C   UNL     1      18.365  64.269  14.989  1.00  0.00     0.008 C 
ATOM     13  C   UNL     1      19.572  65.198  15.350  1.00  0.00    -0.026 C 
ATOM     14  C   UNL     1      19.089  66.125  16.499  1.00  0.00     0.012 C 
ATOM     15  C   UNL     1      19.871  66.114  14.130  1.00  0.00     0.012 C 
ENDROOT
TORSDOF 0
ENDMDL
MODEL 4
REMARK VINA RESULT:    -4.512      1.525      3.246
REMARK INTER + INTRA:          -4.512
REMARK INTER:                  -4.512
REMARK INTRA:                   0.000
REMARK UNBOUND:                 0.000
REMARK SMILES C=C1CCCC(C)(C)[C@@]12CC=C(C)CC2
REMARK SMILES IDX 13 1 12 2 11 3 10 4 9 5 15 6 14 7 2 8 1 9 3 10 4 11 5 12
REMARK SMILES IDX 6 13 7 14 8 15
REMARK H PARENT
REMARK Flexibility Score: inf
ROOT
ATOM      1  C   UNL     1      21.739  64.234  20.641  1.00  0.00     0.039 C 
ATOM      2  C   UNL     1      21.192  64.309  19.243  1.00  0.00    -0.077 C 
ATOM      3  C   UNL     1      20.900  63.169  18.593  1.00  0.00    -0.027 C 
ATOM      4  C   UNL     1      20.290  63.176  17.223  1.00  0.00     0.039 C 
ATOM      5  C   UNL     1      20.859  64.325  16.338  1.00  0.00    -0.000 C 
ATOM      6  C   UNL     1      20.543  65.648  17.123  1.00  0.00     0.017 C 
ATOM      7  C   UNL     1      21.048  65.668  18.588  1.00  0.00     0.031 C 
ATOM      8  C   UNL     1      22.377  64.108  16.144  1.00  0.00    -0.070 C 
ATOM      9  C   UNL     1      23.285  65.009  16.560  1.00  0.00     0.008 C 
ATOM     10  C   UNL     1      22.825  62.898  15.354  1.00  0.00     0.031 C 
ATOM     11  C   UNL     1      22.180  62.922  13.970  1.00  0.00     0.005 C 
ATOM     12  C   UNL     1      20.654  63.073  14.062  1.00  0.00     0.008 C 
ATOM     13  C   UNL     1      20.193  64.325  14.881  1.00  0.00    -0.026 C 
ATOM     14  C   UNL     1      18.641  64.283  14.918  1.00  0.00     0.012 C 
ATOM     15  C   UNL     1      20.588  65.604  14.090  1.00  0.00     0.012 C 
ENDROOT
TORSDOF 0
ENDMDL
MODEL 5
REMARK VINA RESULT:    -4.381      1.355      4.671
REMARK INTER + INTRA:          -4.381
REMARK INTER:                  -4.381
REMARK INTRA:                   0.000
REMARK UNBOUND:                 0.000
REMARK SMILES C=C1CCCC(C)(C)[C@@]12CC=C(C)CC2
REMARK SMILES IDX 13 1 12 2 11 3 10 4 9 5 15 6 14 7 2 8 1 9 3 10 4 11 5 12
REMARK SMILES IDX 6 13 7 14 8 15
REMARK H PARENT
REMARK Flexibility Score: inf
ROOT
ATOM      1  C   UNL     1      19.138  62.738  13.871  1.00  0.00     0.039 C 
ATOM      2  C   UNL     1      20.320  63.448  14.470  1.00  0.00    -0.077 C 
ATOM      3  C   UNL     1      21.555  62.971  14.237  1.00  0.00    -0.027 C 
ATOM      4  C   UNL     1      22.780  63.670  14.749  1.00  0.00     0.039 C 
ATOM      5  C   UNL     1      22.553  64.281  16.164  1.00  0.00    -0.000 C 
ATOM      6  C   UNL     1      21.344  65.271  15.999  1.00  0.00     0.017 C 
ATOM      7  C   UNL     1      20.076  64.643  15.369  1.00  0.00     0.031 C 
ATOM      8  C   UNL     1      22.244  63.142  17.162  1.00  0.00    -0.070 C 
ATOM      9  C   UNL     1      21.083  63.082  17.839  1.00  0.00     0.008 C 
ATOM     10  C   UNL     1      23.342  62.144  17.462  1.00  0.00     0.031 C 
ATOM     11  C   UNL     1      24.580  62.882  17.967  1.00  0.00     0.005 C 
ATOM     12  C   UNL     1      25.003  64.000  17.003  1.00  0.00     0.008 C 
ATOM     13  C   UNL     1      23.866  65.030  16.694  1.00  0.00    -0.026 C 
ATOM     14  C   UNL     1      24.449  66.041  15.670  1.00  0.00     0.012 C 
ATOM     15  C   UNL     1      23.562  65.832  17.992  1.00  0.00     0.012 C 
ENDROOT
TORSDOF 0
ENDMDL
MODEL 6
REMARK VINA RESULT:    -4.262      1.539      4.349
REMARK INTER + INTRA:          -4.262
REMARK INTER:                  -4.262
REMARK INTRA:                   0.000
REMARK UNBOUND:                 0.000
REMARK SMILES C=C1CCCC(C)(C)[C@@]12CC=C(C)CC2
REMARK SMILES IDX 13 1 12 2 11 3 10 4 9 5 15 6 14 7 2 8 1 9 3 10 4 11 5 12
REMARK SMILES IDX 6 13 7 14 8 15
REMARK H PARENT
REMARK Flexibility Score: inf
ROOT
ATOM      1  C   UNL     1      17.463  64.984  14.998  1.00  0.00     0.039 C 
ATOM      2  C   UNL     1      18.932  64.700  14.850  1.00  0.00    -0.077 C 
ATOM      3  C   UNL     1      19.354  63.424  14.850  1.00  0.00    -0.027 C 
ATOM      4  C   UNL     1      20.797  63.070  14.640  1.00  0.00     0.039 C 
ATOM      5  C   UNL     1      21.752  64.093  15.325  1.00  0.00    -0.000 C 
ATOM      6  C   UNL     1      21.396  65.484  14.690  1.00  0.00     0.017 C 
ATOM      7  C   UNL     1      19.896  65.866  14.771  1.00  0.00     0.031 C 
ATOM      8  C   UNL     1      21.509  64.066  16.851  1.00  0.00    -0.070 C 
ATOM      9  C   UNL     1      21.099  65.155  17.527  1.00  0.00     0.008 C 
ATOM     10  C   UNL     1      21.864  62.803  17.604  1.00  0.00     0.031 C 
ATOM     11  C   UNL     1      23.332  62.458  17.363  1.00  0.00     0.005 C 
ATOM     12  C   UNL     1      23.658  62.399  15.863  1.00  0.00     0.008 C 
ATOM     13  C   UNL     1      23.289  63.707  15.086  1.00  0.00    -0.026 C 
ATOM     14  C   UNL     1      23.629  63.447  13.593  1.00  0.00     0.012 C 
ATOM     15  C   UNL     1      24.229  64.848  15.568  1.00  0.00     0.012 C 
ENDROOT
TORSDOF 0
ENDMDL
MODEL 7
REMARK VINA RESULT:    -4.156      1.666      4.677
REMARK INTER + INTRA:          -4.156
REMARK INTER:                  -4.156
REMARK INTRA:                   0.000
REMARK UNBOUND:                 0.000
REMARK SMILES C=C1CCCC(C)(C)[C@@]12CC=C(C)CC2
REMARK SMILES IDX 13 1 12 2 11 3 10 4 9 5 15 6 14 7 2 8 1 9 3 10 4 11 5 12
REMARK SMILES IDX 6 13 7 14 8 15
REMARK H PARENT
REMARK Flexibility Score: inf
ROOT
ATOM      1  C   UNL     1      17.761  64.459  14.828  1.00  0.00     0.039 C 
ATOM      2  C   UNL     1      19.183  63.993  14.975  1.00  0.00    -0.077 C 
ATOM      3  C   UNL     1      19.953  64.535  15.934  1.00  0.00    -0.027 C 
ATOM      4  C   UNL     1      21.358  64.068  16.177  1.00  0.00     0.039 C 
ATOM      5  C   UNL     1      22.091  63.715  14.848  1.00  0.00    -0.000 C 
ATOM      6  C   UNL     1      21.215  62.600  14.174  1.00  0.00     0.017 C 
ATOM      7  C   UNL     1      19.722  62.971  13.994  1.00  0.00     0.031 C 
ATOM      8  C   UNL     1      22.193  64.987  13.975  1.00  0.00    -0.070 C 
ATOM      9  C   UNL     1      21.632  65.061  12.754  1.00  0.00     0.008 C 
ATOM     10  C   UNL     1      23.055  66.125  14.476  1.00  0.00     0.031 C 
ATOM     11  C   UNL     1      24.474  65.620  14.727  1.00  0.00     0.005 C 
ATOM     12  C   UNL     1      24.480  64.386  15.643  1.00  0.00     0.008 C 
ATOM     13  C   UNL     1      23.587  63.211  15.122  1.00  0.00    -0.026 C 
ATOM     14  C   UNL     1      23.667  62.087  16.191  1.00  0.00     0.012 C 
ATOM     15  C   UNL     1      24.228  62.643  13.824  1.00  0.00     0.012 C 
ENDROOT
TORSDOF 0
ENDMDL
MODEL 8
REMARK VINA RESULT:    -3.995      1.203      4.808
REMARK INTER + INTRA:          -3.995
REMARK INTER:                  -3.995
REMARK INTRA:                   0.000
REMARK UNBOUND:                 0.000
REMARK SMILES C=C1CCCC(C)(C)[C@@]12CC=C(C)CC2
REMARK SMILES IDX 13 1 12 2 11 3 10 4 9 5 15 6 14 7 2 8 1 9 3 10 4 11 5 12
REMARK SMILES IDX 6 13 7 14 8 15
REMARK H PARENT
REMARK Flexibility Score: inf
ROOT
ATOM      1  C   UNL     1      18.490  64.618  16.700  1.00  0.00     0.039 C 
ATOM      2  C   UNL     1      19.862  64.009  16.776  1.00  0.00    -0.077 C 
ATOM      3  C   UNL     1      20.327  63.593  17.967  1.00  0.00    -0.027 C 
ATOM      4  C   UNL     1      21.660  62.917  18.101  1.00  0.00     0.039 C 
ATOM      5  C   UNL     1      22.724  63.534  17.144  1.00  0.00    -0.000 C 
ATOM      6  C   UNL     1      22.129  63.366  15.700  1.00  0.00     0.017 C 
ATOM      7  C   UNL     1      20.703  63.943  15.517  1.00  0.00     0.031 C 
ATOM      8  C   UNL     1      22.941  65.017  17.519  1.00  0.00    -0.070 C 
ATOM      9  C   UNL     1      22.696  66.015  16.651  1.00  0.00     0.008 C 
ATOM     10  C   UNL     1      23.563  65.325  18.864  1.00  0.00     0.031 C 
ATOM     11  C   UNL     1      24.910  64.616  18.979  1.00  0.00     0.005 C 
ATOM     12  C   UNL     1      24.783  63.113  18.684  1.00  0.00     0.008 C 
ATOM     13  C   UNL     1      24.139  62.798  17.292  1.00  0.00    -0.026 C 
ATOM     14  C   UNL     1      24.038  61.251  17.192  1.00  0.00     0.012 C 
ATOM     15  C   UNL     1      25.123  63.255  16.179  1.00  0.00     0.012 C 
ENDROOT
TORSDOF 0
ENDMDL
MODEL 9
REMARK VINA RESULT:    -3.923      2.085      4.552
REMARK INTER + INTRA:          -3.923
REMARK INTER:                  -3.923
REMARK INTRA:                   0.000
REMARK UNBOUND:                 0.000
REMARK SMILES C=C1CCCC(C)(C)[C@@]12CC=C(C)CC2
REMARK SMILES IDX 13 1 12 2 11 3 10 4 9 5 15 6 14 7 2 8 1 9 3 10 4 11 5 12
REMARK SMILES IDX 6 13 7 14 8 15
REMARK H PARENT
REMARK Flexibility Score: inf
ROOT
ATOM      1  C   UNL     1      24.735  60.705  14.157  1.00  0.00     0.039 C 
ATOM      2  C   UNL     1      24.592  61.729  15.248  1.00  0.00    -0.077 C 
ATOM      3  C   UNL     1      24.334  61.318  16.502  1.00  0.00    -0.027 C 
ATOM      4  C   UNL     1      24.246  62.283  17.647  1.00  0.00     0.039 C 
ATOM      5  C   UNL     1      23.569  63.623  17.228  1.00  0.00    -0.000 C 
ATOM      6  C   UNL     1      24.453  64.186  16.059  1.00  0.00     0.017 C 
ATOM      7  C   UNL     1      24.681  63.198  14.887  1.00  0.00     0.031 C 
ATOM      8  C   UNL     1      22.118  63.336  16.779  1.00  0.00    -0.070 C 
ATOM      9  C   UNL     1      21.688  63.615  15.535  1.00  0.00     0.008 C 
ATOM     10  C   UNL     1      21.138  62.841  17.820  1.00  0.00     0.031 C 
ATOM     11  C   UNL     1      21.078  63.833  18.979  1.00  0.00     0.005 C 
ATOM     12  C   UNL     1      22.477  64.135  19.537  1.00  0.00     0.008 C 
ATOM     13  C   UNL     1      23.489  64.646  18.458  1.00  0.00    -0.026 C 
ATOM     14  C   UNL     1      24.849  64.839  19.183  1.00  0.00     0.012 C 
ATOM     15  C   UNL     1      23.031  66.053  17.981  1.00  0.00     0.012 C 
ENDROOT
TORSDOF 0
ENDMDL
