MODEL 1
REMARK VINA RESULT:    -8.299      0.000      0.000
REMARK INTER + INTRA:         -11.630
REMARK INTER:                 -11.452
REMARK INTRA:                  -0.178
REMARK UNBOUND:                -0.178
REMARK SMILES O=C([O-])[C@@H]1O[C@@H](Oc2cc3oc(-c4ccccc4)cc(=O)c3c(O)c2O)[C@H](O)[C@@H](O)[C@H]1O
REMARK SMILES IDX 7 1 6 2 4 3 31 4 5 5 29 6 27 7 2 8 1 9 3 10 32 11 30 13
REMARK SMILES IDX 28 15 8 17 25 18 9 19 23 20 10 21 22 22 11 23 20 24 12 25
REMARK SMILES IDX 19 26 21 27 26 28 24 30 13 32 14 33 18 34 15 35 17 36 16 37
REMARK H PARENT 32 12 30 14 28 16 26 29 24 31
REMARK Flexibility Score: inf
ROOT
ATOM      1  O   UNL     1     -17.482  43.100  30.716  1.00  0.00    -0.458 OA
ENDROOT
BRANCH   1   2
ATOM      2  C   UNL     1     -17.932  44.032  31.708  1.00  0.00     0.339 C 
ATOM      3  C   UNL     1     -16.222  43.431  33.204  1.00  0.00     0.199 C 
ATOM      4  C   UNL     1     -17.202  42.832  34.241  1.00  0.00     0.180 C 
ATOM      5  O   UNL     1     -16.838  44.489  32.487  1.00  0.00    -0.328 OA
ATOM      6  C   UNL     1     -18.516  42.370  33.570  1.00  0.00     0.181 C 
ATOM      7  C   UNL     1     -19.054  43.448  32.604  1.00  0.00     0.214 C 
BRANCH   3   8
ATOM      8  C   UNL     1     -15.009  43.971  33.904  1.00  0.00     0.073 C 
ATOM      9  O   UNL     1     -13.931  43.318  33.904  1.00  0.00    -0.547 OA
ATOM     10  O   UNL     1     -15.058  45.216  34.517  1.00  0.00    -0.547 OA
ENDBRANCH   3   8
BRANCH   4  11
ATOM     11  O   UNL     1     -16.615  41.786  34.977  1.00  0.00    -0.387 OA
ATOM     12  H   UNL     1     -17.330  41.137  35.212  1.00  0.00     0.211 HD
ENDBRANCH   4  11
BRANCH   6  13
ATOM     13  O   UNL     1     -18.387  41.125  32.923  1.00  0.00    -0.387 OA
ATOM     14  H   UNL     1     -19.267  40.870  32.552  1.00  0.00     0.211 HD
ENDBRANCH   6  13
BRANCH   7  15
ATOM     15  O   UNL     1     -19.623  44.500  33.344  1.00  0.00    -0.384 OA
ATOM     16  H   UNL     1     -20.589  44.522  33.119  1.00  0.00     0.211 HD
ENDBRANCH   7  15
ENDBRANCH   1   2
BRANCH   1  17
ATOM     17  C   UNL     1     -16.175  42.614  30.517  1.00  0.00     0.172 A 
ATOM     18  C   UNL     1     -15.803  41.255  30.626  1.00  0.00     0.201 A 
ATOM     19  C   UNL     1     -15.210  43.557  30.168  1.00  0.00     0.098 A 
ATOM     20  C   UNL     1     -14.461  40.865  30.425  1.00  0.00     0.176 A 
ATOM     21  C   UNL     1     -13.875  43.199  30.003  1.00  0.00     0.146 A 
ATOM     22  C   UNL     1     -13.468  41.852  30.162  1.00  0.00     0.111 A 
ATOM     23  O   UNL     1     -12.994  44.148  29.707  1.00  0.00    -0.456 OA
ATOM     24  C   UNL     1     -12.079  41.592  30.080  1.00  0.00     0.197 A 
ATOM     25  C   UNL     1     -11.692  43.920  29.559  1.00  0.00     0.138 A 
ATOM     26  C   UNL     1     -11.197  42.624  29.758  1.00  0.00     0.100 A 
ATOM     27  O   UNL     1     -11.597  40.455  30.329  1.00  0.00    -0.289 OA
BRANCH  18  28
ATOM     28  O   UNL     1     -16.766  40.282  30.895  1.00  0.00    -0.502 OA
ATOM     29  H   UNL     1     -16.968  39.949  31.830  1.00  0.00     0.293 HD
ENDBRANCH  18  28
BRANCH  20  30
ATOM     30  O   UNL     1     -14.179  39.496  30.458  1.00  0.00    -0.504 OA
ATOM     31  H   UNL     1     -14.867  38.774  30.611  1.00  0.00     0.293 HD
ENDBRANCH  20  30
BRANCH  25  32
ATOM     32  C   UNL     1     -10.802  45.057  29.216  1.00  0.00     0.017 A 
ATOM     33  C   UNL     1     -10.359  45.972  30.194  1.00  0.00     0.012 A 
ATOM     34  C   UNL     1     -10.357  45.214  27.890  1.00  0.00     0.012 A 
ATOM     35  C   UNL     1      -9.510  47.027  29.843  1.00  0.00     0.001 A 
ATOM     36  C   UNL     1      -9.509  46.273  27.547  1.00  0.00     0.001 A 
ATOM     37  C   UNL     1      -9.088  47.178  28.521  1.00  0.00     0.000 A 
ENDBRANCH  25  32
ENDBRANCH   1  17
TORSDOF 9
ENDMDL
MODEL 2
REMARK VINA RESULT:    -8.259      2.259      4.619
REMARK INTER + INTRA:         -11.575
REMARK INTER:                 -11.210
REMARK INTRA:                  -0.365
REMARK UNBOUND:                -0.178
REMARK SMILES O=C([O-])[C@@H]1O[C@@H](Oc2cc3oc(-c4ccccc4)cc(=O)c3c(O)c2O)[C@H](O)[C@@H](O)[C@H]1O
REMARK SMILES IDX 7 1 6 2 4 3 31 4 5 5 29 6 27 7 2 8 1 9 3 10 32 11 30 13
REMARK SMILES IDX 28 15 8 17 25 18 9 19 23 20 10 21 22 22 11 23 20 24 12 25
REMARK SMILES IDX 19 26 21 27 26 28 24 30 13 32 14 33 18 34 15 35 17 36 16 37
REMARK H PARENT 32 12 30 14 28 16 26 29 24 31
REMARK Flexibility Score: inf
ROOT
ATOM      1  O   UNL     1     -16.663  43.480  30.311  1.00  0.00    -0.458 OA
ENDROOT
BRANCH   1   2
ATOM      2  C   UNL     1     -17.394  44.212  31.302  1.00  0.00     0.339 C 
ATOM      3  C   UNL     1     -15.905  43.596  33.013  1.00  0.00     0.199 C 
ATOM      4  C   UNL     1     -16.963  42.758  33.770  1.00  0.00     0.180 C 
ATOM      5  O   UNL     1     -16.519  44.671  32.321  1.00  0.00    -0.328 OA
ATOM      6  C   UNL     1     -18.070  42.256  32.815  1.00  0.00     0.181 C 
ATOM      7  C   UNL     1     -18.568  43.395  31.898  1.00  0.00     0.214 C 
BRANCH   3   8
ATOM      8  C   UNL     1     -14.911  44.159  33.986  1.00  0.00     0.073 C 
ATOM      9  O   UNL     1     -15.150  45.240  34.587  1.00  0.00    -0.547 OA
ATOM     10  O   UNL     1     -13.739  43.465  34.261  1.00  0.00    -0.547 OA
ENDBRANCH   3   8
BRANCH   4  11
ATOM     11  O   UNL     1     -16.381  41.689  34.476  1.00  0.00    -0.387 OA
ATOM     12  H   UNL     1     -16.598  41.802  35.439  1.00  0.00     0.211 HD
ENDBRANCH   4  11
BRANCH   6  13
ATOM     13  O   UNL     1     -17.671  41.133  32.063  1.00  0.00    -0.387 OA
ATOM     14  H   UNL     1     -18.455  40.547  31.933  1.00  0.00     0.211 HD
ENDBRANCH   6  13
BRANCH   7  15
ATOM     15  O   UNL     1     -19.387  44.267  32.635  1.00  0.00    -0.384 OA
ATOM     16  H   UNL     1     -19.189  44.110  33.595  1.00  0.00     0.211 HD
ENDBRANCH   7  15
ENDBRANCH   1   2
BRANCH   1  17
ATOM     17  C   UNL     1     -15.267  43.318  30.211  1.00  0.00     0.172 A 
ATOM     18  C   UNL     1     -14.339  44.383  30.183  1.00  0.00     0.201 A 
ATOM     19  C   UNL     1     -14.798  42.006  30.163  1.00  0.00     0.098 A 
ATOM     20  C   UNL     1     -12.956  44.121  30.064  1.00  0.00     0.176 A 
ATOM     21  C   UNL     1     -13.443  41.727  30.007  1.00  0.00     0.146 A 
ATOM     22  C   UNL     1     -12.499  42.780  29.920  1.00  0.00     0.111 A 
ATOM     23  O   UNL     1     -13.059  40.458  29.930  1.00  0.00    -0.456 OA
ATOM     24  C   UNL     1     -11.157  42.412  29.658  1.00  0.00     0.197 A 
ATOM     25  C   UNL     1     -11.796  40.083  29.750  1.00  0.00     0.138 A 
ATOM     26  C   UNL     1     -10.806  41.063  29.594  1.00  0.00     0.100 A 
ATOM     27  O   UNL     1     -10.262  43.270  29.439  1.00  0.00    -0.289 OA
BRANCH  18  28
ATOM     28  O   UNL     1     -14.778  45.701  30.312  1.00  0.00    -0.502 OA
ATOM     29  H   UNL     1     -14.633  46.252  31.149  1.00  0.00     0.293 HD
ENDBRANCH  18  28
BRANCH  20  30
ATOM     30  O   UNL     1     -12.088  45.215  30.134  1.00  0.00    -0.504 OA
ATOM     31  H   UNL     1     -12.385  46.179  30.170  1.00  0.00     0.293 HD
ENDBRANCH  20  30
BRANCH  25  32
ATOM     32  C   UNL     1     -11.482  38.633  29.690  1.00  0.00     0.017 A 
ATOM     33  C   UNL     1     -10.204  38.167  29.319  1.00  0.00     0.012 A 
ATOM     34  C   UNL     1     -12.471  37.695  30.041  1.00  0.00     0.012 A 
ATOM     35  C   UNL     1      -9.935  36.795  29.284  1.00  0.00     0.001 A 
ATOM     36  C   UNL     1     -12.194  36.325  30.001  1.00  0.00     0.001 A 
ATOM     37  C   UNL     1     -10.929  35.875  29.621  1.00  0.00     0.000 A 
ENDBRANCH  25  32
ENDBRANCH   1  17
TORSDOF 9
ENDMDL
MODEL 3
REMARK VINA RESULT:    -8.231      4.139      8.126
REMARK INTER + INTRA:         -11.537
REMARK INTER:                 -10.085
REMARK INTRA:                  -1.451
REMARK UNBOUND:                -0.178
REMARK SMILES O=C([O-])[C@@H]1O[C@@H](Oc2cc3oc(-c4ccccc4)cc(=O)c3c(O)c2O)[C@H](O)[C@@H](O)[C@H]1O
REMARK SMILES IDX 7 1 6 2 4 3 31 4 5 5 29 6 27 7 2 8 1 9 3 10 32 11 30 13
REMARK SMILES IDX 28 15 8 17 25 18 9 19 23 20 10 21 22 22 11 23 20 24 12 25
REMARK SMILES IDX 19 26 21 27 26 28 24 30 13 32 14 33 18 34 15 35 17 36 16 37
REMARK H PARENT 32 12 30 14 28 16 26 29 24 31
REMARK Flexibility Score: inf
ROOT
ATOM      1  O   UNL     1     -13.665  39.306  27.443  1.00  0.00    -0.458 OA
ENDROOT
BRANCH   1   2
ATOM      2  C   UNL     1     -13.935  39.703  26.092  1.00  0.00     0.339 C 
ATOM      3  C   UNL     1     -14.019  37.478  25.339  1.00  0.00     0.199 C 
ATOM      4  C   UNL     1     -12.757  37.624  24.455  1.00  0.00     0.180 C 
ATOM      5  O   UNL     1     -14.710  38.713  25.433  1.00  0.00    -0.328 OA
ATOM      6  C   UNL     1     -11.834  38.750  24.975  1.00  0.00     0.181 C 
ATOM      7  C   UNL     1     -12.644  40.025  25.299  1.00  0.00     0.214 C 
BRANCH   3   8
ATOM      8  C   UNL     1     -14.943  36.458  24.743  1.00  0.00     0.073 C 
ATOM      9  O   UNL     1     -16.003  36.132  25.340  1.00  0.00    -0.547 OA
ATOM     10  O   UNL     1     -14.653  35.899  23.504  1.00  0.00    -0.547 OA
ENDBRANCH   3   8
BRANCH   4  11
ATOM     11  O   UNL     1     -12.056  36.410  24.334  1.00  0.00    -0.387 OA
ATOM     12  H   UNL     1     -11.236  36.582  23.799  1.00  0.00     0.211 HD
ENDBRANCH   4  11
BRANCH   6  13
ATOM     13  O   UNL     1     -11.055  38.348  26.078  1.00  0.00    -0.387 OA
ATOM     14  H   UNL     1     -11.627  38.346  26.884  1.00  0.00     0.211 HD
ENDBRANCH   6  13
BRANCH   7  15
ATOM     15  O   UNL     1     -13.007  40.667  24.102  1.00  0.00    -0.384 OA
ATOM     16  H   UNL     1     -12.646  41.591  24.147  1.00  0.00     0.211 HD
ENDBRANCH   7  15
ENDBRANCH   1   2
BRANCH   1  17
ATOM     17  C   UNL     1     -14.497  39.452  28.569  1.00  0.00     0.172 A 
ATOM     18  C   UNL     1     -15.565  38.585  28.892  1.00  0.00     0.201 A 
ATOM     19  C   UNL     1     -14.210  40.520  29.417  1.00  0.00     0.098 A 
ATOM     20  C   UNL     1     -16.357  38.823  30.037  1.00  0.00     0.176 A 
ATOM     21  C   UNL     1     -15.001  40.795  30.530  1.00  0.00     0.146 A 
ATOM     22  C   UNL     1     -16.110  39.972  30.842  1.00  0.00     0.111 A 
ATOM     23  O   UNL     1     -14.700  41.849  31.280  1.00  0.00    -0.456 OA
ATOM     24  C   UNL     1     -16.923  40.382  31.927  1.00  0.00     0.197 A 
ATOM     25  C   UNL     1     -15.407  42.217  32.344  1.00  0.00     0.138 A 
ATOM     26  C   UNL     1     -16.556  41.493  32.688  1.00  0.00     0.100 A 
ATOM     27  O   UNL     1     -18.000  39.796  32.212  1.00  0.00    -0.289 OA
BRANCH  18  28
ATOM     28  O   UNL     1     -15.822  37.463  28.103  1.00  0.00    -0.502 OA
ATOM     29  H   UNL     1     -15.853  37.495  27.091  1.00  0.00     0.293 HD
ENDBRANCH  18  28
BRANCH  20  30
ATOM     30  O   UNL     1     -17.338  37.876  30.347  1.00  0.00    -0.504 OA
ATOM     31  H   UNL     1     -17.726  37.218  29.687  1.00  0.00     0.293 HD
ENDBRANCH  20  30
BRANCH  25  32
ATOM     32  C   UNL     1     -14.970  43.408  33.115  1.00  0.00     0.017 A 
ATOM     33  C   UNL     1     -15.895  44.250  33.766  1.00  0.00     0.012 A 
ATOM     34  C   UNL     1     -13.596  43.693  33.231  1.00  0.00     0.012 A 
ATOM     35  C   UNL     1     -15.452  45.358  34.496  1.00  0.00     0.001 A 
ATOM     36  C   UNL     1     -13.161  44.804  33.961  1.00  0.00     0.001 A 
ATOM     37  C   UNL     1     -14.087  45.636  34.591  1.00  0.00     0.000 A 
ENDBRANCH  25  32
ENDBRANCH   1  17
TORSDOF 9
ENDMDL
MODEL 4
REMARK VINA RESULT:    -8.141      3.838      8.491
REMARK INTER + INTRA:         -11.412
REMARK INTER:                 -10.059
REMARK INTRA:                  -1.354
REMARK UNBOUND:                -0.178
REMARK SMILES O=C([O-])[C@@H]1O[C@@H](Oc2cc3oc(-c4ccccc4)cc(=O)c3c(O)c2O)[C@H](O)[C@@H](O)[C@H]1O
REMARK SMILES IDX 7 1 6 2 4 3 31 4 5 5 29 6 27 7 2 8 1 9 3 10 32 11 30 13
REMARK SMILES IDX 28 15 8 17 25 18 9 19 23 20 10 21 22 22 11 23 20 24 12 25
REMARK SMILES IDX 19 26 21 27 26 28 24 30 13 32 14 33 18 34 15 35 17 36 16 37
REMARK H PARENT 32 12 30 14 28 16 26 29 24 31
REMARK Flexibility Score: inf
ROOT
ATOM      1  O   UNL     1     -13.300  41.233  26.699  1.00  0.00    -0.458 OA
ENDROOT
BRANCH   1   2
ATOM      2  C   UNL     1     -12.919  39.856  26.590  1.00  0.00     0.339 C 
ATOM      3  C   UNL     1     -11.069  40.363  25.232  1.00  0.00     0.199 C 
ATOM      4  C   UNL     1     -11.651  39.638  23.995  1.00  0.00     0.180 C 
ATOM      5  O   UNL     1     -11.513  39.745  26.429  1.00  0.00    -0.328 OA
ATOM      6  C   UNL     1     -13.194  39.572  24.057  1.00  0.00     0.181 C 
ATOM      7  C   UNL     1     -13.673  39.119  25.454  1.00  0.00     0.214 C 
BRANCH   3   8
ATOM      8  C   UNL     1      -9.570  40.309  25.195  1.00  0.00     0.073 C 
ATOM      9  O   UNL     1      -8.887  41.008  25.990  1.00  0.00    -0.547 OA
ATOM     10  O   UNL     1      -8.928  39.451  24.311  1.00  0.00    -0.547 OA
ENDBRANCH   3   8
BRANCH   4  11
ATOM     11  O   UNL     1     -11.218  40.222  22.790  1.00  0.00    -0.387 OA
ATOM     12  H   UNL     1     -10.666  39.553  22.306  1.00  0.00     0.211 HD
ENDBRANCH   4  11
BRANCH   6  13
ATOM     13  O   UNL     1     -13.805  40.783  23.677  1.00  0.00    -0.387 OA
ATOM     14  H   UNL     1     -13.862  40.811  22.690  1.00  0.00     0.211 HD
ENDBRANCH   6  13
BRANCH   7  15
ATOM     15  O   UNL     1     -13.456  37.738  25.601  1.00  0.00    -0.384 OA
ATOM     16  H   UNL     1     -12.676  37.630  26.206  1.00  0.00     0.211 HD
ENDBRANCH   7  15
ENDBRANCH   1   2
BRANCH   1  17
ATOM     17  C   UNL     1     -13.241  42.058  27.839  1.00  0.00     0.172 A 
ATOM     18  C   UNL     1     -12.127  42.852  28.195  1.00  0.00     0.201 A 
ATOM     19  C   UNL     1     -14.382  42.091  28.639  1.00  0.00     0.098 A 
ATOM     20  C   UNL     1     -12.156  43.636  29.369  1.00  0.00     0.176 A 
ATOM     21  C   UNL     1     -14.417  42.828  29.821  1.00  0.00     0.146 A 
ATOM     22  C   UNL     1     -13.292  43.587  30.226  1.00  0.00     0.111 A 
ATOM     23  O   UNL     1     -15.519  42.791  30.561  1.00  0.00    -0.456 OA
ATOM     24  C   UNL     1     -13.373  44.220  31.490  1.00  0.00     0.197 A 
ATOM     25  C   UNL     1     -15.646  43.431  31.720  1.00  0.00     0.138 A 
ATOM     26  C   UNL     1     -14.558  44.157  32.224  1.00  0.00     0.100 A 
ATOM     27  O   UNL     1     -12.389  44.815  32.002  1.00  0.00    -0.289 OA
BRANCH  18  28
ATOM     28  O   UNL     1     -11.005  42.898  27.367  1.00  0.00    -0.502 OA
ATOM     29  H   UNL     1     -10.166  42.358  27.544  1.00  0.00     0.293 HD
ENDBRANCH  18  28
BRANCH  20  30
ATOM     30  O   UNL     1     -11.057  44.466  29.613  1.00  0.00    -0.504 OA
ATOM     31  H   UNL     1     -10.889  45.343  29.144  1.00  0.00     0.293 HD
ENDBRANCH  20  30
BRANCH  25  32
ATOM     32  C   UNL     1     -16.930  43.327  32.457  1.00  0.00     0.017 A 
ATOM     33  C   UNL     1     -17.663  44.471  32.832  1.00  0.00     0.012 A 
ATOM     34  C   UNL     1     -17.452  42.056  32.764  1.00  0.00     0.012 A 
ATOM     35  C   UNL     1     -18.877  44.341  33.515  1.00  0.00     0.001 A 
ATOM     36  C   UNL     1     -18.666  41.934  33.449  1.00  0.00     0.001 A 
ATOM     37  C   UNL     1     -19.376  43.075  33.826  1.00  0.00     0.000 A 
ENDBRANCH  25  32
ENDBRANCH   1  17
TORSDOF 9
ENDMDL
MODEL 5
REMARK VINA RESULT:    -8.099      3.781      5.008
REMARK INTER + INTRA:         -11.354
REMARK INTER:                 -10.107
REMARK INTRA:                  -1.247
REMARK UNBOUND:                -0.178
REMARK SMILES O=C([O-])[C@@H]1O[C@@H](Oc2cc3oc(-c4ccccc4)cc(=O)c3c(O)c2O)[C@H](O)[C@@H](O)[C@H]1O
REMARK SMILES IDX 7 1 6 2 4 3 31 4 5 5 29 6 27 7 2 8 1 9 3 10 32 11 30 13
REMARK SMILES IDX 28 15 8 17 25 18 9 19 23 20 10 21 22 22 11 23 20 24 12 25
REMARK SMILES IDX 19 26 21 27 26 28 24 30 13 32 14 33 18 34 15 35 17 36 16 37
REMARK H PARENT 32 12 30 14 28 16 26 29 24 31
REMARK Flexibility Score: inf
ROOT
ATOM      1  O   UNL     1     -15.083  42.047  30.607  1.00  0.00    -0.458 OA
ENDROOT
BRANCH   1   2
ATOM      2  C   UNL     1     -15.280  43.423  30.257  1.00  0.00     0.339 C 
ATOM      3  C   UNL     1     -15.447  44.083  32.507  1.00  0.00     0.199 C 
ATOM      4  C   UNL     1     -16.932  44.501  32.380  1.00  0.00     0.180 C 
ATOM      5  O   UNL     1     -14.767  44.268  31.276  1.00  0.00    -0.328 OA
ATOM      6  C   UNL     1     -17.631  43.742  31.229  1.00  0.00     0.181 C 
ATOM      7  C   UNL     1     -16.763  43.751  29.951  1.00  0.00     0.214 C 
BRANCH   3   8
ATOM      8  C   UNL     1     -14.772  44.918  33.555  1.00  0.00     0.073 C 
ATOM      9  O   UNL     1     -15.398  45.271  34.590  1.00  0.00    -0.547 OA
ATOM     10  O   UNL     1     -13.435  45.268  33.410  1.00  0.00    -0.547 OA
ENDBRANCH   3   8
BRANCH   4  11
ATOM     11  O   UNL     1     -17.630  44.338  33.591  1.00  0.00    -0.387 OA
ATOM     12  H   UNL     1     -18.593  44.505  33.414  1.00  0.00     0.211 HD
ENDBRANCH   4  11
BRANCH   6  13
ATOM     13  O   UNL     1     -17.996  42.429  31.587  1.00  0.00    -0.387 OA
ATOM     14  H   UNL     1     -18.967  42.319  31.434  1.00  0.00     0.211 HD
ENDBRANCH   6  13
BRANCH   7  15
ATOM     15  O   UNL     1     -16.822  45.022  29.353  1.00  0.00    -0.384 OA
ATOM     16  H   UNL     1     -17.393  45.590  29.933  1.00  0.00     0.211 HD
ENDBRANCH   7  15
ENDBRANCH   1   2
BRANCH   1  17
ATOM     17  C   UNL     1     -15.113  40.927  29.754  1.00  0.00     0.172 A 
ATOM     18  C   UNL     1     -16.000  39.836  29.896  1.00  0.00     0.201 A 
ATOM     19  C   UNL     1     -14.210  40.933  28.692  1.00  0.00     0.098 A 
ATOM     20  C   UNL     1     -15.943  38.748  28.999  1.00  0.00     0.176 A 
ATOM     21  C   UNL     1     -14.112  39.853  27.818  1.00  0.00     0.146 A 
ATOM     22  C   UNL     1     -14.952  38.724  27.976  1.00  0.00     0.111 A 
ATOM     23  O   UNL     1     -13.206  39.901  26.847  1.00  0.00    -0.456 OA
ATOM     24  C   UNL     1     -14.716  37.628  27.112  1.00  0.00     0.197 A 
ATOM     25  C   UNL     1     -13.009  38.912  25.981  1.00  0.00     0.138 A 
ATOM     26  C   UNL     1     -13.757  37.733  26.103  1.00  0.00     0.100 A 
ATOM     27  O   UNL     1     -15.319  36.531  27.245  1.00  0.00    -0.289 OA
BRANCH  18  28
ATOM     28  O   UNL     1     -16.967  39.844  30.903  1.00  0.00    -0.502 OA
ATOM     29  H   UNL     1     -17.850  40.332  30.816  1.00  0.00     0.293 HD
ENDBRANCH  18  28
BRANCH  20  30
ATOM     30  O   UNL     1     -16.908  37.746  29.143  1.00  0.00    -0.504 OA
ATOM     31  H   UNL     1     -17.482  37.619  29.963  1.00  0.00     0.293 HD
ENDBRANCH  20  30
BRANCH  25  32
ATOM     32  C   UNL     1     -11.975  39.080  24.928  1.00  0.00     0.017 A 
ATOM     33  C   UNL     1     -11.943  40.218  24.097  1.00  0.00     0.012 A 
ATOM     34  C   UNL     1     -10.979  38.098  24.772  1.00  0.00     0.012 A 
ATOM     35  C   UNL     1     -10.948  40.355  23.122  1.00  0.00     0.001 A 
ATOM     36  C   UNL     1      -9.990  38.240  23.794  1.00  0.00     0.001 A 
ATOM     37  C   UNL     1      -9.975  39.365  22.969  1.00  0.00     0.000 A 
ENDBRANCH  25  32
ENDBRANCH   1  17
TORSDOF 9
ENDMDL
MODEL 6
REMARK VINA RESULT:    -8.073      3.397      5.691
REMARK INTER + INTRA:         -11.318
REMARK INTER:                 -10.180
REMARK INTRA:                  -1.138
REMARK UNBOUND:                -0.178
REMARK SMILES O=C([O-])[C@@H]1O[C@@H](Oc2cc3oc(-c4ccccc4)cc(=O)c3c(O)c2O)[C@H](O)[C@@H](O)[C@H]1O
REMARK SMILES IDX 7 1 6 2 4 3 31 4 5 5 29 6 27 7 2 8 1 9 3 10 32 11 30 13
REMARK SMILES IDX 28 15 8 17 25 18 9 19 23 20 10 21 22 22 11 23 20 24 12 25
REMARK SMILES IDX 19 26 21 27 26 28 24 30 13 32 14 33 18 34 15 35 17 36 16 37
REMARK H PARENT 32 12 30 14 28 16 26 29 24 31
REMARK Flexibility Score: inf
ROOT
ATOM      1  O   UNL     1     -14.377  43.583  30.897  1.00  0.00    -0.458 OA
ENDROOT
BRANCH   1   2
ATOM      2  C   UNL     1     -14.508  42.945  32.174  1.00  0.00     0.339 C 
ATOM      3  C   UNL     1     -16.386  41.710  31.485  1.00  0.00     0.199 C 
ATOM      4  C   UNL     1     -17.345  42.434  32.462  1.00  0.00     0.180 C 
ATOM      5  O   UNL     1     -15.074  41.653  32.023  1.00  0.00    -0.328 OA
ATOM      6  C   UNL     1     -16.820  43.842  32.824  1.00  0.00     0.181 C 
ATOM      7  C   UNL     1     -15.318  43.798  33.182  1.00  0.00     0.214 C 
BRANCH   3   8
ATOM      8  C   UNL     1     -16.866  40.309  31.245  1.00  0.00     0.073 C 
ATOM      9  O   UNL     1     -17.811  39.834  31.929  1.00  0.00    -0.547 OA
ATOM     10  O   UNL     1     -16.298  39.545  30.234  1.00  0.00    -0.547 OA
ENDBRANCH   3   8
BRANCH   4  11
ATOM     11  O   UNL     1     -18.658  42.497  31.959  1.00  0.00    -0.387 OA
ATOM     12  H   UNL     1     -19.229  42.926  32.649  1.00  0.00     0.211 HD
ENDBRANCH   4  11
BRANCH   6  13
ATOM     13  O   UNL     1     -17.076  44.793  31.816  1.00  0.00    -0.387 OA
ATOM     14  H   UNL     1     -17.509  44.336  31.054  1.00  0.00     0.211 HD
ENDBRANCH   6  13
BRANCH   7  15
ATOM     15  O   UNL     1     -15.157  43.242  34.463  1.00  0.00    -0.384 OA
ATOM     16  H   UNL     1     -15.357  43.961  35.118  1.00  0.00     0.211 HD
ENDBRANCH   7  15
ENDBRANCH   1   2
BRANCH   1  17
ATOM     17  C   UNL     1     -13.364  43.393  29.937  1.00  0.00     0.172 A 
ATOM     18  C   UNL     1     -12.244  44.240  29.778  1.00  0.00     0.201 A 
ATOM     19  C   UNL     1     -13.490  42.273  29.117  1.00  0.00     0.098 A 
ATOM     20  C   UNL     1     -11.287  43.976  28.773  1.00  0.00     0.176 A 
ATOM     21  C   UNL     1     -12.578  42.016  28.096  1.00  0.00     0.146 A 
ATOM     22  C   UNL     1     -11.478  42.882  27.882  1.00  0.00     0.111 A 
ATOM     23  O   UNL     1     -12.772  40.953  27.324  1.00  0.00    -0.456 OA
ATOM     24  C   UNL     1     -10.661  42.608  26.759  1.00  0.00     0.197 A 
ATOM     25  C   UNL     1     -11.980  40.635  26.303  1.00  0.00     0.138 A 
ATOM     26  C   UNL     1     -10.903  41.472  25.984  1.00  0.00     0.100 A 
ATOM     27  O   UNL     1      -9.734  43.382  26.405  1.00  0.00    -0.289 OA
BRANCH  18  28
ATOM     28  O   UNL     1     -12.053  45.321  30.638  1.00  0.00    -0.502 OA
ATOM     29  H   UNL     1     -12.690  46.108  30.686  1.00  0.00     0.293 HD
ENDBRANCH  18  28
BRANCH  20  30
ATOM     30  O   UNL     1     -10.158  44.800  28.730  1.00  0.00    -0.504 OA
ATOM     31  H   UNL     1      -9.949  45.519  29.408  1.00  0.00     0.293 HD
ENDBRANCH  20  30
BRANCH  25  32
ATOM     32  C   UNL     1     -12.287  39.415  25.514  1.00  0.00     0.017 A 
ATOM     33  C   UNL     1     -11.275  38.519  25.113  1.00  0.00     0.012 A 
ATOM     34  C   UNL     1     -13.623  39.122  25.182  1.00  0.00     0.012 A 
ATOM     35  C   UNL     1     -11.597  37.371  24.381  1.00  0.00     0.001 A 
ATOM     36  C   UNL     1     -13.936  37.974  24.448  1.00  0.00     0.001 A 
ATOM     37  C   UNL     1     -12.925  37.100  24.046  1.00  0.00     0.000 A 
ENDBRANCH  25  32
ENDBRANCH   1  17
TORSDOF 9
ENDMDL
MODEL 7
REMARK VINA RESULT:    -8.063      3.117      4.564
REMARK INTER + INTRA:         -11.304
REMARK INTER:                  -9.943
REMARK INTRA:                  -1.362
REMARK UNBOUND:                -0.178
REMARK SMILES O=C([O-])[C@@H]1O[C@@H](Oc2cc3oc(-c4ccccc4)cc(=O)c3c(O)c2O)[C@H](O)[C@@H](O)[C@H]1O
REMARK SMILES IDX 7 1 6 2 4 3 31 4 5 5 29 6 27 7 2 8 1 9 3 10 32 11 30 13
REMARK SMILES IDX 28 15 8 17 25 18 9 19 23 20 10 21 22 22 11 23 20 24 12 25
REMARK SMILES IDX 19 26 21 27 26 28 24 30 13 32 14 33 18 34 15 35 17 36 16 37
REMARK H PARENT 32 12 30 14 28 16 26 29 24 31
REMARK Flexibility Score: inf
ROOT
ATOM      1  O   UNL     1     -15.008  42.429  30.820  1.00  0.00    -0.458 OA
ENDROOT
BRANCH   1   2
ATOM      2  C   UNL     1     -15.385  43.794  30.600  1.00  0.00     0.339 C 
ATOM      3  C   UNL     1     -15.852  44.146  32.877  1.00  0.00     0.199 C 
ATOM      4  C   UNL     1     -17.367  44.356  32.637  1.00  0.00     0.180 C 
ATOM      5  O   UNL     1     -15.103  44.575  31.751  1.00  0.00    -0.328 OA
ATOM      6  C   UNL     1     -17.834  43.649  31.345  1.00  0.00     0.181 C 
ATOM      7  C   UNL     1     -16.868  43.938  30.174  1.00  0.00     0.214 C 
BRANCH   3   8
ATOM      8  C   UNL     1     -15.412  44.936  34.073  1.00  0.00     0.073 C 
ATOM      9  O   UNL     1     -16.200  45.750  34.624  1.00  0.00    -0.547 OA
ATOM     10  O   UNL     1     -14.144  44.740  34.607  1.00  0.00    -0.547 OA
ENDBRANCH   3   8
BRANCH   4  11
ATOM     11  O   UNL     1     -18.136  43.949  33.743  1.00  0.00    -0.387 OA
ATOM     12  H   UNL     1     -18.392  42.999  33.605  1.00  0.00     0.211 HD
ENDBRANCH   4  11
BRANCH   6  13
ATOM     13  O   UNL     1     -18.020  42.263  31.520  1.00  0.00    -0.387 OA
ATOM     14  H   UNL     1     -18.091  41.839  30.630  1.00  0.00     0.211 HD
ENDBRANCH   6  13
BRANCH   7  15
ATOM     15  O   UNL     1     -17.071  45.250  29.712  1.00  0.00    -0.384 OA
ATOM     16  H   UNL     1     -16.223  45.541  29.284  1.00  0.00     0.211 HD
ENDBRANCH   7  15
ENDBRANCH   1   2
BRANCH   1  17
ATOM     17  C   UNL     1     -13.716  41.870  30.762  1.00  0.00     0.172 A 
ATOM     18  C   UNL     1     -12.826  41.798  31.857  1.00  0.00     0.201 A 
ATOM     19  C   UNL     1     -13.327  41.338  29.534  1.00  0.00     0.098 A 
ATOM     20  C   UNL     1     -11.542  41.233  31.697  1.00  0.00     0.176 A 
ATOM     21  C   UNL     1     -12.051  40.811  29.345  1.00  0.00     0.146 A 
ATOM     22  C   UNL     1     -11.123  40.779  30.414  1.00  0.00     0.111 A 
ATOM     23  O   UNL     1     -11.724  40.353  28.142  1.00  0.00    -0.456 OA
ATOM     24  C   UNL     1      -9.817  40.324  30.110  1.00  0.00     0.197 A 
ATOM     25  C   UNL     1     -10.526  39.859  27.847  1.00  0.00     0.138 A 
ATOM     26  C   UNL     1      -9.528  39.846  28.831  1.00  0.00     0.100 A 
ATOM     27  O   UNL     1      -8.882  40.372  30.951  1.00  0.00    -0.289 OA
BRANCH  18  28
ATOM     28  O   UNL     1     -13.224  42.250  33.116  1.00  0.00    -0.502 OA
ATOM     29  H   UNL     1     -12.974  43.162  33.480  1.00  0.00     0.293 HD
ENDBRANCH  18  28
BRANCH  20  30
ATOM     30  O   UNL     1     -10.748  41.110  32.842  1.00  0.00    -0.504 OA
ATOM     31  H   UNL     1     -10.283  41.880  33.300  1.00  0.00     0.293 HD
ENDBRANCH  20  30
BRANCH  25  32
ATOM     32  C   UNL     1     -10.276  39.365  26.469  1.00  0.00     0.017 A 
ATOM     33  C   UNL     1      -9.190  39.832  25.700  1.00  0.00     0.012 A 
ATOM     34  C   UNL     1     -11.120  38.381  25.922  1.00  0.00     0.012 A 
ATOM     35  C   UNL     1      -8.973  39.338  24.410  1.00  0.00     0.001 A 
ATOM     36  C   UNL     1     -10.898  37.894  24.630  1.00  0.00     0.001 A 
ATOM     37  C   UNL     1      -9.827  38.372  23.874  1.00  0.00     0.000 A 
ENDBRANCH  25  32
ENDBRANCH   1  17
TORSDOF 9
ENDMDL
MODEL 8
REMARK VINA RESULT:    -7.996      3.236      6.019
REMARK INTER + INTRA:         -11.212
REMARK INTER:                 -10.195
REMARK INTRA:                  -1.018
REMARK UNBOUND:                -0.178
REMARK SMILES O=C([O-])[C@@H]1O[C@@H](Oc2cc3oc(-c4ccccc4)cc(=O)c3c(O)c2O)[C@H](O)[C@@H](O)[C@H]1O
REMARK SMILES IDX 7 1 6 2 4 3 31 4 5 5 29 6 27 7 2 8 1 9 3 10 32 11 30 13
REMARK SMILES IDX 28 15 8 17 25 18 9 19 23 20 10 21 22 22 11 23 20 24 12 25
REMARK SMILES IDX 19 26 21 27 26 28 24 30 13 32 14 33 18 34 15 35 17 36 16 37
REMARK H PARENT 32 12 30 14 28 16 26 29 24 31
REMARK Flexibility Score: inf
ROOT
ATOM      1  O   UNL     1     -14.137  43.016  31.562  1.00  0.00    -0.458 OA
ENDROOT
BRANCH   1   2
ATOM      2  C   UNL     1     -14.679  43.252  32.867  1.00  0.00     0.339 C 
ATOM      3  C   UNL     1     -16.588  41.952  32.429  1.00  0.00     0.199 C 
ATOM      4  C   UNL     1     -17.552  43.160  32.508  1.00  0.00     0.180 C 
ATOM      5  O   UNL     1     -15.469  42.148  33.280  1.00  0.00    -0.328 OA
ATOM      6  C   UNL     1     -16.822  44.484  32.185  1.00  0.00     0.181 C 
ATOM      7  C   UNL     1     -15.481  44.576  32.946  1.00  0.00     0.214 C 
BRANCH   3   8
ATOM      8  C   UNL     1     -17.301  40.703  32.857  1.00  0.00     0.073 C 
ATOM      9  O   UNL     1     -17.927  40.007  32.014  1.00  0.00    -0.547 OA
ATOM     10  O   UNL     1     -17.235  40.285  34.180  1.00  0.00    -0.547 OA
ENDBRANCH   3   8
BRANCH   4  11
ATOM     11  O   UNL     1     -18.678  42.989  31.682  1.00  0.00    -0.387 OA
ATOM     12  H   UNL     1     -18.875  42.017  31.629  1.00  0.00     0.211 HD
ENDBRANCH   4  11
BRANCH   6  13
ATOM     13  O   UNL     1     -16.637  44.679  30.802  1.00  0.00    -0.387 OA
ATOM     14  H   UNL     1     -17.245  44.072  30.314  1.00  0.00     0.211 HD
ENDBRANCH   6  13
BRANCH   7  15
ATOM     15  O   UNL     1     -15.728  44.865  34.300  1.00  0.00    -0.384 OA
ATOM     16  H   UNL     1     -15.184  45.663  34.530  1.00  0.00     0.211 HD
ENDBRANCH   7  15
ENDBRANCH   1   2
BRANCH   1  17
ATOM     17  C   UNL     1     -13.390  41.905  31.124  1.00  0.00     0.172 A 
ATOM     18  C   UNL     1     -12.090  41.588  31.577  1.00  0.00     0.201 A 
ATOM     19  C   UNL     1     -14.011  41.067  30.200  1.00  0.00     0.098 A 
ATOM     20  C   UNL     1     -11.413  40.459  31.067  1.00  0.00     0.176 A 
ATOM     21  C   UNL     1     -13.347  39.970  29.656  1.00  0.00     0.146 A 
ATOM     22  C   UNL     1     -12.022  39.665  30.053  1.00  0.00     0.111 A 
ATOM     23  O   UNL     1     -13.977  39.229  28.752  1.00  0.00    -0.456 OA
ATOM     24  C   UNL     1     -11.383  38.598  29.376  1.00  0.00     0.197 A 
ATOM     25  C   UNL     1     -13.423  38.182  28.148  1.00  0.00     0.138 A 
ATOM     26  C   UNL     1     -12.094  37.847  28.439  1.00  0.00     0.100 A 
ATOM     27  O   UNL     1     -10.169  38.323  29.561  1.00  0.00    -0.289 OA
BRANCH  18  28
ATOM     28  O   UNL     1     -11.479  42.366  32.562  1.00  0.00    -0.502 OA
ATOM     29  H   UNL     1     -11.918  42.576  33.450  1.00  0.00     0.293 HD
ENDBRANCH  18  28
BRANCH  20  30
ATOM     30  O   UNL     1     -10.167  40.152  31.624  1.00  0.00    -0.504 OA
ATOM     31  H   UNL     1      -9.881  40.404  32.558  1.00  0.00     0.293 HD
ENDBRANCH  20  30
BRANCH  25  32
ATOM     32  C   UNL     1     -14.227  37.419  27.160  1.00  0.00     0.017 A 
ATOM     33  C   UNL     1     -15.580  37.101  27.393  1.00  0.00     0.012 A 
ATOM     34  C   UNL     1     -13.639  37.029  25.942  1.00  0.00     0.012 A 
ATOM     35  C   UNL     1     -16.316  36.393  26.437  1.00  0.00     0.001 A 
ATOM     36  C   UNL     1     -14.380  36.319  24.992  1.00  0.00     0.001 A 
ATOM     37  C   UNL     1     -15.716  36.000  25.240  1.00  0.00     0.000 A 
ENDBRANCH  25  32
ENDBRANCH   1  17
TORSDOF 9
ENDMDL
MODEL 9
REMARK VINA RESULT:    -7.986      3.733      8.083
REMARK INTER + INTRA:         -11.198
REMARK INTER:                 -10.034
REMARK INTRA:                  -1.164
REMARK UNBOUND:                -0.178
REMARK SMILES O=C([O-])[C@@H]1O[C@@H](Oc2cc3oc(-c4ccccc4)cc(=O)c3c(O)c2O)[C@H](O)[C@@H](O)[C@H]1O
REMARK SMILES IDX 7 1 6 2 4 3 31 4 5 5 29 6 27 7 2 8 1 9 3 10 32 11 30 13
REMARK SMILES IDX 28 15 8 17 25 18 9 19 23 20 10 21 22 22 11 23 20 24 12 25
REMARK SMILES IDX 19 26 21 27 26 28 24 30 13 32 14 33 18 34 15 35 17 36 16 37
REMARK H PARENT 32 12 30 14 28 16 26 29 24 31
REMARK Flexibility Score: inf
ROOT
ATOM      1  O   UNL     1     -13.147  40.306  26.986  1.00  0.00    -0.458 OA
ENDROOT
BRANCH   1   2
ATOM      2  C   UNL     1     -13.595  40.375  25.626  1.00  0.00     0.339 C 
ATOM      3  C   UNL     1     -15.399  38.925  26.032  1.00  0.00     0.199 C 
ATOM      4  C   UNL     1     -14.838  37.808  25.120  1.00  0.00     0.180 C 
ATOM      5  O   UNL     1     -15.002  40.203  25.561  1.00  0.00    -0.328 OA
ATOM      6  C   UNL     1     -13.301  37.909  24.990  1.00  0.00     0.181 C 
ATOM      7  C   UNL     1     -12.863  39.364  24.708  1.00  0.00     0.214 C 
BRANCH   3   8
ATOM      8  C   UNL     1     -16.898  38.865  26.045  1.00  0.00     0.073 C 
ATOM      9  O   UNL     1     -17.492  37.831  26.452  1.00  0.00    -0.547 OA
ATOM     10  O   UNL     1     -17.640  39.971  25.649  1.00  0.00    -0.547 OA
ENDBRANCH   3   8
BRANCH   4  11
ATOM     11  O   UNL     1     -15.225  36.527  25.556  1.00  0.00    -0.387 OA
ATOM     12  H   UNL     1     -15.007  35.879  24.836  1.00  0.00     0.211 HD
ENDBRANCH   4  11
BRANCH   6  13
ATOM     13  O   UNL     1     -12.625  37.381  26.108  1.00  0.00    -0.387 OA
ATOM     14  H   UNL     1     -13.293  37.003  26.731  1.00  0.00     0.211 HD
ENDBRANCH   6  13
BRANCH   7  15
ATOM     15  O   UNL     1     -13.150  39.690  23.371  1.00  0.00    -0.384 OA
ATOM     16  H   UNL     1     -13.840  40.403  23.388  1.00  0.00     0.211 HD
ENDBRANCH   7  15
ENDBRANCH   1   2
BRANCH   1  17
ATOM     17  C   UNL     1     -13.142  41.335  27.947  1.00  0.00     0.172 A 
ATOM     18  C   UNL     1     -12.085  42.256  28.128  1.00  0.00     0.201 A 
ATOM     19  C   UNL     1     -14.280  41.442  28.744  1.00  0.00     0.098 A 
ATOM     20  C   UNL     1     -12.165  43.245  29.132  1.00  0.00     0.176 A 
ATOM     21  C   UNL     1     -14.363  42.386  29.765  1.00  0.00     0.146 A 
ATOM     22  C   UNL     1     -13.293  43.283  30.001  1.00  0.00     0.111 A 
ATOM     23  O   UNL     1     -15.458  42.416  30.516  1.00  0.00    -0.456 OA
ATOM     24  C   UNL     1     -13.414  44.139  31.122  1.00  0.00     0.197 A 
ATOM     25  C   UNL     1     -15.625  43.255  31.534  1.00  0.00     0.138 A 
ATOM     26  C   UNL     1     -14.590  44.136  31.874  1.00  0.00     0.100 A 
ATOM     27  O   UNL     1     -12.472  44.886  31.496  1.00  0.00    -0.289 OA
BRANCH  18  28
ATOM     28  O   UNL     1     -10.971  42.219  27.289  1.00  0.00    -0.502 OA
ATOM     29  H   UNL     1     -10.711  42.987  26.682  1.00  0.00     0.293 HD
ENDBRANCH  18  28
BRANCH  20  30
ATOM     30  O   UNL     1     -11.126  44.179  29.196  1.00  0.00    -0.504 OA
ATOM     31  H   UNL     1     -10.415  44.293  28.488  1.00  0.00     0.293 HD
ENDBRANCH  20  30
BRANCH  25  32
ATOM     32  C   UNL     1     -16.897  43.207  32.299  1.00  0.00     0.017 A 
ATOM     33  C   UNL     1     -17.491  44.373  32.823  1.00  0.00     0.012 A 
ATOM     34  C   UNL     1     -17.550  41.973  32.481  1.00  0.00     0.012 A 
ATOM     35  C   UNL     1     -18.697  44.297  33.528  1.00  0.00     0.001 A 
ATOM     36  C   UNL     1     -18.754  41.905  33.188  1.00  0.00     0.001 A 
ATOM     37  C   UNL     1     -19.326  43.065  33.713  1.00  0.00     0.000 A 
ENDBRANCH  25  32
ENDBRANCH   1  17
TORSDOF 9
ENDMDL
