MODEL 1
REMARK VINA RESULT:    -4.124      0.000      0.000
REMARK INTER + INTRA:          -4.715
REMARK INTER:                  -4.485
REMARK INTRA:                  -0.229
REMARK UNBOUND:                -0.229
REMARK SMILES O=C([O-])c1ccccc1O
REMARK SMILES IDX 4 1 9 2 5 3 8 4 6 5 7 6 2 7 1 8 3 9 10 10
REMARK H PARENT 10 11
REMARK Flexibility Score: inf
ROOT
ATOM      1  C   UNL     1      29.479   9.269  48.946  1.00  0.00     0.039 A 
ATOM      2  C   UNL     1      29.943   8.783  47.700  1.00  0.00     0.124 A 
ATOM      3  C   UNL     1      28.109   9.155  49.251  1.00  0.00     0.014 A 
ATOM      4  C   UNL     1      29.040   8.201  46.795  1.00  0.00     0.047 A 
ATOM      5  C   UNL     1      27.221   8.573  48.341  1.00  0.00     0.001 A 
ATOM      6  C   UNL     1      27.686   8.098  47.115  1.00  0.00     0.004 A 
ENDROOT
BRANCH   1   7
ATOM      7  C   UNL     1      30.392   9.893  49.936  1.00  0.00     0.075 C 
ATOM      8  O   UNL     1      31.341   9.240  50.445  1.00  0.00    -0.545 OA
ATOM      9  O   UNL     1      30.213  11.217  50.319  1.00  0.00    -0.545 OA
ENDBRANCH   1   7
BRANCH   2  10
ATOM     10  O   UNL     1      31.292   8.875  47.355  1.00  0.00    -0.507 OA
ATOM     11  H   UNL     1      31.810   9.740  47.455  1.00  0.00     0.293 HD
ENDBRANCH   2  10
TORSDOF 2
ENDMDL
MODEL 2
REMARK VINA RESULT:    -4.066      5.617      6.375
REMARK INTER + INTRA:          -4.652
REMARK INTER:                  -4.409
REMARK INTRA:                  -0.243
REMARK UNBOUND:                -0.229
REMARK SMILES O=C([O-])c1ccccc1O
REMARK SMILES IDX 4 1 9 2 5 3 8 4 6 5 7 6 2 7 1 8 3 9 10 10
REMARK H PARENT 10 11
REMARK Flexibility Score: inf
ROOT
ATOM      1  C   UNL     1      30.375   5.029  53.167  1.00  0.00     0.039 A 
ATOM      2  C   UNL     1      29.774   5.311  51.916  1.00  0.00     0.124 A 
ATOM      3  C   UNL     1      29.884   5.676  54.317  1.00  0.00     0.014 A 
ATOM      4  C   UNL     1      28.710   6.224  51.842  1.00  0.00     0.047 A 
ATOM      5  C   UNL     1      28.824   6.582  54.228  1.00  0.00     0.001 A 
ATOM      6  C   UNL     1      28.238   6.856  52.992  1.00  0.00     0.004 A 
ENDROOT
BRANCH   1   7
ATOM      7  C   UNL     1      31.503   4.072  53.299  1.00  0.00     0.075 C 
ATOM      8  O   UNL     1      32.565   4.226  52.641  1.00  0.00    -0.545 OA
ATOM      9  O   UNL     1      31.402   2.984  54.158  1.00  0.00    -0.545 OA
ENDBRANCH   1   7
BRANCH   2  10
ATOM     10  O   UNL     1      30.227   4.693  50.751  1.00  0.00    -0.507 OA
ATOM     11  H   UNL     1      30.947   5.110  50.172  1.00  0.00     0.293 HD
ENDBRANCH   2  10
TORSDOF 2
ENDMDL
MODEL 3
REMARK VINA RESULT:    -3.992     15.901     16.941
REMARK INTER + INTRA:          -4.571
REMARK INTER:                  -4.340
REMARK INTRA:                  -0.232
REMARK UNBOUND:                -0.229
REMARK SMILES O=C([O-])c1ccccc1O
REMARK SMILES IDX 4 1 9 2 5 3 8 4 6 5 7 6 2 7 1 8 3 9 10 10
REMARK H PARENT 10 11
REMARK Flexibility Score: inf
ROOT
ATOM      1  C   UNL     1      42.851   0.460  52.865  1.00  0.00     0.039 A 
ATOM      2  C   UNL     1      43.217  -0.061  51.600  1.00  0.00     0.124 A 
ATOM      3  C   UNL     1      43.849   0.636  53.842  1.00  0.00     0.014 A 
ATOM      4  C   UNL     1      44.557  -0.393  51.342  1.00  0.00     0.047 A 
ATOM      5  C   UNL     1      45.179   0.301  53.571  1.00  0.00     0.001 A 
ATOM      6  C   UNL     1      45.532  -0.212  52.323  1.00  0.00     0.004 A 
ENDROOT
BRANCH   1   7
ATOM      7  C   UNL     1      41.449   0.826  53.188  1.00  0.00     0.075 C 
ATOM      8  O   UNL     1      40.530  -0.035  53.165  1.00  0.00    -0.545 OA
ATOM      9  O   UNL     1      41.125   2.136  53.523  1.00  0.00    -0.545 OA
ENDBRANCH   1   7
BRANCH   2  10
ATOM     10  O   UNL     1      42.261  -0.251  50.602  1.00  0.00    -0.507 OA
ATOM     11  H   UNL     1      42.460  -0.796  49.771  1.00  0.00     0.293 HD
ENDBRANCH   2  10
TORSDOF 2
ENDMDL
MODEL 4
REMARK VINA RESULT:    -3.842      5.391      6.196
REMARK INTER + INTRA:          -4.408
REMARK INTER:                  -4.168
REMARK INTRA:                  -0.240
REMARK UNBOUND:                -0.229
REMARK SMILES O=C([O-])c1ccccc1O
REMARK SMILES IDX 4 1 9 2 5 3 8 4 6 5 7 6 2 7 1 8 3 9 10 10
REMARK H PARENT 10 11
REMARK Flexibility Score: inf
ROOT
ATOM      1  C   UNL     1      29.393   5.994  52.750  1.00  0.00     0.039 A 
ATOM      2  C   UNL     1      30.254   4.992  52.242  1.00  0.00     0.124 A 
ATOM      3  C   UNL     1      29.368   6.228  54.139  1.00  0.00     0.014 A 
ATOM      4  C   UNL     1      31.061   4.252  53.121  1.00  0.00     0.047 A 
ATOM      5  C   UNL     1      30.178   5.483  55.002  1.00  0.00     0.001 A 
ATOM      6  C   UNL     1      31.023   4.497  54.493  1.00  0.00     0.004 A 
ENDROOT
BRANCH   1   7
ATOM      7  C   UNL     1      28.520   6.804  51.864  1.00  0.00     0.075 C 
ATOM      8  O   UNL     1      27.379   7.181  52.243  1.00  0.00    -0.545 OA
ATOM      9  O   UNL     1      28.951   7.161  50.591  1.00  0.00    -0.545 OA
ENDBRANCH   1   7
BRANCH   2  10
ATOM     10  O   UNL     1      30.311   4.727  50.874  1.00  0.00    -0.507 OA
ATOM     11  H   UNL     1      31.132   4.314  50.445  1.00  0.00     0.293 HD
ENDBRANCH   2  10
TORSDOF 2
ENDMDL
MODEL 5
REMARK VINA RESULT:    -3.832     14.397     15.505
REMARK INTER + INTRA:          -4.398
REMARK INTER:                  -4.149
REMARK INTRA:                  -0.249
REMARK UNBOUND:                -0.229
REMARK SMILES O=C([O-])c1ccccc1O
REMARK SMILES IDX 4 1 9 2 5 3 8 4 6 5 7 6 2 7 1 8 3 9 10 10
REMARK H PARENT 10 11
REMARK Flexibility Score: inf
ROOT
ATOM      1  C   UNL     1      42.525  14.400  53.887  1.00  0.00     0.039 A 
ATOM      2  C   UNL     1      43.289  15.507  53.446  1.00  0.00     0.124 A 
ATOM      3  C   UNL     1      41.407  14.631  54.711  1.00  0.00     0.014 A 
ATOM      4  C   UNL     1      42.925  16.807  53.834  1.00  0.00     0.047 A 
ATOM      5  C   UNL     1      41.056  15.931  55.089  1.00  0.00     0.001 A 
ATOM      6  C   UNL     1      41.815  17.016  54.651  1.00  0.00     0.004 A 
ENDROOT
BRANCH   1   7
ATOM      7  C   UNL     1      42.868  13.007  53.505  1.00  0.00     0.075 C 
ATOM      8  O   UNL     1      44.059  12.597  53.541  1.00  0.00    -0.545 OA
ATOM      9  O   UNL     1      41.872  12.125  53.100  1.00  0.00    -0.545 OA
ENDBRANCH   1   7
BRANCH   2  10
ATOM     10  O   UNL     1      44.404  15.325  52.628  1.00  0.00    -0.507 OA
ATOM     11  H   UNL     1      44.887  14.436  52.575  1.00  0.00     0.293 HD
ENDBRANCH   2  10
TORSDOF 2
ENDMDL
MODEL 6
REMARK VINA RESULT:    -3.829     16.157     17.207
REMARK INTER + INTRA:          -4.394
REMARK INTER:                  -4.165
REMARK INTRA:                  -0.229
REMARK UNBOUND:                -0.229
REMARK SMILES O=C([O-])c1ccccc1O
REMARK SMILES IDX 4 1 9 2 5 3 8 4 6 5 7 6 2 7 1 8 3 9 10 10
REMARK H PARENT 10 11
REMARK Flexibility Score: inf
ROOT
ATOM      1  C   UNL     1      43.712   0.247  52.614  1.00  0.00     0.039 A 
ATOM      2  C   UNL     1      42.415   0.093  52.068  1.00  0.00     0.124 A 
ATOM      3  C   UNL     1      43.840   0.601  53.971  1.00  0.00     0.014 A 
ATOM      4  C   UNL     1      41.286   0.294  52.879  1.00  0.00     0.047 A 
ATOM      5  C   UNL     1      42.707   0.798  54.767  1.00  0.00     0.001 A 
ATOM      6  C   UNL     1      41.433   0.645  54.221  1.00  0.00     0.004 A 
ENDROOT
BRANCH   1   7
ATOM      7  C   UNL     1      44.937   0.046  51.800  1.00  0.00     0.075 C 
ATOM      8  O   UNL     1      44.948   0.308  50.568  1.00  0.00    -0.545 OA
ATOM      9  O   UNL     1      46.100  -0.437  52.389  1.00  0.00    -0.545 OA
ENDBRANCH   1   7
BRANCH   2  10
ATOM     10  O   UNL     1      42.241  -0.257  50.729  1.00  0.00    -0.507 OA
ATOM     11  H   UNL     1      43.018  -0.279  50.079  1.00  0.00     0.293 HD
ENDBRANCH   2  10
TORSDOF 2
ENDMDL
MODEL 7
REMARK VINA RESULT:    -3.780      2.714      3.759
REMARK INTER + INTRA:          -4.340
REMARK INTER:                  -4.099
REMARK INTRA:                  -0.241
REMARK UNBOUND:                -0.229
REMARK SMILES O=C([O-])c1ccccc1O
REMARK SMILES IDX 4 1 9 2 5 3 8 4 6 5 7 6 2 7 1 8 3 9 10 10
REMARK H PARENT 10 11
REMARK Flexibility Score: inf
ROOT
ATOM      1  C   UNL     1      28.379   8.552  50.411  1.00  0.00     0.039 A 
ATOM      2  C   UNL     1      28.638   7.300  51.019  1.00  0.00     0.124 A 
ATOM      3  C   UNL     1      27.491   9.443  51.045  1.00  0.00     0.014 A 
ATOM      4  C   UNL     1      28.012   6.968  52.231  1.00  0.00     0.047 A 
ATOM      5  C   UNL     1      26.875   9.099  52.252  1.00  0.00     0.001 A 
ATOM      6  C   UNL     1      27.135   7.863  52.843  1.00  0.00     0.004 A 
ENDROOT
BRANCH   1   7
ATOM      7  C   UNL     1      29.014   8.952  49.131  1.00  0.00     0.075 C 
ATOM      8  O   UNL     1      28.879   8.252  48.092  1.00  0.00    -0.545 OA
ATOM      9  O   UNL     1      29.775  10.113  49.057  1.00  0.00    -0.545 OA
ENDBRANCH   1   7
BRANCH   2  10
ATOM     10  O   UNL     1      29.510   6.386  50.426  1.00  0.00    -0.507 OA
ATOM     11  H   UNL     1      29.981   6.589  49.553  1.00  0.00     0.293 HD
ENDBRANCH   2  10
TORSDOF 2
ENDMDL
MODEL 8
REMARK VINA RESULT:    -3.763      1.984      3.588
REMARK INTER + INTRA:          -4.322
REMARK INTER:                  -4.090
REMARK INTRA:                  -0.232
REMARK UNBOUND:                -0.229
REMARK SMILES O=C([O-])c1ccccc1O
REMARK SMILES IDX 4 1 9 2 5 3 8 4 6 5 7 6 2 7 1 8 3 9 10 10
REMARK H PARENT 10 11
REMARK Flexibility Score: inf
ROOT
ATOM      1  C   UNL     1      28.899   8.866  49.502  1.00  0.00     0.039 A 
ATOM      2  C   UNL     1      28.567  10.128  50.052  1.00  0.00     0.124 A 
ATOM      3  C   UNL     1      28.749   7.716  50.301  1.00  0.00     0.014 A 
ATOM      4  C   UNL     1      28.099  10.213  51.373  1.00  0.00     0.047 A 
ATOM      5  C   UNL     1      28.281   7.816  51.614  1.00  0.00     0.001 A 
ATOM      6  C   UNL     1      27.957   9.063  52.149  1.00  0.00     0.004 A 
ENDROOT
BRANCH   1   7
ATOM      7  C   UNL     1      29.399   8.722  48.111  1.00  0.00     0.075 C 
ATOM      8  O   UNL     1      28.782   8.018  47.269  1.00  0.00    -0.545 OA
ATOM      9  O   UNL     1      30.565   9.366  47.715  1.00  0.00    -0.545 OA
ENDBRANCH   1   7
BRANCH   2  10
ATOM     10  O   UNL     1      28.701  11.293  49.297  1.00  0.00    -0.507 OA
ATOM     11  H   UNL     1      28.144  11.457  48.466  1.00  0.00     0.293 HD
ENDBRANCH   2  10
TORSDOF 2
ENDMDL
MODEL 9
REMARK VINA RESULT:    -3.752      3.201      4.004
REMARK INTER + INTRA:          -4.311
REMARK INTER:                  -4.061
REMARK INTRA:                  -0.250
REMARK UNBOUND:                -0.229
REMARK SMILES O=C([O-])c1ccccc1O
REMARK SMILES IDX 4 1 9 2 5 3 8 4 6 5 7 6 2 7 1 8 3 9 10 10
REMARK H PARENT 10 11
REMARK Flexibility Score: inf
ROOT
ATOM      1  C   UNL     1      27.748   8.560  50.984  1.00  0.00     0.039 A 
ATOM      2  C   UNL     1      28.615   7.551  50.499  1.00  0.00     0.124 A 
ATOM      3  C   UNL     1      27.265   8.464  52.303  1.00  0.00     0.014 A 
ATOM      4  C   UNL     1      28.975   6.479  51.332  1.00  0.00     0.047 A 
ATOM      5  C   UNL     1      27.632   7.391  53.121  1.00  0.00     0.001 A 
ATOM      6  C   UNL     1      28.485   6.401  52.636  1.00  0.00     0.004 A 
ENDROOT
BRANCH   1   7
ATOM      7  C   UNL     1      27.338   9.712  50.143  1.00  0.00     0.075 C 
ATOM      8  O   UNL     1      26.876   9.540  48.984  1.00  0.00    -0.545 OA
ATOM      9  O   UNL     1      27.457  11.011  50.627  1.00  0.00    -0.545 OA
ENDBRANCH   1   7
BRANCH   2  10
ATOM     10  O   UNL     1      29.119   7.605  49.200  1.00  0.00    -0.507 OA
ATOM     11  H   UNL     1      29.892   7.021  48.903  1.00  0.00     0.293 HD
ENDBRANCH   2  10
TORSDOF 2
ENDMDL
