MODEL 1
REMARK VINA RESULT:    -4.221      0.000      0.000
REMARK INTER + INTRA:          -6.322
REMARK INTER:                  -6.442
REMARK INTRA:                   0.120
REMARK UNBOUND:                 0.120
REMARK SMILES CC1=CCC[C@@H](C)C(=O)C[C@@H](C(C)C)C(=O)C1
REMARK SMILES IDX 8 1 9 2 6 3 7 4 5 5 4 6 3 7 2 8 1 9 10 11 11 12 15 13 16 14
REMARK SMILES IDX 17 15 12 17 13 18 14 19
REMARK H PARENT
REMARK Flexibility Score: 70.00
ROOT
ATOM      1  C   UNL     1     -15.240  14.401 -31.518  1.00  0.00     0.136 C 
ATOM      2  O   UNL     1     -15.401  14.602 -32.714  1.00  0.00    -0.299 OA
ENDROOT
BRANCH   1   3
ATOM      3  C   UNL     1     -14.109  15.107 -30.796  1.00  0.00     0.053 C 
ATOM      4  C   UNL     1     -14.311  16.626 -30.826  1.00  0.00     0.016 C 
BRANCH   3   5
ATOM      5  C   UNL     1     -12.753  14.701 -31.436  1.00  0.00     0.015 C 
BRANCH   5   6
ATOM      6  C   UNL     1     -11.743  14.055 -30.468  1.00  0.00     0.028 C 
BRANCH   6   7
ATOM      7  C   UNL     1     -12.099  14.114 -28.996  1.00  0.00    -0.028 C 
ATOM      8  C   UNL     1     -12.668  13.128 -28.262  1.00  0.00    -0.070 CG0
ATOM      9  C   UNL     1     -12.864  13.366 -26.785  1.00  0.00     0.039 C 
ATOM     10  G   UNL     1     -13.173  11.827 -28.855  1.00  0.00     0.000 G0
ENDBRANCH   6   7
ENDBRANCH   5   6
ENDBRANCH   3   5
ENDBRANCH   1   3
BRANCH   1  11
ATOM     11  C   UNL     1     -16.179  13.448 -30.807  1.00  0.00     0.087 C 
BRANCH  11  12
ATOM     12  C   UNL     1     -15.583  12.823 -29.514  1.00  0.00     0.066 C 
BRANCH  12  13
ATOM     13  C   UNL     1     -14.353  11.960 -29.799  1.00  0.00     0.140 C 
ATOM     14  O   UNL     1     -14.306  11.330 -30.845  1.00  0.00    -0.299 OA
BRANCH  13  15
ATOM     15  C   UNL     1     -13.183  11.818 -28.838  1.00  0.00     0.106 CG0
ATOM     16  G   UNL     1     -12.672  13.130 -28.275  1.00  0.00     0.000 G0
ENDBRANCH  13  15
ENDBRANCH  12  13
BRANCH  12  17
ATOM     17  C   UNL     1     -16.623  12.037 -28.655  1.00  0.00    -0.006 C 
ATOM     18  C   UNL     1     -18.078  12.171 -29.136  1.00  0.00     0.008 C 
ATOM     19  C   UNL     1     -16.529  12.407 -27.166  1.00  0.00     0.008 C 
ENDBRANCH  12  17
ENDBRANCH  11  12
ENDBRANCH   1  11
TORSDOF 1
ENDMDL
MODEL 2
REMARK VINA RESULT:    -4.037      1.807      3.490
REMARK INTER + INTRA:          -6.041
REMARK INTER:                  -5.781
REMARK INTRA:                  -0.260
REMARK UNBOUND:                 0.120
REMARK SMILES CC1=CCC[C@@H](C)C(=O)C[C@@H](C(C)C)C(=O)C1
REMARK SMILES IDX 8 1 9 2 6 3 7 4 5 5 4 6 3 7 2 8 1 9 10 11 11 12 15 13 16 14
REMARK SMILES IDX 17 15 12 17 13 18 14 19
REMARK H PARENT
REMARK Flexibility Score: 70.00
ROOT
ATOM      1  C   UNL     1     -15.356  12.647 -31.397  1.00  0.00     0.136 C 
ATOM      2  O   UNL     1     -15.164  12.494 -32.595  1.00  0.00    -0.299 OA
ENDROOT
BRANCH   1   3
ATOM      3  C   UNL     1     -16.214  13.805 -30.929  1.00  0.00     0.053 C 
ATOM      4  C   UNL     1     -17.679  13.591 -31.326  1.00  0.00     0.016 C 
BRANCH   3   5
ATOM      5  C   UNL     1     -15.655  15.132 -31.512  1.00  0.00     0.015 C 
BRANCH   5   6
ATOM      6  C   UNL     1     -14.263  15.537 -30.991  1.00  0.00     0.028 C 
BRANCH   6   7
ATOM      7  C   UNL     1     -13.120  15.418 -31.980  1.00  0.00    -0.028 C 
ATOM      8  C   UNL     1     -12.008  14.658 -31.840  1.00  0.00    -0.070 CG0
ATOM      9  C   UNL     1     -11.027  14.620 -32.986  1.00  0.00     0.039 C 
ATOM     10  G   UNL     1     -11.666  13.896 -30.575  1.00  0.00     0.000 G0
ENDBRANCH   6   7
ENDBRANCH   5   6
ENDBRANCH   3   5
ENDBRANCH   1   3
BRANCH   1  11
ATOM     11  C   UNL     1     -14.723  11.670 -30.427  1.00  0.00     0.087 C 
BRANCH  11  12
ATOM     12  C   UNL     1     -13.550  12.271 -29.602  1.00  0.00     0.066 C 
BRANCH  12  13
ATOM     13  C   UNL     1     -12.311  12.530 -30.460  1.00  0.00     0.140 C 
ATOM     14  O   UNL     1     -11.814  11.598 -31.074  1.00  0.00    -0.299 OA
BRANCH  13  15
ATOM     15  C   UNL     1     -11.638  13.889 -30.577  1.00  0.00     0.106 CG0
ATOM     16  G   UNL     1     -12.001  14.663 -31.829  1.00  0.00     0.000 G0
ENDBRANCH  13  15
ENDBRANCH  12  13
BRANCH  12  17
ATOM     17  C   UNL     1     -13.180  11.441 -28.333  1.00  0.00    -0.006 C 
ATOM     18  C   UNL     1     -14.290  11.375 -27.269  1.00  0.00     0.008 C 
ATOM     19  C   UNL     1     -11.871  11.929 -27.693  1.00  0.00     0.008 C 
ENDBRANCH  12  17
ENDBRANCH  11  12
ENDBRANCH   1  11
TORSDOF 1
ENDMDL
MODEL 3
REMARK VINA RESULT:    -4.019      1.994      4.470
REMARK INTER + INTRA:          -6.014
REMARK INTER:                  -5.710
REMARK INTRA:                  -0.304
REMARK UNBOUND:                 0.120
REMARK SMILES CC1=CCC[C@@H](C)C(=O)C[C@@H](C(C)C)C(=O)C1
REMARK SMILES IDX 8 1 9 2 6 3 7 4 5 5 4 6 3 7 2 8 1 9 10 11 11 12 15 13 16 14
REMARK SMILES IDX 17 15 12 17 13 18 14 19
REMARK H PARENT
REMARK Flexibility Score: 70.00
ROOT
ATOM      1  C   UNL     1     -15.410  12.291 -28.627  1.00  0.00     0.136 C 
ATOM      2  O   UNL     1     -15.681  11.674 -27.607  1.00  0.00    -0.299 OA
ENDROOT
BRANCH   1   3
ATOM      3  C   UNL     1     -16.485  13.128 -29.292  1.00  0.00     0.053 C 
ATOM      4  C   UNL     1     -17.783  13.092 -28.476  1.00  0.00     0.016 C 
BRANCH   3   5
ATOM      5  C   UNL     1     -16.712  12.623 -30.743  1.00  0.00     0.015 C 
BRANCH   5   6
ATOM      6  C   UNL     1     -16.531  13.689 -31.840  1.00  0.00     0.028 C 
BRANCH   6   7
ATOM      7  C   UNL     1     -15.942  15.012 -31.393  1.00  0.00    -0.028 C 
ATOM      8  C   UNL     1     -14.626  15.307 -31.260  1.00  0.00    -0.070 CG0
ATOM      9  C   UNL     1     -14.250  16.717 -30.878  1.00  0.00     0.039 C 
ATOM     10  G   UNL     1     -13.518  14.282 -31.412  1.00  0.00     0.000 G0
ENDBRANCH   6   7
ENDBRANCH   5   6
ENDBRANCH   3   5
ENDBRANCH   1   3
BRANCH   1  11
ATOM     11  C   UNL     1     -14.007  12.189 -29.189  1.00  0.00     0.087 C 
BRANCH  11  12
ATOM     12  C   UNL     1     -13.117  13.430 -28.894  1.00  0.00     0.066 C 
BRANCH  12  13
ATOM     13  C   UNL     1     -12.639  14.119 -30.173  1.00  0.00     0.140 C 
ATOM     14  O   UNL     1     -11.510  14.584 -30.205  1.00  0.00    -0.299 OA
BRANCH  13  15
ATOM     15  C   UNL     1     -13.504  14.284 -31.414  1.00  0.00     0.106 CG0
ATOM     16  G   UNL     1     -14.623  15.297 -31.268  1.00  0.00     0.000 G0
ENDBRANCH  13  15
ENDBRANCH  12  13
BRANCH  12  17
ATOM     17  C   UNL     1     -11.915  13.134 -27.943  1.00  0.00    -0.006 C 
ATOM     18  C   UNL     1     -11.250  11.764 -28.164  1.00  0.00     0.008 C 
ATOM     19  C   UNL     1     -12.304  13.293 -26.465  1.00  0.00     0.008 C 
ENDBRANCH  12  17
ENDBRANCH  11  12
ENDBRANCH   1  11
TORSDOF 1
ENDMDL
MODEL 4
REMARK VINA RESULT:    -3.831      1.769      3.676
REMARK INTER + INTRA:          -5.726
REMARK INTER:                  -5.526
REMARK INTRA:                  -0.200
REMARK UNBOUND:                 0.120
REMARK SMILES CC1=CCC[C@@H](C)C(=O)C[C@@H](C(C)C)C(=O)C1
REMARK SMILES IDX 8 1 9 2 6 3 7 4 5 5 4 6 3 7 2 8 1 9 10 11 11 12 15 13 16 14
REMARK SMILES IDX 17 15 12 17 13 18 14 19
REMARK H PARENT
REMARK Flexibility Score: 70.00
ROOT
ATOM      1  C   UNL     1     -17.205  11.681 -29.798  1.00  0.00     0.136 C 
ATOM      2  O   UNL     1     -18.089  10.893 -30.101  1.00  0.00    -0.299 OA
ENDROOT
BRANCH   1   3
ATOM      3  C   UNL     1     -17.557  13.138 -29.574  1.00  0.00     0.053 C 
ATOM      4  C   UNL     1     -19.052  13.295 -29.273  1.00  0.00     0.016 C 
BRANCH   3   5
ATOM      5  C   UNL     1     -17.138  13.969 -30.818  1.00  0.00     0.015 C 
BRANCH   5   6
ATOM      6  C   UNL     1     -16.084  15.060 -30.547  1.00  0.00     0.028 C 
BRANCH   6   7
ATOM      7  C   UNL     1     -14.859  15.040 -31.440  1.00  0.00    -0.028 C 
ATOM      8  C   UNL     1     -13.642  14.532 -31.130  1.00  0.00    -0.070 CG0
ATOM      9  C   UNL     1     -12.577  14.541 -32.199  1.00  0.00     0.039 C 
ATOM     10  G   UNL     1     -13.275  14.015 -29.753  1.00  0.00     0.000 G0
ENDBRANCH   6   7
ENDBRANCH   5   6
ENDBRANCH   3   5
ENDBRANCH   1   3
BRANCH   1  11
ATOM     11  C   UNL     1     -15.786  11.166 -29.662  1.00  0.00     0.087 C 
BRANCH  11  12
ATOM     12  C   UNL     1     -14.869  12.067 -28.786  1.00  0.00     0.066 C 
BRANCH  12  13
ATOM     13  C   UNL     1     -13.624  12.534 -29.541  1.00  0.00     0.140 C 
ATOM     14  O   UNL     1     -12.852  11.694 -29.981  1.00  0.00    -0.299 OA
BRANCH  13  15
ATOM     15  C   UNL     1     -13.271  13.997 -29.759  1.00  0.00     0.106 CG0
ATOM     16  G   UNL     1     -13.639  14.534 -31.129  1.00  0.00     0.000 G0
ENDBRANCH  13  15
ENDBRANCH  12  13
BRANCH  12  17
ATOM     17  C   UNL     1     -14.479  11.428 -27.417  1.00  0.00    -0.006 C 
ATOM     18  C   UNL     1     -15.659  11.216 -26.453  1.00  0.00     0.008 C 
ATOM     19  C   UNL     1     -13.366  12.222 -26.714  1.00  0.00     0.008 C 
ENDBRANCH  12  17
ENDBRANCH  11  12
ENDBRANCH   1  11
TORSDOF 1
ENDMDL
MODEL 5
REMARK VINA RESULT:    -3.570      2.090      4.610
REMARK INTER + INTRA:          -5.328
REMARK INTER:                  -5.931
REMARK INTRA:                   0.603
REMARK UNBOUND:                 0.120
REMARK SMILES CC1=CCC[C@@H](C)C(=O)C[C@@H](C(C)C)C(=O)C1
REMARK SMILES IDX 8 1 9 2 6 3 7 4 5 5 4 6 3 7 2 8 1 9 10 11 11 12 15 13 16 14
REMARK SMILES IDX 17 15 12 17 13 18 14 19
REMARK H PARENT
REMARK Flexibility Score: 70.00
ROOT
ATOM      1  C   UNL     1     -17.128  12.368 -28.194  1.00  0.00     0.136 C 
ATOM      2  O   UNL     1     -17.127  13.134 -27.241  1.00  0.00    -0.299 OA
ENDROOT
BRANCH   1   3
ATOM      3  C   UNL     1     -18.333  12.331 -29.112  1.00  0.00     0.053 C 
ATOM      4  C   UNL     1     -19.199  11.099 -28.821  1.00  0.00     0.016 C 
BRANCH   3   5
ATOM      5  C   UNL     1     -17.859  12.356 -30.591  1.00  0.00     0.015 C 
BRANCH   5   6
ATOM      6  C   UNL     1     -17.934  13.735 -31.275  1.00  0.00     0.028 C 
BRANCH   6   7
ATOM      7  C   UNL     1     -16.615  14.325 -31.731  1.00  0.00    -0.028 C 
ATOM      8  C   UNL     1     -15.432  13.674 -31.835  1.00  0.00    -0.070 CG0
ATOM      9  C   UNL     1     -14.251  14.433 -32.390  1.00  0.00     0.039 C 
ATOM     10  G   UNL     1     -15.215  12.248 -31.367  1.00  0.00     0.000 G0
ENDBRANCH   6   7
ENDBRANCH   5   6
ENDBRANCH   3   5
ENDBRANCH   1   3
BRANCH   1  11
ATOM     11  C   UNL     1     -15.919  11.481 -28.416  1.00  0.00     0.087 C 
BRANCH  11  12
ATOM     12  C   UNL     1     -14.623  12.260 -28.778  1.00  0.00     0.066 C 
BRANCH  12  13
ATOM     13  C   UNL     1     -14.221  12.071 -30.241  1.00  0.00     0.140 C 
ATOM     14  O   UNL     1     -13.062  11.788 -30.502  1.00  0.00    -0.299 OA
BRANCH  13  15
ATOM     15  C   UNL     1     -15.185  12.239 -31.407  1.00  0.00     0.106 CG0
ATOM     16  G   UNL     1     -15.425  13.678 -31.819  1.00  0.00     0.000 G0
ENDBRANCH  13  15
ENDBRANCH  12  13
BRANCH  12  17
ATOM     17  C   UNL     1     -13.420  11.958 -27.831  1.00  0.00    -0.006 C 
ATOM     18  C   UNL     1     -13.805  11.268 -26.511  1.00  0.00     0.008 C 
ATOM     19  C   UNL     1     -12.592  13.220 -27.539  1.00  0.00     0.008 C 
ENDBRANCH  12  17
ENDBRANCH  11  12
ENDBRANCH   1  11
TORSDOF 1
ENDMDL
MODEL 6
REMARK VINA RESULT:    -3.202      2.173      5.108
REMARK INTER + INTRA:          -4.766
REMARK INTER:                  -4.964
REMARK INTRA:                   0.198
REMARK UNBOUND:                 0.120
REMARK SMILES CC1=CCC[C@@H](C)C(=O)C[C@@H](C(C)C)C(=O)C1
REMARK SMILES IDX 8 1 9 2 6 3 7 4 5 5 4 6 3 7 2 8 1 9 10 11 11 12 15 13 16 14
REMARK SMILES IDX 17 15 12 17 13 18 14 19
REMARK H PARENT
REMARK Flexibility Score: 70.00
ROOT
ATOM      1  C   UNL     1     -13.147  13.236 -28.320  1.00  0.00     0.136 C 
ATOM      2  O   UNL     1     -13.023  14.118 -27.482  1.00  0.00    -0.299 OA
ENDROOT
BRANCH   1   3
ATOM      3  C   UNL     1     -14.389  12.368 -28.301  1.00  0.00     0.053 C 
ATOM      4  C   UNL     1     -14.716  11.919 -26.872  1.00  0.00     0.016 C 
BRANCH   3   5
ATOM      5  C   UNL     1     -14.186  11.152 -29.246  1.00  0.00     0.015 C 
BRANCH   5   6
ATOM      6  C   UNL     1     -15.065  11.155 -30.511  1.00  0.00     0.028 C 
BRANCH   6   7
ATOM      7  C   UNL     1     -15.903  12.398 -30.738  1.00  0.00    -0.028 C 
ATOM      8  C   UNL     1     -15.513  13.530 -31.370  1.00  0.00    -0.070 CG0
ATOM      9  C   UNL     1     -16.535  14.625 -31.560  1.00  0.00     0.039 C 
ATOM     10  G   UNL     1     -14.093  13.782 -31.840  1.00  0.00     0.000 G0
ENDBRANCH   6   7
ENDBRANCH   5   6
ENDBRANCH   3   5
ENDBRANCH   1   3
BRANCH   1  11
ATOM     11  C   UNL     1     -12.047  13.045 -29.345  1.00  0.00     0.087 C 
BRANCH  11  12
ATOM     12  C   UNL     1     -11.908  14.226 -30.348  1.00  0.00     0.066 C 
BRANCH  12  13
ATOM     13  C   UNL     1     -13.256  14.658 -30.926  1.00  0.00     0.140 C 
ATOM     14  O   UNL     1     -13.709  15.749 -30.612  1.00  0.00    -0.299 OA
BRANCH  13  15
ATOM     15  C   UNL     1     -14.089  13.793 -31.859  1.00  0.00     0.106 CG0
ATOM     16  G   UNL     1     -15.498  13.518 -31.369  1.00  0.00     0.000 G0
ENDBRANCH  13  15
ENDBRANCH  12  13
BRANCH  12  17
ATOM     17  C   UNL     1     -10.876  13.966 -31.490  1.00  0.00    -0.006 C 
ATOM     18  C   UNL     1     -11.030  14.887 -32.711  1.00  0.00     0.008 C 
ATOM     19  C   UNL     1     -10.880  12.496 -31.939  1.00  0.00     0.008 C 
ENDBRANCH  12  17
ENDBRANCH  11  12
ENDBRANCH   1  11
TORSDOF 1
ENDMDL
MODEL 7
REMARK VINA RESULT:    -2.320     11.647     13.719
REMARK INTER + INTRA:          -3.420
REMARK INTER:                  -3.820
REMARK INTRA:                   0.400
REMARK UNBOUND:                 0.120
REMARK SMILES CC1=CCC[C@@H](C)C(=O)C[C@@H](C(C)C)C(=O)C1
REMARK SMILES IDX 8 1 9 2 6 3 7 4 5 5 4 6 3 7 2 8 1 9 10 11 11 12 15 13 16 14
REMARK SMILES IDX 17 15 12 17 13 18 14 19
REMARK H PARENT
REMARK Flexibility Score: 70.00
ROOT
ATOM      1  C   UNL     1     -26.282  20.350 -34.079  1.00  0.00     0.136 C 
ATOM      2  O   UNL     1     -25.603  20.031 -35.045  1.00  0.00    -0.299 OA
ENDROOT
BRANCH   1   3
ATOM      3  C   UNL     1     -27.786  20.449 -34.232  1.00  0.00     0.053 C 
ATOM      4  C   UNL     1     -28.307  21.762 -33.636  1.00  0.00     0.016 C 
BRANCH   3   5
ATOM      5  C   UNL     1     -28.457  19.217 -33.567  1.00  0.00     0.015 C 
BRANCH   5   6
ATOM      6  C   UNL     1     -28.174  19.055 -32.061  1.00  0.00     0.028 C 
BRANCH   6   7
ATOM      7  C   UNL     1     -27.695  17.687 -31.615  1.00  0.00    -0.028 C 
ATOM      8  C   UNL     1     -26.548  17.410 -30.950  1.00  0.00    -0.070 CG0
ATOM      9  C   UNL     1     -26.301  15.983 -30.528  1.00  0.00     0.039 C 
ATOM     10  G   UNL     1     -25.474  18.442 -30.665  1.00  0.00     0.000 G0
ENDBRANCH   6   7
ENDBRANCH   5   6
ENDBRANCH   3   5
ENDBRANCH   1   3
BRANCH   1  11
ATOM     11  C   UNL     1     -25.586  20.637 -32.764  1.00  0.00     0.087 C 
BRANCH  11  12
ATOM     12  C   UNL     1     -24.247  19.868 -32.578  1.00  0.00     0.066 C 
BRANCH  12  13
ATOM     13  C   UNL     1     -24.419  18.593 -31.751  1.00  0.00     0.140 C 
ATOM     14  O   UNL     1     -23.695  17.637 -31.984  1.00  0.00    -0.299 OA
BRANCH  13  15
ATOM     15  C   UNL     1     -25.467  18.434 -30.660  1.00  0.00     0.106 CG0
ATOM     16  G   UNL     1     -26.536  17.402 -30.963  1.00  0.00     0.000 G0
ENDBRANCH  13  15
ENDBRANCH  12  13
BRANCH  12  17
ATOM     17  C   UNL     1     -23.089  20.746 -32.006  1.00  0.00    -0.006 C 
ATOM     18  C   UNL     1     -22.868  20.601 -30.491  1.00  0.00     0.008 C 
ATOM     19  C   UNL     1     -23.265  22.228 -32.370  1.00  0.00     0.008 C 
ENDBRANCH  12  17
ENDBRANCH  11  12
ENDBRANCH   1  11
TORSDOF 1
ENDMDL
MODEL 8
REMARK VINA RESULT:    -2.234     12.056     13.867
REMARK INTER + INTRA:          -3.290
REMARK INTER:                  -3.385
REMARK INTRA:                   0.095
REMARK UNBOUND:                 0.120
REMARK SMILES CC1=CCC[C@@H](C)C(=O)C[C@@H](C(C)C)C(=O)C1
REMARK SMILES IDX 8 1 9 2 6 3 7 4 5 5 4 6 3 7 2 8 1 9 10 11 11 12 15 13 16 14
REMARK SMILES IDX 17 15 12 17 13 18 14 19
REMARK H PARENT
REMARK Flexibility Score: 70.00
ROOT
ATOM      1  C   UNL     1     -23.918  19.076 -32.076  1.00  0.00     0.136 C 
ATOM      2  O   UNL     1     -23.431  17.955 -32.117  1.00  0.00    -0.299 OA
ENDROOT
BRANCH   1   3
ATOM      3  C   UNL     1     -23.169  20.231 -32.709  1.00  0.00     0.053 C 
ATOM      4  C   UNL     1     -23.568  21.560 -32.058  1.00  0.00     0.016 C 
BRANCH   3   5
ATOM      5  C   UNL     1     -23.437  20.245 -34.239  1.00  0.00     0.015 C 
BRANCH   5   6
ATOM      6  C   UNL     1     -24.847  19.784 -34.658  1.00  0.00     0.028 C 
BRANCH   6   7
ATOM      7  C   UNL     1     -25.963  20.790 -34.462  1.00  0.00    -0.028 C 
ATOM      8  C   UNL     1     -27.208  20.534 -33.994  1.00  0.00    -0.070 CG0
ATOM      9  C   UNL     1     -28.146  21.700 -33.798  1.00  0.00     0.039 C 
ATOM     10  G   UNL     1     -27.729  19.137 -33.718  1.00  0.00     0.000 G0
ENDBRANCH   6   7
ENDBRANCH   5   6
ENDBRANCH   3   5
ENDBRANCH   1   3
BRANCH   1  11
ATOM     11  C   UNL     1     -25.254  19.264 -31.386  1.00  0.00     0.087 C 
BRANCH  11  12
ATOM     12  C   UNL     1     -26.281  18.134 -31.682  1.00  0.00     0.066 C 
BRANCH  12  13
ATOM     13  C   UNL     1     -27.586  18.675 -32.268  1.00  0.00     0.140 C 
ATOM     14  O   UNL     1     -28.576  18.725 -31.554  1.00  0.00    -0.299 OA
BRANCH  13  15
ATOM     15  C   UNL     1     -27.733  19.137 -33.710  1.00  0.00     0.106 CG0
ATOM     16  G   UNL     1     -27.203  20.532 -33.978  1.00  0.00     0.000 G0
ENDBRANCH  13  15
ENDBRANCH  12  13
BRANCH  12  17
ATOM     17  C   UNL     1     -26.566  17.205 -30.460  1.00  0.00    -0.006 C 
ATOM     18  C   UNL     1     -26.262  17.839 -29.092  1.00  0.00     0.008 C 
ATOM     19  C   UNL     1     -25.837  15.858 -30.586  1.00  0.00     0.008 C 
ENDBRANCH  12  17
ENDBRANCH  11  12
ENDBRANCH   1  11
TORSDOF 1
ENDMDL
MODEL 9
REMARK VINA RESULT:    -1.502     12.154     14.121
REMARK INTER + INTRA:          -2.173
REMARK INTER:                  -2.534
REMARK INTRA:                   0.361
REMARK UNBOUND:                 0.120
REMARK SMILES CC1=CCC[C@@H](C)C(=O)C[C@@H](C(C)C)C(=O)C1
REMARK SMILES IDX 8 1 9 2 6 3 7 4 5 5 4 6 3 7 2 8 1 9 10 11 11 12 15 13 16 14
REMARK SMILES IDX 17 15 12 17 13 18 14 19
REMARK H PARENT
REMARK Flexibility Score: 70.00
ROOT
ATOM      1  C   UNL     1     -28.322  18.571 -32.375  1.00  0.00     0.136 C 
ATOM      2  O   UNL     1     -28.995  17.772 -31.738  1.00  0.00    -0.299 OA
ENDROOT
BRANCH   1   3
ATOM      3  C   UNL     1     -28.944  19.885 -32.803  1.00  0.00     0.053 C 
ATOM      4  C   UNL     1     -30.474  19.782 -32.820  1.00  0.00     0.016 C 
BRANCH   3   5
ATOM      5  C   UNL     1     -28.387  20.294 -34.194  1.00  0.00     0.015 C 
BRANCH   5   6
ATOM      6  C   UNL     1     -27.070  21.094 -34.158  1.00  0.00     0.028 C 
BRANCH   6   7
ATOM      7  C   UNL     1     -25.925  20.530 -34.975  1.00  0.00    -0.028 C 
ATOM      8  C   UNL     1     -24.728  20.108 -34.503  1.00  0.00    -0.070 CG0
ATOM      9  C   UNL     1     -23.752  19.503 -35.482  1.00  0.00     0.039 C 
ATOM     10  G   UNL     1     -24.291  20.270 -33.059  1.00  0.00     0.000 G0
ENDBRANCH   6   7
ENDBRANCH   5   6
ENDBRANCH   3   5
ENDBRANCH   1   3
BRANCH   1  11
ATOM     11  C   UNL     1     -26.891  18.209 -32.716  1.00  0.00     0.087 C 
BRANCH  11  12
ATOM     12  C   UNL     1     -25.862  18.607 -31.620  1.00  0.00     0.066 C 
BRANCH  12  13
ATOM     13  C   UNL     1     -24.509  19.004 -32.211  1.00  0.00     0.140 C 
ATOM     14  O   UNL     1     -23.538  18.297 -31.986  1.00  0.00    -0.299 OA
BRANCH  13  15
ATOM     15  C   UNL     1     -24.291  20.253 -33.053  1.00  0.00     0.106 CG0
ATOM     16  G   UNL     1     -24.724  20.116 -34.500  1.00  0.00     0.000 G0
ENDBRANCH  13  15
ENDBRANCH  12  13
BRANCH  12  17
ATOM     17  C   UNL     1     -25.683  17.534 -30.501  1.00  0.00    -0.006 C 
ATOM     18  C   UNL     1     -26.254  16.149 -30.849  1.00  0.00     0.008 C 
ATOM     19  C   UNL     1     -26.254  18.011 -29.156  1.00  0.00     0.008 C 
ENDBRANCH  12  17
ENDBRANCH  11  12
ENDBRANCH   1  11
TORSDOF 1
ENDMDL
