MODEL 1
REMARK VINA RESULT:    -3.724      0.000      0.000
REMARK INTER + INTRA:          -5.216
REMARK INTER:                  -5.030
REMARK INTRA:                  -0.186
REMARK UNBOUND:                -0.186
REMARK SMILES CCCCCCCC(=O)[O-]
REMARK SMILES IDX 5 1 6 2 7 3 8 4 9 5 10 6 4 7 3 8 2 9 1 10
REMARK H PARENT
REMARK Flexibility Score: inf
ROOT
ATOM      1  C   UNL     1     -30.750 -20.052  13.879  1.00  0.00     0.000 C 
ENDROOT
BRANCH   1   2
ATOM      2  C   UNL     1     -31.078 -18.655  13.329  1.00  0.00     0.006 C 
BRANCH   2   3
ATOM      3  C   UNL     1     -30.114 -17.606  13.890  1.00  0.00     0.053 C 
BRANCH   3   4
ATOM      4  C   UNL     1     -30.363 -16.274  13.257  1.00  0.00     0.041 C 
ATOM      5  O   UNL     1     -30.699 -16.200  12.045  1.00  0.00    -0.550 OA
ATOM      6  O   UNL     1     -30.273 -15.114  14.018  1.00  0.00    -0.550 OA
ENDBRANCH   3   4
ENDBRANCH   2   3
ENDBRANCH   1   2
BRANCH   1   7
ATOM      7  C   UNL     1     -30.779 -21.145  12.795  1.00  0.00     0.000 C 
BRANCH   7   8
ATOM      8  C   UNL     1     -31.075 -22.564  13.311  1.00  0.00    -0.000 C 
BRANCH   8   9
ATOM      9  C   UNL     1     -31.125 -22.647  14.843  1.00  0.00    -0.003 C 
ATOM     10  C   UNL     1     -30.406 -23.894  15.350  1.00  0.00     0.004 C 
ENDBRANCH   8   9
ENDBRANCH   7   8
ENDBRANCH   1   7
TORSDOF 6
ENDMDL
MODEL 2
REMARK VINA RESULT:    -3.677      1.838      3.161
REMARK INTER + INTRA:          -5.153
REMARK INTER:                  -5.049
REMARK INTRA:                  -0.103
REMARK UNBOUND:                -0.186
REMARK SMILES CCCCCCCC(=O)[O-]
REMARK SMILES IDX 5 1 6 2 7 3 8 4 9 5 10 6 4 7 3 8 2 9 1 10
REMARK H PARENT
REMARK Flexibility Score: inf
ROOT
ATOM      1  C   UNL     1     -30.092 -16.942  13.644  1.00  0.00     0.000 C 
ENDROOT
BRANCH   1   2
ATOM      2  C   UNL     1     -30.970 -15.752  14.059  1.00  0.00     0.006 C 
BRANCH   2   3
ATOM      3  C   UNL     1     -30.752 -14.559  13.124  1.00  0.00     0.053 C 
BRANCH   3   4
ATOM      4  C   UNL     1     -30.754 -13.279  13.898  1.00  0.00     0.041 C 
ATOM      5  O   UNL     1     -30.946 -13.292  15.144  1.00  0.00    -0.550 OA
ATOM      6  O   UNL     1     -30.494 -12.075  13.255  1.00  0.00    -0.550 OA
ENDBRANCH   3   4
ENDBRANCH   2   3
ENDBRANCH   1   2
BRANCH   1   7
ATOM      7  C   UNL     1     -30.909 -18.139  13.127  1.00  0.00     0.000 C 
BRANCH   7   8
ATOM      8  C   UNL     1     -30.738 -19.441  13.931  1.00  0.00    -0.000 C 
BRANCH   8   9
ATOM      9  C   UNL     1     -30.607 -20.683  13.039  1.00  0.00    -0.003 C 
ATOM     10  C   UNL     1     -30.818 -21.963  13.844  1.00  0.00     0.004 C 
ENDBRANCH   8   9
ENDBRANCH   7   8
ENDBRANCH   1   7
TORSDOF 6
ENDMDL
MODEL 3
REMARK VINA RESULT:    -3.480      3.161      7.087
REMARK INTER + INTRA:          -4.886
REMARK INTER:                  -4.665
REMARK INTRA:                  -0.222
REMARK UNBOUND:                -0.186
REMARK SMILES CCCCCCCC(=O)[O-]
REMARK SMILES IDX 5 1 6 2 7 3 8 4 9 5 10 6 4 7 3 8 2 9 1 10
REMARK H PARENT
REMARK Flexibility Score: inf
ROOT
ATOM      1  C   UNL     1     -30.353 -15.130  13.025  1.00  0.00     0.000 C 
ENDROOT
BRANCH   1   2
ATOM      2  C   UNL     1     -31.070 -16.477  12.845  1.00  0.00     0.006 C 
BRANCH   2   3
ATOM      3  C   UNL     1     -31.125 -17.249  14.167  1.00  0.00     0.053 C 
BRANCH   3   4
ATOM      4  C   UNL     1     -30.996 -18.719  13.921  1.00  0.00     0.041 C 
ATOM      5  O   UNL     1     -31.001 -19.167  12.743  1.00  0.00    -0.550 OA
ATOM      6  O   UNL     1     -30.820 -19.591  14.988  1.00  0.00    -0.550 OA
ENDBRANCH   3   4
ENDBRANCH   2   3
ENDBRANCH   1   2
BRANCH   1   7
ATOM      7  C   UNL     1     -30.943 -14.285  14.168  1.00  0.00     0.000 C 
BRANCH   7   8
ATOM      8  C   UNL     1     -30.748 -12.765  14.021  1.00  0.00    -0.000 C 
BRANCH   8   9
ATOM      9  C   UNL     1     -30.769 -12.298  12.559  1.00  0.00    -0.003 C 
ATOM     10  C   UNL     1     -30.001 -10.989  12.389  1.00  0.00     0.004 C 
ENDBRANCH   8   9
ENDBRANCH   7   8
ENDBRANCH   1   7
TORSDOF 6
ENDMDL
MODEL 4
REMARK VINA RESULT:    -3.164     15.873     17.069
REMARK INTER + INTRA:          -4.460
REMARK INTER:                  -4.294
REMARK INTRA:                  -0.166
REMARK UNBOUND:                -0.186
REMARK SMILES CCCCCCCC(=O)[O-]
REMARK SMILES IDX 5 1 6 2 7 3 8 4 9 5 10 6 4 7 3 8 2 9 1 10
REMARK H PARENT
REMARK Flexibility Score: inf
ROOT
ATOM      1  C   UNL     1     -15.892 -26.610  11.906  1.00  0.00     0.000 C 
ENDROOT
BRANCH   1   2
ATOM      2  C   UNL     1     -17.264 -26.974  11.316  1.00  0.00     0.006 C 
BRANCH   2   3
ATOM      3  C   UNL     1     -17.938 -28.077  12.136  1.00  0.00     0.053 C 
BRANCH   3   4
ATOM      4  C   UNL     1     -19.296 -27.641  12.584  1.00  0.00     0.041 C 
ATOM      5  O   UNL     1     -20.267 -27.666  11.781  1.00  0.00    -0.550 OA
ATOM      6  O   UNL     1     -19.504 -27.253  13.902  1.00  0.00    -0.550 OA
ENDBRANCH   3   4
ENDBRANCH   2   3
ENDBRANCH   1   2
BRANCH   1   7
ATOM      7  C   UNL     1     -14.971 -27.831  12.079  1.00  0.00     0.000 C 
BRANCH   7   8
ATOM      8  C   UNL     1     -13.900 -27.687  13.176  1.00  0.00    -0.000 C 
BRANCH   8   9
ATOM      9  C   UNL     1     -12.598 -27.057  12.662  1.00  0.00    -0.003 C 
ATOM     10  C   UNL     1     -11.378 -27.739  13.277  1.00  0.00     0.004 C 
ENDBRANCH   8   9
ENDBRANCH   7   8
ENDBRANCH   1   7
TORSDOF 6
ENDMDL
MODEL 5
REMARK VINA RESULT:    -3.034     18.782     19.598
REMARK INTER + INTRA:          -4.284
REMARK INTER:                  -4.178
REMARK INTRA:                  -0.107
REMARK UNBOUND:                -0.186
REMARK SMILES CCCCCCCC(=O)[O-]
REMARK SMILES IDX 5 1 6 2 7 3 8 4 9 5 10 6 4 7 3 8 2 9 1 10
REMARK H PARENT
REMARK Flexibility Score: inf
ROOT
ATOM      1  C   UNL     1     -11.468 -17.914  17.019  1.00  0.00     0.000 C 
ENDROOT
BRANCH   1   2
ATOM      2  C   UNL     1     -11.830 -17.823  18.510  1.00  0.00     0.006 C 
BRANCH   2   3
ATOM      3  C   UNL     1     -12.782 -18.953  18.912  1.00  0.00     0.053 C 
BRANCH   3   4
ATOM      4  C   UNL     1     -13.116 -18.864  20.367  1.00  0.00     0.041 C 
ATOM      5  O   UNL     1     -12.687 -17.901  21.058  1.00  0.00    -0.550 OA
ATOM      6  O   UNL     1     -13.943 -19.815  20.952  1.00  0.00    -0.550 OA
ENDBRANCH   3   4
ENDBRANCH   2   3
ENDBRANCH   1   2
BRANCH   1   7
ATOM      7  C   UNL     1     -11.420 -16.540  16.328  1.00  0.00     0.000 C 
BRANCH   7   8
ATOM      8  C   UNL     1     -12.032 -16.500  14.916  1.00  0.00    -0.000 C 
BRANCH   8   9
ATOM      9  C   UNL     1     -12.395 -15.079  14.461  1.00  0.00    -0.003 C 
ATOM     10  C   UNL     1     -12.384 -14.970  12.938  1.00  0.00     0.004 C 
ENDBRANCH   8   9
ENDBRANCH   7   8
ENDBRANCH   1   7
TORSDOF 6
ENDMDL
MODEL 6
REMARK VINA RESULT:    -3.012     18.876     19.827
REMARK INTER + INTRA:          -4.255
REMARK INTER:                  -3.978
REMARK INTRA:                  -0.277
REMARK UNBOUND:                -0.186
REMARK SMILES CCCCCCCC(=O)[O-]
REMARK SMILES IDX 5 1 6 2 7 3 8 4 9 5 10 6 4 7 3 8 2 9 1 10
REMARK H PARENT
REMARK Flexibility Score: inf
ROOT
ATOM      1  C   UNL     1     -11.190 -16.195  16.973  1.00  0.00     0.000 C 
ENDROOT
BRANCH   1   2
ATOM      2  C   UNL     1     -11.068 -17.131  18.185  1.00  0.00     0.006 C 
BRANCH   2   3
ATOM      3  C   UNL     1     -12.028 -18.317  18.060  1.00  0.00     0.053 C 
BRANCH   3   4
ATOM      4  C   UNL     1     -12.638 -18.639  19.387  1.00  0.00     0.041 C 
ATOM      5  O   UNL     1     -12.388 -17.920  20.391  1.00  0.00    -0.550 OA
ATOM      6  O   UNL     1     -13.524 -19.703  19.506  1.00  0.00    -0.550 OA
ENDBRANCH   3   4
ENDBRANCH   2   3
ENDBRANCH   1   2
BRANCH   1   7
ATOM      7  C   UNL     1     -11.719 -16.908  15.715  1.00  0.00     0.000 C 
BRANCH   7   8
ATOM      8  C   UNL     1     -12.262 -15.974  14.619  1.00  0.00    -0.000 C 
BRANCH   8   9
ATOM      9  C   UNL     1     -11.635 -14.573  14.660  1.00  0.00    -0.003 C 
ATOM     10  C   UNL     1     -12.700 -13.500  14.874  1.00  0.00     0.004 C 
ENDBRANCH   8   9
ENDBRANCH   7   8
ENDBRANCH   1   7
TORSDOF 6
ENDMDL
MODEL 7
REMARK VINA RESULT:    -3.003     18.309     18.880
REMARK INTER + INTRA:          -4.242
REMARK INTER:                  -4.098
REMARK INTRA:                  -0.143
REMARK UNBOUND:                -0.186
REMARK SMILES CCCCCCCC(=O)[O-]
REMARK SMILES IDX 5 1 6 2 7 3 8 4 9 5 10 6 4 7 3 8 2 9 1 10
REMARK H PARENT
REMARK Flexibility Score: inf
ROOT
ATOM      1  C   UNL     1     -11.610 -17.618  18.028  1.00  0.00     0.000 C 
ENDROOT
BRANCH   1   2
ATOM      2  C   UNL     1     -11.672 -17.453  16.501  1.00  0.00     0.006 C 
BRANCH   2   3
ATOM      3  C   UNL     1     -11.429 -15.997  16.097  1.00  0.00     0.053 C 
BRANCH   3   4
ATOM      4  C   UNL     1     -11.958 -15.739  14.722  1.00  0.00     0.041 C 
ATOM      5  O   UNL     1     -12.571 -14.667  14.470  1.00  0.00    -0.550 OA
ATOM      6  O   UNL     1     -11.734 -16.659  13.706  1.00  0.00    -0.550 OA
ENDBRANCH   3   4
ENDBRANCH   2   3
ENDBRANCH   1   2
BRANCH   1   7
ATOM      7  C   UNL     1     -11.966 -19.041  18.493  1.00  0.00     0.000 C 
BRANCH   7   8
ATOM      8  C   UNL     1     -13.215 -19.140  19.388  1.00  0.00    -0.000 C 
BRANCH   8   9
ATOM      9  C   UNL     1     -13.467 -20.561  19.909  1.00  0.00    -0.003 C 
ATOM     10  C   UNL     1     -13.410 -21.581  18.774  1.00  0.00     0.004 C 
ENDBRANCH   8   9
ENDBRANCH   7   8
ENDBRANCH   1   7
TORSDOF 6
ENDMDL
MODEL 8
REMARK VINA RESULT:    -2.998     18.507     19.099
REMARK INTER + INTRA:          -4.236
REMARK INTER:                  -4.074
REMARK INTRA:                  -0.162
REMARK UNBOUND:                -0.186
REMARK SMILES CCCCCCCC(=O)[O-]
REMARK SMILES IDX 5 1 6 2 7 3 8 4 9 5 10 6 4 7 3 8 2 9 1 10
REMARK H PARENT
REMARK Flexibility Score: inf
ROOT
ATOM      1  C   UNL     1     -11.618 -17.090  17.225  1.00  0.00     0.000 C 
ENDROOT
BRANCH   1   2
ATOM      2  C   UNL     1     -11.324 -17.212  15.722  1.00  0.00     0.006 C 
BRANCH   2   3
ATOM      3  C   UNL     1     -12.121 -16.178  14.922  1.00  0.00     0.053 C 
BRANCH   3   4
ATOM      4  C   UNL     1     -11.772 -16.256  13.470  1.00  0.00     0.041 C 
ATOM      5  O   UNL     1     -11.187 -17.274  13.013  1.00  0.00    -0.550 OA
ATOM      6  O   UNL     1     -12.137 -15.228  12.609  1.00  0.00    -0.550 OA
ENDBRANCH   3   4
ENDBRANCH   2   3
ENDBRANCH   1   2
BRANCH   1   7
ATOM      7  C   UNL     1     -11.692 -18.454  17.934  1.00  0.00     0.000 C 
BRANCH   7   8
ATOM      8  C   UNL     1     -12.486 -18.459  19.253  1.00  0.00    -0.000 C 
BRANCH   8   9
ATOM      9  C   UNL     1     -13.314 -19.737  19.449  1.00  0.00    -0.003 C 
ATOM     10  C   UNL     1     -12.671 -20.923  18.734  1.00  0.00     0.004 C 
ENDBRANCH   8   9
ENDBRANCH   7   8
ENDBRANCH   1   7
TORSDOF 6
ENDMDL
MODEL 9
REMARK VINA RESULT:    -2.991     18.574     19.621
REMARK INTER + INTRA:          -4.227
REMARK INTER:                  -4.065
REMARK INTRA:                  -0.162
REMARK UNBOUND:                -0.186
REMARK SMILES CCCCCCCC(=O)[O-]
REMARK SMILES IDX 5 1 6 2 7 3 8 4 9 5 10 6 4 7 3 8 2 9 1 10
REMARK H PARENT
REMARK Flexibility Score: inf
ROOT
ATOM      1  C   UNL     1     -11.624 -17.140  17.298  1.00  0.00     0.000 C 
ENDROOT
BRANCH   1   2
ATOM      2  C   UNL     1     -11.745 -18.521  17.962  1.00  0.00     0.006 C 
BRANCH   2   3
ATOM      3  C   UNL     1     -12.713 -18.476  19.147  1.00  0.00     0.053 C 
BRANCH   3   4
ATOM      4  C   UNL     1     -13.199 -19.850  19.479  1.00  0.00     0.041 C 
ATOM      5  O   UNL     1     -12.895 -20.826  18.742  1.00  0.00    -0.550 OA
ATOM      6  O   UNL     1     -13.947 -20.065  20.630  1.00  0.00    -0.550 OA
ENDBRANCH   3   4
ENDBRANCH   2   3
ENDBRANCH   1   2
BRANCH   1   7
ATOM      7  C   UNL     1     -11.381 -17.224  15.780  1.00  0.00     0.000 C 
BRANCH   7   8
ATOM      8  C   UNL     1     -12.027 -16.095  14.956  1.00  0.00    -0.000 C 
BRANCH   8   9
ATOM      9  C   UNL     1     -11.637 -14.695  15.448  1.00  0.00    -0.003 C 
ATOM     10  C   UNL     1     -12.615 -13.640  14.937  1.00  0.00     0.004 C 
ENDBRANCH   8   9
ENDBRANCH   7   8
ENDBRANCH   1   7
TORSDOF 6
ENDMDL
