MODEL 1
REMARK VINA RESULT:    -4.567      0.000      0.000
REMARK INTER + INTRA:          -5.349
REMARK INTER:                  -5.234
REMARK INTRA:                  -0.115
REMARK UNBOUND:                -0.115
REMARK SMILES COc1cc(C(C)=O)ccc1O
REMARK SMILES IDX 5 1 4 2 3 3 11 4 10 5 9 6 6 7 7 8 8 9 2 10 1 11 12 12
REMARK H PARENT 12 13
REMARK Flexibility Score: inf
ROOT
ATOM      1  C   UNL     1      17.664  19.072  17.241  1.00  0.00     0.021 A 
ATOM      2  C   UNL     1      17.536  17.981  16.361  1.00  0.00     0.062 A 
ATOM      3  C   UNL     1      17.149  18.172  15.020  1.00  0.00     0.161 A 
ATOM      4  C   UNL     1      16.887  19.474  14.559  1.00  0.00     0.157 A 
ATOM      5  C   UNL     1      17.013  20.560  15.428  1.00  0.00     0.051 A 
ATOM      6  C   UNL     1      17.397  20.366  16.755  1.00  0.00     0.016 A 
ENDROOT
BRANCH   1   7
ATOM      7  C   UNL     1      18.075  18.848  18.654  1.00  0.00     0.159 C 
ATOM      8  C   UNL     1      17.924  17.513  19.321  1.00  0.00     0.093 C 
ATOM      9  O   UNL     1      18.565  19.798  19.322  1.00  0.00    -0.295 OA
ENDBRANCH   1   7
BRANCH   3  10
ATOM     10  O   UNL     1      17.014  17.099  14.123  1.00  0.00    -0.493 OA
ATOM     11  C   UNL     1      18.093  16.498  13.412  1.00  0.00     0.278 C 
ENDBRANCH   3  10
BRANCH   4  12
ATOM     12  O   UNL     1      16.501  19.709  13.240  1.00  0.00    -0.504 OA
ATOM     13  H   UNL     1      16.310  20.640  12.890  1.00  0.00     0.293 HD
ENDBRANCH   4  12
TORSDOF 3
ENDMDL
MODEL 2
REMARK VINA RESULT:    -4.522      1.990      2.084
REMARK INTER + INTRA:          -5.297
REMARK INTER:                  -5.200
REMARK INTRA:                  -0.097
REMARK UNBOUND:                -0.115
REMARK SMILES COc1cc(C(C)=O)ccc1O
REMARK SMILES IDX 5 1 4 2 3 3 11 4 10 5 9 6 6 7 7 8 8 9 2 10 1 11 12 12
REMARK H PARENT 12 13
REMARK Flexibility Score: inf
ROOT
ATOM      1  C   UNL     1      17.238  19.095  17.410  1.00  0.00     0.021 A 
ATOM      2  C   UNL     1      16.057  18.370  17.162  1.00  0.00     0.062 A 
ATOM      3  C   UNL     1      15.213  18.704  16.084  1.00  0.00     0.161 A 
ATOM      4  C   UNL     1      15.560  19.780  15.248  1.00  0.00     0.157 A 
ATOM      5  C   UNL     1      16.730  20.502  15.490  1.00  0.00     0.051 A 
ATOM      6  C   UNL     1      17.563  20.167  16.557  1.00  0.00     0.016 A 
ENDROOT
BRANCH   1   7
ATOM      7  C   UNL     1      18.115  18.724  18.553  1.00  0.00     0.159 C 
ATOM      8  C   UNL     1      17.909  17.460  19.333  1.00  0.00     0.093 C 
ATOM      9  O   UNL     1      19.063  19.485  18.888  1.00  0.00    -0.295 OA
ENDBRANCH   1   7
BRANCH   3  10
ATOM     10  O   UNL     1      14.029  17.996  15.817  1.00  0.00    -0.493 OA
ATOM     11  C   UNL     1      13.890  16.583  15.928  1.00  0.00     0.278 C 
ENDBRANCH   3  10
BRANCH   4  12
ATOM     12  O   UNL     1      14.754  20.145  14.171  1.00  0.00    -0.504 OA
ATOM     13  H   UNL     1      14.712  21.096  13.825  1.00  0.00     0.293 HD
ENDBRANCH   4  12
TORSDOF 3
ENDMDL
MODEL 3
REMARK VINA RESULT:    -4.402      9.652     11.879
REMARK INTER + INTRA:          -5.160
REMARK INTER:                  -5.050
REMARK INTRA:                  -0.110
REMARK UNBOUND:                -0.115
REMARK SMILES COc1cc(C(C)=O)ccc1O
REMARK SMILES IDX 5 1 4 2 3 3 11 4 10 5 9 6 6 7 7 8 8 9 2 10 1 11 12 12
REMARK H PARENT 12 13
REMARK Flexibility Score: inf
ROOT
ATOM      1  C   UNL     1      16.580   8.960  10.038  1.00  0.00     0.021 A 
ATOM      2  C   UNL     1      17.884   8.457   9.876  1.00  0.00     0.062 A 
ATOM      3  C   UNL     1      19.009   9.227  10.233  1.00  0.00     0.161 A 
ATOM      4  C   UNL     1      18.819  10.518  10.757  1.00  0.00     0.157 A 
ATOM      5  C   UNL     1      17.527  11.022  10.920  1.00  0.00     0.051 A 
ATOM      6  C   UNL     1      16.416  10.254  10.566  1.00  0.00     0.016 A 
ENDROOT
BRANCH   1   7
ATOM      7  C   UNL     1      15.406   8.128   9.655  1.00  0.00     0.159 C 
ATOM      8  C   UNL     1      14.104   8.207  10.394  1.00  0.00     0.093 C 
ATOM      9  O   UNL     1      15.494   7.330   8.683  1.00  0.00    -0.295 OA
ENDBRANCH   1   7
BRANCH   3  10
ATOM     10  O   UNL     1      20.321   8.747  10.080  1.00  0.00    -0.493 OA
ATOM     11  C   UNL     1      20.671   7.370   9.978  1.00  0.00     0.278 C 
ENDBRANCH   3  10
BRANCH   4  12
ATOM     12  O   UNL     1      19.903  11.314  11.123  1.00  0.00    -0.504 OA
ATOM     13  H   UNL     1      20.845  10.949  11.186  1.00  0.00     0.293 HD
ENDBRANCH   4  12
TORSDOF 3
ENDMDL
MODEL 4
REMARK VINA RESULT:    -4.399      1.180      4.392
REMARK INTER + INTRA:          -5.157
REMARK INTER:                  -5.045
REMARK INTRA:                  -0.112
REMARK UNBOUND:                -0.115
REMARK SMILES COc1cc(C(C)=O)ccc1O
REMARK SMILES IDX 5 1 4 2 3 3 11 4 10 5 9 6 6 7 7 8 8 9 2 10 1 11 12 12
REMARK H PARENT 12 13
REMARK Flexibility Score: inf
ROOT
ATOM      1  C   UNL     1      17.161  18.303  15.466  1.00  0.00     0.021 A 
ATOM      2  C   UNL     1      17.629  17.775  16.684  1.00  0.00     0.062 A 
ATOM      3  C   UNL     1      17.834  18.605  17.804  1.00  0.00     0.161 A 
ATOM      4  C   UNL     1      17.566  19.981  17.697  1.00  0.00     0.157 A 
ATOM      5  C   UNL     1      17.102  20.510  16.491  1.00  0.00     0.051 A 
ATOM      6  C   UNL     1      16.900  19.684  15.386  1.00  0.00     0.016 A 
ENDROOT
BRANCH   1   7
ATOM      7  C   UNL     1      16.951  17.408  14.296  1.00  0.00     0.159 C 
ATOM      8  C   UNL     1      18.069  17.046  13.363  1.00  0.00     0.093 C 
ATOM      9  O   UNL     1      15.806  16.931  14.069  1.00  0.00    -0.295 OA
ENDBRANCH   1   7
BRANCH   3  10
ATOM     10  O   UNL     1      18.301  18.102  19.030  1.00  0.00    -0.493 OA
ATOM     11  C   UNL     1      17.550  17.253  19.894  1.00  0.00     0.278 C 
ENDBRANCH   3  10
BRANCH   4  12
ATOM     12  O   UNL     1      17.755  20.839  18.780  1.00  0.00    -0.504 OA
ATOM     13  H   UNL     1      18.523  20.727  19.431  1.00  0.00     0.293 HD
ENDBRANCH   4  12
TORSDOF 3
ENDMDL
MODEL 5
REMARK VINA RESULT:    -4.399      7.490      8.930
REMARK INTER + INTRA:          -5.157
REMARK INTER:                  -5.051
REMARK INTRA:                  -0.106
REMARK UNBOUND:                -0.115
REMARK SMILES COc1cc(C(C)=O)ccc1O
REMARK SMILES IDX 5 1 4 2 3 3 11 4 10 5 9 6 6 7 7 8 8 9 2 10 1 11 12 12
REMARK H PARENT 12 13
REMARK Flexibility Score: inf
ROOT
ATOM      1  C   UNL     1      19.124  12.876  11.455  1.00  0.00     0.021 A 
ATOM      2  C   UNL     1      18.969  11.516  11.127  1.00  0.00     0.062 A 
ATOM      3  C   UNL     1      18.077  10.693  11.843  1.00  0.00     0.161 A 
ATOM      4  C   UNL     1      17.333  11.245  12.901  1.00  0.00     0.157 A 
ATOM      5  C   UNL     1      17.483  12.594  13.231  1.00  0.00     0.051 A 
ATOM      6  C   UNL     1      18.367  13.404  12.518  1.00  0.00     0.016 A 
ENDROOT
BRANCH   1   7
ATOM      7  C   UNL     1      20.071  13.726  10.685  1.00  0.00     0.159 C 
ATOM      8  C   UNL     1      19.710  15.112  10.238  1.00  0.00     0.093 C 
ATOM      9  O   UNL     1      21.215  13.283  10.392  1.00  0.00    -0.295 OA
ENDBRANCH   1   7
BRANCH   3  10
ATOM     10  O   UNL     1      17.905   9.333  11.535  1.00  0.00    -0.493 OA
ATOM     11  C   UNL     1      18.562   8.657  10.467  1.00  0.00     0.278 C 
ENDBRANCH   3  10
BRANCH   4  12
ATOM     12  O   UNL     1      16.439  10.467  13.637  1.00  0.00    -0.504 OA
ATOM     13  H   UNL     1      16.738   9.884  14.408  1.00  0.00     0.293 HD
ENDBRANCH   4  12
TORSDOF 3
ENDMDL
MODEL 6
REMARK VINA RESULT:    -4.315      4.583      7.587
REMARK INTER + INTRA:          -5.060
REMARK INTER:                  -4.949
REMARK INTRA:                  -0.111
REMARK UNBOUND:                -0.115
REMARK SMILES COc1cc(C(C)=O)ccc1O
REMARK SMILES IDX 5 1 4 2 3 3 11 4 10 5 9 6 6 7 7 8 8 9 2 10 1 11 12 12
REMARK H PARENT 12 13
REMARK Flexibility Score: inf
ROOT
ATOM      1  C   UNL     1      18.821  12.925  11.925  1.00  0.00     0.021 A 
ATOM      2  C   UNL     1      18.704  14.147  12.615  1.00  0.00     0.062 A 
ATOM      3  C   UNL     1      19.535  15.240  12.299  1.00  0.00     0.161 A 
ATOM      4  C   UNL     1      20.494  15.103  11.280  1.00  0.00     0.157 A 
ATOM      5  C   UNL     1      20.613  13.893  10.592  1.00  0.00     0.051 A 
ATOM      6  C   UNL     1      19.788  12.813  10.908  1.00  0.00     0.016 A 
ENDROOT
BRANCH   1   7
ATOM      7  C   UNL     1      17.933  11.783  12.275  1.00  0.00     0.159 C 
ATOM      8  C   UNL     1      16.926  11.871  13.382  1.00  0.00     0.093 C 
ATOM      9  O   UNL     1      18.018  10.703  11.630  1.00  0.00    -0.295 OA
ENDBRANCH   1   7
BRANCH   3  10
ATOM     10  O   UNL     1      19.438  16.469  12.973  1.00  0.00    -0.493 OA
ATOM     11  C   UNL     1      18.326  17.354  12.884  1.00  0.00     0.278 C 
ENDBRANCH   3  10
BRANCH   4  12
ATOM     12  O   UNL     1      21.336  16.159  10.934  1.00  0.00    -0.504 OA
ATOM     13  H   UNL     1      21.017  16.948  10.387  1.00  0.00     0.293 HD
ENDBRANCH   4  12
TORSDOF 3
ENDMDL
MODEL 7
REMARK VINA RESULT:    -4.301      2.253      4.322
REMARK INTER + INTRA:          -5.044
REMARK INTER:                  -4.948
REMARK INTRA:                  -0.097
REMARK UNBOUND:                -0.115
REMARK SMILES COc1cc(C(C)=O)ccc1O
REMARK SMILES IDX 5 1 4 2 3 3 11 4 10 5 9 6 6 7 7 8 8 9 2 10 1 11 12 12
REMARK H PARENT 12 13
REMARK Flexibility Score: inf
ROOT
ATOM      1  C   UNL     1      15.286  18.489  15.684  1.00  0.00     0.021 A 
ATOM      2  C   UNL     1      16.030  17.717  16.596  1.00  0.00     0.062 A 
ATOM      3  C   UNL     1      17.201  18.226  17.192  1.00  0.00     0.161 A 
ATOM      4  C   UNL     1      17.628  19.525  16.867  1.00  0.00     0.157 A 
ATOM      5  C   UNL     1      16.893  20.296  15.964  1.00  0.00     0.051 A 
ATOM      6  C   UNL     1      15.734  19.788  15.377  1.00  0.00     0.016 A 
ENDROOT
BRANCH   1   7
ATOM      7  C   UNL     1      14.052  17.932  15.067  1.00  0.00     0.159 C 
ATOM      8  C   UNL     1      13.751  16.463  15.080  1.00  0.00     0.093 C 
ATOM      9  O   UNL     1      13.225  18.706  14.512  1.00  0.00    -0.295 OA
ENDBRANCH   1   7
BRANCH   3  10
ATOM     10  O   UNL     1      17.960  17.474  18.104  1.00  0.00    -0.493 OA
ATOM     11  C   UNL     1      17.779  17.494  19.517  1.00  0.00     0.278 C 
ENDBRANCH   3  10
BRANCH   4  12
ATOM     12  O   UNL     1      18.781  20.068  17.434  1.00  0.00    -0.504 OA
ATOM     13  H   UNL     1      18.805  20.411  18.386  1.00  0.00     0.293 HD
ENDBRANCH   4  12
TORSDOF 3
ENDMDL
MODEL 8
REMARK VINA RESULT:    -4.290      9.784     12.408
REMARK INTER + INTRA:          -5.031
REMARK INTER:                  -4.905
REMARK INTRA:                  -0.126
REMARK UNBOUND:                -0.115
REMARK SMILES COc1cc(C(C)=O)ccc1O
REMARK SMILES IDX 5 1 4 2 3 3 11 4 10 5 9 6 6 7 7 8 8 9 2 10 1 11 12 12
REMARK H PARENT 12 13
REMARK Flexibility Score: inf
ROOT
ATOM      1  C   UNL     1      15.210   8.134   9.721  1.00  0.00     0.021 A 
ATOM      2  C   UNL     1      16.546   8.505   9.959  1.00  0.00     0.062 A 
ATOM      3  C   UNL     1      16.902   9.243  11.105  1.00  0.00     0.161 A 
ATOM      4  C   UNL     1      15.902   9.613  12.021  1.00  0.00     0.157 A 
ATOM      5  C   UNL     1      14.573   9.247  11.790  1.00  0.00     0.051 A 
ATOM      6  C   UNL     1      14.227   8.516  10.654  1.00  0.00     0.016 A 
ENDROOT
BRANCH   1   7
ATOM      7  C   UNL     1      14.857   7.354   8.504  1.00  0.00     0.159 C 
ATOM      8  C   UNL     1      13.439   6.984   8.182  1.00  0.00     0.093 C 
ATOM      9  O   UNL     1      15.765   6.986   7.710  1.00  0.00    -0.295 OA
ENDBRANCH   1   7
BRANCH   3  10
ATOM     10  O   UNL     1      18.229   9.625  11.365  1.00  0.00    -0.493 OA
ATOM     11  C   UNL     1      18.823  10.839  10.915  1.00  0.00     0.278 C 
ENDBRANCH   3  10
BRANCH   4  12
ATOM     12  O   UNL     1      16.208  10.343  13.169  1.00  0.00    -0.504 OA
ATOM     13  H   UNL     1      15.492  10.739  13.765  1.00  0.00     0.293 HD
ENDBRANCH   4  12
TORSDOF 3
ENDMDL
MODEL 9
REMARK VINA RESULT:    -4.224      5.994      8.198
REMARK INTER + INTRA:          -4.956
REMARK INTER:                  -4.832
REMARK INTRA:                  -0.124
REMARK UNBOUND:                -0.115
REMARK SMILES COc1cc(C(C)=O)ccc1O
REMARK SMILES IDX 5 1 4 2 3 3 11 4 10 5 9 6 6 7 7 8 8 9 2 10 1 11 12 12
REMARK H PARENT 12 13
REMARK Flexibility Score: inf
ROOT
ATOM      1  C   UNL     1      17.579  11.426  12.639  1.00  0.00     0.021 A 
ATOM      2  C   UNL     1      18.366  11.952  11.597  1.00  0.00     0.062 A 
ATOM      3  C   UNL     1      18.819  13.286  11.632  1.00  0.00     0.161 A 
ATOM      4  C   UNL     1      18.475  14.099  12.725  1.00  0.00     0.157 A 
ATOM      5  C   UNL     1      17.695  13.583  13.762  1.00  0.00     0.051 A 
ATOM      6  C   UNL     1      17.249  12.261  13.723  1.00  0.00     0.016 A 
ENDROOT
BRANCH   1   7
ATOM      7  C   UNL     1      17.111  10.014  12.582  1.00  0.00     0.159 C 
ATOM      8  C   UNL     1      15.703   9.631  12.924  1.00  0.00     0.093 C 
ATOM      9  O   UNL     1      17.912   9.103  12.239  1.00  0.00    -0.295 OA
ENDBRANCH   1   7
BRANCH   3  10
ATOM     10  O   UNL     1      19.606  13.833  10.604  1.00  0.00    -0.493 OA
ATOM     11  C   UNL     1      21.026  13.742  10.538  1.00  0.00     0.278 C 
ENDBRANCH   3  10
BRANCH   4  12
ATOM     12  O   UNL     1      18.902  15.425  12.800  1.00  0.00    -0.504 OA
ATOM     13  H   UNL     1      18.825  16.062  12.017  1.00  0.00     0.293 HD
ENDBRANCH   4  12
TORSDOF 3
ENDMDL
