MODEL 1
REMARK VINA RESULT:    -3.512      0.000      0.000
REMARK INTER + INTRA:          -4.580
REMARK INTER:                  -4.231
REMARK INTRA:                  -0.349
REMARK UNBOUND:                -0.349
REMARK SMILES Oc1cc(O)c2c(c1)O[C@H](c1ccc(O)c(O)c1)[C@H](O)C2
REMARK SMILES IDX 21 1 19 2 10 3 9 4 7 5 8 6 2 7 3 8 4 9 6 10 20 11 11 13
REMARK SMILES IDX 18 14 12 15 16 16 13 17 14 18 17 19 15 21 5 23 1 25
REMARK H PARENT 20 12 17 20 15 22 5 24 1 26
REMARK Flexibility Score: inf
ROOT
ATOM      1  C   UNL     1      21.029   1.272  10.205  1.00  0.00     0.079 C 
ATOM      2  C   UNL     1      21.475   1.116  11.670  1.00  0.00     0.164 C 
ATOM      3  C   UNL     1      22.509  -0.022  11.770  1.00  0.00     0.232 C 
ATOM      4  O   UNL     1      21.958  -1.235  11.252  1.00  0.00    -0.482 OA
ATOM      5  C   UNL     1      21.117  -1.254  10.134  1.00  0.00     0.131 A 
ATOM      6  C   UNL     1      20.755  -2.479   9.567  1.00  0.00     0.093 A 
ATOM      7  C   UNL     1      19.915  -2.518   8.447  1.00  0.00     0.122 A 
ATOM      8  C   UNL     1      19.437  -1.326   7.895  1.00  0.00     0.092 A 
ATOM      9  C   UNL     1      19.788  -0.091   8.458  1.00  0.00     0.126 A 
ATOM     10  C   UNL     1      20.616  -0.050   9.595  1.00  0.00     0.039 A 
ENDROOT
BRANCH   2  11
ATOM     11  O   UNL     1      20.364   0.828  12.481  1.00  0.00    -0.389 OA
ATOM     12  H   UNL     1      20.672   0.182  13.170  1.00  0.00     0.211 HD
ENDBRANCH   2  11
BRANCH   3  13
ATOM     13  C   UNL     1      22.979  -0.218  13.193  1.00  0.00    -0.001 A 
ATOM     14  C   UNL     1      23.407   0.887  13.947  1.00  0.00     0.057 A 
ATOM     15  C   UNL     1      22.938  -1.486  13.799  1.00  0.00     0.012 A 
ATOM     16  C   UNL     1      23.813   0.730  15.277  1.00  0.00     0.157 A 
ATOM     17  C   UNL     1      23.344  -1.647  15.127  1.00  0.00     0.050 A 
ATOM     18  C   UNL     1      23.784  -0.544  15.870  1.00  0.00     0.157 A 
BRANCH  16  19
ATOM     19  O   UNL     1      24.238   1.848  15.993  1.00  0.00    -0.504 OA
ATOM     20  H   UNL     1      24.757   1.768  16.859  1.00  0.00     0.293 HD
ENDBRANCH  16  19
BRANCH  18  21
ATOM     21  O   UNL     1      24.189  -0.708  17.195  1.00  0.00    -0.504 OA
ATOM     22  H   UNL     1      23.520  -0.723  17.956  1.00  0.00     0.293 HD
ENDBRANCH  18  21
ENDBRANCH   3  13
BRANCH   9  23
ATOM     23  O   UNL     1      19.317   1.093   7.891  1.00  0.00    -0.507 OA
ATOM     24  H   UNL     1      19.950   1.797   7.528  1.00  0.00     0.293 HD
ENDBRANCH   9  23
BRANCH   7  25
ATOM     25  O   UNL     1      19.553  -3.735   7.875  1.00  0.00    -0.508 OA
ATOM     26  H   UNL     1      18.955  -4.392   8.362  1.00  0.00     0.293 HD
ENDBRANCH   7  25
TORSDOF 6
ENDMDL
MODEL 2
REMARK VINA RESULT:    -3.278      1.622      6.859
REMARK INTER + INTRA:          -4.298
REMARK INTER:                  -3.921
REMARK INTRA:                  -0.377
REMARK UNBOUND:                -0.349
REMARK SMILES Oc1cc(O)c2c(c1)O[C@H](c1ccc(O)c(O)c1)[C@H](O)C2
REMARK SMILES IDX 21 1 19 2 10 3 9 4 7 5 8 6 2 7 3 8 4 9 6 10 20 11 11 13
REMARK SMILES IDX 18 14 12 15 16 16 13 17 14 18 17 19 15 21 5 23 1 25
REMARK H PARENT 20 12 17 20 15 22 5 24 1 26
REMARK Flexibility Score: inf
ROOT
ATOM      1  C   UNL     1      24.112   1.226  11.194  1.00  0.00     0.079 C 
ATOM      2  C   UNL     1      23.355   0.205  10.325  1.00  0.00     0.164 C 
ATOM      3  C   UNL     1      21.957  -0.036  10.924  1.00  0.00     0.232 C 
ATOM      4  O   UNL     1      22.070  -0.476  12.279  1.00  0.00    -0.482 OA
ATOM      5  C   UNL     1      23.040   0.033  13.149  1.00  0.00     0.131 A 
ATOM      6  C   UNL     1      22.990  -0.299  14.505  1.00  0.00     0.093 A 
ATOM      7  C   UNL     1      23.952   0.201  15.392  1.00  0.00     0.122 A 
ATOM      8  C   UNL     1      24.966   1.037  14.916  1.00  0.00     0.092 A 
ATOM      9  C   UNL     1      25.031   1.374  13.556  1.00  0.00     0.126 A 
ATOM     10  C   UNL     1      24.078   0.856  12.661  1.00  0.00     0.039 A 
ENDROOT
BRANCH   2  11
ATOM     11  O   UNL     1      24.071  -1.003  10.272  1.00  0.00    -0.389 OA
ATOM     12  H   UNL     1      25.032  -0.771  10.360  1.00  0.00     0.211 HD
ENDBRANCH   2  11
BRANCH   3  13
ATOM     13  C   UNL     1      21.171  -1.035  10.106  1.00  0.00    -0.001 A 
ATOM     14  C   UNL     1      20.546  -2.122  10.740  1.00  0.00     0.057 A 
ATOM     15  C   UNL     1      21.001  -0.861   8.721  1.00  0.00     0.012 A 
ATOM     16  C   UNL     1      19.786  -3.037  10.004  1.00  0.00     0.157 A 
ATOM     17  C   UNL     1      20.243  -1.774   7.983  1.00  0.00     0.050 A 
ATOM     18  C   UNL     1      19.634  -2.865   8.618  1.00  0.00     0.157 A 
BRANCH  16  19
ATOM     19  O   UNL     1      19.186  -4.108  10.666  1.00  0.00    -0.504 OA
ATOM     20  H   UNL     1      19.133  -5.033  10.257  1.00  0.00     0.293 HD
ENDBRANCH  16  19
BRANCH  18  21
ATOM     21  O   UNL     1      18.880  -3.775   7.878  1.00  0.00    -0.504 OA
ATOM     22  H   UNL     1      18.336  -4.502   8.327  1.00  0.00     0.293 HD
ENDBRANCH  18  21
ENDBRANCH   3  13
BRANCH   9  23
ATOM     23  O   UNL     1      26.040   2.220  13.095  1.00  0.00    -0.507 OA
ATOM     24  H   UNL     1      25.864   2.914  12.377  1.00  0.00     0.293 HD
ENDBRANCH   9  23
BRANCH   7  25
ATOM     25  O   UNL     1      23.906  -0.124  16.745  1.00  0.00    -0.508 OA
ATOM     26  H   UNL     1      24.738  -0.105  17.323  1.00  0.00     0.293 HD
ENDBRANCH   7  25
TORSDOF 6
ENDMDL
MODEL 3
REMARK VINA RESULT:    -3.143      1.172      1.282
REMARK INTER + INTRA:          -4.135
REMARK INTER:                  -4.090
REMARK INTRA:                  -0.045
REMARK UNBOUND:                -0.349
REMARK SMILES Oc1cc(O)c2c(c1)O[C@H](c1ccc(O)c(O)c1)[C@H](O)C2
REMARK SMILES IDX 21 1 19 2 10 3 9 4 7 5 8 6 2 7 3 8 4 9 6 10 20 11 11 13
REMARK SMILES IDX 18 14 12 15 16 16 13 17 14 18 17 19 15 21 5 23 1 25
REMARK H PARENT 20 12 17 20 15 22 5 24 1 26
REMARK Flexibility Score: inf
ROOT
ATOM      1  C   UNL     1      22.792   1.820  10.348  1.00  0.00     0.079 C 
ATOM      2  C   UNL     1      22.993   1.550  11.850  1.00  0.00     0.164 C 
ATOM      3  C   UNL     1      23.399   0.078  12.053  1.00  0.00     0.232 C 
ATOM      4  O   UNL     1      22.413  -0.788  11.487  1.00  0.00    -0.482 OA
ATOM      5  C   UNL     1      21.752  -0.484  10.292  1.00  0.00     0.131 A 
ATOM      6  C   UNL     1      20.932  -1.446   9.696  1.00  0.00     0.093 A 
ATOM      7  C   UNL     1      20.264  -1.161   8.499  1.00  0.00     0.122 A 
ATOM      8  C   UNL     1      20.416   0.093   7.900  1.00  0.00     0.092 A 
ATOM      9  C   UNL     1      21.230   1.069   8.492  1.00  0.00     0.126 A 
ATOM     10  C   UNL     1      21.888   0.792   9.704  1.00  0.00     0.039 A 
ENDROOT
BRANCH   2  11
ATOM     11  O   UNL     1      21.805   1.823  12.549  1.00  0.00    -0.389 OA
ATOM     12  H   UNL     1      22.067   2.070  13.475  1.00  0.00     0.211 HD
ENDBRANCH   2  11
BRANCH   3  13
ATOM     13  C   UNL     1      23.608  -0.240  13.516  1.00  0.00    -0.001 A 
ATOM     14  C   UNL     1      23.902   0.792  14.423  1.00  0.00     0.057 A 
ATOM     15  C   UNL     1      23.452  -1.551  14.000  1.00  0.00     0.012 A 
ATOM     16  C   UNL     1      24.064   0.522  15.785  1.00  0.00     0.157 A 
ATOM     17  C   UNL     1      23.614  -1.825  15.361  1.00  0.00     0.050 A 
ATOM     18  C   UNL     1      23.922  -0.794  16.258  1.00  0.00     0.157 A 
BRANCH  16  19
ATOM     19  O   UNL     1      24.362   1.571  16.655  1.00  0.00    -0.504 OA
ATOM     20  H   UNL     1      23.731   2.349  16.796  1.00  0.00     0.293 HD
ENDBRANCH  16  19
BRANCH  18  21
ATOM     21  O   UNL     1      24.084  -1.072  17.615  1.00  0.00    -0.504 OA
ATOM     22  H   UNL     1      23.288  -1.194  18.230  1.00  0.00     0.293 HD
ENDBRANCH  18  21
ENDBRANCH   3  13
BRANCH   9  23
ATOM     23  O   UNL     1      21.387   2.312   7.877  1.00  0.00    -0.507 OA
ATOM     24  H   UNL     1      21.117   3.172   8.342  1.00  0.00     0.293 HD
ENDBRANCH   9  23
BRANCH   7  25
ATOM     25  O   UNL     1      19.448  -2.116   7.898  1.00  0.00    -0.508 OA
ATOM     26  H   UNL     1      19.492  -2.299   6.903  1.00  0.00     0.293 HD
ENDBRANCH   7  25
TORSDOF 6
ENDMDL
MODEL 4
REMARK VINA RESULT:    -3.049      2.917      4.655
REMARK INTER + INTRA:          -4.022
REMARK INTER:                  -4.092
REMARK INTRA:                   0.071
REMARK UNBOUND:                -0.349
REMARK SMILES Oc1cc(O)c2c(c1)O[C@H](c1ccc(O)c(O)c1)[C@H](O)C2
REMARK SMILES IDX 21 1 19 2 10 3 9 4 7 5 8 6 2 7 3 8 4 9 6 10 20 11 11 13
REMARK SMILES IDX 18 14 12 15 16 16 13 17 14 18 17 19 15 21 5 23 1 25
REMARK H PARENT 20 12 17 20 15 22 5 24 1 26
REMARK Flexibility Score: inf
ROOT
ATOM      1  C   UNL     1      24.849   0.935  12.744  1.00  0.00     0.079 C 
ATOM      2  C   UNL     1      23.869   0.113  13.602  1.00  0.00     0.164 C 
ATOM      3  C   UNL     1      23.199  -0.960  12.724  1.00  0.00     0.232 C 
ATOM      4  O   UNL     1      22.542  -0.347  11.611  1.00  0.00    -0.482 OA
ATOM      5  C   UNL     1      23.084   0.757  10.943  1.00  0.00     0.131 A 
ATOM      6  C   UNL     1      22.491   1.200   9.757  1.00  0.00     0.093 A 
ATOM      7  C   UNL     1      23.019   2.302   9.073  1.00  0.00     0.122 A 
ATOM      8  C   UNL     1      24.143   2.960   9.579  1.00  0.00     0.092 A 
ATOM      9  C   UNL     1      24.744   2.529  10.771  1.00  0.00     0.126 A 
ATOM     10  C   UNL     1      24.203   1.434  11.471  1.00  0.00     0.039 A 
ENDROOT
BRANCH   2  11
ATOM     11  O   UNL     1      22.893   0.958  14.158  1.00  0.00    -0.389 OA
ATOM     12  H   UNL     1      22.327   1.274  13.406  1.00  0.00     0.211 HD
ENDBRANCH   2  11
BRANCH   3  13
ATOM     13  C   UNL     1      22.223  -1.796  13.520  1.00  0.00    -0.001 A 
ATOM     14  C   UNL     1      21.004  -1.238  13.941  1.00  0.00     0.057 A 
ATOM     15  C   UNL     1      22.488  -3.148  13.798  1.00  0.00     0.012 A 
ATOM     16  C   UNL     1      20.074  -2.007  14.649  1.00  0.00     0.157 A 
ATOM     17  C   UNL     1      21.562  -3.919  14.506  1.00  0.00     0.050 A 
ATOM     18  C   UNL     1      20.354  -3.354  14.936  1.00  0.00     0.157 A 
BRANCH  16  19
ATOM     19  O   UNL     1      18.877  -1.418  15.057  1.00  0.00    -0.504 OA
ATOM     20  H   UNL     1      18.083  -1.967  15.360  1.00  0.00     0.293 HD
ENDBRANCH  16  19
BRANCH  18  21
ATOM     21  O   UNL     1      19.433  -4.125  15.644  1.00  0.00    -0.504 OA
ATOM     22  H   UNL     1      19.332  -5.119  15.474  1.00  0.00     0.293 HD
ENDBRANCH  18  21
ENDBRANCH   3  13
BRANCH   9  23
ATOM     23  O   UNL     1      25.874   3.184  11.260  1.00  0.00    -0.507 OA
ATOM     24  H   UNL     1      26.320   3.932  10.740  1.00  0.00     0.293 HD
ENDBRANCH   9  23
BRANCH   7  25
ATOM     25  O   UNL     1      22.436   2.748   7.890  1.00  0.00    -0.508 OA
ATOM     26  H   UNL     1      22.643   3.663   7.509  1.00  0.00     0.293 HD
ENDBRANCH   7  25
TORSDOF 6
ENDMDL
MODEL 5
REMARK VINA RESULT:    -2.758      3.159      3.984
REMARK INTER + INTRA:          -3.671
REMARK INTER:                  -3.723
REMARK INTRA:                   0.053
REMARK UNBOUND:                -0.349
REMARK SMILES Oc1cc(O)c2c(c1)O[C@H](c1ccc(O)c(O)c1)[C@H](O)C2
REMARK SMILES IDX 21 1 19 2 10 3 9 4 7 5 8 6 2 7 3 8 4 9 6 10 20 11 11 13
REMARK SMILES IDX 18 14 12 15 16 16 13 17 14 18 17 19 15 21 5 23 1 25
REMARK H PARENT 20 12 17 20 15 22 5 24 1 26
REMARK Flexibility Score: inf
ROOT
ATOM      1  C   UNL     1      21.418   1.518  10.461  1.00  0.00     0.079 C 
ATOM      2  C   UNL     1      20.641   0.551  11.373  1.00  0.00     0.164 C 
ATOM      3  C   UNL     1      21.632  -0.198  12.284  1.00  0.00     0.232 C 
ATOM      4  O   UNL     1      22.605  -0.885  11.492  1.00  0.00    -0.482 OA
ATOM      5  C   UNL     1      23.131  -0.336  10.318  1.00  0.00     0.131 A 
ATOM      6  C   UNL     1      24.205  -0.968   9.685  1.00  0.00     0.093 A 
ATOM      7  C   UNL     1      24.746  -0.434   8.509  1.00  0.00     0.122 A 
ATOM      8  C   UNL     1      24.208   0.736   7.966  1.00  0.00     0.092 A 
ATOM      9  C   UNL     1      23.126   1.376   8.588  1.00  0.00     0.126 A 
ATOM     10  C   UNL     1      22.569   0.831   9.759  1.00  0.00     0.039 A 
ENDROOT
BRANCH   2  11
ATOM     11  O   UNL     1      19.916  -0.366  10.593  1.00  0.00    -0.389 OA
ATOM     12  H   UNL     1      20.579  -0.863  10.046  1.00  0.00     0.211 HD
ENDBRANCH   2  11
BRANCH   3  13
ATOM     13  C   UNL     1      20.918  -1.164  13.200  1.00  0.00    -0.001 A 
ATOM     14  C   UNL     1      21.653  -2.118  13.924  1.00  0.00     0.057 A 
ATOM     15  C   UNL     1      19.527  -1.086  13.390  1.00  0.00     0.012 A 
ATOM     16  C   UNL     1      21.013  -2.997  14.804  1.00  0.00     0.157 A 
ATOM     17  C   UNL     1      18.883  -1.964  14.268  1.00  0.00     0.050 A 
ATOM     18  C   UNL     1      19.620  -2.922  14.975  1.00  0.00     0.157 A 
BRANCH  16  19
ATOM     19  O   UNL     1      21.775  -3.935  15.500  1.00  0.00    -0.504 OA
ATOM     20  H   UNL     1      22.629  -4.323  15.120  1.00  0.00     0.293 HD
ENDBRANCH  16  19
BRANCH  18  21
ATOM     21  O   UNL     1      18.975  -3.797  15.849  1.00  0.00    -0.504 OA
ATOM     22  H   UNL     1      19.469  -4.560  16.297  1.00  0.00     0.293 HD
ENDBRANCH  18  21
ENDBRANCH   3  13
BRANCH   9  23
ATOM     23  O   UNL     1      22.606   2.552   8.045  1.00  0.00    -0.507 OA
ATOM     24  H   UNL     1      22.650   3.433   8.544  1.00  0.00     0.293 HD
ENDBRANCH   9  23
BRANCH   7  25
ATOM     25  O   UNL     1      25.818  -1.057   7.875  1.00  0.00    -0.508 OA
ATOM     26  H   UNL     1      25.910  -1.057   6.866  1.00  0.00     0.293 HD
ENDBRANCH   7  25
TORSDOF 6
ENDMDL
MODEL 6
REMARK VINA RESULT:    -2.256      1.567      2.971
REMARK INTER + INTRA:          -3.066
REMARK INTER:                  -2.969
REMARK INTRA:                  -0.098
REMARK UNBOUND:                -0.349
REMARK SMILES Oc1cc(O)c2c(c1)O[C@H](c1ccc(O)c(O)c1)[C@H](O)C2
REMARK SMILES IDX 21 1 19 2 10 3 9 4 7 5 8 6 2 7 3 8 4 9 6 10 20 11 11 13
REMARK SMILES IDX 18 14 12 15 16 16 13 17 14 18 17 19 15 21 5 23 1 25
REMARK H PARENT 20 12 17 20 15 22 5 24 1 26
REMARK Flexibility Score: inf
ROOT
ATOM      1  C   UNL     1      23.535  -3.082  10.686  1.00  0.00     0.079 C 
ATOM      2  C   UNL     1      23.966  -2.082  11.775  1.00  0.00     0.164 C 
ATOM      3  C   UNL     1      22.744  -1.709  12.636  1.00  0.00     0.232 C 
ATOM      4  O   UNL     1      21.703  -1.179  11.811  1.00  0.00    -0.482 OA
ATOM      5  C   UNL     1      21.434  -1.684  10.535  1.00  0.00     0.131 A 
ATOM      6  C   UNL     1      20.296  -1.250   9.850  1.00  0.00     0.093 A 
ATOM      7  C   UNL     1      20.009  -1.744   8.572  1.00  0.00     0.122 A 
ATOM      8  C   UNL     1      20.866  -2.676   7.979  1.00  0.00     0.092 A 
ATOM      9  C   UNL     1      22.015  -3.115   8.653  1.00  0.00     0.126 A 
ATOM     10  C   UNL     1      22.316  -2.604   9.929  1.00  0.00     0.039 A 
ENDROOT
BRANCH   2  11
ATOM     11  O   UNL     1      24.505  -0.929  11.179  1.00  0.00    -0.389 OA
ATOM     12  H   UNL     1      23.834  -0.205  11.298  1.00  0.00     0.211 HD
ENDBRANCH   2  11
BRANCH   3  13
ATOM     13  C   UNL     1      23.114  -0.725  13.722  1.00  0.00    -0.001 A 
ATOM     14  C   UNL     1      23.435  -1.189  15.008  1.00  0.00     0.057 A 
ATOM     15  C   UNL     1      23.201   0.652  13.450  1.00  0.00     0.012 A 
ATOM     16  C   UNL     1      23.813  -0.295  16.016  1.00  0.00     0.157 A 
ATOM     17  C   UNL     1      23.577   1.548  14.455  1.00  0.00     0.050 A 
ATOM     18  C   UNL     1      23.883   1.081  15.740  1.00  0.00     0.157 A 
BRANCH  16  19
ATOM     19  O   UNL     1      24.118  -0.792  17.283  1.00  0.00    -0.504 OA
ATOM     20  H   UNL     1      24.104  -0.206  18.109  1.00  0.00     0.293 HD
ENDBRANCH  16  19
BRANCH  18  21
ATOM     21  O   UNL     1      24.257   1.977  16.740  1.00  0.00    -0.504 OA
ATOM     22  H   UNL     1      24.588   2.909  16.520  1.00  0.00     0.293 HD
ENDBRANCH  18  21
ENDBRANCH   3  13
BRANCH   9  23
ATOM     23  O   UNL     1      22.856  -4.055   8.058  1.00  0.00    -0.507 OA
ATOM     24  H   UNL     1      22.520  -4.973   7.788  1.00  0.00     0.293 HD
ENDBRANCH   9  23
BRANCH   7  25
ATOM     25  O   UNL     1      18.875  -1.318   7.885  1.00  0.00    -0.508 OA
ATOM     26  H   UNL     1      17.943  -1.480   8.248  1.00  0.00     0.293 HD
ENDBRANCH   7  25
TORSDOF 6
ENDMDL
MODEL 7
REMARK VINA RESULT:    -1.989      3.575      5.555
REMARK INTER + INTRA:          -2.745
REMARK INTER:                  -2.806
REMARK INTRA:                   0.061
REMARK UNBOUND:                -0.349
REMARK SMILES Oc1cc(O)c2c(c1)O[C@H](c1ccc(O)c(O)c1)[C@H](O)C2
REMARK SMILES IDX 21 1 19 2 10 3 9 4 7 5 8 6 2 7 3 8 4 9 6 10 20 11 11 13
REMARK SMILES IDX 18 14 12 15 16 16 13 17 14 18 17 19 15 21 5 23 1 25
REMARK H PARENT 20 12 17 20 15 22 5 24 1 26
REMARK Flexibility Score: inf
ROOT
ATOM      1  C   UNL     1      21.694   0.702  11.037  1.00  0.00     0.079 C 
ATOM      2  C   UNL     1      22.954   0.031  10.459  1.00  0.00     0.164 C 
ATOM      3  C   UNL     1      22.594  -1.380   9.957  1.00  0.00     0.232 C 
ATOM      4  O   UNL     1      22.023  -2.150  11.018  1.00  0.00    -0.482 OA
ATOM      5  C   UNL     1      21.162  -1.588  11.966  1.00  0.00     0.131 A 
ATOM      6  C   UNL     1      20.496  -2.422  12.869  1.00  0.00     0.093 A 
ATOM      7  C   UNL     1      19.628  -1.878  13.824  1.00  0.00     0.122 A 
ATOM      8  C   UNL     1      19.429  -0.496  13.875  1.00  0.00     0.092 A 
ATOM      9  C   UNL     1      20.096   0.352  12.979  1.00  0.00     0.126 A 
ATOM     10  C   UNL     1      20.983  -0.190  12.030  1.00  0.00     0.039 A 
ENDROOT
BRANCH   2  11
ATOM     11  O   UNL     1      23.950  -0.049  11.447  1.00  0.00    -0.389 OA
ATOM     12  H   UNL     1      24.581   0.700  11.278  1.00  0.00     0.211 HD
ENDBRANCH   2  11
BRANCH   3  13
ATOM     13  C   UNL     1      23.800  -2.085   9.380  1.00  0.00    -0.001 A 
ATOM     14  C   UNL     1      24.952  -1.349   9.054  1.00  0.00     0.057 A 
ATOM     15  C   UNL     1      23.812  -3.481   9.218  1.00  0.00     0.012 A 
ATOM     16  C   UNL     1      26.090  -1.989   8.551  1.00  0.00     0.157 A 
ATOM     17  C   UNL     1      24.947  -4.124   8.715  1.00  0.00     0.050 A 
ATOM     18  C   UNL     1      26.088  -3.384   8.378  1.00  0.00     0.157 A 
BRANCH  16  19
ATOM     19  O   UNL     1      27.212  -1.225   8.232  1.00  0.00    -0.504 OA
ATOM     20  H   UNL     1      27.267  -0.236   8.440  1.00  0.00     0.293 HD
ENDBRANCH  16  19
BRANCH  18  21
ATOM     21  O   UNL     1      27.218  -4.028   7.875  1.00  0.00    -0.504 OA
ATOM     22  H   UNL     1      27.827  -3.580   7.201  1.00  0.00     0.293 HD
ENDBRANCH  18  21
ENDBRANCH   3  13
BRANCH   9  23
ATOM     23  O   UNL     1      19.879   1.729  13.029  1.00  0.00    -0.507 OA
ATOM     24  H   UNL     1      18.986   2.136  12.773  1.00  0.00     0.293 HD
ENDBRANCH   9  23
BRANCH   7  25
ATOM     25  O   UNL     1      18.959  -2.703  14.725  1.00  0.00    -0.508 OA
ATOM     26  H   UNL     1      18.655  -2.363  15.629  1.00  0.00     0.293 HD
ENDBRANCH   7  25
TORSDOF 6
ENDMDL
