MODEL 1
REMARK VINA RESULT:    -3.191      0.000      0.000
REMARK INTER + INTRA:          -6.186
REMARK INTER:                  -4.870
REMARK INTRA:                  -1.316
REMARK UNBOUND:                -1.316
REMARK SMILES CCCCCCCCCC=CC(=O)[O-]
REMARK SMILES IDX 7 1 8 2 9 3 10 4 11 5 12 6 13 7 14 8 6 9 5 10 4 11 3 12 2 13
REMARK SMILES IDX 1 14
REMARK H PARENT
REMARK Flexibility Score: inf
ROOT
ATOM      1  C   UNL     1      32.684  -3.360   1.217  1.00  0.00     0.000 C 
ENDROOT
BRANCH   1   2
ATOM      2  C   UNL     1      31.882  -4.213   0.218  1.00  0.00     0.004 C 
BRANCH   2   3
ATOM      3  C   UNL     1      30.366  -4.008   0.369  1.00  0.00     0.027 C 
BRANCH   3   4
ATOM      4  C   UNL     1      30.008  -3.296   1.647  1.00  0.00    -0.025 C 
ATOM      5  C   UNL     1      29.105  -2.311   1.779  1.00  0.00     0.020 C 
BRANCH   5   6
ATOM      6  C   UNL     1      28.242  -1.760   0.712  1.00  0.00     0.064 C 
ATOM      7  O   UNL     1      27.134  -2.309   0.482  1.00  0.00    -0.545 OA
ATOM      8  O   UNL     1      28.625  -0.674  -0.065  1.00  0.00    -0.545 OA
ENDBRANCH   5   6
ENDBRANCH   3   4
ENDBRANCH   2   3
ENDBRANCH   1   2
BRANCH   1   9
ATOM      9  C   UNL     1      33.920  -4.106   1.762  1.00  0.00     0.000 C 
BRANCH   9  10
ATOM     10  C   UNL     1      33.809  -4.477   3.251  1.00  0.00     0.000 C 
BRANCH  10  11
ATOM     11  C   UNL     1      33.689  -5.993   3.481  1.00  0.00    -0.000 C 
BRANCH  11  12
ATOM     12  C   UNL     1      32.362  -6.385   4.152  1.00  0.00    -0.000 C 
BRANCH  12  13
ATOM     13  C   UNL     1      31.181  -6.373   3.171  1.00  0.00    -0.003 C 
ATOM     14  C   UNL     1      31.393  -7.379   2.043  1.00  0.00     0.004 C 
ENDBRANCH  12  13
ENDBRANCH  11  12
ENDBRANCH  10  11
ENDBRANCH   9  10
ENDBRANCH   1   9
TORSDOF 9
ENDMDL
MODEL 2
REMARK VINA RESULT:    -3.159      2.603      3.810
REMARK INTER + INTRA:          -6.137
REMARK INTER:                  -4.462
REMARK INTRA:                  -1.675
REMARK UNBOUND:                -1.316
REMARK SMILES CCCCCCCCCC=CC(=O)[O-]
REMARK SMILES IDX 7 1 8 2 9 3 10 4 11 5 12 6 13 7 14 8 6 9 5 10 4 11 3 12 2 13
REMARK SMILES IDX 1 14
REMARK H PARENT
REMARK Flexibility Score: inf
ROOT
ATOM      1  C   UNL     1      31.888   0.005   0.627  1.00  0.00     0.000 C 
ENDROOT
BRANCH   1   2
ATOM      2  C   UNL     1      30.371  -0.259   0.607  1.00  0.00     0.004 C 
BRANCH   2   3
ATOM      3  C   UNL     1      29.748   0.055  -0.763  1.00  0.00     0.027 C 
BRANCH   3   4
ATOM      4  C   UNL     1      29.166  -1.168  -1.422  1.00  0.00    -0.025 C 
ATOM      5  C   UNL     1      27.907  -1.616  -1.288  1.00  0.00     0.020 C 
BRANCH   5   6
ATOM      6  C   UNL     1      26.823  -0.976  -0.513  1.00  0.00     0.064 C 
ATOM      7  O   UNL     1      26.102  -0.112  -1.074  1.00  0.00    -0.545 OA
ATOM      8  O   UNL     1      26.592  -1.275   0.824  1.00  0.00    -0.545 OA
ENDBRANCH   5   6
ENDBRANCH   3   4
ENDBRANCH   2   3
ENDBRANCH   1   2
BRANCH   1   9
ATOM      9  C   UNL     1      32.666  -0.994  -0.256  1.00  0.00     0.000 C 
BRANCH   9  10
ATOM     10  C   UNL     1      32.649  -2.435   0.283  1.00  0.00     0.000 C 
BRANCH  10  11
ATOM     11  C   UNL     1      32.040  -3.437  -0.711  1.00  0.00    -0.000 C 
BRANCH  11  12
ATOM     12  C   UNL     1      30.827  -4.181  -0.131  1.00  0.00    -0.000 C 
BRANCH  12  13
ATOM     13  C   UNL     1      30.635  -3.917   1.369  1.00  0.00    -0.003 C 
ATOM     14  C   UNL     1      29.177  -3.598   1.689  1.00  0.00     0.004 C 
ENDBRANCH  12  13
ENDBRANCH  11  12
ENDBRANCH  10  11
ENDBRANCH   9  10
ENDBRANCH   1   9
TORSDOF 9
ENDMDL
MODEL 3
REMARK VINA RESULT:    -3.135      3.611      5.059
REMARK INTER + INTRA:          -6.100
REMARK INTER:                  -4.421
REMARK INTRA:                  -1.679
REMARK UNBOUND:                -1.316
REMARK SMILES CCCCCCCCCC=CC(=O)[O-]
REMARK SMILES IDX 7 1 8 2 9 3 10 4 11 5 12 6 13 7 14 8 6 9 5 10 4 11 3 12 2 13
REMARK SMILES IDX 1 14
REMARK H PARENT
REMARK Flexibility Score: inf
ROOT
ATOM      1  C   UNL     1      30.942   0.377   0.433  1.00  0.00     0.000 C 
ENDROOT
BRANCH   1   2
ATOM      2  C   UNL     1      30.676   0.679  -1.053  1.00  0.00     0.004 C 
BRANCH   2   3
ATOM      3  C   UNL     1      29.203   1.031  -1.317  1.00  0.00     0.027 C 
BRANCH   3   4
ATOM      4  C   UNL     1      28.374   1.013  -0.059  1.00  0.00    -0.025 C 
ATOM      5  C   UNL     1      27.045   1.189   0.016  1.00  0.00     0.020 C 
BRANCH   5   6
ATOM      6  C   UNL     1      26.118   1.384  -1.119  1.00  0.00     0.064 C 
ATOM      7  O   UNL     1      25.656   0.373  -1.708  1.00  0.00    -0.545 OA
ATOM      8  O   UNL     1      25.762   2.646  -1.577  1.00  0.00    -0.545 OA
ENDBRANCH   5   6
ENDBRANCH   3   4
ENDBRANCH   2   3
ENDBRANCH   1   2
BRANCH   1   9
ATOM      9  C   UNL     1      31.896  -0.821   0.624  1.00  0.00     0.000 C 
BRANCH   9  10
ATOM     10  C   UNL     1      31.170  -2.146   0.918  1.00  0.00     0.000 C 
BRANCH  10  11
ATOM     11  C   UNL     1      29.837  -1.945   1.658  1.00  0.00    -0.000 C 
BRANCH  11  12
ATOM     12  C   UNL     1      28.653  -2.599   0.929  1.00  0.00    -0.000 C 
BRANCH  12  13
ATOM     13  C   UNL     1      28.967  -2.914  -0.541  1.00  0.00    -0.003 C 
ATOM     14  C   UNL     1      27.838  -2.446  -1.456  1.00  0.00     0.004 C 
ENDBRANCH  12  13
ENDBRANCH  11  12
ENDBRANCH  10  11
ENDBRANCH   9  10
ENDBRANCH   1   9
TORSDOF 9
ENDMDL
MODEL 4
REMARK VINA RESULT:    -3.131      2.928      6.108
REMARK INTER + INTRA:          -6.094
REMARK INTER:                  -4.550
REMARK INTRA:                  -1.544
REMARK UNBOUND:                -1.316
REMARK SMILES CCCCCCCCCC=CC(=O)[O-]
REMARK SMILES IDX 7 1 8 2 9 3 10 4 11 5 12 6 13 7 14 8 6 9 5 10 4 11 3 12 2 13
REMARK SMILES IDX 1 14
REMARK H PARENT
REMARK Flexibility Score: inf
ROOT
ATOM      1  C   UNL     1      27.634  -1.754  -1.058  1.00  0.00     0.000 C 
ENDROOT
BRANCH   1   2
ATOM      2  C   UNL     1      27.425  -2.099   0.427  1.00  0.00     0.004 C 
BRANCH   2   3
ATOM      3  C   UNL     1      28.651  -2.797   1.037  1.00  0.00     0.027 C 
BRANCH   3   4
ATOM      4  C   UNL     1      29.539  -3.416  -0.011  1.00  0.00    -0.025 C 
ATOM      5  C   UNL     1      30.613  -4.190   0.218  1.00  0.00     0.020 C 
BRANCH   5   6
ATOM      6  C   UNL     1      31.112  -4.634   1.536  1.00  0.00     0.064 C 
ATOM      7  O   UNL     1      32.105  -4.048   2.039  1.00  0.00    -0.545 OA
ATOM      8  O   UNL     1      30.543  -5.698   2.225  1.00  0.00    -0.545 OA
ENDBRANCH   5   6
ENDBRANCH   3   4
ENDBRANCH   2   3
ENDBRANCH   1   2
BRANCH   1   9
ATOM      9  C   UNL     1      27.496  -0.242  -1.332  1.00  0.00     0.000 C 
BRANCH   9  10
ATOM     10  C   UNL     1      28.265   0.637  -0.330  1.00  0.00     0.000 C 
BRANCH  10  11
ATOM     11  C   UNL     1      29.784   0.625  -0.568  1.00  0.00    -0.000 C 
BRANCH  11  12
ATOM     12  C   UNL     1      30.583   0.411   0.728  1.00  0.00    -0.000 C 
BRANCH  12  13
ATOM     13  C   UNL     1      31.789  -0.518   0.529  1.00  0.00    -0.003 C 
ATOM     14  C   UNL     1      32.072  -0.742  -0.954  1.00  0.00     0.004 C 
ENDBRANCH  12  13
ENDBRANCH  11  12
ENDBRANCH  10  11
ENDBRANCH   9  10
ENDBRANCH   1   9
TORSDOF 9
ENDMDL
MODEL 5
REMARK VINA RESULT:    -3.128      3.023      6.114
REMARK INTER + INTRA:          -6.089
REMARK INTER:                  -4.730
REMARK INTRA:                  -1.359
REMARK UNBOUND:                -1.316
REMARK SMILES CCCCCCCCCC=CC(=O)[O-]
REMARK SMILES IDX 7 1 8 2 9 3 10 4 11 5 12 6 13 7 14 8 6 9 5 10 4 11 3 12 2 13
REMARK SMILES IDX 1 14
REMARK H PARENT
REMARK Flexibility Score: inf
ROOT
ATOM      1  C   UNL     1      30.729  -1.447   0.743  1.00  0.00     0.000 C 
ENDROOT
BRANCH   1   2
ATOM      2  C   UNL     1      29.774  -2.112   1.750  1.00  0.00     0.004 C 
BRANCH   2   3
ATOM      3  C   UNL     1      29.314  -3.502   1.280  1.00  0.00     0.027 C 
BRANCH   3   4
ATOM      4  C   UNL     1      30.249  -4.100   0.261  1.00  0.00    -0.025 C 
ATOM      5  C   UNL     1      31.177  -5.042   0.495  1.00  0.00     0.020 C 
BRANCH   5   6
ATOM      6  C   UNL     1      31.438  -5.720   1.783  1.00  0.00     0.064 C 
ATOM      7  O   UNL     1      32.447  -5.382   2.454  1.00  0.00    -0.545 OA
ATOM      8  O   UNL     1      30.625  -6.738   2.263  1.00  0.00    -0.545 OA
ENDBRANCH   5   6
ENDBRANCH   3   4
ENDBRANCH   2   3
ENDBRANCH   1   2
BRANCH   1   9
ATOM      9  C   UNL     1      30.486   0.073   0.625  1.00  0.00     0.000 C 
BRANCH   9  10
ATOM     10  C   UNL     1      29.460   0.450  -0.458  1.00  0.00     0.000 C 
BRANCH  10  11
ATOM     11  C   UNL     1      29.236  -0.672  -1.485  1.00  0.00    -0.000 C 
BRANCH  11  12
ATOM     12  C   UNL     1      27.799  -1.215  -1.462  1.00  0.00    -0.000 C 
BRANCH  12  13
ATOM     13  C   UNL     1      26.881  -0.413  -0.529  1.00  0.00    -0.003 C 
ATOM     14  C   UNL     1      26.379  -1.278   0.624  1.00  0.00     0.004 C 
ENDBRANCH  12  13
ENDBRANCH  11  12
ENDBRANCH  10  11
ENDBRANCH   9  10
ENDBRANCH   1   9
TORSDOF 9
ENDMDL
MODEL 6
REMARK VINA RESULT:    -3.099      3.058      4.572
REMARK INTER + INTRA:          -6.045
REMARK INTER:                  -4.354
REMARK INTRA:                  -1.691
REMARK UNBOUND:                -1.316
REMARK SMILES CCCCCCCCCC=CC(=O)[O-]
REMARK SMILES IDX 7 1 8 2 9 3 10 4 11 5 12 6 13 7 14 8 6 9 5 10 4 11 3 12 2 13
REMARK SMILES IDX 1 14
REMARK H PARENT
REMARK Flexibility Score: inf
ROOT
ATOM      1  C   UNL     1      31.367  -1.820   0.997  1.00  0.00     0.000 C 
ENDROOT
BRANCH   1   2
ATOM      2  C   UNL     1      31.140  -0.548   0.160  1.00  0.00     0.004 C 
BRANCH   2   3
ATOM      3  C   UNL     1      29.705  -0.014   0.297  1.00  0.00     0.027 C 
BRANCH   3   4
ATOM      4  C   UNL     1      28.935  -0.098  -0.995  1.00  0.00    -0.025 C 
ATOM      5  C   UNL     1      27.684  -0.562  -1.143  1.00  0.00     0.020 C 
BRANCH   5   6
ATOM      6  C   UNL     1      26.789  -1.037  -0.066  1.00  0.00     0.064 C 
ATOM      7  O   UNL     1      26.674  -2.274   0.128  1.00  0.00    -0.545 OA
ATOM      8  O   UNL     1      26.046  -0.165   0.719  1.00  0.00    -0.545 OA
ENDBRANCH   5   6
ENDBRANCH   3   4
ENDBRANCH   2   3
ENDBRANCH   1   2
BRANCH   1   9
ATOM      9  C   UNL     1      30.070  -2.314   1.673  1.00  0.00     0.000 C 
BRANCH   9  10
ATOM     10  C   UNL     1      29.584  -3.677   1.150  1.00  0.00     0.000 C 
BRANCH  10  11
ATOM     11  C   UNL     1      30.323  -4.127  -0.121  1.00  0.00    -0.000 C 
BRANCH  11  12
ATOM     12  C   UNL     1      29.547  -3.791  -1.404  1.00  0.00    -0.000 C 
BRANCH  12  13
ATOM     13  C   UNL     1      30.436  -3.152  -2.480  1.00  0.00    -0.003 C 
ATOM     14  C   UNL     1      29.607  -2.694  -3.678  1.00  0.00     0.004 C 
ENDBRANCH  12  13
ENDBRANCH  11  12
ENDBRANCH  10  11
ENDBRANCH   9  10
ENDBRANCH   1   9
TORSDOF 9
ENDMDL
MODEL 7
REMARK VINA RESULT:    -3.067      2.620      4.798
REMARK INTER + INTRA:          -5.996
REMARK INTER:                  -4.544
REMARK INTRA:                  -1.453
REMARK UNBOUND:                -1.316
REMARK SMILES CCCCCCCCCC=CC(=O)[O-]
REMARK SMILES IDX 7 1 8 2 9 3 10 4 11 5 12 6 13 7 14 8 6 9 5 10 4 11 3 12 2 13
REMARK SMILES IDX 1 14
REMARK H PARENT
REMARK Flexibility Score: inf
ROOT
ATOM      1  C   UNL     1      30.546  -3.284   1.675  1.00  0.00     0.000 C 
ENDROOT
BRANCH   1   2
ATOM      2  C   UNL     1      29.650  -3.425   0.431  1.00  0.00     0.004 C 
BRANCH   2   3
ATOM      3  C   UNL     1      28.345  -2.622   0.564  1.00  0.00     0.027 C 
BRANCH   3   4
ATOM      4  C   UNL     1      27.847  -2.114  -0.763  1.00  0.00    -0.025 C 
ATOM      5  C   UNL     1      27.008  -1.081  -0.951  1.00  0.00     0.020 C 
BRANCH   5   6
ATOM      6  C   UNL     1      26.446  -0.202   0.096  1.00  0.00     0.064 C 
ATOM      7  O   UNL     1      26.922   0.953   0.240  1.00  0.00    -0.545 OA
ATOM      8  O   UNL     1      25.430  -0.619   0.946  1.00  0.00    -0.545 OA
ENDBRANCH   5   6
ENDBRANCH   3   4
ENDBRANCH   2   3
ENDBRANCH   1   2
BRANCH   1   9
ATOM      9  C   UNL     1      32.037  -3.136   1.307  1.00  0.00     0.000 C 
BRANCH   9  10
ATOM     10  C   UNL     1      32.270  -2.551  -0.097  1.00  0.00     0.000 C 
BRANCH  10  11
ATOM     11  C   UNL     1      32.608  -1.052  -0.071  1.00  0.00    -0.000 C 
BRANCH  11  12
ATOM     12  C   UNL     1      31.974  -0.283  -1.241  1.00  0.00    -0.000 C 
BRANCH  12  13
ATOM     13  C   UNL     1      30.601   0.303  -0.886  1.00  0.00    -0.003 C 
ATOM     14  C   UNL     1      30.451   0.477   0.623  1.00  0.00     0.004 C 
ENDBRANCH  12  13
ENDBRANCH  11  12
ENDBRANCH  10  11
ENDBRANCH   9  10
ENDBRANCH   1   9
TORSDOF 9
ENDMDL
MODEL 8
REMARK VINA RESULT:    -3.066      4.577      6.582
REMARK INTER + INTRA:          -5.996
REMARK INTER:                  -4.529
REMARK INTRA:                  -1.467
REMARK UNBOUND:                -1.316
REMARK SMILES CCCCCCCCCC=CC(=O)[O-]
REMARK SMILES IDX 7 1 8 2 9 3 10 4 11 5 12 6 13 7 14 8 6 9 5 10 4 11 3 12 2 13
REMARK SMILES IDX 1 14
REMARK H PARENT
REMARK Flexibility Score: inf
ROOT
ATOM      1  C   UNL     1      27.215  -1.926  -0.376  1.00  0.00     0.000 C 
ENDROOT
BRANCH   1   2
ATOM      2  C   UNL     1      26.681  -0.814   0.546  1.00  0.00     0.004 C 
BRANCH   2   3
ATOM      3  C   UNL     1      26.283   0.446  -0.238  1.00  0.00     0.027 C 
BRANCH   3   4
ATOM      4  C   UNL     1      26.484   0.285  -1.722  1.00  0.00    -0.025 C 
ATOM      5  C   UNL     1      25.636   0.686  -2.684  1.00  0.00     0.020 C 
BRANCH   5   6
ATOM      6  C   UNL     1      24.362   1.410  -2.488  1.00  0.00     0.064 C 
ATOM      7  O   UNL     1      24.387   2.662  -2.367  1.00  0.00    -0.545 OA
ATOM      8  O   UNL     1      23.141   0.754  -2.404  1.00  0.00    -0.545 OA
ENDBRANCH   5   6
ENDBRANCH   3   4
ENDBRANCH   2   3
ENDBRANCH   1   2
BRANCH   1   9
ATOM      9  C   UNL     1      28.444  -2.641   0.223  1.00  0.00     0.000 C 
BRANCH   9  10
ATOM     10  C   UNL     1      29.170  -1.819   1.302  1.00  0.00     0.000 C 
BRANCH  10  11
ATOM     11  C   UNL     1      30.452  -1.149   0.780  1.00  0.00    -0.000 C 
BRANCH  11  12
ATOM     12  C   UNL     1      30.301   0.373   0.623  1.00  0.00    -0.000 C 
BRANCH  12  13
ATOM     13  C   UNL     1      29.986   0.788  -0.821  1.00  0.00    -0.003 C 
ATOM     14  C   UNL     1      30.485  -0.258  -1.814  1.00  0.00     0.004 C 
ENDBRANCH  12  13
ENDBRANCH  11  12
ENDBRANCH  10  11
ENDBRANCH   9  10
ENDBRANCH   1   9
TORSDOF 9
ENDMDL
MODEL 9
REMARK VINA RESULT:    -3.030      3.063      6.551
REMARK INTER + INTRA:          -5.941
REMARK INTER:                  -4.498
REMARK INTRA:                  -1.443
REMARK UNBOUND:                -1.316
REMARK SMILES CCCCCCCCCC=CC(=O)[O-]
REMARK SMILES IDX 7 1 8 2 9 3 10 4 11 5 12 6 13 7 14 8 6 9 5 10 4 11 3 12 2 13
REMARK SMILES IDX 1 14
REMARK H PARENT
REMARK Flexibility Score: inf
ROOT
ATOM      1  C   UNL     1      26.733  -0.577  -0.546  1.00  0.00     0.000 C 
ENDROOT
BRANCH   1   2
ATOM      2  C   UNL     1      26.849  -1.581   0.615  1.00  0.00     0.004 C 
BRANCH   2   3
ATOM      3  C   UNL     1      28.312  -1.904   0.957  1.00  0.00     0.027 C 
BRANCH   3   4
ATOM      4  C   UNL     1      28.969  -2.767  -0.089  1.00  0.00    -0.025 C 
ATOM      5  C   UNL     1      29.930  -3.679   0.127  1.00  0.00     0.020 C 
BRANCH   5   6
ATOM      6  C   UNL     1      30.504  -4.060   1.435  1.00  0.00     0.064 C 
ATOM      7  O   UNL     1      29.868  -4.860   2.168  1.00  0.00    -0.545 OA
ATOM      8  O   UNL     1      31.708  -3.542   1.896  1.00  0.00    -0.545 OA
ENDBRANCH   5   6
ENDBRANCH   3   4
ENDBRANCH   2   3
ENDBRANCH   1   2
BRANCH   1   9
ATOM      9  C   UNL     1      27.039   0.868  -0.101  1.00  0.00     0.000 C 
BRANCH   9  10
ATOM     10  C   UNL     1      28.079   1.578  -0.985  1.00  0.00     0.000 C 
BRANCH  10  11
ATOM     11  C   UNL     1      29.037   0.599  -1.683  1.00  0.00    -0.000 C 
BRANCH  11  12
ATOM     12  C   UNL     1      30.506   0.835  -1.299  1.00  0.00    -0.000 C 
BRANCH  12  13
ATOM     13  C   UNL     1      30.726   0.827   0.221  1.00  0.00    -0.003 C 
ATOM     14  C   UNL     1      31.757  -0.225   0.622  1.00  0.00     0.004 C 
ENDBRANCH  12  13
ENDBRANCH  11  12
ENDBRANCH  10  11
ENDBRANCH   9  10
ENDBRANCH   1   9
TORSDOF 9
ENDMDL
