MODEL 1
REMARK VINA RESULT:    -2.144      0.000      0.000
REMARK INTER + INTRA:          -3.050
REMARK INTER:                  -2.896
REMARK INTRA:                  -0.154
REMARK UNBOUND:                -0.154
REMARK SMILES CCCCCCCC(=O)[O-]
REMARK SMILES IDX 5 1 6 2 7 3 8 4 9 5 10 6 4 7 3 8 2 9 1 10
REMARK H PARENT
REMARK Flexibility Score: inf
ROOT
ATOM      1  C   UNL     1     -19.789  29.214  -4.712  1.00  0.00     0.000 C 
ENDROOT
BRANCH   1   2
ATOM      2  C   UNL     1     -21.045  28.420  -5.103  1.00  0.00     0.006 C 
BRANCH   2   3
ATOM      3  C   UNL     1     -20.786  27.462  -6.273  1.00  0.00     0.053 C 
BRANCH   3   4
ATOM      4  C   UNL     1     -20.978  26.031  -5.873  1.00  0.00     0.041 C 
ATOM      5  O   UNL     1     -21.114  25.725  -4.660  1.00  0.00    -0.550 OA
ATOM      6  O   UNL     1     -20.972  25.032  -6.838  1.00  0.00    -0.550 OA
ENDBRANCH   3   4
ENDBRANCH   2   3
ENDBRANCH   1   2
BRANCH   1   7
ATOM      7  C   UNL     1     -19.436  28.992  -3.236  1.00  0.00     0.000 C 
BRANCH   7   8
ATOM      8  C   UNL     1     -19.363  27.496  -2.906  1.00  0.00    -0.000 C 
BRANCH   8   9
ATOM      9  C   UNL     1     -17.910  27.008  -2.887  1.00  0.00    -0.003 C 
ATOM     10  C   UNL     1     -17.841  25.484  -2.876  1.00  0.00     0.004 C 
ENDBRANCH   8   9
ENDBRANCH   7   8
ENDBRANCH   1   7
TORSDOF 6
ENDMDL
MODEL 2
REMARK VINA RESULT:    -1.060     13.737     15.190
REMARK INTER + INTRA:          -1.586
REMARK INTER:                  -1.714
REMARK INTRA:                   0.128
REMARK UNBOUND:                -0.154
REMARK SMILES CCCCCCCC(=O)[O-]
REMARK SMILES IDX 5 1 6 2 7 3 8 4 9 5 10 6 4 7 3 8 2 9 1 10
REMARK H PARENT
REMARK Flexibility Score: inf
ROOT
ATOM      1  C   UNL     1     -19.398  40.621  -2.888  1.00  0.00     0.000 C 
ENDROOT
BRANCH   1   2
ATOM      2  C   UNL     1     -18.884  42.068  -2.912  1.00  0.00     0.006 C 
BRANCH   2   3
ATOM      3  C   UNL     1     -19.675  42.950  -3.886  1.00  0.00     0.053 C 
BRANCH   3   4
ATOM      4  C   UNL     1     -19.793  44.359  -3.391  1.00  0.00     0.041 C 
ATOM      5  O   UNL     1     -20.927  44.887  -3.249  1.00  0.00    -0.550 OA
ATOM      6  O   UNL     1     -18.650  45.100  -3.118  1.00  0.00    -0.550 OA
ENDBRANCH   3   4
ENDBRANCH   2   3
ENDBRANCH   1   2
BRANCH   1   7
ATOM      7  C   UNL     1     -20.891  40.563  -3.234  1.00  0.00     0.000 C 
BRANCH   7   8
ATOM      8  C   UNL     1     -21.114  39.904  -4.600  1.00  0.00    -0.000 C 
BRANCH   8   9
ATOM      9  C   UNL     1     -20.429  38.534  -4.668  1.00  0.00    -0.003 C 
ATOM     10  C   UNL     1     -20.660  37.738  -3.387  1.00  0.00     0.004 C 
ENDBRANCH   8   9
ENDBRANCH   7   8
ENDBRANCH   1   7
TORSDOF 6
ENDMDL
MODEL 3
REMARK VINA RESULT:    -0.537      1.343      3.014
REMARK INTER + INTRA:          -0.880
REMARK INTER:                  -0.989
REMARK INTRA:                   0.109
REMARK UNBOUND:                -0.154
REMARK SMILES CCCCCCCC(=O)[O-]
REMARK SMILES IDX 5 1 6 2 7 3 8 4 9 5 10 6 4 7 3 8 2 9 1 10
REMARK H PARENT
REMARK Flexibility Score: inf
ROOT
ATOM      1  C   UNL     1     -18.601  27.359  -2.917  1.00  0.00     0.000 C 
ENDROOT
BRANCH   1   2
ATOM      2  C   UNL     1     -18.718  26.133  -3.835  1.00  0.00     0.006 C 
BRANCH   2   3
ATOM      3  C   UNL     1     -20.178  25.743  -4.099  1.00  0.00     0.053 C 
BRANCH   3   4
ATOM      4  C   UNL     1     -20.576  26.008  -5.519  1.00  0.00     0.041 C 
ATOM      5  O   UNL     1     -21.124  25.104  -6.202  1.00  0.00    -0.550 OA
ATOM      6  O   UNL     1     -20.311  27.243  -6.098  1.00  0.00    -0.550 OA
ENDBRANCH   3   4
ENDBRANCH   2   3
ENDBRANCH   1   2
BRANCH   1   7
ATOM      7  C   UNL     1     -18.619  28.659  -3.731  1.00  0.00     0.000 C 
BRANCH   7   8
ATOM      8  C   UNL     1     -19.363  29.769  -2.980  1.00  0.00    -0.000 C 
BRANCH   8   9
ATOM      9  C   UNL     1     -20.866  29.723  -3.280  1.00  0.00    -0.003 C 
ATOM     10  C   UNL     1     -21.124  29.568  -4.776  1.00  0.00     0.004 C 
ENDBRANCH   8   9
ENDBRANCH   7   8
ENDBRANCH   1   7
TORSDOF 6
ENDMDL
MODEL 4
REMARK VINA RESULT:    -0.525     13.040     14.569
REMARK INTER + INTRA:          -0.864
REMARK INTER:                  -0.866
REMARK INTRA:                   0.002
REMARK UNBOUND:                -0.154
REMARK SMILES CCCCCCCC(=O)[O-]
REMARK SMILES IDX 5 1 6 2 7 3 8 4 9 5 10 6 4 7 3 8 2 9 1 10
REMARK H PARENT
REMARK Flexibility Score: inf
ROOT
ATOM      1  C   UNL     1     -20.525  42.037  -4.515  1.00  0.00     0.000 C 
ENDROOT
BRANCH   1   2
ATOM      2  C   UNL     1     -20.952  40.567  -4.634  1.00  0.00     0.006 C 
BRANCH   2   3
ATOM      3  C   UNL     1     -21.112  39.895  -3.264  1.00  0.00     0.053 C 
BRANCH   3   4
ATOM      4  C   UNL     1     -20.317  38.630  -3.169  1.00  0.00     0.041 C 
ATOM      5  O   UNL     1     -20.898  37.513  -3.190  1.00  0.00    -0.550 OA
ATOM      6  O   UNL     1     -18.936  38.684  -3.023  1.00  0.00    -0.550 OA
ENDBRANCH   3   4
ENDBRANCH   2   3
ENDBRANCH   1   2
BRANCH   1   7
ATOM      7  C   UNL     1     -20.726  42.554  -3.085  1.00  0.00     0.000 C 
BRANCH   7   8
ATOM      8  C   UNL     1     -21.059  44.050  -3.082  1.00  0.00    -0.000 C 
BRANCH   8   9
ATOM      9  C   UNL     1     -19.806  44.893  -3.344  1.00  0.00    -0.003 C 
ATOM     10  C   UNL     1     -18.536  44.096  -3.058  1.00  0.00     0.004 C 
ENDBRANCH   8   9
ENDBRANCH   7   8
ENDBRANCH   1   7
TORSDOF 6
ENDMDL
