MODEL 1
REMARK VINA RESULT:    -5.689      0.000      0.000
REMARK INTER + INTRA:          -8.805
REMARK INTER:                  -8.350
REMARK INTRA:                  -0.455
REMARK UNBOUND:                -0.455
REMARK SMILES C=C1C=C[C@H](C(C)C)CCC(C)=CCC1
REMARK SMILES IDX 3 1 4 2 5 3 9 4 10 5 11 6 12 7 13 8 6 10 7 11 8 12 2 13 1 14
REMARK SMILES IDX 15 15 14 16
REMARK H PARENT
REMARK Flexibility Score: 70.00
ROOT
ATOM      1  C   UNL     1      -4.250 -17.598   8.443  1.00  0.00    -0.001 C 
ATOM      2  C   UNL     1      -3.583 -16.846   7.557  1.00  0.00    -0.023 C 
ENDROOT
BRANCH   2   3
ATOM      3  C   UNL     1      -3.379 -15.348   7.651  1.00  0.00     0.014 C 
BRANCH   3   4
ATOM      4  C   UNL     1      -1.869 -15.014   7.580  1.00  0.00     0.012 C 
BRANCH   4   5
ATOM      5  C   UNL     1      -1.131 -15.236   8.913  1.00  0.00     0.031 C 
BRANCH   5   6
ATOM      6  C   UNL     1      -1.869 -14.625  10.093  1.00  0.00    -0.077 C 
ATOM      7  C   UNL     1      -1.930 -13.122  10.186  1.00  0.00     0.039 C 
ATOM      8  C   UNL     1      -2.496 -15.343  11.056  1.00  0.00    -0.028 CG0
ATOM      9  G   UNL     1      -2.636 -16.848  11.112  1.00  0.00     0.000 G0
ENDBRANCH   5   6
ENDBRANCH   4   5
ENDBRANCH   3   4
BRANCH   3  10
ATOM     10  C   UNL     1      -4.231 -14.623   6.564  1.00  0.00    -0.010 C 
ATOM     11  C   UNL     1      -5.111 -15.605   5.775  1.00  0.00     0.008 C 
ATOM     12  C   UNL     1      -5.087 -13.470   7.115  1.00  0.00     0.008 C 
ENDBRANCH   3  10
ENDBRANCH   2   3
BRANCH   1  13
ATOM     13  C   UNL     1      -4.822 -17.124   9.726  1.00  0.00    -0.055 C 
ATOM     14  C   UNL     1      -6.026 -16.546   9.693  1.00  0.00     0.012 C 
BRANCH  13  15
ATOM     15  C   UNL     1      -4.129 -17.289  11.070  1.00  0.00     0.039 C 
BRANCH  15  16
ATOM     16  C   UNL     1      -2.644 -16.855  11.106  1.00  0.00     0.032 CG0
ATOM     17  G   UNL     1      -2.514 -15.349  11.052  1.00  0.00     0.000 G0
ENDBRANCH  15  16
ENDBRANCH  13  15
ENDBRANCH   1  13
TORSDOF 1
ENDMDL
MODEL 2
REMARK VINA RESULT:    -5.332      1.655      4.213
REMARK INTER + INTRA:          -8.281
REMARK INTER:                  -8.099
REMARK INTRA:                  -0.182
REMARK UNBOUND:                -0.455
REMARK SMILES C=C1C=C[C@H](C(C)C)CCC(C)=CCC1
REMARK SMILES IDX 3 1 4 2 5 3 9 4 10 5 11 6 12 7 13 8 6 10 7 11 8 12 2 13 1 14
REMARK SMILES IDX 15 15 14 16
REMARK H PARENT
REMARK Flexibility Score: 70.00
ROOT
ATOM      1  C   UNL     1      -2.440 -15.011   7.316  1.00  0.00    -0.001 C 
ATOM      2  C   UNL     1      -1.809 -15.395   8.435  1.00  0.00    -0.023 C 
ENDROOT
BRANCH   2   3
ATOM      3  C   UNL     1      -2.441 -15.503   9.808  1.00  0.00     0.014 C 
BRANCH   3   4
ATOM      4  C   UNL     1      -2.300 -16.949  10.344  1.00  0.00     0.012 C 
BRANCH   4   5
ATOM      5  C   UNL     1      -3.542 -17.820  10.083  1.00  0.00     0.031 C 
BRANCH   5   6
ATOM      6  C   UNL     1      -4.825 -17.007  10.052  1.00  0.00    -0.077 C 
ATOM      7  C   UNL     1      -5.374 -16.505  11.363  1.00  0.00     0.039 C 
ATOM      8  C   UNL     1      -5.497 -16.684   8.921  1.00  0.00    -0.028 CG0
ATOM      9  G   UNL     1      -5.082 -17.004   7.503  1.00  0.00     0.000 G0
ENDBRANCH   5   6
ENDBRANCH   4   5
ENDBRANCH   3   4
BRANCH   3  10
ATOM     10  C   UNL     1      -1.840 -14.423  10.759  1.00  0.00    -0.010 C 
ATOM     11  C   UNL     1      -2.001 -13.004  10.191  1.00  0.00     0.008 C 
ATOM     12  C   UNL     1      -2.391 -14.484  12.194  1.00  0.00     0.008 C 
ENDBRANCH   3  10
ENDBRANCH   2   3
BRANCH   1  13
ATOM     13  C   UNL     1      -3.888 -14.721   7.194  1.00  0.00    -0.055 C 
ATOM     14  C   UNL     1      -4.309 -13.503   7.548  1.00  0.00     0.012 C 
BRANCH  13  15
ATOM     15  C   UNL     1      -4.906 -15.717   6.659  1.00  0.00     0.039 C 
BRANCH  15  16
ATOM     16  C   UNL     1      -5.077 -17.004   7.503  1.00  0.00     0.032 CG0
ATOM     17  G   UNL     1      -5.502 -16.676   8.917  1.00  0.00     0.000 G0
ENDBRANCH  15  16
ENDBRANCH  13  15
ENDBRANCH   1  13
TORSDOF 1
ENDMDL
MODEL 3
REMARK VINA RESULT:    -4.992      1.783      4.281
REMARK INTER + INTRA:          -7.781
REMARK INTER:                  -7.658
REMARK INTRA:                  -0.124
REMARK UNBOUND:                -0.455
REMARK SMILES C=C1C=C[C@H](C(C)C)CCC(C)=CCC1
REMARK SMILES IDX 3 1 4 2 5 3 9 4 10 5 11 6 12 7 13 8 6 10 7 11 8 12 2 13 1 14
REMARK SMILES IDX 15 15 14 16
REMARK H PARENT
REMARK Flexibility Score: 70.00
ROOT
ATOM      1  C   UNL     1      -4.983 -16.464  10.467  1.00  0.00    -0.001 C 
ATOM      2  C   UNL     1      -4.167 -15.755  11.260  1.00  0.00    -0.023 C 
ENDROOT
BRANCH   2   3
ATOM      3  C   UNL     1      -2.664 -15.648  11.106  1.00  0.00     0.014 C 
BRANCH   3   4
ATOM      4  C   UNL     1      -2.269 -14.187  10.779  1.00  0.00     0.012 C 
BRANCH   4   5
ATOM      5  C   UNL     1      -2.472 -13.816   9.298  1.00  0.00     0.031 C 
BRANCH   5   6
ATOM      6  C   UNL     1      -1.961 -14.893   8.355  1.00  0.00    -0.077 C 
ATOM      7  C   UNL     1      -0.495 -15.241   8.410  1.00  0.00     0.039 C 
ATOM      8  C   UNL     1      -2.740 -15.578   7.484  1.00  0.00    -0.028 CG0
ATOM      9  G   UNL     1      -4.239 -15.456   7.326  1.00  0.00     0.000 G0
ENDBRANCH   5   6
ENDBRANCH   4   5
ENDBRANCH   3   4
BRANCH   3  10
ATOM     10  C   UNL     1      -1.955 -16.218  12.372  1.00  0.00    -0.010 C 
ATOM     11  C   UNL     1      -2.474 -15.567  13.664  1.00  0.00     0.008 C 
ATOM     12  C   UNL     1      -2.027 -17.751  12.486  1.00  0.00     0.008 C 
ENDBRANCH   3  10
ENDBRANCH   2   3
BRANCH   1  13
ATOM     13  C   UNL     1      -4.581 -17.188   9.238  1.00  0.00    -0.055 C 
ATOM     14  C   UNL     1      -3.874 -18.313   9.382  1.00  0.00     0.012 C 
BRANCH  13  15
ATOM     15  C   UNL     1      -4.958 -16.740   7.834  1.00  0.00     0.039 C 
BRANCH  15  16
ATOM     16  C   UNL     1      -4.246 -15.458   7.336  1.00  0.00     0.032 CG0
ATOM     17  G   UNL     1      -2.746 -15.571   7.494  1.00  0.00     0.000 G0
ENDBRANCH  15  16
ENDBRANCH  13  15
ENDBRANCH   1  13
TORSDOF 1
ENDMDL
MODEL 4
REMARK VINA RESULT:    -4.749      1.787      4.843
REMARK INTER + INTRA:          -7.425
REMARK INTER:                  -7.743
REMARK INTRA:                   0.318
REMARK UNBOUND:                -0.455
REMARK SMILES C=C1C=C[C@H](C(C)C)CCC(C)=CCC1
REMARK SMILES IDX 3 1 4 2 5 3 9 4 10 5 11 6 12 7 13 8 6 10 7 11 8 12 2 13 1 14
REMARK SMILES IDX 15 15 14 16
REMARK H PARENT
REMARK Flexibility Score: 70.00
ROOT
ATOM      1  C   UNL     1      -1.555 -13.841   9.587  1.00  0.00    -0.001 C 
ATOM      2  C   UNL     1      -1.885 -14.155  10.848  1.00  0.00    -0.023 C 
ENDROOT
BRANCH   2   3
ATOM      3  C   UNL     1      -2.763 -15.317  11.263  1.00  0.00     0.014 C 
BRANCH   3   4
ATOM      4  C   UNL     1      -2.198 -16.640  10.689  1.00  0.00     0.012 C 
BRANCH   4   5
ATOM      5  C   UNL     1      -3.284 -17.576  10.129  1.00  0.00     0.031 C 
BRANCH   5   6
ATOM      6  C   UNL     1      -4.600 -16.857   9.884  1.00  0.00    -0.077 C 
ATOM      7  C   UNL     1      -5.629 -16.874  10.984  1.00  0.00     0.039 C 
ATOM      8  C   UNL     1      -4.900 -16.180   8.749  1.00  0.00    -0.028 CG0
ATOM      9  G   UNL     1      -3.989 -15.960   7.562  1.00  0.00     0.000 G0
ENDBRANCH   5   6
ENDBRANCH   4   5
ENDBRANCH   3   4
BRANCH   3  10
ATOM     10  C   UNL     1      -2.933 -15.331  12.813  1.00  0.00    -0.010 C 
ATOM     11  C   UNL     1      -2.030 -16.380  13.481  1.00  0.00     0.008 C 
ATOM     12  C   UNL     1      -2.726 -13.956  13.472  1.00  0.00     0.008 C 
ENDBRANCH   3  10
ENDBRANCH   2   3
BRANCH   1  13
ATOM     13  C   UNL     1      -1.902 -14.626   8.379  1.00  0.00    -0.055 C 
ATOM     14  C   UNL     1      -0.968 -15.439   7.877  1.00  0.00     0.012 C 
BRANCH  13  15
ATOM     15  C   UNL     1      -3.265 -14.580   7.707  1.00  0.00     0.039 C 
BRANCH  15  16
ATOM     16  C   UNL     1      -3.984 -15.945   7.574  1.00  0.00     0.032 CG0
ATOM     17  G   UNL     1      -4.902 -16.194   8.750  1.00  0.00     0.000 G0
ENDBRANCH  15  16
ENDBRANCH  13  15
ENDBRANCH   1  13
TORSDOF 1
ENDMDL
MODEL 5
REMARK VINA RESULT:    -4.742      0.926      1.649
REMARK INTER + INTRA:          -7.414
REMARK INTER:                  -7.271
REMARK INTRA:                  -0.144
REMARK UNBOUND:                -0.455
REMARK SMILES C=C1C=C[C@H](C(C)C)CCC(C)=CCC1
REMARK SMILES IDX 3 1 4 2 5 3 9 4 10 5 11 6 12 7 13 8 6 10 7 11 8 12 2 13 1 14
REMARK SMILES IDX 15 15 14 16
REMARK H PARENT
REMARK Flexibility Score: 70.00
ROOT
ATOM      1  C   UNL     1      -5.770 -16.653   9.639  1.00  0.00    -0.001 C 
ATOM      2  C   UNL     1      -5.553 -16.176   8.405  1.00  0.00    -0.023 C 
ENDROOT
BRANCH   2   3
ATOM      3  C   UNL     1      -4.213 -15.726   7.860  1.00  0.00     0.014 C 
BRANCH   3   4
ATOM      4  C   UNL     1      -3.328 -16.959   7.551  1.00  0.00     0.012 C 
BRANCH   4   5
ATOM      5  C   UNL     1      -2.103 -17.078   8.476  1.00  0.00     0.031 C 
BRANCH   5   6
ATOM      6  C   UNL     1      -1.621 -15.727   8.977  1.00  0.00    -0.077 C 
ATOM      7  C   UNL     1      -0.987 -14.790   7.981  1.00  0.00     0.039 C 
ATOM      8  C   UNL     1      -1.744 -15.298  10.256  1.00  0.00    -0.028 CG0
ATOM      9  G   UNL     1      -2.423 -16.031  11.392  1.00  0.00     0.000 G0
ENDBRANCH   5   6
ENDBRANCH   4   5
ENDBRANCH   3   4
BRANCH   3  10
ATOM     10  C   UNL     1      -4.424 -14.786   6.634  1.00  0.00    -0.010 C 
ATOM     11  C   UNL     1      -5.278 -15.448   5.541  1.00  0.00     0.008 C 
ATOM     12  C   UNL     1      -5.007 -13.411   7.001  1.00  0.00     0.008 C 
ENDBRANCH   3  10
ENDBRANCH   2   3
BRANCH   1  13
ATOM     13  C   UNL     1      -4.729 -16.924  10.659  1.00  0.00    -0.055 C 
ATOM     14  C   UNL     1      -4.447 -18.201  10.933  1.00  0.00     0.012 C 
BRANCH  13  15
ATOM     15  C   UNL     1      -3.950 -15.835  11.379  1.00  0.00     0.039 C 
BRANCH  15  16
ATOM     16  C   UNL     1      -2.414 -16.028  11.404  1.00  0.00     0.032 CG0
ATOM     17  G   UNL     1      -1.754 -15.299  10.254  1.00  0.00     0.000 G0
ENDBRANCH  15  16
ENDBRANCH  13  15
ENDBRANCH   1  13
TORSDOF 1
ENDMDL
MODEL 6
REMARK VINA RESULT:    -4.661      1.849      5.041
REMARK INTER + INTRA:          -7.296
REMARK INTER:                  -7.049
REMARK INTRA:                  -0.247
REMARK UNBOUND:                -0.455
REMARK SMILES C=C1C=C[C@H](C(C)C)CCC(C)=CCC1
REMARK SMILES IDX 3 1 4 2 5 3 9 4 10 5 11 6 12 7 13 8 6 10 7 11 8 12 2 13 1 14
REMARK SMILES IDX 15 15 14 16
REMARK H PARENT
REMARK Flexibility Score: 70.00
ROOT
ATOM      1  C   UNL     1      -1.312 -15.088   9.091  1.00  0.00    -0.001 C 
ATOM      2  C   UNL     1      -1.349 -16.000  10.073  1.00  0.00    -0.023 C 
ENDROOT
BRANCH   2   3
ATOM      3  C   UNL     1      -2.495 -16.202  11.043  1.00  0.00     0.014 C 
BRANCH   3   4
ATOM      4  C   UNL     1      -3.131 -17.597  10.827  1.00  0.00     0.012 C 
BRANCH   4   5
ATOM      5  C   UNL     1      -4.266 -17.597   9.787  1.00  0.00     0.031 C 
BRANCH   5   6
ATOM      6  C   UNL     1      -3.752 -17.775   8.368  1.00  0.00    -0.077 C 
ATOM      7  C   UNL     1      -3.172 -19.114   7.990  1.00  0.00     0.039 C 
ATOM      8  C   UNL     1      -3.802 -16.817   7.411  1.00  0.00    -0.028 CG0
ATOM      9  G   UNL     1      -4.418 -15.442   7.544  1.00  0.00     0.000 G0
ENDBRANCH   5   6
ENDBRANCH   4   5
ENDBRANCH   3   4
BRANCH   3  10
ATOM     10  C   UNL     1      -2.008 -15.956  12.504  1.00  0.00    -0.010 C 
ATOM     11  C   UNL     1      -3.032 -15.158  13.325  1.00  0.00     0.008 C 
ATOM     12  C   UNL     1      -1.617 -17.243  13.251  1.00  0.00     0.008 C 
ENDBRANCH   3  10
ENDBRANCH   2   3
BRANCH   1  13
ATOM     13  C   UNL     1      -2.421 -14.182   8.708  1.00  0.00    -0.055 C 
ATOM     14  C   UNL     1      -2.670 -13.136   9.502  1.00  0.00     0.012 C 
BRANCH  13  15
ATOM     15  C   UNL     1      -3.260 -14.359   7.452  1.00  0.00     0.039 C 
BRANCH  15  16
ATOM     16  C   UNL     1      -4.376 -15.428   7.548  1.00  0.00     0.032 CG0
ATOM     17  G   UNL     1      -3.805 -16.824   7.430  1.00  0.00     0.000 G0
ENDBRANCH  15  16
ENDBRANCH  13  15
ENDBRANCH   1  13
TORSDOF 1
ENDMDL
MODEL 7
REMARK VINA RESULT:    -3.988      1.568      3.375
REMARK INTER + INTRA:          -6.308
REMARK INTER:                  -7.573
REMARK INTRA:                   1.266
REMARK UNBOUND:                -0.455
REMARK SMILES C=C1C=C[C@H](C(C)C)CCC(C)=CCC1
REMARK SMILES IDX 3 1 4 2 5 3 9 4 10 5 11 6 12 7 13 8 6 10 7 11 8 12 2 13 1 14
REMARK SMILES IDX 15 15 14 16
REMARK H PARENT
REMARK Flexibility Score: 70.00
ROOT
ATOM      1  C   UNL     1      -1.826 -16.289   8.083  1.00  0.00    -0.001 C 
ATOM      2  C   UNL     1      -2.522 -17.361   8.489  1.00  0.00    -0.023 C 
ENDROOT
BRANCH   2   3
ATOM      3  C   UNL     1      -3.566 -17.367   9.588  1.00  0.00     0.014 C 
BRANCH   3   4
ATOM      4  C   UNL     1      -2.919 -16.956  10.933  1.00  0.00     0.012 C 
BRANCH   4   5
ATOM      5  C   UNL     1      -3.650 -15.795  11.632  1.00  0.00     0.031 C 
BRANCH   5   6
ATOM      6  C   UNL     1      -2.717 -14.954  12.488  1.00  0.00    -0.077 C 
ATOM      7  C   UNL     1      -2.507 -15.370  13.921  1.00  0.00     0.039 C 
ATOM      8  C   UNL     1      -2.042 -13.868  12.042  1.00  0.00    -0.028 CG0
ATOM      9  G   UNL     1      -2.034 -13.329  10.628  1.00  0.00     0.000 G0
ENDBRANCH   5   6
ENDBRANCH   4   5
ENDBRANCH   3   4
BRANCH   3  10
ATOM     10  C   UNL     1      -4.777 -16.474   9.178  1.00  0.00    -0.010 C 
ATOM     11  C   UNL     1      -5.289 -16.812   7.770  1.00  0.00     0.008 C 
ATOM     12  C   UNL     1      -5.939 -16.506  10.186  1.00  0.00     0.008 C 
ENDBRANCH   3  10
ENDBRANCH   2   3
BRANCH   1  13
ATOM     13  C   UNL     1      -2.019 -14.899   8.560  1.00  0.00    -0.055 C 
ATOM     14  C   UNL     1      -2.970 -14.168   7.972  1.00  0.00     0.012 C 
BRANCH  13  15
ATOM     15  C   UNL     1      -1.220 -14.279   9.695  1.00  0.00     0.039 C 
BRANCH  15  16
ATOM     16  C   UNL     1      -2.018 -13.332  10.625  1.00  0.00     0.032 CG0
ATOM     17  G   UNL     1      -2.048 -13.858  12.043  1.00  0.00     0.000 G0
ENDBRANCH  15  16
ENDBRANCH  13  15
ENDBRANCH   1  13
TORSDOF 1
ENDMDL
MODEL 8
REMARK VINA RESULT:    -3.959      1.584      4.061
REMARK INTER + INTRA:          -6.265
REMARK INTER:                  -5.640
REMARK INTRA:                  -0.625
REMARK UNBOUND:                -0.455
REMARK SMILES C=C1C=C[C@H](C(C)C)CCC(C)=CCC1
REMARK SMILES IDX 3 1 4 2 5 3 9 4 10 5 11 6 12 7 13 8 6 10 7 11 8 12 2 13 1 14
REMARK SMILES IDX 15 15 14 16
REMARK H PARENT
REMARK Flexibility Score: 70.00
ROOT
ATOM      1  C   UNL     1      -3.303 -15.371  11.313  1.00  0.00    -0.001 C 
ATOM      2  C   UNL     1      -3.124 -14.362  10.448  1.00  0.00    -0.023 C 
ENDROOT
BRANCH   2   3
ATOM      3  C   UNL     1      -2.483 -14.479   9.080  1.00  0.00     0.014 C 
BRANCH   3   4
ATOM      4  C   UNL     1      -3.378 -13.799   8.016  1.00  0.00     0.012 C 
BRANCH   4   5
ATOM      5  C   UNL     1      -4.819 -14.341   7.993  1.00  0.00     0.031 C 
BRANCH   5   6
ATOM      6  C   UNL     1      -4.913 -15.713   7.347  1.00  0.00    -0.077 C 
ATOM      7  C   UNL     1      -4.816 -15.794   5.846  1.00  0.00     0.039 C 
ATOM      8  C   UNL     1      -5.054 -16.873   8.034  1.00  0.00    -0.028 CG0
ATOM      9  G   UNL     1      -5.083 -17.033   9.538  1.00  0.00     0.000 G0
ENDBRANCH   5   6
ENDBRANCH   4   5
ENDBRANCH   3   4
BRANCH   3  10
ATOM     10  C   UNL     1      -1.028 -13.919   9.123  1.00  0.00    -0.010 C 
ATOM     11  C   UNL     1      -0.839 -12.897  10.255  1.00  0.00     0.008 C 
ATOM     12  C   UNL     1       0.054 -15.010   9.208  1.00  0.00     0.008 C 
ENDBRANCH   3  10
ENDBRANCH   2   3
BRANCH   1  13
ATOM     13  C   UNL     1      -3.002 -16.798  11.053  1.00  0.00    -0.055 C 
ATOM     14  C   UNL     1      -2.012 -17.360  11.753  1.00  0.00     0.012 C 
BRANCH  13  15
ATOM     15  C   UNL     1      -3.775 -17.657  10.066  1.00  0.00     0.039 C 
BRANCH  15  16
ATOM     16  C   UNL     1      -5.095 -17.039   9.544  1.00  0.00     0.032 CG0
ATOM     17  G   UNL     1      -5.054 -16.852   8.043  1.00  0.00     0.000 G0
ENDBRANCH  15  16
ENDBRANCH  13  15
ENDBRANCH   1  13
TORSDOF 1
ENDMDL
MODEL 9
REMARK VINA RESULT:    -3.724      1.106      3.531
REMARK INTER + INTRA:          -5.921
REMARK INTER:                  -6.003
REMARK INTRA:                   0.082
REMARK UNBOUND:                -0.455
REMARK SMILES C=C1C=C[C@H](C(C)C)CCC(C)=CCC1
REMARK SMILES IDX 3 1 4 2 5 3 9 4 10 5 11 6 12 7 13 8 6 10 7 11 8 12 2 13 1 14
REMARK SMILES IDX 15 15 14 16
REMARK H PARENT
REMARK Flexibility Score: 70.00
ROOT
ATOM      1  C   UNL     1      -2.972 -13.378   8.754  1.00  0.00    -0.001 C 
ATOM      2  C   UNL     1      -3.807 -14.232   8.147  1.00  0.00    -0.023 C 
ENDROOT
BRANCH   2   3
ATOM      3  C   UNL     1      -3.839 -15.732   8.359  1.00  0.00     0.014 C 
BRANCH   3   4
ATOM      4  C   UNL     1      -5.164 -16.140   9.048  1.00  0.00     0.012 C 
BRANCH   4   5
ATOM      5  C   UNL     1      -5.003 -16.450  10.547  1.00  0.00     0.031 C 
BRANCH   5   6
ATOM      6  C   UNL     1      -3.895 -17.455  10.816  1.00  0.00    -0.077 C 
ATOM      7  C   UNL     1      -4.194 -18.914  10.581  1.00  0.00     0.039 C 
ATOM      8  C   UNL     1      -2.648 -17.125  11.231  1.00  0.00    -0.028 CG0
ATOM      9  G   UNL     1      -2.108 -15.728  11.441  1.00  0.00     0.000 G0
ENDBRANCH   5   6
ENDBRANCH   4   5
ENDBRANCH   3   4
BRANCH   3  10
ATOM     10  C   UNL     1      -3.584 -16.468   7.008  1.00  0.00    -0.010 C 
ATOM     11  C   UNL     1      -3.611 -17.995   7.172  1.00  0.00     0.008 C 
ATOM     12  C   UNL     1      -4.538 -16.039   5.879  1.00  0.00     0.008 C 
ENDBRANCH   3  10
ENDBRANCH   2   3
BRANCH   1  13
ATOM     13  C   UNL     1      -1.998 -13.725   9.816  1.00  0.00    -0.055 C 
ATOM     14  C   UNL     1      -1.513 -12.730  10.563  1.00  0.00     0.012 C 
BRANCH  13  15
ATOM     15  C   UNL     1      -1.552 -15.147  10.118  1.00  0.00     0.039 C 
BRANCH  15  16
ATOM     16  C   UNL     1      -2.089 -15.741  11.444  1.00  0.00     0.032 CG0
ATOM     17  G   UNL     1      -2.639 -17.134  11.234  1.00  0.00     0.000 G0
ENDBRANCH  15  16
ENDBRANCH  13  15
ENDBRANCH   1  13
TORSDOF 1
ENDMDL
