MODEL 1
REMARK VINA RESULT:    -3.240      0.000      0.000
REMARK INTER + INTRA:          -3.839
REMARK INTER:                  -3.808
REMARK INTRA:                  -0.031
REMARK UNBOUND:                -0.031
REMARK SMILES O=C([O-])CCC(=O)[O-]
REMARK SMILES IDX 4 1 2 2 1 3 3 4 5 5 6 6 7 7 8 8
REMARK H PARENT
REMARK Flexibility Score: inf
ROOT
ATOM      1  C   UNL     1       6.966 -15.109  22.279  1.00  0.00     0.059 C 
ENDROOT
BRANCH   1   2
ATOM      2  C   UNL     1       6.763 -15.070  23.761  1.00  0.00     0.042 C 
ATOM      3  O   UNL     1       7.487 -14.333  24.480  1.00  0.00    -0.550 OA
ATOM      4  O   UNL     1       5.741 -15.808  24.342  1.00  0.00    -0.550 OA
ENDBRANCH   1   2
BRANCH   1   5
ATOM      5  C   UNL     1       6.054 -14.096  21.587  1.00  0.00     0.059 C 
BRANCH   5   6
ATOM      6  C   UNL     1       6.213 -14.179  20.101  1.00  0.00     0.042 C 
ATOM      7  O   UNL     1       5.744 -13.273  19.363  1.00  0.00    -0.550 OA
ATOM      8  O   UNL     1       6.835 -15.280  19.528  1.00  0.00    -0.550 OA
ENDBRANCH   5   6
ENDBRANCH   1   5
TORSDOF 3
ENDMDL
MODEL 2
REMARK VINA RESULT:    -3.237      2.321      3.545
REMARK INTER + INTRA:          -3.836
REMARK INTER:                  -3.721
REMARK INTRA:                  -0.115
REMARK UNBOUND:                -0.031
REMARK SMILES O=C([O-])CCC(=O)[O-]
REMARK SMILES IDX 4 1 2 2 1 3 3 4 5 5 6 6 7 7 8 8
REMARK H PARENT
REMARK Flexibility Score: inf
ROOT
ATOM      1  C   UNL     1       6.896 -16.976  24.523  1.00  0.00     0.059 C 
ENDROOT
BRANCH   1   2
ATOM      2  C   UNL     1       7.193 -17.031  25.988  1.00  0.00     0.042 C 
ATOM      3  O   UNL     1       7.014 -18.098  26.631  1.00  0.00    -0.550 OA
ATOM      4  O   UNL     1       7.716 -15.918  26.633  1.00  0.00    -0.550 OA
ENDBRANCH   1   2
BRANCH   1   5
ATOM      5  C   UNL     1       5.873 -15.880  24.224  1.00  0.00     0.059 C 
BRANCH   5   6
ATOM      6  C   UNL     1       6.495 -14.794  23.403  1.00  0.00     0.042 C 
ATOM      7  O   UNL     1       7.601 -14.298  23.743  1.00  0.00    -0.550 OA
ATOM      8  O   UNL     1       5.829 -14.296  22.290  1.00  0.00    -0.550 OA
ENDBRANCH   5   6
ENDBRANCH   1   5
TORSDOF 3
ENDMDL
MODEL 3
REMARK VINA RESULT:    -3.229      2.018      2.542
REMARK INTER + INTRA:          -3.827
REMARK INTER:                  -3.712
REMARK INTRA:                  -0.115
REMARK UNBOUND:                -0.031
REMARK SMILES O=C([O-])CCC(=O)[O-]
REMARK SMILES IDX 4 1 2 2 1 3 3 4 5 5 6 6 7 7 8 8
REMARK H PARENT
REMARK Flexibility Score: inf
ROOT
ATOM      1  C   UNL     1       7.497 -15.906  24.116  1.00  0.00     0.059 C 
ENDROOT
BRANCH   1   2
ATOM      2  C   UNL     1       8.390 -15.046  24.954  1.00  0.00     0.042 C 
ATOM      3  O   UNL     1       8.253 -15.021  26.205  1.00  0.00    -0.550 OA
ATOM      4  O   UNL     1       9.406 -14.311  24.358  1.00  0.00    -0.550 OA
ENDBRANCH   1   2
BRANCH   1   5
ATOM      5  C   UNL     1       6.257 -15.125  23.680  1.00  0.00     0.059 C 
BRANCH   5   6
ATOM      6  C   UNL     1       6.529 -14.375  22.414  1.00  0.00     0.042 C 
ATOM      7  O   UNL     1       6.431 -13.119  22.389  1.00  0.00    -0.550 OA
ATOM      8  O   UNL     1       6.843 -15.064  21.250  1.00  0.00    -0.550 OA
ENDBRANCH   5   6
ENDBRANCH   1   5
TORSDOF 3
ENDMDL
MODEL 4
REMARK VINA RESULT:    -3.217      2.305      5.023
REMARK INTER + INTRA:          -3.813
REMARK INTER:                  -3.692
REMARK INTRA:                  -0.121
REMARK UNBOUND:                -0.031
REMARK SMILES O=C([O-])CCC(=O)[O-]
REMARK SMILES IDX 4 1 2 2 1 3 3 4 5 5 6 6 7 7 8 8
REMARK H PARENT
REMARK Flexibility Score: inf
ROOT
ATOM      1  C   UNL     1       5.888 -15.823  24.222  1.00  0.00     0.059 C 
ENDROOT
BRANCH   1   2
ATOM      2  C   UNL     1       6.506 -14.763  23.368  1.00  0.00     0.042 C 
ATOM      3  O   UNL     1       7.651 -14.316  23.642  1.00  0.00    -0.550 OA
ATOM      4  O   UNL     1       5.840 -14.303  22.240  1.00  0.00    -0.550 OA
ENDBRANCH   1   2
BRANCH   1   5
ATOM      5  C   UNL     1       6.889 -16.947  24.490  1.00  0.00     0.059 C 
BRANCH   5   6
ATOM      6  C   UNL     1       7.227 -17.012  25.946  1.00  0.00     0.042 C 
ATOM      7  O   UNL     1       7.050 -18.080  26.589  1.00  0.00    -0.550 OA
ATOM      8  O   UNL     1       7.690 -15.880  26.604  1.00  0.00    -0.550 OA
ENDBRANCH   5   6
ENDBRANCH   1   5
TORSDOF 3
ENDMDL
MODEL 5
REMARK VINA RESULT:    -3.213      1.748      4.241
REMARK INTER + INTRA:          -3.808
REMARK INTER:                  -3.695
REMARK INTRA:                  -0.113
REMARK UNBOUND:                -0.031
REMARK SMILES O=C([O-])CCC(=O)[O-]
REMARK SMILES IDX 4 1 2 2 1 3 3 4 5 5 6 6 7 7 8 8
REMARK H PARENT
REMARK Flexibility Score: inf
ROOT
ATOM      1  C   UNL     1       7.115 -15.157  22.596  1.00  0.00     0.059 C 
ENDROOT
BRANCH   1   2
ATOM      2  C   UNL     1       6.352 -14.044  21.948  1.00  0.00     0.042 C 
ATOM      3  O   UNL     1       6.388 -12.884  22.436  1.00  0.00    -0.550 OA
ATOM      4  O   UNL     1       5.642 -14.278  20.778  1.00  0.00    -0.550 OA
ENDBRANCH   1   2
BRANCH   1   5
ATOM      5  C   UNL     1       6.904 -15.140  24.110  1.00  0.00     0.059 C 
BRANCH   5   6
ATOM      6  C   UNL     1       8.172 -14.765  24.811  1.00  0.00     0.042 C 
ATOM      7  O   UNL     1       9.151 -14.322  24.154  1.00  0.00    -0.550 OA
ATOM      8  O   UNL     1       8.290 -14.950  26.182  1.00  0.00    -0.550 OA
ENDBRANCH   5   6
ENDBRANCH   1   5
TORSDOF 3
ENDMDL
MODEL 6
REMARK VINA RESULT:    -3.204      3.196      3.941
REMARK INTER + INTRA:          -3.798
REMARK INTER:                  -3.636
REMARK INTRA:                  -0.162
REMARK UNBOUND:                -0.031
REMARK SMILES O=C([O-])CCC(=O)[O-]
REMARK SMILES IDX 4 1 2 2 1 3 3 4 5 5 6 6 7 7 8 8
REMARK H PARENT
REMARK Flexibility Score: inf
ROOT
ATOM      1  C   UNL     1       7.115 -14.706  23.989  1.00  0.00     0.059 C 
ENDROOT
BRANCH   1   2
ATOM      2  C   UNL     1       8.325 -14.686  24.869  1.00  0.00     0.042 C 
ATOM      3  O   UNL     1       9.450 -14.384  24.392  1.00  0.00    -0.550 OA
ATOM      4  O   UNL     1       8.201 -14.952  26.226  1.00  0.00    -0.550 OA
ENDBRANCH   1   2
BRANCH   1   5
ATOM      5  C   UNL     1       6.224 -15.900  24.331  1.00  0.00     0.059 C 
BRANCH   5   6
ATOM      6  C   UNL     1       6.883 -17.180  23.922  1.00  0.00     0.042 C 
ATOM      7  O   UNL     1       7.056 -18.100  24.764  1.00  0.00    -0.550 OA
ATOM      8  O   UNL     1       7.351 -17.337  22.624  1.00  0.00    -0.550 OA
ENDBRANCH   5   6
ENDBRANCH   1   5
TORSDOF 3
ENDMDL
MODEL 7
REMARK VINA RESULT:    -3.198      0.800      4.161
REMARK INTER + INTRA:          -3.790
REMARK INTER:                  -3.697
REMARK INTRA:                  -0.093
REMARK UNBOUND:                -0.031
REMARK SMILES O=C([O-])CCC(=O)[O-]
REMARK SMILES IDX 4 1 2 2 1 3 3 4 5 5 6 6 7 7 8 8
REMARK H PARENT
REMARK Flexibility Score: inf
ROOT
ATOM      1  C   UNL     1       5.833 -14.009  22.157  1.00  0.00     0.059 C 
ENDROOT
BRANCH   1   2
ATOM      2  C   UNL     1       6.210 -14.329  20.745  1.00  0.00     0.042 C 
ATOM      3  O   UNL     1       5.869 -13.560  19.809  1.00  0.00    -0.550 OA
ATOM      4  O   UNL     1       6.980 -15.451  20.469  1.00  0.00    -0.550 OA
ENDBRANCH   1   2
BRANCH   1   5
ATOM      5  C   UNL     1       7.059 -14.081  23.068  1.00  0.00     0.059 C 
BRANCH   5   6
ATOM      6  C   UNL     1       6.835 -15.068  24.170  1.00  0.00     0.042 C 
ATOM      7  O   UNL     1       7.703 -15.219  25.070  1.00  0.00    -0.550 OA
ATOM      8  O   UNL     1       5.693 -15.857  24.176  1.00  0.00    -0.550 OA
ENDBRANCH   5   6
ENDBRANCH   1   5
TORSDOF 3
ENDMDL
MODEL 8
REMARK VINA RESULT:    -3.187      2.243      4.821
REMARK INTER + INTRA:          -3.778
REMARK INTER:                  -3.662
REMARK INTRA:                  -0.116
REMARK UNBOUND:                -0.031
REMARK SMILES O=C([O-])CCC(=O)[O-]
REMARK SMILES IDX 4 1 2 2 1 3 3 4 5 5 6 6 7 7 8 8
REMARK H PARENT
REMARK Flexibility Score: inf
ROOT
ATOM      1  C   UNL     1       7.895 -15.039  23.507  1.00  0.00     0.059 C 
ENDROOT
BRANCH   1   2
ATOM      2  C   UNL     1       6.426 -14.879  23.279  1.00  0.00     0.042 C 
ATOM      3  O   UNL     1       5.600 -15.472  24.022  1.00  0.00    -0.550 OA
ATOM      4  O   UNL     1       5.966 -14.034  22.277  1.00  0.00    -0.550 OA
ENDBRANCH   1   2
BRANCH   1   5
ATOM      5  C   UNL     1       8.306 -14.388  24.828  1.00  0.00     0.059 C 
BRANCH   5   6
ATOM      6  C   UNL     1       8.640 -15.434  25.845  1.00  0.00     0.042 C 
ATOM      7  O   UNL     1       7.793 -15.762  26.717  1.00  0.00    -0.550 OA
ATOM      8  O   UNL     1       9.904 -16.010  25.862  1.00  0.00    -0.550 OA
ENDBRANCH   5   6
ENDBRANCH   1   5
TORSDOF 3
ENDMDL
MODEL 9
REMARK VINA RESULT:    -3.184      3.226      4.324
REMARK INTER + INTRA:          -3.773
REMARK INTER:                  -3.636
REMARK INTRA:                  -0.137
REMARK UNBOUND:                -0.031
REMARK SMILES O=C([O-])CCC(=O)[O-]
REMARK SMILES IDX 4 1 2 2 1 3 3 4 5 5 6 6 7 7 8 8
REMARK H PARENT
REMARK Flexibility Score: inf
ROOT
ATOM      1  C   UNL     1       6.279 -15.935  24.382  1.00  0.00     0.059 C 
ENDROOT
BRANCH   1   2
ATOM      2  C   UNL     1       6.911 -17.225  23.962  1.00  0.00     0.042 C 
ATOM      3  O   UNL     1       7.263 -17.398  22.766  1.00  0.00    -0.550 OA
ATOM      4  O   UNL     1       7.156 -18.217  24.903  1.00  0.00    -0.550 OA
ENDBRANCH   1   2
BRANCH   1   5
ATOM      5  C   UNL     1       7.145 -14.750  23.952  1.00  0.00     0.059 C 
BRANCH   5   6
ATOM      6  C   UNL     1       8.365 -14.654  24.813  1.00  0.00     0.042 C 
ATOM      7  O   UNL     1       8.281 -14.854  26.053  1.00  0.00    -0.550 OA
ATOM      8  O   UNL     1       9.584 -14.294  24.254  1.00  0.00    -0.550 OA
ENDBRANCH   5   6
ENDBRANCH   1   5
TORSDOF 3
ENDMDL
