MODEL 1
REMARK VINA RESULT:    -6.809      0.000      0.000
REMARK INTER + INTRA:          -8.479
REMARK INTER:                  -8.202
REMARK INTRA:                  -0.277
REMARK UNBOUND:                -0.277
REMARK SMILES O=c1c(O)c(-c2ccc(O)c(O)c2)oc2cc(O)cc(O)c12
REMARK SMILES IDX 5 1 3 2 2 3 1 4 22 5 20 6 19 7 17 8 16 9 15 10 14 11 6 12
REMARK SMILES IDX 7 13 8 14 9 15 13 16 11 17 10 18 12 20 4 22 21 24 18 26
REMARK H PARENT 10 19 12 21 4 23 21 25 18 27
REMARK Flexibility Score: inf
ROOT
ATOM      1  C   UNL     1      32.874  -3.483   4.125  1.00  0.00     0.180 A 
ATOM      2  C   UNL     1      33.010  -4.783   4.643  1.00  0.00     0.208 A 
ATOM      3  C   UNL     1      32.427  -5.857   3.951  1.00  0.00     0.238 A 
ATOM      4  O   UNL     1      32.597  -7.023   4.391  1.00  0.00    -0.285 OA
ATOM      5  C   UNL     1      31.703  -5.614   2.759  1.00  0.00     0.111 A 
ATOM      6  C   UNL     1      31.036  -6.622   1.997  1.00  0.00     0.134 A 
ATOM      7  C   UNL     1      30.461  -6.288   0.765  1.00  0.00     0.093 A 
ATOM      8  C   UNL     1      30.470  -4.975   0.298  1.00  0.00     0.123 A 
ATOM      9  C   UNL     1      31.067  -3.971   1.062  1.00  0.00     0.094 A 
ATOM     10  C   UNL     1      31.681  -4.280   2.279  1.00  0.00     0.146 A 
ATOM     11  O   UNL     1      32.246  -3.297   2.971  1.00  0.00    -0.452 OA
ENDROOT
BRANCH   1  12
ATOM     12  C   UNL     1      33.440  -2.299   4.811  1.00  0.00     0.025 A 
ATOM     13  C   UNL     1      32.622  -1.411   5.532  1.00  0.00     0.016 A 
ATOM     14  C   UNL     1      33.174  -0.287   6.151  1.00  0.00     0.051 A 
ATOM     15  C   UNL     1      34.546  -0.025   6.050  1.00  0.00     0.157 A 
ATOM     16  C   UNL     1      34.811  -2.021   4.694  1.00  0.00     0.062 A 
ATOM     17  C   UNL     1      35.368  -0.896   5.314  1.00  0.00     0.158 A 
BRANCH  15  18
ATOM     18  O   UNL     1      35.094   1.096   6.670  1.00  0.00    -0.504 OA
ATOM     19  H   UNL     1      36.095   1.214   6.765  1.00  0.00     0.293 HD
ENDBRANCH  15  18
BRANCH  17  20
ATOM     20  O   UNL     1      36.736  -0.661   5.188  1.00  0.00    -0.504 OA
ATOM     21  H   UNL     1      37.250  -0.099   5.857  1.00  0.00     0.293 HD
ENDBRANCH  17  20
ENDBRANCH   1  12
BRANCH   2  22
ATOM     22  O   UNL     1      33.747  -5.002   5.811  1.00  0.00    -0.502 OA
ATOM     23  H   UNL     1      33.917  -4.271   6.491  1.00  0.00     0.293 HD
ENDBRANCH   2  22
BRANCH   6  24
ATOM     24  O   UNL     1      30.889  -7.947   2.416  1.00  0.00    -0.507 OA
ATOM     25  H   UNL     1      31.441  -8.722   2.079  1.00  0.00     0.293 HD
ENDBRANCH   6  24
BRANCH   8  26
ATOM     26  O   UNL     1      29.875  -4.676  -0.927  1.00  0.00    -0.508 OA
ATOM     27  H   UNL     1      28.868  -4.676  -1.040  1.00  0.00     0.293 HD
ENDBRANCH   8  26
TORSDOF 6
ENDMDL
MODEL 2
REMARK VINA RESULT:    -6.698      3.255      6.329
REMARK INTER + INTRA:          -8.345
REMARK INTER:                  -8.322
REMARK INTRA:                  -0.023
REMARK UNBOUND:                -0.277
REMARK SMILES O=c1c(O)c(-c2ccc(O)c(O)c2)oc2cc(O)cc(O)c12
REMARK SMILES IDX 5 1 3 2 2 3 1 4 22 5 20 6 19 7 17 8 16 9 15 10 14 11 6 12
REMARK SMILES IDX 7 13 8 14 9 15 13 16 11 17 10 18 12 20 4 22 21 24 18 26
REMARK H PARENT 10 19 12 21 4 23 21 25 18 27
REMARK Flexibility Score: inf
ROOT
ATOM      1  C   UNL     1      31.032  -6.792   3.728  1.00  0.00     0.180 A 
ATOM      2  C   UNL     1      31.733  -5.622   4.069  1.00  0.00     0.208 A 
ATOM      3  C   UNL     1      31.988  -4.666   3.073  1.00  0.00     0.238 A 
ATOM      4  O   UNL     1      32.569  -3.597   3.396  1.00  0.00    -0.285 OA
ATOM      5  C   UNL     1      31.553  -4.900   1.746  1.00  0.00     0.111 A 
ATOM      6  C   UNL     1      31.793  -4.018   0.648  1.00  0.00     0.134 A 
ATOM      7  C   UNL     1      31.204  -4.287  -0.593  1.00  0.00     0.093 A 
ATOM      8  C   UNL     1      30.441  -5.436  -0.795  1.00  0.00     0.123 A 
ATOM      9  C   UNL     1      30.250  -6.335   0.255  1.00  0.00     0.094 A 
ATOM     10  C   UNL     1      30.794  -6.076   1.516  1.00  0.00     0.146 A 
ATOM     11  O   UNL     1      30.581  -6.952   2.491  1.00  0.00    -0.452 OA
ENDROOT
BRANCH   1  12
ATOM     12  C   UNL     1      30.748  -7.856   4.718  1.00  0.00     0.025 A 
ATOM     13  C   UNL     1      30.111  -7.569   5.939  1.00  0.00     0.016 A 
ATOM     14  C   UNL     1      29.875  -8.586   6.868  1.00  0.00     0.051 A 
ATOM     15  C   UNL     1      30.281  -9.899   6.599  1.00  0.00     0.157 A 
ATOM     16  C   UNL     1      31.172  -9.170   4.462  1.00  0.00     0.062 A 
ATOM     17  C   UNL     1      30.936 -10.191   5.390  1.00  0.00     0.158 A 
BRANCH  15  18
ATOM     18  O   UNL     1      30.042 -10.911   7.527  1.00  0.00    -0.504 OA
ATOM     19  H   UNL     1      29.643 -10.713   8.437  1.00  0.00     0.293 HD
ENDBRANCH  15  18
BRANCH  17  20
ATOM     20  O   UNL     1      31.359 -11.486   5.095  1.00  0.00    -0.504 OA
ATOM     21  H   UNL     1      31.873 -11.705   4.250  1.00  0.00     0.293 HD
ENDBRANCH  17  20
ENDBRANCH   1  12
BRANCH   2  22
ATOM     22  O   UNL     1      32.135  -5.402   5.390  1.00  0.00    -0.502 OA
ATOM     23  H   UNL     1      32.765  -6.026   5.878  1.00  0.00     0.293 HD
ENDBRANCH   2  22
BRANCH   6  24
ATOM     24  O   UNL     1      32.616  -2.891   0.718  1.00  0.00    -0.507 OA
ATOM     25  H   UNL     1      33.560  -2.889   1.073  1.00  0.00     0.293 HD
ENDBRANCH   6  24
BRANCH   8  26
ATOM     26  O   UNL     1      29.882  -5.679  -2.049  1.00  0.00    -0.508 OA
ATOM     27  H   UNL     1      28.900  -5.906  -2.156  1.00  0.00     0.293 HD
ENDBRANCH   8  26
TORSDOF 6
ENDMDL
MODEL 3
REMARK VINA RESULT:    -6.399      1.467      7.053
REMARK INTER + INTRA:          -7.985
REMARK INTER:                  -7.702
REMARK INTRA:                  -0.283
REMARK UNBOUND:                -0.277
REMARK SMILES O=c1c(O)c(-c2ccc(O)c(O)c2)oc2cc(O)cc(O)c12
REMARK SMILES IDX 5 1 3 2 2 3 1 4 22 5 20 6 19 7 17 8 16 9 15 10 14 11 6 12
REMARK SMILES IDX 7 13 8 14 9 15 13 16 11 17 10 18 12 20 4 22 21 24 18 26
REMARK H PARENT 10 19 12 21 4 23 21 25 18 27
REMARK Flexibility Score: inf
ROOT
ATOM      1  C   UNL     1      32.215  -3.610   3.930  1.00  0.00     0.180 A 
ATOM      2  C   UNL     1      31.229  -2.823   4.550  1.00  0.00     0.208 A 
ATOM      3  C   UNL     1      31.623  -1.705   5.302  1.00  0.00     0.238 A 
ATOM      4  O   UNL     1      30.733  -0.974   5.810  1.00  0.00    -0.285 OA
ATOM      5  C   UNL     1      32.998  -1.398   5.439  1.00  0.00     0.111 A 
ATOM      6  C   UNL     1      33.513  -0.313   6.211  1.00  0.00     0.134 A 
ATOM      7  C   UNL     1      34.883  -0.026   6.169  1.00  0.00     0.093 A 
ATOM      8  C   UNL     1      35.764  -0.820   5.437  1.00  0.00     0.123 A 
ATOM      9  C   UNL     1      35.279  -1.919   4.726  1.00  0.00     0.094 A 
ATOM     10  C   UNL     1      33.913  -2.210   4.720  1.00  0.00     0.146 A 
ATOM     11  O   UNL     1      33.491  -3.259   4.023  1.00  0.00    -0.452 OA
ENDROOT
BRANCH   1  12
ATOM     12  C   UNL     1      31.878  -4.818   3.142  1.00  0.00     0.025 A 
ATOM     13  C   UNL     1      32.058  -6.109   3.668  1.00  0.00     0.016 A 
ATOM     14  C   UNL     1      31.757  -7.235   2.896  1.00  0.00     0.051 A 
ATOM     15  C   UNL     1      31.284  -7.089   1.586  1.00  0.00     0.157 A 
ATOM     16  C   UNL     1      31.424  -4.676   1.821  1.00  0.00     0.062 A 
ATOM     17  C   UNL     1      31.120  -5.802   1.045  1.00  0.00     0.158 A 
BRANCH  15  18
ATOM     18  O   UNL     1      30.982  -8.213   0.820  1.00  0.00    -0.504 OA
ATOM     19  H   UNL     1      30.649  -8.132  -0.133  1.00  0.00     0.293 HD
ENDBRANCH  15  18
BRANCH  17  20
ATOM     20  O   UNL     1      30.658  -5.622  -0.258  1.00  0.00    -0.504 OA
ATOM     21  H   UNL     1      30.405  -4.710  -0.618  1.00  0.00     0.293 HD
ENDBRANCH  17  20
ENDBRANCH   1  12
BRANCH   2  22
ATOM     22  O   UNL     1      29.875  -3.132   4.385  1.00  0.00    -0.502 OA
ATOM     23  H   UNL     1      29.500  -3.482   3.511  1.00  0.00     0.293 HD
ENDBRANCH   2  22
BRANCH   6  24
ATOM     24  O   UNL     1      32.733   0.487   7.049  1.00  0.00    -0.507 OA
ATOM     25  H   UNL     1      32.215   0.151   7.848  1.00  0.00     0.293 HD
ENDBRANCH   6  24
BRANCH   8  26
ATOM     26  O   UNL     1      37.124  -0.513   5.430  1.00  0.00    -0.508 OA
ATOM     27  H   UNL     1      37.533   0.094   6.130  1.00  0.00     0.293 HD
ENDBRANCH   8  26
TORSDOF 6
ENDMDL
MODEL 4
REMARK VINA RESULT:    -6.392      4.328      6.888
REMARK INTER + INTRA:          -7.977
REMARK INTER:                  -8.031
REMARK INTRA:                   0.055
REMARK UNBOUND:                -0.277
REMARK SMILES O=c1c(O)c(-c2ccc(O)c(O)c2)oc2cc(O)cc(O)c12
REMARK SMILES IDX 5 1 3 2 2 3 1 4 22 5 20 6 19 7 17 8 16 9 15 10 14 11 6 12
REMARK SMILES IDX 7 13 8 14 9 15 13 16 11 17 10 18 12 20 4 22 21 24 18 26
REMARK H PARENT 10 19 12 21 4 23 21 25 18 27
REMARK Flexibility Score: inf
ROOT
ATOM      1  C   UNL     1      30.677  -6.800   3.284  1.00  0.00     0.180 A 
ATOM      2  C   UNL     1      30.458  -5.930   4.366  1.00  0.00     0.208 A 
ATOM      3  C   UNL     1      30.338  -6.466   5.658  1.00  0.00     0.238 A 
ATOM      4  O   UNL     1      30.195  -5.677   6.629  1.00  0.00    -0.285 OA
ATOM      5  C   UNL     1      30.420  -7.866   5.849  1.00  0.00     0.111 A 
ATOM      6  C   UNL     1      30.271  -8.522   7.109  1.00  0.00     0.134 A 
ATOM      7  C   UNL     1      30.502  -9.900   7.202  1.00  0.00     0.093 A 
ATOM      8  C   UNL     1      30.812 -10.655   6.072  1.00  0.00     0.123 A 
ATOM      9  C   UNL     1      30.901 -10.035   4.825  1.00  0.00     0.094 A 
ATOM     10  C   UNL     1      30.712  -8.655   4.707  1.00  0.00     0.146 A 
ATOM     11  O   UNL     1      30.815  -8.102   3.504  1.00  0.00    -0.452 OA
ENDROOT
BRANCH   1  12
ATOM     12  C   UNL     1      30.790  -6.312   1.891  1.00  0.00     0.025 A 
ATOM     13  C   UNL     1      29.903  -5.350   1.378  1.00  0.00     0.016 A 
ATOM     14  C   UNL     1      30.014  -4.922   0.052  1.00  0.00     0.051 A 
ATOM     15  C   UNL     1      31.002  -5.456  -0.784  1.00  0.00     0.157 A 
ATOM     16  C   UNL     1      31.766  -6.861   1.043  1.00  0.00     0.062 A 
ATOM     17  C   UNL     1      31.881  -6.434  -0.286  1.00  0.00     0.158 A 
BRANCH  15  18
ATOM     18  O   UNL     1      31.111  -5.026  -2.105  1.00  0.00    -0.504 OA
ATOM     19  H   UNL     1      30.891  -4.075  -2.373  1.00  0.00     0.293 HD
ENDBRANCH  15  18
BRANCH  17  20
ATOM     20  O   UNL     1      32.871  -6.991  -1.093  1.00  0.00    -0.504 OA
ATOM     21  H   UNL     1      33.702  -7.423  -0.706  1.00  0.00     0.293 HD
ENDBRANCH  17  20
ENDBRANCH   1  12
BRANCH   2  22
ATOM     22  O   UNL     1      30.401  -4.548   4.157  1.00  0.00    -0.502 OA
ATOM     23  H   UNL     1      30.230  -3.891   4.908  1.00  0.00     0.293 HD
ENDBRANCH   2  22
BRANCH   6  24
ATOM     24  O   UNL     1      29.875  -7.875   8.283  1.00  0.00    -0.507 OA
ATOM     25  H   UNL     1      29.438  -8.329   9.071  1.00  0.00     0.293 HD
ENDBRANCH   6  24
BRANCH   8  26
ATOM     26  O   UNL     1      31.021 -12.028   6.199  1.00  0.00    -0.508 OA
ATOM     27  H   UNL     1      31.954 -12.423   6.214  1.00  0.00     0.293 HD
ENDBRANCH   8  26
TORSDOF 6
ENDMDL
MODEL 5
REMARK VINA RESULT:    -6.340      2.108      6.865
REMARK INTER + INTRA:          -7.914
REMARK INTER:                  -7.946
REMARK INTRA:                   0.032
REMARK UNBOUND:                -0.277
REMARK SMILES O=c1c(O)c(-c2ccc(O)c(O)c2)oc2cc(O)cc(O)c12
REMARK SMILES IDX 5 1 3 2 2 3 1 4 22 5 20 6 19 7 17 8 16 9 15 10 14 11 6 12
REMARK SMILES IDX 7 13 8 14 9 15 13 16 11 17 10 18 12 20 4 22 21 24 18 26
REMARK H PARENT 10 19 12 21 4 23 21 25 18 27
REMARK Flexibility Score: inf
ROOT
ATOM      1  C   UNL     1      32.063  -3.789   3.275  1.00  0.00     0.180 A 
ATOM      2  C   UNL     1      33.161  -2.922   3.415  1.00  0.00     0.208 A 
ATOM      3  C   UNL     1      33.436  -2.370   4.676  1.00  0.00     0.238 A 
ATOM      4  O   UNL     1      34.452  -1.638   4.807  1.00  0.00    -0.285 OA
ATOM      5  C   UNL     1      32.599  -2.677   5.776  1.00  0.00     0.111 A 
ATOM      6  C   UNL     1      32.760  -2.141   7.090  1.00  0.00     0.134 A 
ATOM      7  C   UNL     1      31.953  -2.615   8.132  1.00  0.00     0.093 A 
ATOM      8  C   UNL     1      30.951  -3.555   7.897  1.00  0.00     0.123 A 
ATOM      9  C   UNL     1      30.745  -4.041   6.604  1.00  0.00     0.094 A 
ATOM     10  C   UNL     1      31.558  -3.614   5.551  1.00  0.00     0.146 A 
ATOM     11  O   UNL     1      31.337  -4.108   4.338  1.00  0.00    -0.452 OA
ENDROOT
BRANCH   1  12
ATOM     12  C   UNL     1      31.695  -4.390   1.972  1.00  0.00     0.025 A 
ATOM     13  C   UNL     1      31.649  -3.620   0.797  1.00  0.00     0.016 A 
ATOM     14  C   UNL     1      31.276  -4.204  -0.416  1.00  0.00     0.051 A 
ATOM     15  C   UNL     1      30.932  -5.561  -0.473  1.00  0.00     0.157 A 
ATOM     16  C   UNL     1      31.330  -5.745   1.915  1.00  0.00     0.062 A 
ATOM     17  C   UNL     1      30.956  -6.334   0.701  1.00  0.00     0.158 A 
BRANCH  15  18
ATOM     18  O   UNL     1      30.563  -6.141  -1.685  1.00  0.00    -0.504 OA
ATOM     19  H   UNL     1      30.434  -7.141  -1.777  1.00  0.00     0.293 HD
ENDBRANCH  15  18
BRANCH  17  20
ATOM     20  O   UNL     1      30.613  -7.685   0.681  1.00  0.00    -0.504 OA
ATOM     21  H   UNL     1      30.971  -8.321  -0.022  1.00  0.00     0.293 HD
ENDBRANCH  17  20
ENDBRANCH   1  12
BRANCH   2  22
ATOM     22  O   UNL     1      33.986  -2.650   2.320  1.00  0.00    -0.502 OA
ATOM     23  H   UNL     1      34.101  -3.299   1.551  1.00  0.00     0.293 HD
ENDBRANCH   2  22
BRANCH   6  24
ATOM     24  O   UNL     1      33.670  -1.132   7.415  1.00  0.00    -0.507 OA
ATOM     25  H   UNL     1      33.871  -0.330   6.837  1.00  0.00     0.293 HD
ENDBRANCH   6  24
BRANCH   8  26
ATOM     26  O   UNL     1      30.157  -3.994   8.955  1.00  0.00    -0.508 OA
ATOM     27  H   UNL     1      30.281  -4.912   9.365  1.00  0.00     0.293 HD
ENDBRANCH   8  26
TORSDOF 6
ENDMDL
MODEL 6
REMARK VINA RESULT:    -6.302      1.699      6.868
REMARK INTER + INTRA:          -7.868
REMARK INTER:                  -7.733
REMARK INTRA:                  -0.135
REMARK UNBOUND:                -0.277
REMARK SMILES O=c1c(O)c(-c2ccc(O)c(O)c2)oc2cc(O)cc(O)c12
REMARK SMILES IDX 5 1 3 2 2 3 1 4 22 5 20 6 19 7 17 8 16 9 15 10 14 11 6 12
REMARK SMILES IDX 7 13 8 14 9 15 13 16 11 17 10 18 12 20 4 22 21 24 18 26
REMARK H PARENT 10 19 12 21 4 23 21 25 18 27
REMARK Flexibility Score: inf
ROOT
ATOM      1  C   UNL     1      32.034  -3.702   3.101  1.00  0.00     0.180 A 
ATOM      2  C   UNL     1      31.155  -3.680   4.198  1.00  0.00     0.208 A 
ATOM      3  C   UNL     1      31.565  -3.061   5.389  1.00  0.00     0.238 A 
ATOM      4  O   UNL     1      30.754  -2.998   6.348  1.00  0.00    -0.285 OA
ATOM      5  C   UNL     1      32.857  -2.487   5.473  1.00  0.00     0.111 A 
ATOM      6  C   UNL     1      33.393  -1.870   6.644  1.00  0.00     0.134 A 
ATOM      7  C   UNL     1      34.632  -1.220   6.576  1.00  0.00     0.093 A 
ATOM      8  C   UNL     1      35.381  -1.220   5.400  1.00  0.00     0.123 A 
ATOM      9  C   UNL     1      34.893  -1.872   4.267  1.00  0.00     0.094 A 
ATOM     10  C   UNL     1      33.645  -2.498   4.294  1.00  0.00     0.146 A 
ATOM     11  O   UNL     1      33.212  -3.098   3.191  1.00  0.00    -0.452 OA
ENDROOT
BRANCH   1  12
ATOM     12  C   UNL     1      31.681  -4.358   1.821  1.00  0.00     0.025 A 
ATOM     13  C   UNL     1      31.546  -3.618   0.633  1.00  0.00     0.016 A 
ATOM     14  C   UNL     1      31.188  -4.255  -0.559  1.00  0.00     0.051 A 
ATOM     15  C   UNL     1      30.948  -5.634  -0.580  1.00  0.00     0.157 A 
ATOM     16  C   UNL     1      31.419  -5.737   1.800  1.00  0.00     0.062 A 
ATOM     17  C   UNL     1      31.061  -6.378   0.607  1.00  0.00     0.158 A 
BRANCH  15  18
ATOM     18  O   UNL     1      30.593  -6.266  -1.770  1.00  0.00    -0.504 OA
ATOM     19  H   UNL     1      30.770  -5.838  -2.671  1.00  0.00     0.293 HD
ENDBRANCH  15  18
BRANCH  17  20
ATOM     20  O   UNL     1      30.822  -7.752   0.622  1.00  0.00    -0.504 OA
ATOM     21  H   UNL     1      30.544  -8.241   1.465  1.00  0.00     0.293 HD
ENDBRANCH  17  20
ENDBRANCH   1  12
BRANCH   2  22
ATOM     22  O   UNL     1      29.876  -4.235   4.085  1.00  0.00    -0.502 OA
ATOM     23  H   UNL     1      29.195  -3.900   3.414  1.00  0.00     0.293 HD
ENDBRANCH   2  22
BRANCH   6  24
ATOM     24  O   UNL     1      32.768  -1.891   7.894  1.00  0.00    -0.507 OA
ATOM     25  H   UNL     1      33.251  -1.874   8.779  1.00  0.00     0.293 HD
ENDBRANCH   6  24
BRANCH   8  26
ATOM     26  O   UNL     1      36.617  -0.575   5.372  1.00  0.00    -0.508 OA
ATOM     27  H   UNL     1      37.469  -1.073   5.145  1.00  0.00     0.293 HD
ENDBRANCH   8  26
TORSDOF 6
ENDMDL
MODEL 7
REMARK VINA RESULT:    -6.160      1.784      2.201
REMARK INTER + INTRA:          -7.697
REMARK INTER:                  -7.364
REMARK INTRA:                  -0.333
REMARK UNBOUND:                -0.277
REMARK SMILES O=c1c(O)c(-c2ccc(O)c(O)c2)oc2cc(O)cc(O)c12
REMARK SMILES IDX 5 1 3 2 2 3 1 4 22 5 20 6 19 7 17 8 16 9 15 10 14 11 6 12
REMARK SMILES IDX 7 13 8 14 9 15 13 16 11 17 10 18 12 20 4 22 21 24 18 26
REMARK H PARENT 10 19 12 21 4 23 21 25 18 27
REMARK Flexibility Score: inf
ROOT
ATOM      1  C   UNL     1      31.350  -3.714   3.869  1.00  0.00     0.180 A 
ATOM      2  C   UNL     1      31.568  -5.005   4.382  1.00  0.00     0.208 A 
ATOM      3  C   UNL     1      31.656  -6.086   3.492  1.00  0.00     0.238 A 
ATOM      4  O   UNL     1      31.905  -7.231   3.954  1.00  0.00    -0.285 OA
ATOM      5  C   UNL     1      31.509  -5.866   2.101  1.00  0.00     0.111 A 
ATOM      6  C   UNL     1      31.539  -6.895   1.111  1.00  0.00     0.134 A 
ATOM      7  C   UNL     1      31.513  -6.548  -0.246  1.00  0.00     0.093 A 
ATOM      8  C   UNL     1      31.393  -5.218  -0.646  1.00  0.00     0.123 A 
ATOM      9  C   UNL     1      31.302  -4.209   0.314  1.00  0.00     0.094 A 
ATOM     10  C   UNL     1      31.361  -4.521   1.675  1.00  0.00     0.146 A 
ATOM     11  O   UNL     1      31.282  -3.531   2.556  1.00  0.00    -0.452 OA
ENDROOT
BRANCH   1  12
ATOM     12  C   UNL     1      31.222  -2.528   4.746  1.00  0.00     0.025 A 
ATOM     13  C   UNL     1      29.981  -2.150   5.289  1.00  0.00     0.016 A 
ATOM     14  C   UNL     1      29.879  -1.013   6.095  1.00  0.00     0.051 A 
ATOM     15  C   UNL     1      31.010  -0.231   6.361  1.00  0.00     0.157 A 
ATOM     16  C   UNL     1      32.349  -1.729   4.998  1.00  0.00     0.062 A 
ATOM     17  C   UNL     1      32.251  -0.590   5.806  1.00  0.00     0.158 A 
BRANCH  15  18
ATOM     18  O   UNL     1      30.906   0.902   7.166  1.00  0.00    -0.504 OA
ATOM     19  H   UNL     1      30.150   1.566   7.052  1.00  0.00     0.293 HD
ENDBRANCH  15  18
BRANCH  17  20
ATOM     20  O   UNL     1      33.394   0.172   6.045  1.00  0.00    -0.504 OA
ATOM     21  H   UNL     1      34.224   0.091   5.470  1.00  0.00     0.293 HD
ENDBRANCH  17  20
ENDBRANCH   1  12
BRANCH   2  22
ATOM     22  O   UNL     1      31.732  -5.196   5.758  1.00  0.00    -0.502 OA
ATOM     23  H   UNL     1      32.620  -5.055   6.224  1.00  0.00     0.293 HD
ENDBRANCH   2  22
BRANCH   6  24
ATOM     24  O   UNL     1      31.566  -8.261   1.405  1.00  0.00    -0.507 OA
ATOM     25  H   UNL     1      30.922  -8.729   2.024  1.00  0.00     0.293 HD
ENDBRANCH   6  24
BRANCH   8  26
ATOM     26  O   UNL     1      31.355  -4.910  -2.006  1.00  0.00    -0.508 OA
ATOM     27  H   UNL     1      31.087  -3.989  -2.333  1.00  0.00     0.293 HD
ENDBRANCH   8  26
TORSDOF 6
ENDMDL
MODEL 8
REMARK VINA RESULT:    -6.130      1.981      6.652
REMARK INTER + INTRA:          -7.660
REMARK INTER:                  -7.665
REMARK INTRA:                   0.005
REMARK UNBOUND:                -0.277
REMARK SMILES O=c1c(O)c(-c2ccc(O)c(O)c2)oc2cc(O)cc(O)c12
REMARK SMILES IDX 5 1 3 2 2 3 1 4 22 5 20 6 19 7 17 8 16 9 15 10 14 11 6 12
REMARK SMILES IDX 7 13 8 14 9 15 13 16 11 17 10 18 12 20 4 22 21 24 18 26
REMARK H PARENT 10 19 12 21 4 23 21 25 18 27
REMARK Flexibility Score: inf
ROOT
ATOM      1  C   UNL     1      31.641  -4.452   3.761  1.00  0.00     0.180 A 
ATOM      2  C   UNL     1      30.856  -4.951   4.815  1.00  0.00     0.208 A 
ATOM      3  C   UNL     1      31.046  -4.437   6.108  1.00  0.00     0.238 A 
ATOM      4  O   UNL     1      30.303  -4.850   7.037  1.00  0.00    -0.285 OA
ATOM      5  C   UNL     1      32.029  -3.444   6.333  1.00  0.00     0.111 A 
ATOM      6  C   UNL     1      32.335  -2.882   7.609  1.00  0.00     0.134 A 
ATOM      7  C   UNL     1      33.236  -1.813   7.695  1.00  0.00     0.093 A 
ATOM      8  C   UNL     1      33.889  -1.329   6.562  1.00  0.00     0.123 A 
ATOM      9  C   UNL     1      33.642  -1.911   5.317  1.00  0.00     0.094 A 
ATOM     10  C   UNL     1      32.722  -2.955   5.195  1.00  0.00     0.146 A 
ATOM     11  O   UNL     1      32.508  -3.475   3.992  1.00  0.00    -0.452 OA
ENDROOT
BRANCH   1  12
ATOM     12  C   UNL     1      31.515  -4.961   2.376  1.00  0.00     0.025 A 
ATOM     13  C   UNL     1      31.503  -6.340   2.101  1.00  0.00     0.016 A 
ATOM     14  C   UNL     1      31.408  -6.797   0.784  1.00  0.00     0.051 A 
ATOM     15  C   UNL     1      31.337  -5.886  -0.278  1.00  0.00     0.157 A 
ATOM     16  C   UNL     1      31.465  -4.052   1.307  1.00  0.00     0.062 A 
ATOM     17  C   UNL     1      31.369  -4.506  -0.014  1.00  0.00     0.158 A 
BRANCH  15  18
ATOM     18  O   UNL     1      31.240  -6.345  -1.590  1.00  0.00    -0.504 OA
ATOM     19  H   UNL     1      31.676  -7.212  -1.882  1.00  0.00     0.293 HD
ENDBRANCH  15  18
BRANCH  17  20
ATOM     20  O   UNL     1      31.308  -3.573  -1.049  1.00  0.00    -0.504 OA
ATOM     21  H   UNL     1      30.992  -2.623  -0.898  1.00  0.00     0.293 HD
ENDBRANCH  17  20
ENDBRANCH   1  12
BRANCH   2  22
ATOM     22  O   UNL     1      29.876  -5.917   4.566  1.00  0.00    -0.502 OA
ATOM     23  H   UNL     1      29.320  -6.330   5.305  1.00  0.00     0.293 HD
ENDBRANCH   2  22
BRANCH   6  24
ATOM     24  O   UNL     1      31.808  -3.351   8.815  1.00  0.00    -0.507 OA
ATOM     25  H   UNL     1      30.854  -3.652   8.948  1.00  0.00     0.293 HD
ENDBRANCH   6  24
BRANCH   8  26
ATOM     26  O   UNL     1      34.790  -0.273   6.686  1.00  0.00    -0.508 OA
ATOM     27  H   UNL     1      34.551   0.571   7.194  1.00  0.00     0.293 HD
ENDBRANCH   8  26
TORSDOF 6
ENDMDL
MODEL 9
REMARK VINA RESULT:    -6.124      3.837      6.568
REMARK INTER + INTRA:          -7.653
REMARK INTER:                  -7.617
REMARK INTRA:                  -0.037
REMARK UNBOUND:                -0.277
REMARK SMILES O=c1c(O)c(-c2ccc(O)c(O)c2)oc2cc(O)cc(O)c12
REMARK SMILES IDX 5 1 3 2 2 3 1 4 22 5 20 6 19 7 17 8 16 9 15 10 14 11 6 12
REMARK SMILES IDX 7 13 8 14 9 15 13 16 11 17 10 18 12 20 4 22 21 24 18 26
REMARK H PARENT 10 19 12 21 4 23 21 25 18 27
REMARK Flexibility Score: inf
ROOT
ATOM      1  C   UNL     1      30.661  -7.437   3.686  1.00  0.00     0.180 A 
ATOM      2  C   UNL     1      30.267  -7.057   4.981  1.00  0.00     0.208 A 
ATOM      3  C   UNL     1      30.191  -8.036   5.985  1.00  0.00     0.238 A 
ATOM      4  O   UNL     1      29.891  -7.681   7.154  1.00  0.00    -0.285 OA
ATOM      5  C   UNL     1      30.494  -9.384   5.677  1.00  0.00     0.111 A 
ATOM      6  C   UNL     1      30.412 -10.466   6.606  1.00  0.00     0.134 A 
ATOM      7  C   UNL     1      30.860 -11.737   6.227  1.00  0.00     0.093 A 
ATOM      8  C   UNL     1      31.326 -11.981   4.936  1.00  0.00     0.123 A 
ATOM      9  C   UNL     1      31.355 -10.945   4.001  1.00  0.00     0.094 A 
ATOM     10  C   UNL     1      30.948  -9.657   4.361  1.00  0.00     0.146 A 
ATOM     11  O   UNL     1      31.001  -8.697   3.445  1.00  0.00    -0.452 OA
ENDROOT
BRANCH   1  12
ATOM     12  C   UNL     1      30.740  -6.466   2.571  1.00  0.00     0.025 A 
ATOM     13  C   UNL     1      30.056  -6.684   1.361  1.00  0.00     0.016 A 
ATOM     14  C   UNL     1      30.165  -5.766   0.313  1.00  0.00     0.051 A 
ATOM     15  C   UNL     1      30.967  -4.626   0.451  1.00  0.00     0.157 A 
ATOM     16  C   UNL     1      31.559  -5.333   2.697  1.00  0.00     0.062 A 
ATOM     17  C   UNL     1      31.670  -4.411   1.649  1.00  0.00     0.158 A 
BRANCH  15  18
ATOM     18  O   UNL     1      31.072  -3.712  -0.595  1.00  0.00    -0.504 OA
ATOM     19  H   UNL     1      31.679  -2.903  -0.534  1.00  0.00     0.293 HD
ENDBRANCH  15  18
BRANCH  17  20
ATOM     20  O   UNL     1      32.483  -3.290   1.816  1.00  0.00    -0.504 OA
ATOM     21  H   UNL     1      33.296  -3.300   2.420  1.00  0.00     0.293 HD
ENDBRANCH  17  20
ENDBRANCH   1  12
BRANCH   2  22
ATOM     22  O   UNL     1      29.993  -5.716   5.268  1.00  0.00    -0.502 OA
ATOM     23  H   UNL     1      30.712  -5.065   5.559  1.00  0.00     0.293 HD
ENDBRANCH   2  22
BRANCH   6  24
ATOM     24  O   UNL     1      29.876 -10.350   7.892  1.00  0.00    -0.507 OA
ATOM     25  H   UNL     1      30.378 -10.550   8.744  1.00  0.00     0.293 HD
ENDBRANCH   6  24
BRANCH   8  26
ATOM     26  O   UNL     1      31.751 -13.262   4.589  1.00  0.00    -0.508 OA
ATOM     27  H   UNL     1      31.308 -14.089   4.973  1.00  0.00     0.293 HD
ENDBRANCH   8  26
TORSDOF 6
ENDMDL
