MODEL 1
REMARK VINA RESULT:    -2.693      0.000      0.000
REMARK INTER + INTRA:          -3.240
REMARK INTER:                  -2.929
REMARK INTRA:                  -0.311
REMARK UNBOUND:                -0.311
REMARK SMILES CC(=O)c1cc(C)ccc1O
REMARK SMILES IDX 7 1 6 2 5 3 4 4 10 5 9 6 8 7 2 8 3 9 1 10 11 11
REMARK H PARENT 11 12
REMARK Flexibility Score: inf
ROOT
ATOM      1  C   UNL     1     111.999  88.150  57.294  1.00  0.00     0.044 C 
ATOM      2  C   UNL     1     110.630  87.585  57.541  1.00  0.00    -0.050 A 
ATOM      3  C   UNL     1     109.640  87.679  56.552  1.00  0.00     0.019 A 
ATOM      4  C   UNL     1     108.339  87.195  56.785  1.00  0.00     0.059 A 
ATOM      5  C   UNL     1     108.043  86.596  58.035  1.00  0.00     0.126 A 
ATOM      6  C   UNL     1     109.028  86.541  59.028  1.00  0.00     0.047 A 
ATOM      7  C   UNL     1     110.310  87.035  58.786  1.00  0.00     0.007 A 
ENDROOT
BRANCH   4   8
ATOM      8  C   UNL     1     107.309  87.365  55.734  1.00  0.00     0.163 C 
ATOM      9  O   UNL     1     106.560  86.399  55.426  1.00  0.00    -0.294 OA
ATOM     10  C   UNL     1     107.070  88.696  55.090  1.00  0.00     0.093 C 
ENDBRANCH   4   8
BRANCH   5  11
ATOM     11  O   UNL     1     106.800  86.025  58.315  1.00  0.00    -0.507 OA
ATOM     12  H   UNL     1     106.518  85.114  57.979  1.00  0.00     0.293 HD
ENDBRANCH   5  11
TORSDOF 2
ENDMDL
MODEL 2
REMARK VINA RESULT:    -2.558      1.441      1.704
REMARK INTER + INTRA:          -3.094
REMARK INTER:                  -2.789
REMARK INTRA:                  -0.305
REMARK UNBOUND:                -0.311
REMARK SMILES CC(=O)c1cc(C)ccc1O
REMARK SMILES IDX 7 1 6 2 5 3 4 4 10 5 9 6 8 7 2 8 3 9 1 10 11 11
REMARK H PARENT 11 12
REMARK Flexibility Score: inf
ROOT
ATOM      1  C   UNL     1     110.445  88.855  55.489  1.00  0.00     0.044 C 
ATOM      2  C   UNL     1     109.471  87.999  56.246  1.00  0.00    -0.050 A 
ATOM      3  C   UNL     1     108.499  87.260  55.558  1.00  0.00     0.019 A 
ATOM      4  C   UNL     1     107.549  86.489  56.255  1.00  0.00     0.059 A 
ATOM      5  C   UNL     1     107.597  86.458  57.671  1.00  0.00     0.126 A 
ATOM      6  C   UNL     1     108.549  87.228  58.350  1.00  0.00     0.047 A 
ATOM      7  C   UNL     1     109.476  87.997  57.645  1.00  0.00     0.007 A 
ENDROOT
BRANCH   4   8
ATOM      8  C   UNL     1     106.505  85.768  55.490  1.00  0.00     0.163 C 
ATOM      9  O   UNL     1     106.146  84.615  55.850  1.00  0.00    -0.294 OA
ATOM     10  C   UNL     1     105.792  86.422  54.347  1.00  0.00     0.093 C 
ENDBRANCH   4   8
BRANCH   5  11
ATOM     11  O   UNL     1     106.741  85.659  58.431  1.00  0.00    -0.507 OA
ATOM     12  H   UNL     1     106.630  85.758  59.432  1.00  0.00     0.293 HD
ENDBRANCH   5  11
TORSDOF 2
ENDMDL
MODEL 3
REMARK VINA RESULT:    -2.442      2.126      3.135
REMARK INTER + INTRA:          -2.967
REMARK INTER:                  -2.678
REMARK INTRA:                  -0.289
REMARK UNBOUND:                -0.311
REMARK SMILES CC(=O)c1cc(C)ccc1O
REMARK SMILES IDX 7 1 6 2 5 3 4 4 10 5 9 6 8 7 2 8 3 9 1 10 11 11
REMARK H PARENT 11 12
REMARK Flexibility Score: inf
ROOT
ATOM      1  C   UNL     1     106.595  84.675  58.350  1.00  0.00     0.044 C 
ATOM      2  C   UNL     1     107.594  85.775  58.140  1.00  0.00    -0.050 A 
ATOM      3  C   UNL     1     107.509  86.599  57.008  1.00  0.00     0.019 A 
ATOM      4  C   UNL     1     108.465  87.605  56.774  1.00  0.00     0.059 A 
ATOM      5  C   UNL     1     109.514  87.786  57.708  1.00  0.00     0.126 A 
ATOM      6  C   UNL     1     109.611  86.935  58.815  1.00  0.00     0.047 A 
ATOM      7  C   UNL     1     108.663  85.934  59.029  1.00  0.00     0.007 A 
ENDROOT
BRANCH   4   8
ATOM      8  C   UNL     1     108.368  88.416  55.537  1.00  0.00     0.163 C 
ATOM      9  O   UNL     1     109.411  88.894  55.016  1.00  0.00    -0.294 OA
ATOM     10  C   UNL     1     107.059  88.601  54.832  1.00  0.00     0.093 C 
ENDBRANCH   4   8
BRANCH   5  11
ATOM     11  O   UNL     1     110.456  88.810  57.588  1.00  0.00    -0.507 OA
ATOM     12  H   UNL     1     110.777  89.366  58.369  1.00  0.00     0.293 HD
ENDBRANCH   5  11
TORSDOF 2
ENDMDL
MODEL 4
REMARK VINA RESULT:    -2.434     12.461     14.198
REMARK INTER + INTRA:          -2.959
REMARK INTER:                  -2.647
REMARK INTRA:                  -0.311
REMARK UNBOUND:                -0.311
REMARK SMILES CC(=O)c1cc(C)ccc1O
REMARK SMILES IDX 7 1 6 2 5 3 4 4 10 5 9 6 8 7 2 8 3 9 1 10 11 11
REMARK H PARENT 11 12
REMARK Flexibility Score: inf
ROOT
ATOM      1  C   UNL     1     119.988  88.807  57.594  1.00  0.00     0.044 C 
ATOM      2  C   UNL     1     120.997  87.712  57.406  1.00  0.00    -0.050 A 
ATOM      3  C   UNL     1     121.967  87.812  56.398  1.00  0.00     0.019 A 
ATOM      4  C   UNL     1     122.891  86.773  56.179  1.00  0.00     0.059 A 
ATOM      5  C   UNL     1     122.838  85.622  57.004  1.00  0.00     0.126 A 
ATOM      6  C   UNL     1     121.843  85.516  57.983  1.00  0.00     0.047 A 
ATOM      7  C   UNL     1     120.926  86.549  58.181  1.00  0.00     0.007 A 
ENDROOT
BRANCH   4   8
ATOM      8  C   UNL     1     123.863  86.897  55.067  1.00  0.00     0.163 C 
ATOM      9  O   UNL     1     125.075  86.610  55.257  1.00  0.00    -0.294 OA
ATOM     10  C   UNL     1     123.416  87.265  53.685  1.00  0.00     0.093 C 
ENDBRANCH   4   8
BRANCH   5  11
ATOM     11  O   UNL     1     123.766  84.585  56.901  1.00  0.00    -0.507 OA
ATOM     12  H   UNL     1     124.757  84.735  56.767  1.00  0.00     0.293 HD
ENDBRANCH   5  11
TORSDOF 2
ENDMDL
MODEL 5
REMARK VINA RESULT:    -2.430      1.415      2.779
REMARK INTER + INTRA:          -2.955
REMARK INTER:                  -2.658
REMARK INTRA:                  -0.297
REMARK UNBOUND:                -0.311
REMARK SMILES CC(=O)c1cc(C)ccc1O
REMARK SMILES IDX 7 1 6 2 5 3 4 4 10 5 9 6 8 7 2 8 3 9 1 10 11 11
REMARK H PARENT 11 12
REMARK Flexibility Score: inf
ROOT
ATOM      1  C   UNL     1     111.149  87.186  59.121  1.00  0.00     0.044 C 
ATOM      2  C   UNL     1     109.933  87.218  58.241  1.00  0.00    -0.050 A 
ATOM      3  C   UNL     1     108.985  86.187  58.310  1.00  0.00     0.019 A 
ATOM      4  C   UNL     1     107.864  86.179  57.460  1.00  0.00     0.059 A 
ATOM      5  C   UNL     1     107.695  87.241  56.537  1.00  0.00     0.126 A 
ATOM      6  C   UNL     1     108.664  88.246  56.451  1.00  0.00     0.047 A 
ATOM      7  C   UNL     1     109.778  88.234  57.292  1.00  0.00     0.007 A 
ENDROOT
BRANCH   4   8
ATOM      8  C   UNL     1     106.917  85.041  57.527  1.00  0.00     0.163 C 
ATOM      9  O   UNL     1     106.325  84.653  56.484  1.00  0.00    -0.294 OA
ATOM     10  C   UNL     1     106.718  84.273  58.798  1.00  0.00     0.093 C 
ENDBRANCH   4   8
BRANCH   5  11
ATOM     11  O   UNL     1     106.571  87.346  55.714  1.00  0.00    -0.507 OA
ATOM     12  H   UNL     1     106.579  87.814  54.818  1.00  0.00     0.293 HD
ENDBRANCH   5  11
TORSDOF 2
ENDMDL
MODEL 6
REMARK VINA RESULT:    -2.407     11.503     12.510
REMARK INTER + INTRA:          -2.930
REMARK INTER:                  -2.638
REMARK INTRA:                  -0.292
REMARK UNBOUND:                -0.311
REMARK SMILES CC(=O)c1cc(C)ccc1O
REMARK SMILES IDX 7 1 6 2 5 3 4 4 10 5 9 6 8 7 2 8 3 9 1 10 11 11
REMARK H PARENT 11 12
REMARK Flexibility Score: inf
ROOT
ATOM      1  C   UNL     1     123.071  84.721  57.936  1.00  0.00     0.044 C 
ATOM      2  C   UNL     1     122.021  85.793  57.953  1.00  0.00    -0.050 A 
ATOM      3  C   UNL     1     121.873  86.653  56.855  1.00  0.00     0.019 A 
ATOM      4  C   UNL     1     120.924  87.693  56.875  1.00  0.00     0.059 A 
ATOM      5  C   UNL     1     120.106  87.853  58.020  1.00  0.00     0.126 A 
ATOM      6  C   UNL     1     120.287  87.013  59.125  1.00  0.00     0.047 A 
ATOM      7  C   UNL     1     121.239  85.994  59.096  1.00  0.00     0.007 A 
ENDROOT
BRANCH   4   8
ATOM      8  C   UNL     1     120.839  88.612  55.716  1.00  0.00     0.163 C 
ATOM      9  O   UNL     1     119.732  89.122  55.398  1.00  0.00    -0.294 OA
ATOM     10  C   UNL     1     122.067  89.028  54.966  1.00  0.00     0.093 C 
ENDBRANCH   4   8
BRANCH   5  11
ATOM     11  O   UNL     1     119.091  88.810  58.087  1.00  0.00    -0.507 OA
ATOM     12  H   UNL     1     119.152  89.717  57.645  1.00  0.00     0.293 HD
ENDBRANCH   5  11
TORSDOF 2
ENDMDL
MODEL 7
REMARK VINA RESULT:    -2.407      2.722      4.031
REMARK INTER + INTRA:          -2.929
REMARK INTER:                  -2.672
REMARK INTRA:                  -0.257
REMARK UNBOUND:                -0.311
REMARK SMILES CC(=O)c1cc(C)ccc1O
REMARK SMILES IDX 7 1 6 2 5 3 4 4 10 5 9 6 8 7 2 8 3 9 1 10 11 11
REMARK H PARENT 11 12
REMARK Flexibility Score: inf
ROOT
ATOM      1  C   UNL     1     107.093  87.752  55.305  1.00  0.00     0.044 C 
ATOM      2  C   UNL     1     108.228  87.740  56.287  1.00  0.00    -0.050 A 
ATOM      3  C   UNL     1     109.462  88.311  55.947  1.00  0.00     0.019 A 
ATOM      4  C   UNL     1     110.550  88.267  56.840  1.00  0.00     0.059 A 
ATOM      5  C   UNL     1     110.376  87.646  58.102  1.00  0.00     0.126 A 
ATOM      6  C   UNL     1     109.152  87.047  58.418  1.00  0.00     0.047 A 
ATOM      7  C   UNL     1     108.086  87.088  57.518  1.00  0.00     0.007 A 
ENDROOT
BRANCH   4   8
ATOM      8  C   UNL     1     111.852  88.834  56.417  1.00  0.00     0.163 C 
ATOM      9  O   UNL     1     112.721  89.125  57.282  1.00  0.00    -0.294 OA
ATOM     10  C   UNL     1     112.199  88.980  54.967  1.00  0.00     0.093 C 
ENDBRANCH   4   8
BRANCH   5  11
ATOM     11  O   UNL     1     111.381  87.629  59.071  1.00  0.00    -0.507 OA
ATOM     12  H   UNL     1     111.671  86.791  59.558  1.00  0.00     0.293 HD
ENDBRANCH   5  11
TORSDOF 2
ENDMDL
MODEL 8
REMARK VINA RESULT:    -1.036     11.686     13.748
REMARK INTER + INTRA:          -1.438
REMARK INTER:                  -1.148
REMARK INTRA:                  -0.290
REMARK UNBOUND:                -0.311
REMARK SMILES CC(=O)c1cc(C)ccc1O
REMARK SMILES IDX 7 1 6 2 5 3 4 4 10 5 9 6 8 7 2 8 3 9 1 10 11 11
REMARK H PARENT 11 12
REMARK Flexibility Score: inf
ROOT
ATOM      1  C   UNL     1     118.866  87.572  59.125  1.00  0.00     0.044 C 
ATOM      2  C   UNL     1     120.113  87.297  58.337  1.00  0.00    -0.050 A 
ATOM      3  C   UNL     1     120.842  86.118  58.556  1.00  0.00     0.019 A 
ATOM      4  C   UNL     1     122.038  85.868  57.858  1.00  0.00     0.059 A 
ATOM      5  C   UNL     1     122.494  86.821  56.913  1.00  0.00     0.126 A 
ATOM      6  C   UNL     1     121.779  88.010  56.728  1.00  0.00     0.047 A 
ATOM      7  C   UNL     1     120.601  88.250  57.436  1.00  0.00     0.007 A 
ENDROOT
BRANCH   4   8
ATOM      8  C   UNL     1     122.804  84.637  58.161  1.00  0.00     0.163 C 
ATOM      9  O   UNL     1     124.058  84.628  58.030  1.00  0.00    -0.294 OA
ATOM     10  C   UNL     1     122.129  83.421  58.718  1.00  0.00     0.093 C 
ENDBRANCH   4   8
BRANCH   5  11
ATOM     11  O   UNL     1     123.627  86.611  56.126  1.00  0.00    -0.507 OA
ATOM     12  H   UNL     1     124.127  85.732  56.092  1.00  0.00     0.293 HD
ENDBRANCH   5  11
TORSDOF 2
ENDMDL
