MODEL 1
REMARK VINA RESULT:    -3.571      0.000      0.000
REMARK INTER + INTRA:          -8.007
REMARK INTER:                  -6.285
REMARK INTRA:                  -1.722
REMARK UNBOUND:                -1.722
REMARK SMILES CCCCCCCCCCCCCCC(=O)[O-]
REMARK SMILES IDX 9 1 10 2 11 3 12 4 13 5 14 6 15 7 16 8 17 9 8 10 7 11 6 12
REMARK SMILES IDX 5 13 4 14 3 15 2 16 1 17
REMARK H PARENT
REMARK Flexibility Score: inf
ROOT
ATOM      1  C   UNL     1     -31.725   4.864  -0.537  1.00  0.00     0.000 C 
ENDROOT
BRANCH   1   2
ATOM      2  C   UNL     1     -32.683   4.076   0.378  1.00  0.00     0.000 C 
BRANCH   2   3
ATOM      3  C   UNL     1     -34.099   3.859  -0.191  1.00  0.00     0.000 C 
BRANCH   3   4
ATOM      4  C   UNL     1     -34.428   4.683  -1.452  1.00  0.00     0.000 C 
BRANCH   4   5
ATOM      5  C   UNL     1     -35.569   5.703  -1.280  1.00  0.00     0.006 C 
BRANCH   5   6
ATOM      6  C   UNL     1     -35.069   7.152  -1.232  1.00  0.00     0.053 C 
BRANCH   6   7
ATOM      7  C   UNL     1     -35.110   7.765  -2.597  1.00  0.00     0.041 C 
ATOM      8  O   UNL     1     -36.014   7.438  -3.411  1.00  0.00    -0.550 OA
ATOM      9  O   UNL     1     -34.119   8.658  -2.989  1.00  0.00    -0.550 OA
ENDBRANCH   6   7
ENDBRANCH   5   6
ENDBRANCH   4   5
ENDBRANCH   3   4
ENDBRANCH   2   3
ENDBRANCH   1   2
BRANCH   1  10
ATOM     10  C   UNL     1     -31.487   6.328  -0.126  1.00  0.00     0.000 C 
BRANCH  10  11
ATOM     11  C   UNL     1     -31.297   7.264  -1.329  1.00  0.00    -0.000 C 
BRANCH  11  12
ATOM     12  C   UNL     1     -29.864   7.813  -1.377  1.00  0.00    -0.000 C 
BRANCH  12  13
ATOM     13  C   UNL     1     -29.015   7.185  -2.497  1.00  0.00    -0.000 C 
BRANCH  13  14
ATOM     14  C   UNL     1     -28.022   6.103  -2.035  1.00  0.00    -0.000 C 
BRANCH  14  15
ATOM     15  C   UNL     1     -28.448   4.683  -2.442  1.00  0.00    -0.000 C 
BRANCH  15  16
ATOM     16  C   UNL     1     -28.344   3.719  -1.256  1.00  0.00    -0.003 C 
ATOM     17  C   UNL     1     -27.713   4.399  -0.044  1.00  0.00     0.004 C 
ENDBRANCH  15  16
ENDBRANCH  14  15
ENDBRANCH  13  14
ENDBRANCH  12  13
ENDBRANCH  11  12
ENDBRANCH  10  11
ENDBRANCH   1  10
TORSDOF 13
ENDMDL
MODEL 2
REMARK VINA RESULT:    -3.553      3.317      6.063
REMARK INTER + INTRA:          -7.976
REMARK INTER:                  -5.518
REMARK INTRA:                  -2.458
REMARK UNBOUND:                -1.722
REMARK SMILES CCCCCCCCCCCCCCC(=O)[O-]
REMARK SMILES IDX 9 1 10 2 11 3 12 4 13 5 14 6 15 7 16 8 17 9 8 10 7 11 6 12
REMARK SMILES IDX 5 13 4 14 3 15 2 16 1 17
REMARK H PARENT
REMARK Flexibility Score: inf
ROOT
ATOM      1  C   UNL     1     -33.535   8.333  -2.529  1.00  0.00     0.000 C 
ENDROOT
BRANCH   1   2
ATOM      2  C   UNL     1     -32.246   7.561  -2.875  1.00  0.00     0.000 C 
BRANCH   2   3
ATOM      3  C   UNL     1     -32.104   6.189  -2.187  1.00  0.00     0.000 C 
BRANCH   3   4
ATOM      4  C   UNL     1     -32.554   6.148  -0.713  1.00  0.00     0.000 C 
BRANCH   4   5
ATOM      5  C   UNL     1     -32.269   4.823   0.016  1.00  0.00     0.006 C 
BRANCH   5   6
ATOM      6  C   UNL     1     -33.437   3.832  -0.071  1.00  0.00     0.053 C 
BRANCH   6   7
ATOM      7  C   UNL     1     -32.990   2.550  -0.699  1.00  0.00     0.041 C 
ATOM      8  O   UNL     1     -32.130   2.562  -1.620  1.00  0.00    -0.550 OA
ATOM      9  O   UNL     1     -33.560   1.346  -0.304  1.00  0.00    -0.550 OA
ENDBRANCH   6   7
ENDBRANCH   5   6
ENDBRANCH   4   5
ENDBRANCH   3   4
ENDBRANCH   2   3
ENDBRANCH   1   2
BRANCH   1  10
ATOM     10  C   UNL     1     -34.631   8.289  -3.609  1.00  0.00     0.000 C 
BRANCH  10  11
ATOM     11  C   UNL     1     -35.989   7.822  -3.062  1.00  0.00    -0.000 C 
BRANCH  11  12
ATOM     12  C   UNL     1     -35.868   7.378  -1.598  1.00  0.00    -0.000 C 
BRANCH  12  13
ATOM     13  C   UNL     1     -36.233   5.897  -1.385  1.00  0.00    -0.000 C 
BRANCH  13  14
ATOM     14  C   UNL     1     -36.678   5.146  -2.653  1.00  0.00    -0.000 C 
BRANCH  14  15
ATOM     15  C   UNL     1     -35.880   3.856  -2.897  1.00  0.00    -0.000 C 
BRANCH  15  16
ATOM     16  C   UNL     1     -34.596   4.146  -3.682  1.00  0.00    -0.003 C 
ATOM     17  C   UNL     1     -34.903   4.849  -5.002  1.00  0.00     0.004 C 
ENDBRANCH  15  16
ENDBRANCH  14  15
ENDBRANCH  13  14
ENDBRANCH  12  13
ENDBRANCH  11  12
ENDBRANCH  10  11
ENDBRANCH   1  10
TORSDOF 13
ENDMDL
MODEL 3
REMARK VINA RESULT:    -3.553      2.573      5.843
REMARK INTER + INTRA:          -7.974
REMARK INTER:                  -6.092
REMARK INTRA:                  -1.882
REMARK UNBOUND:                -1.722
REMARK SMILES CCCCCCCCCCCCCCC(=O)[O-]
REMARK SMILES IDX 9 1 10 2 11 3 12 4 13 5 14 6 15 7 16 8 17 9 8 10 7 11 6 12
REMARK SMILES IDX 5 13 4 14 3 15 2 16 1 17
REMARK H PARENT
REMARK Flexibility Score: inf
ROOT
ATOM      1  C   UNL     1     -33.735   5.717  -1.451  1.00  0.00     0.000 C 
ENDROOT
BRANCH   1   2
ATOM      2  C   UNL     1     -32.934   6.767  -0.655  1.00  0.00     0.000 C 
BRANCH   2   3
ATOM      3  C   UNL     1     -31.603   6.260  -0.065  1.00  0.00     0.000 C 
BRANCH   3   4
ATOM      4  C   UNL     1     -30.580   5.754  -1.101  1.00  0.00     0.000 C 
BRANCH   4   5
ATOM      5  C   UNL     1     -29.179   6.382  -0.990  1.00  0.00     0.006 C 
BRANCH   5   6
ATOM      6  C   UNL     1     -29.008   7.617  -1.884  1.00  0.00     0.053 C 
BRANCH   6   7
ATOM      7  C   UNL     1     -29.015   8.864  -1.057  1.00  0.00     0.041 C 
ATOM      8  O   UNL     1     -29.995   9.654  -1.109  1.00  0.00    -0.550 OA
ATOM      9  O   UNL     1     -27.917   9.181  -0.267  1.00  0.00    -0.550 OA
ENDBRANCH   6   7
ENDBRANCH   5   6
ENDBRANCH   4   5
ENDBRANCH   3   4
ENDBRANCH   2   3
ENDBRANCH   1   2
BRANCH   1  10
ATOM     10  C   UNL     1     -35.204   5.556  -1.022  1.00  0.00     0.000 C 
BRANCH  10  11
ATOM     11  C   UNL     1     -36.074   6.763  -1.404  1.00  0.00    -0.000 C 
BRANCH  11  12
ATOM     12  C   UNL     1     -35.980   7.054  -2.908  1.00  0.00    -0.000 C 
BRANCH  12  13
ATOM     13  C   UNL     1     -35.864   8.556  -3.226  1.00  0.00    -0.000 C 
BRANCH  13  14
ATOM     14  C   UNL     1     -34.617   8.958  -4.034  1.00  0.00    -0.000 C 
BRANCH  14  15
ATOM     15  C   UNL     1     -33.415   9.315  -3.146  1.00  0.00    -0.000 C 
BRANCH  15  16
ATOM     16  C   UNL     1     -32.144   8.612  -3.635  1.00  0.00    -0.003 C 
ATOM     17  C   UNL     1     -32.481   7.423  -4.531  1.00  0.00     0.004 C 
ENDBRANCH  15  16
ENDBRANCH  14  15
ENDBRANCH  13  14
ENDBRANCH  12  13
ENDBRANCH  11  12
ENDBRANCH  10  11
ENDBRANCH   1  10
TORSDOF 13
ENDMDL
MODEL 4
REMARK VINA RESULT:    -3.551      3.900      6.038
REMARK INTER + INTRA:          -7.973
REMARK INTER:                  -5.952
REMARK INTRA:                  -2.021
REMARK UNBOUND:                -1.722
REMARK SMILES CCCCCCCCCCCCCCC(=O)[O-]
REMARK SMILES IDX 9 1 10 2 11 3 12 4 13 5 14 6 15 7 16 8 17 9 8 10 7 11 6 12
REMARK SMILES IDX 5 13 4 14 3 15 2 16 1 17
REMARK H PARENT
REMARK Flexibility Score: inf
ROOT
ATOM      1  C   UNL     1     -35.557   5.775  -0.984  1.00  0.00     0.000 C 
ENDROOT
BRANCH   1   2
ATOM      2  C   UNL     1     -36.591   6.054  -2.093  1.00  0.00     0.000 C 
BRANCH   2   3
ATOM      3  C   UNL     1     -36.735   4.937  -3.146  1.00  0.00     0.000 C 
BRANCH   3   4
ATOM      4  C   UNL     1     -36.438   5.366  -4.597  1.00  0.00     0.000 C 
BRANCH   4   5
ATOM      5  C   UNL     1     -35.741   4.298  -5.459  1.00  0.00     0.006 C 
BRANCH   5   6
ATOM      6  C   UNL     1     -34.754   3.438  -4.659  1.00  0.00     0.053 C 
BRANCH   6   7
ATOM      7  C   UNL     1     -35.149   1.997  -4.717  1.00  0.00     0.041 C 
ATOM      8  O   UNL     1     -35.751   1.464  -3.747  1.00  0.00    -0.550 OA
ATOM      9  O   UNL     1     -34.808   1.226  -5.823  1.00  0.00    -0.550 OA
ENDBRANCH   6   7
ENDBRANCH   5   6
ENDBRANCH   4   5
ENDBRANCH   3   4
ENDBRANCH   2   3
ENDBRANCH   1   2
BRANCH   1  10
ATOM     10  C   UNL     1     -34.113   5.572  -1.475  1.00  0.00     0.000 C 
BRANCH  10  11
ATOM     11  C   UNL     1     -33.164   6.690  -1.018  1.00  0.00    -0.000 C 
BRANCH  11  12
ATOM     12  C   UNL     1     -32.592   7.450  -2.223  1.00  0.00    -0.000 C 
BRANCH  12  13
ATOM     13  C   UNL     1     -33.176   6.977  -3.567  1.00  0.00    -0.000 C 
BRANCH  13  14
ATOM     14  C   UNL     1     -33.896   8.064  -4.385  1.00  0.00    -0.000 C 
BRANCH  14  15
ATOM     15  C   UNL     1     -34.403   9.229  -3.520  1.00  0.00    -0.000 C 
BRANCH  15  16
ATOM     16  C   UNL     1     -35.924   9.372  -3.631  1.00  0.00    -0.003 C 
ATOM     17  C   UNL     1     -36.341  10.841  -3.637  1.00  0.00     0.004 C 
ENDBRANCH  15  16
ENDBRANCH  14  15
ENDBRANCH  13  14
ENDBRANCH  12  13
ENDBRANCH  11  12
ENDBRANCH  10  11
ENDBRANCH   1  10
TORSDOF 13
ENDMDL
MODEL 5
REMARK VINA RESULT:    -3.533      3.987      6.551
REMARK INTER + INTRA:          -7.940
REMARK INTER:                  -5.935
REMARK INTRA:                  -2.005
REMARK UNBOUND:                -1.722
REMARK SMILES CCCCCCCCCCCCCCC(=O)[O-]
REMARK SMILES IDX 9 1 10 2 11 3 12 4 13 5 14 6 15 7 16 8 17 9 8 10 7 11 6 12
REMARK SMILES IDX 5 13 4 14 3 15 2 16 1 17
REMARK H PARENT
REMARK Flexibility Score: inf
ROOT
ATOM      1  C   UNL     1     -35.454   3.360  -2.476  1.00  0.00     0.000 C 
ENDROOT
BRANCH   1   2
ATOM      2  C   UNL     1     -36.324   4.254  -3.381  1.00  0.00     0.000 C 
BRANCH   2   3
ATOM      3  C   UNL     1     -36.704   5.620  -2.776  1.00  0.00     0.000 C 
BRANCH   3   4
ATOM      4  C   UNL     1     -36.075   5.924  -1.402  1.00  0.00     0.000 C 
BRANCH   4   5
ATOM      5  C   UNL     1     -34.956   6.981  -1.420  1.00  0.00     0.006 C 
BRANCH   5   6
ATOM      6  C   UNL     1     -33.561   6.375  -1.218  1.00  0.00     0.053 C 
BRANCH   6   7
ATOM      7  C   UNL     1     -32.952   6.015  -2.536  1.00  0.00     0.041 C 
ATOM      8  O   UNL     1     -32.106   5.084  -2.611  1.00  0.00    -0.550 OA
ATOM      9  O   UNL     1     -33.279   6.741  -3.675  1.00  0.00    -0.550 OA
ENDBRANCH   6   7
ENDBRANCH   5   6
ENDBRANCH   4   5
ENDBRANCH   3   4
ENDBRANCH   2   3
ENDBRANCH   1   2
BRANCH   1  10
ATOM     10  C   UNL     1     -34.653   2.271  -3.212  1.00  0.00     0.000 C 
BRANCH  10  11
ATOM     11  C   UNL     1     -35.519   1.076  -3.637  1.00  0.00    -0.000 C 
BRANCH  11  12
ATOM     12  C   UNL     1     -35.155   0.610  -5.054  1.00  0.00    -0.000 C 
BRANCH  12  13
ATOM     13  C   UNL     1     -36.306   0.789  -6.061  1.00  0.00    -0.000 C 
BRANCH  13  14
ATOM     14  C   UNL     1     -36.511   2.228  -6.569  1.00  0.00    -0.000 C 
BRANCH  14  15
ATOM     15  C   UNL     1     -35.296   2.773  -7.336  1.00  0.00    -0.000 C 
BRANCH  15  16
ATOM     16  C   UNL     1     -34.837   4.114  -6.753  1.00  0.00    -0.003 C 
ATOM     17  C   UNL     1     -33.447   3.999  -6.133  1.00  0.00     0.004 C 
ENDBRANCH  15  16
ENDBRANCH  14  15
ENDBRANCH  13  14
ENDBRANCH  12  13
ENDBRANCH  11  12
ENDBRANCH  10  11
ENDBRANCH   1  10
TORSDOF 13
ENDMDL
MODEL 6
REMARK VINA RESULT:    -3.514      3.616      5.392
REMARK INTER + INTRA:          -7.907
REMARK INTER:                  -5.941
REMARK INTRA:                  -1.966
REMARK UNBOUND:                -1.722
REMARK SMILES CCCCCCCCCCCCCCC(=O)[O-]
REMARK SMILES IDX 9 1 10 2 11 3 12 4 13 5 14 6 15 7 16 8 17 9 8 10 7 11 6 12
REMARK SMILES IDX 5 13 4 14 3 15 2 16 1 17
REMARK H PARENT
REMARK Flexibility Score: inf
ROOT
ATOM      1  C   UNL     1     -36.106   5.121  -1.901  1.00  0.00     0.000 C 
ENDROOT
BRANCH   1   2
ATOM      2  C   UNL     1     -36.727   4.536  -3.186  1.00  0.00     0.000 C 
BRANCH   2   3
ATOM      3  C   UNL     1     -36.162   5.108  -4.502  1.00  0.00     0.000 C 
BRANCH   3   4
ATOM      4  C   UNL     1     -34.697   4.735  -4.800  1.00  0.00     0.000 C 
BRANCH   4   5
ATOM      5  C   UNL     1     -34.338   3.260  -4.547  1.00  0.00     0.006 C 
BRANCH   5   6
ATOM      6  C   UNL     1     -34.940   2.313  -5.593  1.00  0.00     0.053 C 
BRANCH   6   7
ATOM      7  C   UNL     1     -35.618   1.159  -4.925  1.00  0.00     0.041 C 
ATOM      8  O   UNL     1     -36.171   0.263  -5.615  1.00  0.00    -0.550 OA
ATOM      9  O   UNL     1     -35.685   1.100  -3.538  1.00  0.00    -0.550 OA
ENDBRANCH   6   7
ENDBRANCH   5   6
ENDBRANCH   4   5
ENDBRANCH   3   4
ENDBRANCH   2   3
ENDBRANCH   1   2
BRANCH   1  10
ATOM     10  C   UNL     1     -36.367   6.621  -1.676  1.00  0.00     0.000 C 
BRANCH  10  11
ATOM     11  C   UNL     1     -35.103   7.392  -1.266  1.00  0.00    -0.000 C 
BRANCH  11  12
ATOM     12  C   UNL     1     -33.842   6.713  -1.819  1.00  0.00    -0.000 C 
BRANCH  12  13
ATOM     13  C   UNL     1     -32.689   6.661  -0.800  1.00  0.00    -0.000 C 
BRANCH  13  14
ATOM     14  C   UNL     1     -32.338   5.254  -0.283  1.00  0.00    -0.000 C 
BRANCH  14  15
ATOM     15  C   UNL     1     -32.602   4.150  -1.319  1.00  0.00    -0.000 C 
BRANCH  15  16
ATOM     16  C   UNL     1     -33.195   2.904  -0.652  1.00  0.00    -0.003 C 
ATOM     17  C   UNL     1     -34.036   3.277   0.566  1.00  0.00     0.004 C 
ENDBRANCH  15  16
ENDBRANCH  14  15
ENDBRANCH  13  14
ENDBRANCH  12  13
ENDBRANCH  11  12
ENDBRANCH  10  11
ENDBRANCH   1  10
TORSDOF 13
ENDMDL
MODEL 7
REMARK VINA RESULT:    -3.486      3.762      5.781
REMARK INTER + INTRA:          -7.858
REMARK INTER:                  -5.929
REMARK INTRA:                  -1.929
REMARK UNBOUND:                -1.722
REMARK SMILES CCCCCCCCCCCCCCC(=O)[O-]
REMARK SMILES IDX 9 1 10 2 11 3 12 4 13 5 14 6 15 7 16 8 17 9 8 10 7 11 6 12
REMARK SMILES IDX 5 13 4 14 3 15 2 16 1 17
REMARK H PARENT
REMARK Flexibility Score: inf
ROOT
ATOM      1  C   UNL     1     -35.028   4.211  -2.386  1.00  0.00     0.000 C 
ENDROOT
BRANCH   1   2
ATOM      2  C   UNL     1     -33.613   4.203  -2.997  1.00  0.00     0.000 C 
BRANCH   2   3
ATOM      3  C   UNL     1     -33.567   4.245  -4.537  1.00  0.00     0.000 C 
BRANCH   3   4
ATOM      4  C   UNL     1     -34.914   3.980  -5.238  1.00  0.00     0.000 C 
BRANCH   4   5
ATOM      5  C   UNL     1     -34.884   2.870  -6.304  1.00  0.00     0.006 C 
BRANCH   5   6
ATOM      6  C   UNL     1     -35.916   1.766  -6.044  1.00  0.00     0.053 C 
BRANCH   6   7
ATOM      7  C   UNL     1     -35.356   0.735  -5.116  1.00  0.00     0.041 C 
ATOM      8  O   UNL     1     -34.715  -0.248  -5.573  1.00  0.00    -0.550 OA
ATOM      9  O   UNL     1     -35.585   0.832  -3.748  1.00  0.00    -0.550 OA
ENDBRANCH   6   7
ENDBRANCH   5   6
ENDBRANCH   4   5
ENDBRANCH   3   4
ENDBRANCH   2   3
ENDBRANCH   1   2
BRANCH   1  10
ATOM     10  C   UNL     1     -35.229   5.194  -1.219  1.00  0.00     0.000 C 
BRANCH  10  11
ATOM     11  C   UNL     1     -36.301   6.255  -1.509  1.00  0.00    -0.000 C 
BRANCH  11  12
ATOM     12  C   UNL     1     -36.002   6.993  -2.821  1.00  0.00    -0.000 C 
BRANCH  12  13
ATOM     13  C   UNL     1     -34.935   8.093  -2.664  1.00  0.00    -0.000 C 
BRANCH  13  14
ATOM     14  C   UNL     1     -33.656   7.885  -3.495  1.00  0.00    -0.000 C 
BRANCH  14  15
ATOM     15  C   UNL     1     -32.388   8.375  -2.777  1.00  0.00    -0.000 C 
BRANCH  15  16
ATOM     16  C   UNL     1     -31.620   7.202  -2.159  1.00  0.00    -0.003 C 
ATOM     17  C   UNL     1     -32.091   6.924  -0.734  1.00  0.00     0.004 C 
ENDBRANCH  15  16
ENDBRANCH  14  15
ENDBRANCH  13  14
ENDBRANCH  12  13
ENDBRANCH  11  12
ENDBRANCH  10  11
ENDBRANCH   1  10
TORSDOF 13
ENDMDL
MODEL 8
REMARK VINA RESULT:    -3.480      3.497      4.856
REMARK INTER + INTRA:          -7.847
REMARK INTER:                  -5.451
REMARK INTRA:                  -2.397
REMARK UNBOUND:                -1.722
REMARK SMILES CCCCCCCCCCCCCCC(=O)[O-]
REMARK SMILES IDX 9 1 10 2 11 3 12 4 13 5 14 6 15 7 16 8 17 9 8 10 7 11 6 12
REMARK SMILES IDX 5 13 4 14 3 15 2 16 1 17
REMARK H PARENT
REMARK Flexibility Score: inf
ROOT
ATOM      1  C   UNL     1     -34.415   7.301  -1.647  1.00  0.00     0.000 C 
ENDROOT
BRANCH   1   2
ATOM      2  C   UNL     1     -35.956   7.275  -1.628  1.00  0.00     0.000 C 
BRANCH   2   3
ATOM      3  C   UNL     1     -36.586   5.872  -1.732  1.00  0.00     0.000 C 
BRANCH   3   4
ATOM      4  C   UNL     1     -36.621   5.276  -3.153  1.00  0.00     0.000 C 
BRANCH   4   5
ATOM      5  C   UNL     1     -36.795   3.748  -3.211  1.00  0.00     0.006 C 
BRANCH   5   6
ATOM      6  C   UNL     1     -36.266   3.138  -4.515  1.00  0.00     0.053 C 
BRANCH   6   7
ATOM      7  C   UNL     1     -35.539   1.860  -4.237  1.00  0.00     0.041 C 
ATOM      8  O   UNL     1     -35.653   1.297  -3.116  1.00  0.00    -0.550 OA
ATOM      9  O   UNL     1     -34.695   1.316  -5.199  1.00  0.00    -0.550 OA
ENDBRANCH   6   7
ENDBRANCH   5   6
ENDBRANCH   4   5
ENDBRANCH   3   4
ENDBRANCH   2   3
ENDBRANCH   1   2
BRANCH   1  10
ATOM     10  C   UNL     1     -33.790   8.062  -2.829  1.00  0.00     0.000 C 
BRANCH  10  11
ATOM     11  C   UNL     1     -32.723   7.242  -3.570  1.00  0.00    -0.000 C 
BRANCH  11  12
ATOM     12  C   UNL     1     -33.367   6.110  -4.383  1.00  0.00    -0.000 C 
BRANCH  12  13
ATOM     13  C   UNL     1     -32.953   4.709  -3.899  1.00  0.00    -0.000 C 
BRANCH  13  14
ATOM     14  C   UNL     1     -31.725   4.676  -2.970  1.00  0.00    -0.000 C 
BRANCH  14  15
ATOM     15  C   UNL     1     -32.058   4.188  -1.552  1.00  0.00    -0.000 C 
BRANCH  15  16
ATOM     16  C   UNL     1     -33.486   3.636  -1.483  1.00  0.00    -0.003 C 
ATOM     17  C   UNL     1     -34.082   3.817  -0.090  1.00  0.00     0.004 C 
ENDBRANCH  15  16
ENDBRANCH  14  15
ENDBRANCH  13  14
ENDBRANCH  12  13
ENDBRANCH  11  12
ENDBRANCH  10  11
ENDBRANCH   1  10
TORSDOF 13
ENDMDL
MODEL 9
REMARK VINA RESULT:    -3.448      3.323      5.255
REMARK INTER + INTRA:          -7.790
REMARK INTER:                  -5.719
REMARK INTRA:                  -2.071
REMARK UNBOUND:                -1.722
REMARK SMILES CCCCCCCCCCCCCCC(=O)[O-]
REMARK SMILES IDX 9 1 10 2 11 3 12 4 13 5 14 6 15 7 16 8 17 9 8 10 7 11 6 12
REMARK SMILES IDX 5 13 4 14 3 15 2 16 1 17
REMARK H PARENT
REMARK Flexibility Score: inf
ROOT
ATOM      1  C   UNL     1     -32.667   6.917  -2.072  1.00  0.00     0.000 C 
ENDROOT
BRANCH   1   2
ATOM      2  C   UNL     1     -31.945   7.719  -3.173  1.00  0.00     0.000 C 
BRANCH   2   3
ATOM      3  C   UNL     1     -30.701   8.499  -2.702  1.00  0.00     0.000 C 
BRANCH   3   4
ATOM      4  C   UNL     1     -29.370   8.051  -3.338  1.00  0.00     0.000 C 
BRANCH   4   5
ATOM      5  C   UNL     1     -28.139   8.179  -2.424  1.00  0.00     0.006 C 
BRANCH   5   6
ATOM      6  C   UNL     1     -28.502   8.578  -0.988  1.00  0.00     0.053 C 
BRANCH   6   7
ATOM      7  C   UNL     1     -27.881   9.893  -0.638  1.00  0.00     0.041 C 
ATOM      8  O   UNL     1     -27.699  10.208   0.568  1.00  0.00    -0.550 OA
ATOM      9  O   UNL     1     -27.550  10.795  -1.643  1.00  0.00    -0.550 OA
ENDBRANCH   6   7
ENDBRANCH   5   6
ENDBRANCH   4   5
ENDBRANCH   3   4
ENDBRANCH   2   3
ENDBRANCH   1   2
BRANCH   1  10
ATOM     10  C   UNL     1     -31.993   6.957  -0.689  1.00  0.00     0.000 C 
BRANCH  10  11
ATOM     11  C   UNL     1     -31.510   5.576  -0.220  1.00  0.00    -0.000 C 
BRANCH  11  12
ATOM     12  C   UNL     1     -31.908   4.485  -1.224  1.00  0.00    -0.000 C 
BRANCH  12  13
ATOM     13  C   UNL     1     -30.699   3.722  -1.796  1.00  0.00    -0.000 C 
BRANCH  13  14
ATOM     14  C   UNL     1     -29.522   4.607  -2.244  1.00  0.00    -0.000 C 
BRANCH  14  15
ATOM     15  C   UNL     1     -28.176   4.160  -1.652  1.00  0.00    -0.000 C 
BRANCH  15  16
ATOM     16  C   UNL     1     -27.808   5.005  -0.428  1.00  0.00    -0.003 C 
ATOM     17  C   UNL     1     -26.700   4.344   0.387  1.00  0.00     0.004 C 
ENDBRANCH  15  16
ENDBRANCH  14  15
ENDBRANCH  13  14
ENDBRANCH  12  13
ENDBRANCH  11  12
ENDBRANCH  10  11
ENDBRANCH   1  10
TORSDOF 13
ENDMDL
