MODEL 1
REMARK VINA RESULT:    -5.739      0.000      0.000
REMARK INTER + INTRA:         -12.779
REMARK INTER:                 -10.437
REMARK INTRA:                  -2.342
REMARK UNBOUND:                -2.342
REMARK SMILES CCCCCC=CCC=CCCCCCCCC(=O)[O-]
REMARK SMILES IDX 11 1 12 2 13 3 14 4 15 5 16 6 17 7 18 8 19 9 20 10 10 11
REMARK SMILES IDX 9 12 8 13 7 14 6 15 5 16 4 17 3 18 2 19 1 20
REMARK H PARENT
REMARK Flexibility Score: inf
ROOT
ATOM      1  C   UNL     1     -41.726  13.335  -1.895  1.00  0.00     0.027 C 
ENDROOT
BRANCH   1   2
ATOM      2  C   UNL     1     -40.219  13.590  -1.741  1.00  0.00     0.004 C 
BRANCH   2   3
ATOM      3  C   UNL     1     -39.929  14.897  -0.979  1.00  0.00     0.000 C 
BRANCH   3   4
ATOM      4  C   UNL     1     -38.548  14.892  -0.304  1.00  0.00     0.000 C 
BRANCH   4   5
ATOM      5  C   UNL     1     -37.427  14.432  -1.249  1.00  0.00     0.000 C 
BRANCH   5   6
ATOM      6  C   UNL     1     -36.714  15.637  -1.882  1.00  0.00     0.006 C 
BRANCH   6   7
ATOM      7  C   UNL     1     -36.955  15.724  -3.398  1.00  0.00     0.053 C 
BRANCH   7   8
ATOM      8  C   UNL     1     -35.754  15.272  -4.177  1.00  0.00     0.041 C 
ATOM      9  O   UNL     1     -35.540  14.044  -4.361  1.00  0.00    -0.550 OA
ATOM     10  O   UNL     1     -34.853  16.207  -4.671  1.00  0.00    -0.550 OA
ENDBRANCH   7   8
ENDBRANCH   6   7
ENDBRANCH   5   6
ENDBRANCH   4   5
ENDBRANCH   3   4
ENDBRANCH   2   3
ENDBRANCH   1   2
BRANCH   1  11
ATOM     11  C   UNL     1     -42.526  14.612  -2.003  1.00  0.00    -0.031 C 
ATOM     12  C   UNL     1     -43.861  14.703  -1.838  1.00  0.00    -0.027 C 
BRANCH  12  13
ATOM     13  C   UNL     1     -44.757  13.528  -1.535  1.00  0.00     0.054 C 
BRANCH  13  14
ATOM     14  C   UNL     1     -45.175  13.524  -0.085  1.00  0.00    -0.027 C 
ATOM     15  C   UNL     1     -44.763  12.616   0.821  1.00  0.00    -0.031 C 
BRANCH  15  16
ATOM     16  C   UNL     1     -43.854  11.455   0.502  1.00  0.00     0.027 C 
BRANCH  16  17
ATOM     17  C   UNL     1     -42.586  11.494   1.370  1.00  0.00     0.004 C 
BRANCH  17  18
ATOM     18  C   UNL     1     -42.210  12.925   1.791  1.00  0.00     0.000 C 
BRANCH  18  19
ATOM     19  C   UNL     1     -40.745  13.037   2.251  1.00  0.00    -0.003 C 
ATOM     20  C   UNL     1     -39.863  12.024   1.522  1.00  0.00     0.004 C 
ENDBRANCH  18  19
ENDBRANCH  17  18
ENDBRANCH  16  17
ENDBRANCH  15  16
ENDBRANCH  13  14
ENDBRANCH  12  13
ENDBRANCH   1  11
TORSDOF 14
ENDMDL
MODEL 2
REMARK VINA RESULT:    -5.699      2.758      6.313
REMARK INTER + INTRA:         -12.706
REMARK INTER:                 -10.430
REMARK INTRA:                  -2.276
REMARK UNBOUND:                -2.342
REMARK SMILES CCCCCC=CCC=CCCCCCCCC(=O)[O-]
REMARK SMILES IDX 11 1 12 2 13 3 14 4 15 5 16 6 17 7 18 8 19 9 20 10 10 11
REMARK SMILES IDX 9 12 8 13 7 14 6 15 5 16 4 17 3 18 2 19 1 20
REMARK H PARENT
REMARK Flexibility Score: inf
ROOT
ATOM      1  C   UNL     1     -43.275  13.993  -2.305  1.00  0.00     0.027 C 
ENDROOT
BRANCH   1   2
ATOM      2  C   UNL     1     -44.046  12.894  -1.558  1.00  0.00     0.004 C 
BRANCH   2   3
ATOM      3  C   UNL     1     -44.532  13.366  -0.176  1.00  0.00     0.000 C 
BRANCH   3   4
ATOM      4  C   UNL     1     -44.284  12.322   0.925  1.00  0.00     0.000 C 
BRANCH   4   5
ATOM      5  C   UNL     1     -42.831  11.823   0.952  1.00  0.00     0.000 C 
BRANCH   5   6
ATOM      6  C   UNL     1     -41.972  12.684   1.892  1.00  0.00     0.006 C 
BRANCH   6   7
ATOM      7  C   UNL     1     -40.545  12.882   1.357  1.00  0.00     0.053 C 
BRANCH   7   8
ATOM      8  C   UNL     1     -39.890  14.091   1.959  1.00  0.00     0.041 C 
ATOM      9  O   UNL     1     -40.065  14.370   3.175  1.00  0.00    -0.550 OA
ATOM     10  O   UNL     1     -39.114  14.929   1.167  1.00  0.00    -0.550 OA
ENDBRANCH   7   8
ENDBRANCH   6   7
ENDBRANCH   5   6
ENDBRANCH   4   5
ENDBRANCH   3   4
ENDBRANCH   2   3
ENDBRANCH   1   2
BRANCH   1  11
ATOM     11  C   UNL     1     -42.226  14.657  -1.445  1.00  0.00    -0.031 C 
ATOM     12  C   UNL     1     -40.953  14.889  -1.822  1.00  0.00    -0.027 C 
BRANCH  12  13
ATOM     13  C   UNL     1     -40.385  14.503  -3.166  1.00  0.00     0.054 C 
BRANCH  13  14
ATOM     14  C   UNL     1     -39.805  13.110  -3.130  1.00  0.00    -0.027 C 
ATOM     15  C   UNL     1     -38.670  12.746  -3.757  1.00  0.00    -0.031 C 
BRANCH  15  16
ATOM     16  C   UNL     1     -37.840  13.672  -4.611  1.00  0.00     0.027 C 
BRANCH  16  17
ATOM     17  C   UNL     1     -36.496  13.988  -3.935  1.00  0.00     0.004 C 
BRANCH  17  18
ATOM     18  C   UNL     1     -36.468  15.399  -3.323  1.00  0.00     0.000 C 
BRANCH  18  19
ATOM     19  C   UNL     1     -37.005  15.425  -1.880  1.00  0.00    -0.003 C 
ATOM     20  C   UNL     1     -36.544  14.194  -1.102  1.00  0.00     0.004 C 
ENDBRANCH  18  19
ENDBRANCH  17  18
ENDBRANCH  16  17
ENDBRANCH  15  16
ENDBRANCH  13  14
ENDBRANCH  12  13
ENDBRANCH   1  11
TORSDOF 14
ENDMDL
MODEL 3
REMARK VINA RESULT:    -5.601      1.695      3.617
REMARK INTER + INTRA:         -12.528
REMARK INTER:                 -10.057
REMARK INTRA:                  -2.471
REMARK UNBOUND:                -2.342
REMARK SMILES CCCCCC=CCC=CCCCCCCCC(=O)[O-]
REMARK SMILES IDX 11 1 12 2 13 3 14 4 15 5 16 6 17 7 18 8 19 9 20 10 10 11
REMARK SMILES IDX 9 12 8 13 7 14 6 15 5 16 4 17 3 18 2 19 1 20
REMARK H PARENT
REMARK Flexibility Score: inf
ROOT
ATOM      1  C   UNL     1     -40.907  14.721  -0.891  1.00  0.00     0.027 C 
ENDROOT
BRANCH   1   2
ATOM      2  C   UNL     1     -40.944  13.996  -2.246  1.00  0.00     0.004 C 
BRANCH   2   3
ATOM      3  C   UNL     1     -40.391  12.563  -2.149  1.00  0.00     0.000 C 
BRANCH   3   4
ATOM      4  C   UNL     1     -39.526  12.181  -3.361  1.00  0.00     0.000 C 
BRANCH   4   5
ATOM      5  C   UNL     1     -38.710  13.365  -3.903  1.00  0.00     0.000 C 
BRANCH   5   6
ATOM      6  C   UNL     1     -37.285  12.925  -4.277  1.00  0.00     0.006 C 
BRANCH   6   7
ATOM      7  C   UNL     1     -36.236  13.988  -3.918  1.00  0.00     0.053 C 
BRANCH   7   8
ATOM      8  C   UNL     1     -36.448  14.532  -2.534  1.00  0.00     0.041 C 
ATOM      9  O   UNL     1     -36.345  13.776  -1.531  1.00  0.00    -0.550 OA
ATOM     10  O   UNL     1     -36.793  15.866  -2.356  1.00  0.00    -0.550 OA
ENDBRANCH   7   8
ENDBRANCH   6   7
ENDBRANCH   5   6
ENDBRANCH   4   5
ENDBRANCH   3   4
ENDBRANCH   2   3
ENDBRANCH   1   2
BRANCH   1  11
ATOM     11  C   UNL     1     -39.503  14.891  -0.359  1.00  0.00    -0.031 C 
ATOM     12  C   UNL     1     -39.088  14.497   0.862  1.00  0.00    -0.027 C 
BRANCH  12  13
ATOM     13  C   UNL     1     -39.979  13.838   1.886  1.00  0.00     0.054 C 
BRANCH  13  14
ATOM     14  C   UNL     1     -40.292  12.414   1.498  1.00  0.00    -0.027 C 
ATOM     15  C   UNL     1     -41.536  11.898   1.446  1.00  0.00    -0.031 C 
BRANCH  15  16
ATOM     16  C   UNL     1     -42.785  12.664   1.803  1.00  0.00     0.027 C 
BRANCH  16  17
ATOM     17  C   UNL     1     -43.969  12.225   0.927  1.00  0.00     0.004 C 
BRANCH  17  18
ATOM     18  C   UNL     1     -44.229  13.200  -0.235  1.00  0.00     0.000 C 
BRANCH  18  19
ATOM     19  C   UNL     1     -44.305  12.485  -1.596  1.00  0.00    -0.003 C 
ATOM     20  C   UNL     1     -43.748  11.065  -1.501  1.00  0.00     0.004 C 
ENDBRANCH  18  19
ENDBRANCH  17  18
ENDBRANCH  16  17
ENDBRANCH  15  16
ENDBRANCH  13  14
ENDBRANCH  12  13
ENDBRANCH   1  11
TORSDOF 14
ENDMDL
MODEL 4
REMARK VINA RESULT:    -5.597      3.266      6.794
REMARK INTER + INTRA:         -12.520
REMARK INTER:                  -9.721
REMARK INTRA:                  -2.799
REMARK UNBOUND:                -2.342
REMARK SMILES CCCCCC=CCC=CCCCCCCCC(=O)[O-]
REMARK SMILES IDX 11 1 12 2 13 3 14 4 15 5 16 6 17 7 18 8 19 9 20 10 10 11
REMARK SMILES IDX 9 12 8 13 7 14 6 15 5 16 4 17 3 18 2 19 1 20
REMARK H PARENT
REMARK Flexibility Score: inf
ROOT
ATOM      1  C   UNL     1     -40.857  13.641  -2.191  1.00  0.00     0.027 C 
ENDROOT
BRANCH   1   2
ATOM      2  C   UNL     1     -40.345  12.689  -1.099  1.00  0.00     0.004 C 
BRANCH   2   3
ATOM      3  C   UNL     1     -40.732  13.167   0.312  1.00  0.00     0.000 C 
BRANCH   3   4
ATOM      4  C   UNL     1     -41.503  12.100   1.106  1.00  0.00     0.000 C 
BRANCH   4   5
ATOM      5  C   UNL     1     -42.824  12.630   1.685  1.00  0.00     0.000 C 
BRANCH   5   6
ATOM      6  C   UNL     1     -44.027  12.053   0.923  1.00  0.00     0.006 C 
BRANCH   6   7
ATOM      7  C   UNL     1     -44.766  13.125   0.105  1.00  0.00     0.053 C 
BRANCH   7   8
ATOM      8  C   UNL     1     -44.340  13.114  -1.334  1.00  0.00     0.041 C 
ATOM      9  O   UNL     1     -43.938  12.048  -1.871  1.00  0.00    -0.550 OA
ATOM     10  O   UNL     1     -44.355  14.292  -2.073  1.00  0.00    -0.550 OA
ENDBRANCH   7   8
ENDBRANCH   6   7
ENDBRANCH   5   6
ENDBRANCH   4   5
ENDBRANCH   3   4
ENDBRANCH   2   3
ENDBRANCH   1   2
BRANCH   1  11
ATOM     11  C   UNL     1     -40.883  15.083  -1.742  1.00  0.00    -0.031 C 
ATOM     12  C   UNL     1     -40.618  16.143  -2.533  1.00  0.00    -0.027 C 
BRANCH  12  13
ATOM     13  C   UNL     1     -40.239  16.036  -3.989  1.00  0.00     0.054 C 
BRANCH  13  14
ATOM     14  C   UNL     1     -38.809  16.461  -4.212  1.00  0.00    -0.027 C 
ATOM     15  C   UNL     1     -37.826  15.633  -4.615  1.00  0.00    -0.031 C 
BRANCH  15  16
ATOM     16  C   UNL     1     -38.012  14.157  -4.865  1.00  0.00     0.027 C 
BRANCH  16  17
ATOM     17  C   UNL     1     -37.650  13.337  -3.617  1.00  0.00     0.004 C 
BRANCH  17  18
ATOM     18  C   UNL     1     -36.421  13.901  -2.883  1.00  0.00     0.000 C 
BRANCH  18  19
ATOM     19  C   UNL     1     -36.600  13.904  -1.354  1.00  0.00    -0.003 C 
ATOM     20  C   UNL     1     -37.310  15.174  -0.888  1.00  0.00     0.004 C 
ENDBRANCH  18  19
ENDBRANCH  17  18
ENDBRANCH  16  17
ENDBRANCH  15  16
ENDBRANCH  13  14
ENDBRANCH  12  13
ENDBRANCH   1  11
TORSDOF 14
ENDMDL
MODEL 5
REMARK VINA RESULT:    -5.577      2.824      6.826
REMARK INTER + INTRA:         -12.484
REMARK INTER:                 -10.016
REMARK INTRA:                  -2.468
REMARK UNBOUND:                -2.342
REMARK SMILES CCCCCC=CCC=CCCCCCCCC(=O)[O-]
REMARK SMILES IDX 11 1 12 2 13 3 14 4 15 5 16 6 17 7 18 8 19 9 20 10 10 11
REMARK SMILES IDX 9 12 8 13 7 14 6 15 5 16 4 17 3 18 2 19 1 20
REMARK H PARENT
REMARK Flexibility Score: inf
ROOT
ATOM      1  C   UNL     1     -42.604  14.882  -2.237  1.00  0.00     0.027 C 
ENDROOT
BRANCH   1   2
ATOM      2  C   UNL     1     -44.012  14.555  -1.717  1.00  0.00     0.004 C 
BRANCH   2   3
ATOM      3  C   UNL     1     -44.146  13.079  -1.301  1.00  0.00     0.000 C 
BRANCH   3   4
ATOM      4  C   UNL     1     -44.687  12.915   0.129  1.00  0.00     0.000 C 
BRANCH   4   5
ATOM      5  C   UNL     1     -44.099  11.692   0.849  1.00  0.00     0.000 C 
BRANCH   5   6
ATOM      6  C   UNL     1     -42.582  11.847   1.043  1.00  0.00     0.006 C 
BRANCH   6   7
ATOM      7  C   UNL     1     -42.235  12.938   2.068  1.00  0.00     0.053 C 
BRANCH   7   8
ATOM      8  C   UNL     1     -40.752  13.057   2.271  1.00  0.00     0.041 C 
ATOM      9  O   UNL     1     -39.975  12.180   1.811  1.00  0.00    -0.550 OA
ATOM     10  O   UNL     1     -40.233  14.122   2.998  1.00  0.00    -0.550 OA
ENDBRANCH   7   8
ENDBRANCH   6   7
ENDBRANCH   5   6
ENDBRANCH   4   5
ENDBRANCH   3   4
ENDBRANCH   2   3
ENDBRANCH   1   2
BRANCH   1  11
ATOM     11  C   UNL     1     -41.632  13.741  -2.045  1.00  0.00    -0.031 C 
ATOM     12  C   UNL     1     -40.396  13.861  -1.519  1.00  0.00    -0.027 C 
BRANCH  12  13
ATOM     13  C   UNL     1     -39.797  15.166  -1.057  1.00  0.00     0.054 C 
BRANCH  13  14
ATOM     14  C   UNL     1     -38.617  14.929  -0.146  1.00  0.00    -0.027 C 
ATOM     15  C   UNL     1     -37.331  14.988  -0.541  1.00  0.00    -0.031 C 
BRANCH  15  16
ATOM     16  C   UNL     1     -36.893  15.263  -1.958  1.00  0.00     0.027 C 
BRANCH  16  17
ATOM     17  C   UNL     1     -36.560  13.955  -2.695  1.00  0.00     0.004 C 
BRANCH  17  18
ATOM     18  C   UNL     1     -37.001  13.987  -4.168  1.00  0.00     0.000 C 
BRANCH  18  19
ATOM     19  C   UNL     1     -38.038  15.090  -4.448  1.00  0.00    -0.003 C 
ATOM     20  C   UNL     1     -39.346  14.493  -4.966  1.00  0.00     0.004 C 
ENDBRANCH  18  19
ENDBRANCH  17  18
ENDBRANCH  16  17
ENDBRANCH  15  16
ENDBRANCH  13  14
ENDBRANCH  12  13
ENDBRANCH   1  11
TORSDOF 14
ENDMDL
MODEL 6
REMARK VINA RESULT:    -5.568      2.958      6.953
REMARK INTER + INTRA:         -12.468
REMARK INTER:                 -10.096
REMARK INTRA:                  -2.372
REMARK UNBOUND:                -2.342
REMARK SMILES CCCCCC=CCC=CCCCCCCCC(=O)[O-]
REMARK SMILES IDX 11 1 12 2 13 3 14 4 15 5 16 6 17 7 18 8 19 9 20 10 10 11
REMARK SMILES IDX 9 12 8 13 7 14 6 15 5 16 4 17 3 18 2 19 1 20
REMARK H PARENT
REMARK Flexibility Score: inf
ROOT
ATOM      1  C   UNL     1     -41.431  14.515  -1.368  1.00  0.00     0.027 C 
ENDROOT
BRANCH   1   2
ATOM      2  C   UNL     1     -42.862  14.625  -1.918  1.00  0.00     0.004 C 
BRANCH   2   3
ATOM      3  C   UNL     1     -43.654  13.318  -1.732  1.00  0.00     0.000 C 
BRANCH   3   4
ATOM      4  C   UNL     1     -44.644  13.390  -0.558  1.00  0.00     0.000 C 
BRANCH   4   5
ATOM      5  C   UNL     1     -44.450  12.249   0.452  1.00  0.00     0.000 C 
BRANCH   5   6
ATOM      6  C   UNL     1     -43.440  12.645   1.541  1.00  0.00     0.006 C 
BRANCH   6   7
ATOM      7  C   UNL     1     -42.090  11.932   1.368  1.00  0.00     0.053 C 
BRANCH   7   8
ATOM      8  C   UNL     1     -40.966  12.718   1.980  1.00  0.00     0.041 C 
ATOM      9  O   UNL     1     -41.154  13.385   3.032  1.00  0.00    -0.550 OA
ATOM     10  O   UNL     1     -39.719  12.740   1.367  1.00  0.00    -0.550 OA
ENDBRANCH   7   8
ENDBRANCH   6   7
ENDBRANCH   5   6
ENDBRANCH   4   5
ENDBRANCH   3   4
ENDBRANCH   2   3
ENDBRANCH   1   2
BRANCH   1  11
ATOM     11  C   UNL     1     -40.683  13.325  -1.924  1.00  0.00    -0.031 C 
ATOM     12  C   UNL     1     -39.911  13.348  -3.029  1.00  0.00    -0.027 C 
BRANCH  12  13
ATOM     13  C   UNL     1     -39.694  14.572  -3.884  1.00  0.00     0.054 C 
BRANCH  13  14
ATOM     14  C   UNL     1     -39.029  14.211  -5.190  1.00  0.00    -0.027 C 
ATOM     15  C   UNL     1     -37.727  14.428  -5.463  1.00  0.00    -0.031 C 
BRANCH  15  16
ATOM     16  C   UNL     1     -36.763  15.094  -4.513  1.00  0.00     0.027 C 
BRANCH  16  17
ATOM     17  C   UNL     1     -35.949  14.049  -3.733  1.00  0.00     0.004 C 
BRANCH  17  18
ATOM     18  C   UNL     1     -36.387  13.947  -2.262  1.00  0.00     0.000 C 
BRANCH  18  19
ATOM     19  C   UNL     1     -36.781  15.312  -1.669  1.00  0.00    -0.003 C 
ATOM     20  C   UNL     1     -37.721  15.141  -0.477  1.00  0.00     0.004 C 
ENDBRANCH  18  19
ENDBRANCH  17  18
ENDBRANCH  16  17
ENDBRANCH  15  16
ENDBRANCH  13  14
ENDBRANCH  12  13
ENDBRANCH   1  11
TORSDOF 14
ENDMDL
MODEL 7
REMARK VINA RESULT:    -5.547      1.310      1.900
REMARK INTER + INTRA:         -12.428
REMARK INTER:                 -10.503
REMARK INTRA:                  -1.925
REMARK UNBOUND:                -2.342
REMARK SMILES CCCCCC=CCC=CCCCCCCCC(=O)[O-]
REMARK SMILES IDX 11 1 12 2 13 3 14 4 15 5 16 6 17 7 18 8 19 9 20 10 10 11
REMARK SMILES IDX 9 12 8 13 7 14 6 15 5 16 4 17 3 18 2 19 1 20
REMARK H PARENT
REMARK Flexibility Score: inf
ROOT
ATOM      1  C   UNL     1     -41.585  13.980  -2.317  1.00  0.00     0.027 C 
ENDROOT
BRANCH   1   2
ATOM      2  C   UNL     1     -40.254  14.609  -1.876  1.00  0.00     0.004 C 
BRANCH   2   3
ATOM      3  C   UNL     1     -39.060  13.670  -2.126  1.00  0.00     0.000 C 
BRANCH   3   4
ATOM      4  C   UNL     1     -39.138  12.968  -3.492  1.00  0.00     0.000 C 
BRANCH   4   5
ATOM      5  C   UNL     1     -38.173  13.571  -4.524  1.00  0.00     0.000 C 
BRANCH   5   6
ATOM      6  C   UNL     1     -36.713  13.256  -4.161  1.00  0.00     0.006 C 
BRANCH   6   7
ATOM      7  C   UNL     1     -35.732  14.271  -4.768  1.00  0.00     0.053 C 
BRANCH   7   8
ATOM      8  C   UNL     1     -36.155  15.685  -4.493  1.00  0.00     0.041 C 
ATOM      9  O   UNL     1     -36.384  16.478  -5.444  1.00  0.00    -0.550 OA
ATOM     10  O   UNL     1     -36.263  16.136  -3.182  1.00  0.00    -0.550 OA
ENDBRANCH   7   8
ENDBRANCH   6   7
ENDBRANCH   5   6
ENDBRANCH   4   5
ENDBRANCH   3   4
ENDBRANCH   2   3
ENDBRANCH   1   2
BRANCH   1  11
ATOM     11  C   UNL     1     -42.737  14.956  -2.262  1.00  0.00    -0.031 C 
ATOM     12  C   UNL     1     -43.993  14.646  -1.884  1.00  0.00    -0.027 C 
BRANCH  12  13
ATOM     13  C   UNL     1     -44.435  13.264  -1.472  1.00  0.00     0.054 C 
BRANCH  13  14
ATOM     14  C   UNL     1     -45.080  13.283  -0.108  1.00  0.00    -0.027 C 
ATOM     15  C   UNL     1     -44.618  12.600   0.958  1.00  0.00    -0.031 C 
BRANCH  15  16
ATOM     16  C   UNL     1     -43.414  11.693   0.925  1.00  0.00     0.027 C 
BRANCH  16  17
ATOM     17  C   UNL     1     -42.142  12.452   1.334  1.00  0.00     0.004 C 
BRANCH  17  18
ATOM     18  C   UNL     1     -40.877  11.869   0.680  1.00  0.00     0.000 C 
BRANCH  18  19
ATOM     19  C   UNL     1     -39.585  12.351   1.365  1.00  0.00    -0.003 C 
ATOM     20  C   UNL     1     -39.806  13.687   2.073  1.00  0.00     0.004 C 
ENDBRANCH  18  19
ENDBRANCH  17  18
ENDBRANCH  16  17
ENDBRANCH  15  16
ENDBRANCH  13  14
ENDBRANCH  12  13
ENDBRANCH   1  11
TORSDOF 14
ENDMDL
MODEL 8
REMARK VINA RESULT:    -5.540      1.212      3.196
REMARK INTER + INTRA:         -12.416
REMARK INTER:                  -9.800
REMARK INTRA:                  -2.616
REMARK UNBOUND:                -2.342
REMARK SMILES CCCCCC=CCC=CCCCCCCCC(=O)[O-]
REMARK SMILES IDX 11 1 12 2 13 3 14 4 15 5 16 6 17 7 18 8 19 9 20 10 10 11
REMARK SMILES IDX 9 12 8 13 7 14 6 15 5 16 4 17 3 18 2 19 1 20
REMARK H PARENT
REMARK Flexibility Score: inf
ROOT
ATOM      1  C   UNL     1     -39.791  14.165   1.720  1.00  0.00     0.027 C 
ENDROOT
BRANCH   1   2
ATOM      2  C   UNL     1     -39.124  14.886   0.538  1.00  0.00     0.004 C 
BRANCH   2   3
ATOM      3  C   UNL     1     -38.128  13.977  -0.205  1.00  0.00     0.000 C 
BRANCH   3   4
ATOM      4  C   UNL     1     -37.023  14.772  -0.920  1.00  0.00     0.000 C 
BRANCH   4   5
ATOM      5  C   UNL     1     -36.531  14.081  -2.200  1.00  0.00     0.000 C 
BRANCH   5   6
ATOM      6  C   UNL     1     -37.712  13.680  -3.098  1.00  0.00     0.006 C 
BRANCH   6   7
ATOM      7  C   UNL     1     -38.210  14.851  -3.960  1.00  0.00     0.053 C 
BRANCH   7   8
ATOM      8  C   UNL     1     -37.088  15.493  -4.723  1.00  0.00     0.041 C 
ATOM      9  O   UNL     1     -36.739  16.676  -4.466  1.00  0.00    -0.550 OA
ATOM     10  O   UNL     1     -36.451  14.796  -5.742  1.00  0.00    -0.550 OA
ENDBRANCH   7   8
ENDBRANCH   6   7
ENDBRANCH   5   6
ENDBRANCH   4   5
ENDBRANCH   3   4
ENDBRANCH   2   3
ENDBRANCH   1   2
BRANCH   1  11
ATOM     11  C   UNL     1     -39.840  12.666   1.537  1.00  0.00    -0.031 C 
ATOM     12  C   UNL     1     -40.965  11.925   1.540  1.00  0.00    -0.027 C 
BRANCH  12  13
ATOM     13  C   UNL     1     -42.350  12.490   1.743  1.00  0.00     0.054 C 
BRANCH  13  14
ATOM     14  C   UNL     1     -43.402  11.565   1.183  1.00  0.00    -0.027 C 
ATOM     15  C   UNL     1     -44.348  11.940   0.299  1.00  0.00    -0.031 C 
BRANCH  15  16
ATOM     16  C   UNL     1     -44.507  13.346  -0.224  1.00  0.00     0.027 C 
BRANCH  16  17
ATOM     17  C   UNL     1     -43.773  13.522  -1.563  1.00  0.00     0.004 C 
BRANCH  17  18
ATOM     18  C   UNL     1     -42.480  14.341  -1.417  1.00  0.00     0.000 C 
BRANCH  18  19
ATOM     19  C   UNL     1     -41.340  13.801  -2.301  1.00  0.00    -0.003 C 
ATOM     20  C   UNL     1     -41.021  12.347  -1.956  1.00  0.00     0.004 C 
ENDBRANCH  18  19
ENDBRANCH  17  18
ENDBRANCH  16  17
ENDBRANCH  15  16
ENDBRANCH  13  14
ENDBRANCH  12  13
ENDBRANCH   1  11
TORSDOF 14
ENDMDL
MODEL 9
REMARK VINA RESULT:    -5.506      3.452      7.383
REMARK INTER + INTRA:         -12.355
REMARK INTER:                 -10.118
REMARK INTRA:                  -2.237
REMARK UNBOUND:                -2.342
REMARK SMILES CCCCCC=CCC=CCCCCCCCC(=O)[O-]
REMARK SMILES IDX 11 1 12 2 13 3 14 4 15 5 16 6 17 7 18 8 19 9 20 10 10 11
REMARK SMILES IDX 9 12 8 13 7 14 6 15 5 16 4 17 3 18 2 19 1 20
REMARK H PARENT
REMARK Flexibility Score: inf
ROOT
ATOM      1  C   UNL     1     -38.976  14.811  -0.153  1.00  0.00     0.027 C 
ENDROOT
BRANCH   1   2
ATOM      2  C   UNL     1     -39.394  14.595   1.310  1.00  0.00     0.004 C 
BRANCH   2   3
ATOM      3  C   UNL     1     -39.074  13.171   1.798  1.00  0.00     0.000 C 
BRANCH   3   4
ATOM      4  C   UNL     1     -40.140  12.147   1.371  1.00  0.00     0.000 C 
BRANCH   4   5
ATOM      5  C   UNL     1     -41.571  12.633   1.646  1.00  0.00     0.000 C 
BRANCH   5   6
ATOM      6  C   UNL     1     -42.521  12.210   0.514  1.00  0.00     0.006 C 
BRANCH   6   7
ATOM      7  C   UNL     1     -43.984  12.573   0.818  1.00  0.00     0.053 C 
BRANCH   7   8
ATOM      8  C   UNL     1     -44.633  13.273  -0.341  1.00  0.00     0.041 C 
ATOM      9  O   UNL     1     -44.091  13.257  -1.478  1.00  0.00    -0.550 OA
ATOM     10  O   UNL     1     -45.820  13.972  -0.156  1.00  0.00    -0.550 OA
ENDBRANCH   7   8
ENDBRANCH   6   7
ENDBRANCH   5   6
ENDBRANCH   4   5
ENDBRANCH   3   4
ENDBRANCH   2   3
ENDBRANCH   1   2
BRANCH   1  11
ATOM     11  C   UNL     1     -40.158  14.999  -1.075  1.00  0.00    -0.031 C 
ATOM     12  C   UNL     1     -40.462  14.193  -2.113  1.00  0.00    -0.027 C 
BRANCH  12  13
ATOM     13  C   UNL     1     -39.648  12.987  -2.513  1.00  0.00     0.054 C 
BRANCH  13  14
ATOM     14  C   UNL     1     -39.025  13.180  -3.874  1.00  0.00    -0.027 C 
ATOM     15  C   UNL     1     -37.732  13.500  -4.076  1.00  0.00    -0.031 C 
BRANCH  15  16
ATOM     16  C   UNL     1     -36.737  13.746  -2.969  1.00  0.00     0.027 C 
BRANCH  16  17
ATOM     17  C   UNL     1     -36.586  15.250  -2.689  1.00  0.00     0.004 C 
BRANCH  17  18
ATOM     18  C   UNL     1     -36.607  16.090  -3.978  1.00  0.00     0.000 C 
BRANCH  18  19
ATOM     19  C   UNL     1     -35.208  16.247  -4.601  1.00  0.00    -0.003 C 
ATOM     20  C   UNL     1     -35.115  15.507  -5.934  1.00  0.00     0.004 C 
ENDBRANCH  18  19
ENDBRANCH  17  18
ENDBRANCH  16  17
ENDBRANCH  15  16
ENDBRANCH  13  14
ENDBRANCH  12  13
ENDBRANCH   1  11
TORSDOF 14
ENDMDL
