MODEL 1
REMARK VINA RESULT:    -3.988      0.000      0.000
REMARK INTER + INTRA:          -4.337
REMARK INTER:                  -4.337
REMARK INTRA:                   0.000
REMARK UNBOUND:                 0.000
REMARK SMILES [NH3+]CC(=O)[O-]
REMARK SMILES IDX 2 1 1 2 3 6 4 7 5 8
REMARK H PARENT 1 3 1 4 1 5
REMARK Flexibility Score: inf
ROOT
ATOM      1  C   UNL     1      79.412  -2.269  25.601  1.00  0.00     0.312 C 
ENDROOT
BRANCH   1   2
ATOM      2  N   UNL     1      79.579  -2.879  26.919  1.00  0.00    -0.353 N 
ATOM      3  H   UNL     1      79.575  -2.140  27.660  1.00  0.00     0.344 HD
ATOM      4  H   UNL     1      78.809  -3.564  27.097  1.00  0.00     0.344 HD
ATOM      5  H   UNL     1      80.496  -3.383  26.949  1.00  0.00     0.344 HD
ENDBRANCH   1   2
BRANCH   1   6
ATOM      6  C   UNL     1      78.775  -0.918  25.722  1.00  0.00     0.096 C 
ATOM      7  O   UNL     1      79.179   0.038  25.008  1.00  0.00    -0.544 OA
ATOM      8  O   UNL     1      77.773  -0.704  26.658  1.00  0.00    -0.544 OA
ENDBRANCH   1   6
TORSDOF 2
ENDMDL
MODEL 2
REMARK VINA RESULT:    -3.962      2.322      2.784
REMARK INTER + INTRA:          -4.309
REMARK INTER:                  -4.309
REMARK INTRA:                   0.000
REMARK UNBOUND:                 0.000
REMARK SMILES [NH3+]CC(=O)[O-]
REMARK SMILES IDX 2 1 1 2 3 6 4 7 5 8
REMARK H PARENT 1 3 1 4 1 5
REMARK Flexibility Score: inf
ROOT
ATOM      1  C   UNL     1      77.682  -1.663  24.396  1.00  0.00     0.312 C 
ENDROOT
BRANCH   1   2
ATOM      2  N   UNL     1      77.172  -0.862  23.284  1.00  0.00    -0.353 N 
ATOM      3  H   UNL     1      77.652   0.068  23.261  1.00  0.00     0.344 HD
ATOM      4  H   UNL     1      77.329  -1.364  22.380  1.00  0.00     0.344 HD
ATOM      5  H   UNL     1      76.145  -0.710  23.415  1.00  0.00     0.344 HD
ENDBRANCH   1   2
BRANCH   1   6
ATOM      6  C   UNL     1      78.342  -0.788  25.417  1.00  0.00     0.096 C 
ATOM      7  O   UNL     1      77.921  -0.774  26.604  1.00  0.00    -0.544 OA
ATOM      8  O   UNL     1      79.386   0.049  25.046  1.00  0.00    -0.544 OA
ENDBRANCH   1   6
TORSDOF 2
ENDMDL
MODEL 3
REMARK VINA RESULT:    -3.938      2.160      2.178
REMARK INTER + INTRA:          -4.284
REMARK INTER:                  -4.284
REMARK INTRA:                   0.000
REMARK UNBOUND:                 0.000
REMARK SMILES [NH3+]CC(=O)[O-]
REMARK SMILES IDX 2 1 1 2 3 6 4 7 5 8
REMARK H PARENT 1 3 1 4 1 5
REMARK Flexibility Score: inf
ROOT
ATOM      1  C   UNL     1      79.445  -0.723  25.757  1.00  0.00     0.312 C 
ENDROOT
BRANCH   1   2
ATOM      2  N   UNL     1      79.841   0.682  25.675  1.00  0.00    -0.353 N 
ATOM      3  H   UNL     1      79.394   1.226  26.448  1.00  0.00     0.344 HD
ATOM      4  H   UNL     1      80.881   0.766  25.738  1.00  0.00     0.344 HD
ATOM      5  H   UNL     1      79.523   1.073  24.758  1.00  0.00     0.344 HD
ENDBRANCH   1   2
BRANCH   1   6
ATOM      6  C   UNL     1      78.167  -0.957  25.013  1.00  0.00     0.096 C 
ATOM      7  O   UNL     1      77.843  -0.203  24.058  1.00  0.00    -0.544 OA
ATOM      8  O   UNL     1      77.309  -1.974  25.409  1.00  0.00    -0.544 OA
ENDBRANCH   1   6
TORSDOF 2
ENDMDL
MODEL 4
REMARK VINA RESULT:    -3.934      2.079      2.239
REMARK INTER + INTRA:          -4.279
REMARK INTER:                  -4.279
REMARK INTRA:                   0.000
REMARK UNBOUND:                 0.000
REMARK SMILES [NH3+]CC(=O)[O-]
REMARK SMILES IDX 2 1 1 2 3 6 4 7 5 8
REMARK H PARENT 1 3 1 4 1 5
REMARK Flexibility Score: inf
ROOT
ATOM      1  C   UNL     1      77.261  -1.208  25.995  1.00  0.00     0.312 C 
ENDROOT
BRANCH   1   2
ATOM      2  N   UNL     1      76.770  -1.140  27.370  1.00  0.00    -0.353 N 
ATOM      3  H   UNL     1      77.568  -0.978  28.028  1.00  0.00     0.344 HD
ATOM      4  H   UNL     1      76.072  -0.368  27.464  1.00  0.00     0.344 HD
ATOM      5  H   UNL     1      76.309  -2.047  27.614  1.00  0.00     0.344 HD
ENDBRANCH   1   2
BRANCH   1   6
ATOM      6  C   UNL     1      78.679  -1.688  25.963  1.00  0.00     0.096 C 
ATOM      7  O   UNL     1      79.469  -1.271  25.075  1.00  0.00    -0.544 OA
ATOM      8  O   UNL     1      79.112  -2.636  26.880  1.00  0.00    -0.544 OA
ENDBRANCH   1   6
TORSDOF 2
ENDMDL
MODEL 5
REMARK VINA RESULT:    -3.862      1.956      2.128
REMARK INTER + INTRA:          -4.201
REMARK INTER:                  -4.201
REMARK INTRA:                   0.000
REMARK UNBOUND:                 0.000
REMARK SMILES [NH3+]CC(=O)[O-]
REMARK SMILES IDX 2 1 1 2 3 6 4 7 5 8
REMARK H PARENT 1 3 1 4 1 5
REMARK Flexibility Score: inf
ROOT
ATOM      1  C   UNL     1      77.970  -1.670  26.006  1.00  0.00     0.312 C 
ENDROOT
BRANCH   1   2
ATOM      2  N   UNL     1      77.038  -1.067  26.957  1.00  0.00    -0.353 N 
ATOM      3  H   UNL     1      76.148  -1.616  26.984  1.00  0.00     0.344 HD
ATOM      4  H   UNL     1      77.466  -1.041  27.911  1.00  0.00     0.344 HD
ATOM      5  H   UNL     1      76.824  -0.089  26.654  1.00  0.00     0.344 HD
ENDBRANCH   1   2
BRANCH   1   6
ATOM      6  C   UNL     1      78.391  -0.670  24.973  1.00  0.00     0.096 C 
ATOM      7  O   UNL     1      77.757  -0.574  23.889  1.00  0.00    -0.544 OA
ATOM      8  O   UNL     1      79.514   0.118  25.186  1.00  0.00    -0.544 OA
ENDBRANCH   1   6
TORSDOF 2
ENDMDL
MODEL 6
REMARK VINA RESULT:    -3.073     14.385     14.531
REMARK INTER + INTRA:          -3.342
REMARK INTER:                  -3.342
REMARK INTRA:                   0.000
REMARK UNBOUND:                 0.000
REMARK SMILES [NH3+]CC(=O)[O-]
REMARK SMILES IDX 2 1 1 2 3 6 4 7 5 8
REMARK H PARENT 1 3 1 4 1 5
REMARK Flexibility Score: inf
ROOT
ATOM      1  C   UNL     1      88.124   8.715  21.624  1.00  0.00     0.312 C 
ENDROOT
BRANCH   1   2
ATOM      2  N   UNL     1      87.349   7.750  22.402  1.00  0.00    -0.353 N 
ATOM      3  H   UNL     1      87.796   7.599  23.335  1.00  0.00     0.344 HD
ATOM      4  H   UNL     1      86.371   8.097  22.529  1.00  0.00     0.344 HD
ATOM      5  H   UNL     1      87.322   6.839  21.888  1.00  0.00     0.344 HD
ENDBRANCH   1   2
BRANCH   1   6
ATOM      6  C   UNL     1      87.519  10.081  21.721  1.00  0.00     0.096 C 
ATOM      7  O   UNL     1      87.599  10.734  22.794  1.00  0.00    -0.544 OA
ATOM      8  O   UNL     1      86.821  10.610  20.643  1.00  0.00    -0.544 OA
ENDBRANCH   1   6
TORSDOF 2
ENDMDL
MODEL 7
REMARK VINA RESULT:    -3.034     14.684     14.832
REMARK INTER + INTRA:          -3.300
REMARK INTER:                  -3.300
REMARK INTRA:                   0.000
REMARK UNBOUND:                 0.000
REMARK SMILES [NH3+]CC(=O)[O-]
REMARK SMILES IDX 2 1 1 2 3 6 4 7 5 8
REMARK H PARENT 1 3 1 4 1 5
REMARK Flexibility Score: inf
ROOT
ATOM      1  C   UNL     1      68.278  -5.765  34.791  1.00  0.00     0.312 C 
ENDROOT
BRANCH   1   2
ATOM      2  N   UNL     1      69.049  -4.905  33.895  1.00  0.00    -0.353 N 
ATOM      3  H   UNL     1      68.845  -5.150  32.898  1.00  0.00     0.344 HD
ATOM      4  H   UNL     1      68.811  -3.902  34.069  1.00  0.00     0.344 HD
ATOM      5  H   UNL     1      70.070  -5.049  34.077  1.00  0.00     0.344 HD
ENDBRANCH   1   2
BRANCH   1   6
ATOM      6  C   UNL     1      68.705  -5.566  36.212  1.00  0.00     0.096 C 
ATOM      7  O   UNL     1      68.465  -4.478  36.799  1.00  0.00    -0.544 OA
ATOM      8  O   UNL     1      69.415  -6.562  36.870  1.00  0.00    -0.544 OA
ENDBRANCH   1   6
TORSDOF 2
ENDMDL
MODEL 8
REMARK VINA RESULT:    -2.890     12.635     13.112
REMARK INTER + INTRA:          -3.143
REMARK INTER:                  -3.143
REMARK INTRA:                   0.000
REMARK UNBOUND:                 0.000
REMARK SMILES [NH3+]CC(=O)[O-]
REMARK SMILES IDX 2 1 1 2 3 6 4 7 5 8
REMARK H PARENT 1 3 1 4 1 5
REMARK Flexibility Score: inf
ROOT
ATOM      1  C   UNL     1      87.831   8.036  25.156  1.00  0.00     0.312 C 
ENDROOT
BRANCH   1   2
ATOM      2  N   UNL     1      87.899   9.495  25.224  1.00  0.00    -0.353 N 
ATOM      3  H   UNL     1      87.615   9.911  24.307  1.00  0.00     0.344 HD
ATOM      4  H   UNL     1      87.271   9.848  25.982  1.00  0.00     0.344 HD
ATOM      5  H   UNL     1      88.882   9.782  25.436  1.00  0.00     0.344 HD
ENDBRANCH   1   2
BRANCH   1   6
ATOM      6  C   UNL     1      87.524   7.586  23.761  1.00  0.00     0.096 C 
ATOM      7  O   UNL     1      87.137   6.407  23.547  1.00  0.00    -0.544 OA
ATOM      8  O   UNL     1      87.717   8.452  22.693  1.00  0.00    -0.544 OA
ENDBRANCH   1   6
TORSDOF 2
ENDMDL
MODEL 9
REMARK VINA RESULT:    -2.705     12.664     13.012
REMARK INTER + INTRA:          -2.942
REMARK INTER:                  -2.942
REMARK INTRA:                   0.000
REMARK UNBOUND:                 0.000
REMARK SMILES [NH3+]CC(=O)[O-]
REMARK SMILES IDX 2 1 1 2 3 6 4 7 5 8
REMARK H PARENT 1 3 1 4 1 5
REMARK Flexibility Score: inf
ROOT
ATOM      1  C   UNL     1      87.465   6.945  24.182  1.00  0.00     0.312 C 
ENDROOT
BRANCH   1   2
ATOM      2  N   UNL     1      86.696   6.965  22.939  1.00  0.00    -0.353 N 
ATOM      3  H   UNL     1      86.036   6.154  22.913  1.00  0.00     0.344 HD
ATOM      4  H   UNL     1      86.161   7.860  22.863  1.00  0.00     0.344 HD
ATOM      5  H   UNL     1      87.354   6.893  22.129  1.00  0.00     0.344 HD
ENDBRANCH   1   2
BRANCH   1   6
ATOM      6  C   UNL     1      87.806   8.337  24.615  1.00  0.00     0.096 C 
ATOM      7  O   UNL     1      88.115   8.570  25.814  1.00  0.00    -0.544 OA
ATOM      8  O   UNL     1      87.731   9.386  23.708  1.00  0.00    -0.544 OA
ENDBRANCH   1   6
TORSDOF 2
ENDMDL
