MODEL 1
REMARK VINA RESULT:    -7.163      0.000      0.000
REMARK INTER + INTRA:         -10.765
REMARK INTER:                 -10.094
REMARK INTRA:                  -0.671
REMARK UNBOUND:                -0.671
REMARK SMILES C=C(CC[C@H](C(=O)[O-])[C@H]1[C@@H](O)C[C@@]2(C)C3=C(CC[C@]12C)[C@@]1(C)CC[C@@H](O)C(C)(C)[C@H]1CC3)C(C)C
REMARK SMILES IDX 4 1 5 2 6 3 7 4 8 5 9 6 10 7 19 8 12 9 13 10 18 11 20 12
REMARK SMILES IDX 14 13 15 14 17 15 16 16 32 17 21 18 31 19 30 20 23 21 22 22
REMARK SMILES IDX 27 23 24 24 25 25 28 26 29 27 11 28 26 30 3 32 2 33 1 34
REMARK SMILES IDX 33 35 34 36 35 37
REMARK H PARENT 11 29 26 31
REMARK Flexibility Score: inf
ROOT
ATOM      1  C   UNL     1     162.371 176.487 177.898  1.00  0.00     0.014 C 
ENDROOT
BRANCH   1   2
ATOM      2  C   UNL     1     161.472 175.549 177.046  1.00  0.00     0.042 C 
BRANCH   2   3
ATOM      3  C   UNL     1     161.081 174.351 177.886  1.00  0.00     0.045 C 
ATOM      4  O   UNL     1     159.875 174.185 178.215  1.00  0.00    -0.550 OA
ATOM      5  O   UNL     1     162.039 173.494 178.409  1.00  0.00    -0.550 OA
ENDBRANCH   2   3
BRANCH   2   6
ATOM      6  C   UNL     1     162.102 175.246 175.636  1.00  0.00     0.033 C 
ATOM      7  C   UNL     1     162.062 173.792 175.078  1.00  0.00     0.119 C 
ATOM      8  C   UNL     1     161.729 176.134 174.416  1.00  0.00    -0.017 C 
ATOM      9  C   UNL     1     162.058 173.921 173.533  1.00  0.00     0.043 C 
ATOM     10  C   UNL     1     162.441 175.388 173.248  1.00  0.00    -0.003 C 
ATOM     11  C   UNL     1     162.256 177.577 174.457  1.00  0.00     0.012 C 
ATOM     12  C   UNL     1     160.172 176.180 174.229  1.00  0.00     0.013 C 
ATOM     13  C   UNL     1     164.005 175.466 173.237  1.00  0.00     0.017 C 
ATOM     14  C   UNL     1     161.990 176.002 171.931  1.00  0.00    -0.064 C 
ATOM     15  C   UNL     1     162.233 178.252 173.053  1.00  0.00     0.032 C 
ATOM     16  C   UNL     1     161.924 177.363 171.816  1.00  0.00    -0.064 C 
ATOM     17  C   UNL     1     161.697 175.118 170.758  1.00  0.00     0.032 C 
ATOM     18  C   UNL     1     161.457 178.043 170.484  1.00  0.00    -0.008 C 
ATOM     19  C   UNL     1     162.251 175.751 169.500  1.00  0.00     0.009 C 
ATOM     20  C   UNL     1     161.509 177.073 169.200  1.00  0.00     0.007 C 
ATOM     21  C   UNL     1     162.305 179.331 170.232  1.00  0.00     0.014 C 
ATOM     22  C   UNL     1     159.986 178.471 170.712  1.00  0.00     0.016 C 
ATOM     23  C   UNL     1     162.027 177.748 167.853  1.00  0.00    -0.006 C 
ATOM     24  C   UNL     1     163.610 179.000 169.526  1.00  0.00     0.033 C 
ATOM     25  C   UNL     1     163.373 178.547 168.071  1.00  0.00     0.120 C 
ATOM     26  C   UNL     1     160.927 178.699 167.290  1.00  0.00     0.014 C 
ATOM     27  C   UNL     1     162.215 176.691 166.722  1.00  0.00     0.014 C 
BRANCH   7  28
ATOM     28  O   UNL     1     160.928 173.088 175.502  1.00  0.00    -0.393 OA
ATOM     29  H   UNL     1     160.813 173.286 176.466  1.00  0.00     0.210 HD
ENDBRANCH   7  28
BRANCH  25  30
ATOM     30  O   UNL     1     164.488 177.788 167.666  1.00  0.00    -0.393 OA
ATOM     31  H   UNL     1     164.993 178.335 167.010  1.00  0.00     0.210 HD
ENDBRANCH  25  30
ENDBRANCH   2   6
ENDBRANCH   1   2
BRANCH   1  32
ATOM     32  C   UNL     1     161.586 177.601 178.611  1.00  0.00     0.031 C 
BRANCH  32  33
ATOM     33  C   UNL     1     161.788 177.525 180.116  1.00  0.00    -0.075 C 
ATOM     34  C   UNL     1     161.474 176.379 180.747  1.00  0.00     0.008 C 
BRANCH  33  35
ATOM     35  C   UNL     1     162.258 178.715 180.951  1.00  0.00     0.008 C 
ATOM     36  C   UNL     1     162.129 180.019 180.153  1.00  0.00     0.012 C 
ATOM     37  C   UNL     1     163.686 178.567 181.497  1.00  0.00     0.012 C 
ENDBRANCH  33  35
ENDBRANCH  32  33
ENDBRANCH   1  32
TORSDOF 8
ENDMDL
MODEL 2
REMARK VINA RESULT:    -6.988      8.482     12.349
REMARK INTER + INTRA:         -10.519
REMARK INTER:                  -9.838
REMARK INTRA:                  -0.681
REMARK UNBOUND:                -0.671
REMARK SMILES C=C(CC[C@H](C(=O)[O-])[C@H]1[C@@H](O)C[C@@]2(C)C3=C(CC[C@]12C)[C@@]1(C)CC[C@@H](O)C(C)(C)[C@H]1CC3)C(C)C
REMARK SMILES IDX 4 1 5 2 6 3 7 4 8 5 9 6 10 7 19 8 12 9 13 10 18 11 20 12
REMARK SMILES IDX 14 13 15 14 17 15 16 16 32 17 21 18 31 19 30 20 23 21 22 22
REMARK SMILES IDX 27 23 24 24 25 25 28 26 29 27 11 28 26 30 3 32 2 33 1 34
REMARK SMILES IDX 33 35 34 36 35 37
REMARK H PARENT 11 29 26 31
REMARK Flexibility Score: inf
ROOT
ATOM      1  C   UNL     1     166.487 178.445 180.711  1.00  0.00     0.014 C 
ENDROOT
BRANCH   1   2
ATOM      2  C   UNL     1     167.029 177.100 180.152  1.00  0.00     0.042 C 
BRANCH   2   3
ATOM      3  C   UNL     1     165.912 176.078 180.165  1.00  0.00     0.045 C 
ATOM      4  O   UNL     1     165.454 175.640 179.075  1.00  0.00    -0.550 OA
ATOM      5  O   UNL     1     165.292 175.704 181.349  1.00  0.00    -0.550 OA
ENDBRANCH   2   3
BRANCH   2   6
ATOM      6  C   UNL     1     168.380 176.676 180.841  1.00  0.00     0.033 C 
ATOM      7  C   UNL     1     168.622 175.177 181.188  1.00  0.00     0.119 C 
ATOM      8  C   UNL     1     169.733 177.155 180.247  1.00  0.00    -0.017 C 
ATOM      9  C   UNL     1     170.158 174.967 181.151  1.00  0.00     0.043 C 
ATOM     10  C   UNL     1     170.761 176.386 181.132  1.00  0.00    -0.003 C 
ATOM     11  C   UNL     1     170.021 178.660 180.373  1.00  0.00     0.012 C 
ATOM     12  C   UNL     1     169.838 176.756 178.734  1.00  0.00     0.013 C 
ATOM     13  C   UNL     1     170.875 176.863 182.619  1.00  0.00     0.017 C 
ATOM     14  C   UNL     1     172.148 176.566 180.535  1.00  0.00    -0.064 C 
ATOM     15  C   UNL     1     171.531 178.989 180.173  1.00  0.00     0.032 C 
ATOM     16  C   UNL     1     172.538 177.807 180.111  1.00  0.00    -0.064 C 
ATOM     17  C   UNL     1     173.096 175.407 180.487  1.00  0.00     0.032 C 
ATOM     18  C   UNL     1     173.953 178.041 179.482  1.00  0.00    -0.008 C 
ATOM     19  C   UNL     1     174.486 175.878 180.855  1.00  0.00     0.009 C 
ATOM     20  C   UNL     1     175.011 176.867 179.789  1.00  0.00     0.007 C 
ATOM     21  C   UNL     1     174.514 179.420 179.958  1.00  0.00     0.014 C 
ATOM     22  C   UNL     1     173.737 178.113 177.950  1.00  0.00     0.016 C 
ATOM     23  C   UNL     1     176.495 177.348 180.110  1.00  0.00    -0.006 C 
ATOM     24  C   UNL     1     175.208 179.295 181.304  1.00  0.00     0.033 C 
ATOM     25  C   UNL     1     176.523 178.496 181.197  1.00  0.00     0.120 C 
ATOM     26  C   UNL     1     177.180 177.839 178.798  1.00  0.00     0.014 C 
ATOM     27  C   UNL     1     177.392 176.159 180.572  1.00  0.00     0.014 C 
BRANCH   7  28
ATOM     28  O   UNL     1     168.000 174.310 180.281  1.00  0.00    -0.393 OA
ATOM     29  H   UNL     1     167.539 173.617 180.820  1.00  0.00     0.210 HD
ENDBRANCH   7  28
BRANCH  25  30
ATOM     30  O   UNL     1     176.824 177.983 182.473  1.00  0.00    -0.393 OA
ATOM     31  H   UNL     1     175.968 177.906 182.968  1.00  0.00     0.210 HD
ENDBRANCH  25  30
ENDBRANCH   2   6
ENDBRANCH   1   2
BRANCH   1  32
ATOM     32  C   UNL     1     165.630 179.223 179.698  1.00  0.00     0.031 C 
BRANCH  32  33
ATOM     33  C   UNL     1     164.214 179.410 180.220  1.00  0.00    -0.075 C 
ATOM     34  C   UNL     1     163.981 179.200 181.528  1.00  0.00     0.008 C 
BRANCH  33  35
ATOM     35  C   UNL     1     163.034 179.752 179.311  1.00  0.00     0.008 C 
ATOM     36  C   UNL     1     161.799 180.117 180.145  1.00  0.00     0.012 C 
ATOM     37  C   UNL     1     162.685 178.646 178.304  1.00  0.00     0.012 C 
ENDBRANCH  33  35
ENDBRANCH  32  33
ENDBRANCH   1  32
TORSDOF 8
ENDMDL
MODEL 3
REMARK VINA RESULT:    -6.956      2.232      8.156
REMARK INTER + INTRA:         -10.473
REMARK INTER:                  -9.239
REMARK INTRA:                  -1.234
REMARK UNBOUND:                -0.671
REMARK SMILES C=C(CC[C@H](C(=O)[O-])[C@H]1[C@@H](O)C[C@@]2(C)C3=C(CC[C@]12C)[C@@]1(C)CC[C@@H](O)C(C)(C)[C@H]1CC3)C(C)C
REMARK SMILES IDX 4 1 5 2 6 3 7 4 8 5 9 6 10 7 19 8 12 9 13 10 18 11 20 12
REMARK SMILES IDX 14 13 15 14 17 15 16 16 32 17 21 18 31 19 30 20 23 21 22 22
REMARK SMILES IDX 27 23 24 24 25 25 28 26 29 27 11 28 26 30 3 32 2 33 1 34
REMARK SMILES IDX 33 35 34 36 35 37
REMARK H PARENT 11 29 26 31
REMARK Flexibility Score: inf
ROOT
ATOM      1  C   UNL     1     161.062 175.077 170.909  1.00  0.00     0.014 C 
ENDROOT
BRANCH   1   2
ATOM      2  C   UNL     1     161.725 174.241 172.039  1.00  0.00     0.042 C 
BRANCH   2   3
ATOM      3  C   UNL     1     161.634 172.773 171.681  1.00  0.00     0.045 C 
ATOM      4  O   UNL     1     160.554 172.306 171.229  1.00  0.00    -0.550 OA
ATOM      5  O   UNL     1     162.677 171.899 171.955  1.00  0.00    -0.550 OA
ENDBRANCH   2   3
BRANCH   2   6
ATOM      6  C   UNL     1     161.197 174.652 173.465  1.00  0.00     0.033 C 
ATOM      7  C   UNL     1     160.561 173.568 174.385  1.00  0.00     0.119 C 
ATOM      8  C   UNL     1     162.106 175.477 174.417  1.00  0.00    -0.017 C 
ATOM      9  C   UNL     1     160.810 174.039 175.842  1.00  0.00     0.043 C 
ATOM     10  C   UNL     1     161.256 175.510 175.723  1.00  0.00    -0.003 C 
ATOM     11  C   UNL     1     162.380 176.928 173.985  1.00  0.00     0.012 C 
ATOM     12  C   UNL     1     163.483 174.754 174.622  1.00  0.00     0.013 C 
ATOM     13  C   UNL     1     159.960 176.386 175.675  1.00  0.00     0.017 C 
ATOM     14  C   UNL     1     162.105 176.092 176.842  1.00  0.00    -0.064 C 
ATOM     15  C   UNL     1     162.904 177.803 175.163  1.00  0.00     0.032 C 
ATOM     16  C   UNL     1     162.863 177.205 176.597  1.00  0.00    -0.064 C 
ATOM     17  C   UNL     1     162.046 175.492 178.213  1.00  0.00     0.032 C 
ATOM     18  C   UNL     1     163.761 177.837 177.714  1.00  0.00    -0.008 C 
ATOM     19  C   UNL     1     162.039 176.597 179.247  1.00  0.00     0.009 C 
ATOM     20  C   UNL     1     163.376 177.370 179.207  1.00  0.00     0.007 C 
ATOM     21  C   UNL     1     163.717 179.394 177.600  1.00  0.00     0.014 C 
ATOM     22  C   UNL     1     165.209 177.373 177.417  1.00  0.00     0.016 C 
ATOM     23  C   UNL     1     163.432 178.512 180.316  1.00  0.00    -0.006 C 
ATOM     24  C   UNL     1     162.515 179.965 178.337  1.00  0.00     0.033 C 
ATOM     25  C   UNL     1     162.658 179.814 179.865  1.00  0.00     0.120 C 
ATOM     26  C   UNL     1     164.918 178.858 180.636  1.00  0.00     0.014 C 
ATOM     27  C   UNL     1     162.868 178.008 181.680  1.00  0.00     0.014 C 
BRANCH   7  28
ATOM     28  O   UNL     1     161.126 172.302 174.189  1.00  0.00    -0.393 OA
ATOM     29  H   UNL     1     160.384 171.697 173.928  1.00  0.00     0.210 HD
ENDBRANCH   7  28
BRANCH  25  30
ATOM     30  O   UNL     1     161.369 179.864 180.428  1.00  0.00    -0.393 OA
ATOM     31  H   UNL     1     161.342 179.195 181.159  1.00  0.00     0.210 HD
ENDBRANCH  25  30
ENDBRANCH   2   6
ENDBRANCH   1   2
BRANCH   1  32
ATOM     32  C   UNL     1     161.969 176.194 170.367  1.00  0.00     0.031 C 
BRANCH  32  33
ATOM     33  C   UNL     1     161.358 177.561 170.631  1.00  0.00    -0.075 C 
ATOM     34  C   UNL     1     160.055 177.628 170.958  1.00  0.00     0.008 C 
BRANCH  33  35
ATOM     35  C   UNL     1     162.139 178.865 170.468  1.00  0.00     0.008 C 
ATOM     36  C   UNL     1     163.581 178.579 170.028  1.00  0.00     0.012 C 
ATOM     37  C   UNL     1     162.133 179.754 171.720  1.00  0.00     0.012 C 
ENDBRANCH  33  35
ENDBRANCH  32  33
ENDBRANCH   1  32
TORSDOF 8
ENDMDL
MODEL 4
REMARK VINA RESULT:    -6.877      2.001      3.535
REMARK INTER + INTRA:         -10.362
REMARK INTER:                  -9.002
REMARK INTRA:                  -1.360
REMARK UNBOUND:                -0.671
REMARK SMILES C=C(CC[C@H](C(=O)[O-])[C@H]1[C@@H](O)C[C@@]2(C)C3=C(CC[C@]12C)[C@@]1(C)CC[C@@H](O)C(C)(C)[C@H]1CC3)C(C)C
REMARK SMILES IDX 4 1 5 2 6 3 7 4 8 5 9 6 10 7 19 8 12 9 13 10 18 11 20 12
REMARK SMILES IDX 14 13 15 14 17 15 16 16 32 17 21 18 31 19 30 20 23 21 22 22
REMARK SMILES IDX 27 23 24 24 25 25 28 26 29 27 11 28 26 30 3 32 2 33 1 34
REMARK SMILES IDX 33 35 34 36 35 37
REMARK H PARENT 11 29 26 31
REMARK Flexibility Score: inf
ROOT
ATOM      1  C   UNL     1     164.796 176.440 179.555  1.00  0.00     0.014 C 
ENDROOT
BRANCH   1   2
ATOM      2  C   UNL     1     163.360 175.917 179.837  1.00  0.00     0.042 C 
BRANCH   2   3
ATOM      3  C   UNL     1     163.384 175.079 181.099  1.00  0.00     0.045 C 
ATOM      4  O   UNL     1     162.306 174.829 181.703  1.00  0.00    -0.550 OA
ATOM      5  O   UNL     1     164.581 174.682 181.678  1.00  0.00    -0.550 OA
ENDBRANCH   2   3
BRANCH   2   6
ATOM      6  C   UNL     1     162.712 175.255 178.564  1.00  0.00     0.033 C 
ATOM      7  C   UNL     1     161.263 174.690 178.651  1.00  0.00     0.119 C 
ATOM      8  C   UNL     1     162.750 176.002 177.202  1.00  0.00    -0.017 C 
ATOM      9  C   UNL     1     160.674 174.790 177.221  1.00  0.00     0.043 C 
ATOM     10  C   UNL     1     161.880 175.072 176.303  1.00  0.00    -0.003 C 
ATOM     11  C   UNL     1     164.138 176.135 176.554  1.00  0.00     0.012 C 
ATOM     12  C   UNL     1     162.132 177.436 177.347  1.00  0.00     0.013 C 
ATOM     13  C   UNL     1     162.515 173.690 175.931  1.00  0.00     0.017 C 
ATOM     14  C   UNL     1     161.623 175.776 174.980  1.00  0.00    -0.064 C 
ATOM     15  C   UNL     1     164.049 176.479 175.037  1.00  0.00     0.032 C 
ATOM     16  C   UNL     1     162.656 176.416 174.351  1.00  0.00    -0.064 C 
ATOM     17  C   UNL     1     160.269 175.698 174.344  1.00  0.00     0.032 C 
ATOM     18  C   UNL     1     162.440 177.162 172.991  1.00  0.00    -0.008 C 
ATOM     19  C   UNL     1     160.424 175.498 172.852  1.00  0.00     0.009 C 
ATOM     20  C   UNL     1     161.093 176.738 172.217  1.00  0.00     0.007 C 
ATOM     21  C   UNL     1     163.687 176.947 172.074  1.00  0.00     0.014 C 
ATOM     22  C   UNL     1     162.350 178.669 173.336  1.00  0.00     0.016 C 
ATOM     23  C   UNL     1     161.228 176.592 170.637  1.00  0.00    -0.006 C 
ATOM     24  C   UNL     1     163.580 175.644 171.298  1.00  0.00     0.033 C 
ATOM     25  C   UNL     1     162.472 175.705 170.229  1.00  0.00     0.120 C 
ATOM     26  C   UNL     1     161.345 178.005 169.989  1.00  0.00     0.014 C 
ATOM     27  C   UNL     1     159.929 176.004 170.006  1.00  0.00     0.014 C 
BRANCH   7  28
ATOM     28  O   UNL     1     160.463 175.407 179.549  1.00  0.00    -0.393 OA
ATOM     29  H   UNL     1     159.902 176.018 179.006  1.00  0.00     0.210 HD
ENDBRANCH   7  28
BRANCH  25  30
ATOM     30  O   UNL     1     162.082 174.386 169.932  1.00  0.00    -0.393 OA
ATOM     31  H   UNL     1     161.151 174.275 170.254  1.00  0.00     0.210 HD
ENDBRANCH  25  30
ENDBRANCH   2   6
ENDBRANCH   1   2
BRANCH   1  32
ATOM     32  C   UNL     1     165.159 177.691 180.374  1.00  0.00     0.031 C 
BRANCH  32  33
ATOM     33  C   UNL     1     164.407 178.909 179.861  1.00  0.00    -0.075 C 
ATOM     34  C   UNL     1     164.682 179.357 178.623  1.00  0.00     0.008 C 
BRANCH  33  35
ATOM     35  C   UNL     1     163.409 179.689 180.717  1.00  0.00     0.008 C 
ATOM     36  C   UNL     1     163.079 178.916 182.001  1.00  0.00     0.012 C 
ATOM     37  C   UNL     1     162.117 180.067 179.978  1.00  0.00     0.012 C 
ENDBRANCH  33  35
ENDBRANCH  32  33
ENDBRANCH   1  32
TORSDOF 8
ENDMDL
MODEL 5
REMARK VINA RESULT:    -6.850     10.664     13.947
REMARK INTER + INTRA:         -10.324
REMARK INTER:                  -8.990
REMARK INTRA:                  -1.334
REMARK UNBOUND:                -0.671
REMARK SMILES C=C(CC[C@H](C(=O)[O-])[C@H]1[C@@H](O)C[C@@]2(C)C3=C(CC[C@]12C)[C@@]1(C)CC[C@@H](O)C(C)(C)[C@H]1CC3)C(C)C
REMARK SMILES IDX 4 1 5 2 6 3 7 4 8 5 9 6 10 7 19 8 12 9 13 10 18 11 20 12
REMARK SMILES IDX 14 13 15 14 17 15 16 16 32 17 21 18 31 19 30 20 23 21 22 22
REMARK SMILES IDX 27 23 24 24 25 25 28 26 29 27 11 28 26 30 3 32 2 33 1 34
REMARK SMILES IDX 33 35 34 36 35 37
REMARK H PARENT 11 29 26 31
REMARK Flexibility Score: inf
ROOT
ATOM      1  C   UNL     1     177.880 175.783 180.700  1.00  0.00     0.014 C 
ENDROOT
BRANCH   1   2
ATOM      2  C   UNL     1     176.691 174.818 180.436  1.00  0.00     0.042 C 
BRANCH   2   3
ATOM      3  C   UNL     1     177.230 173.516 179.882  1.00  0.00     0.045 C 
ATOM      4  O   UNL     1     176.610 172.440 180.101  1.00  0.00    -0.550 OA
ATOM      5  O   UNL     1     178.461 173.459 179.244  1.00  0.00    -0.550 OA
ENDBRANCH   2   3
BRANCH   2   6
ATOM      6  C   UNL     1     175.540 175.510 179.613  1.00  0.00     0.033 C 
ATOM      7  C   UNL     1     175.366 175.165 178.105  1.00  0.00     0.119 C 
ATOM      8  C   UNL     1     174.091 175.522 180.173  1.00  0.00    -0.017 C 
ATOM      9  C   UNL     1     173.864 175.376 177.783  1.00  0.00     0.043 C 
ATOM     10  C   UNL     1     173.296 176.151 178.989  1.00  0.00    -0.003 C 
ATOM     11  C   UNL     1     173.865 176.393 181.420  1.00  0.00     0.012 C 
ATOM     12  C   UNL     1     173.617 174.062 180.496  1.00  0.00     0.013 C 
ATOM     13  C   UNL     1     173.552 177.673 178.724  1.00  0.00     0.017 C 
ATOM     14  C   UNL     1     171.809 176.030 179.281  1.00  0.00    -0.064 C 
ATOM     15  C   UNL     1     172.357 176.707 181.652  1.00  0.00     0.032 C 
ATOM     16  C   UNL     1     171.347 176.328 180.534  1.00  0.00    -0.064 C 
ATOM     17  C   UNL     1     170.860 175.660 178.183  1.00  0.00     0.032 C 
ATOM     18  C   UNL     1     169.825 176.209 180.887  1.00  0.00    -0.008 C 
ATOM     19  C   UNL     1     169.607 176.500 178.295  1.00  0.00     0.009 C 
ATOM     20  C   UNL     1     168.855 176.161 179.602  1.00  0.00     0.007 C 
ATOM     21  C   UNL     1     169.417 177.382 181.836  1.00  0.00     0.014 C 
ATOM     22  C   UNL     1     169.666 174.881 181.667  1.00  0.00     0.016 C 
ATOM     23  C   UNL     1     167.501 176.988 179.736  1.00  0.00    -0.006 C 
ATOM     24  C   UNL     1     169.067 178.632 181.045  1.00  0.00     0.033 C 
ATOM     25  C   UNL     1     167.754 178.459 180.256  1.00  0.00     0.120 C 
ATOM     26  C   UNL     1     166.526 176.242 180.697  1.00  0.00     0.014 C 
ATOM     27  C   UNL     1     166.724 177.031 178.384  1.00  0.00     0.014 C 
BRANCH   7  28
ATOM     28  O   UNL     1     175.738 173.848 177.811  1.00  0.00    -0.393 OA
ATOM     29  H   UNL     1     174.916 173.378 177.517  1.00  0.00     0.210 HD
ENDBRANCH   7  28
BRANCH  25  30
ATOM     30  O   UNL     1     167.762 179.382 179.193  1.00  0.00    -0.393 OA
ATOM     31  H   UNL     1     168.685 179.739 179.121  1.00  0.00     0.210 HD
ENDBRANCH  25  30
ENDBRANCH   2   6
ENDBRANCH   1   2
BRANCH   1  32
ATOM     32  C   UNL     1     177.744 177.130 179.971  1.00  0.00     0.031 C 
BRANCH  32  33
ATOM     33  C   UNL     1     177.131 178.179 180.886  1.00  0.00    -0.075 C 
ATOM     34  C   UNL     1     176.957 177.874 182.185  1.00  0.00     0.008 C 
BRANCH  33  35
ATOM     35  C   UNL     1     176.635 179.533 180.379  1.00  0.00     0.008 C 
ATOM     36  C   UNL     1     175.175 179.762 180.790  1.00  0.00     0.012 C 
ATOM     37  C   UNL     1     176.796 179.727 178.864  1.00  0.00     0.012 C 
ENDBRANCH  33  35
ENDBRANCH  32  33
ENDBRANCH   1  32
TORSDOF 8
ENDMDL
MODEL 6
REMARK VINA RESULT:    -6.843      8.690     11.930
REMARK INTER + INTRA:         -10.314
REMARK INTER:                  -9.112
REMARK INTRA:                  -1.203
REMARK UNBOUND:                -0.671
REMARK SMILES C=C(CC[C@H](C(=O)[O-])[C@H]1[C@@H](O)C[C@@]2(C)C3=C(CC[C@]12C)[C@@]1(C)CC[C@@H](O)C(C)(C)[C@H]1CC3)C(C)C
REMARK SMILES IDX 4 1 5 2 6 3 7 4 8 5 9 6 10 7 19 8 12 9 13 10 18 11 20 12
REMARK SMILES IDX 14 13 15 14 17 15 16 16 32 17 21 18 31 19 30 20 23 21 22 22
REMARK SMILES IDX 27 23 24 24 25 25 28 26 29 27 11 28 26 30 3 32 2 33 1 34
REMARK SMILES IDX 33 35 34 36 35 37
REMARK H PARENT 11 29 26 31
REMARK Flexibility Score: inf
ROOT
ATOM      1  C   UNL     1     174.774 177.923 181.501  1.00  0.00     0.014 C 
ENDROOT
BRANCH   1   2
ATOM      2  C   UNL     1     173.787 176.785 181.118  1.00  0.00     0.042 C 
BRANCH   2   3
ATOM      3  C   UNL     1     174.578 175.522 180.847  1.00  0.00     0.045 C 
ATOM      4  O   UNL     1     174.082 174.401 181.141  1.00  0.00    -0.550 OA
ATOM      5  O   UNL     1     175.889 175.576 180.397  1.00  0.00    -0.550 OA
ENDBRANCH   2   3
BRANCH   2   6
ATOM      6  C   UNL     1     172.772 177.235 180.001  1.00  0.00     0.033 C 
ATOM      7  C   UNL     1     173.017 176.798 178.527  1.00  0.00     0.119 C 
ATOM      8  C   UNL     1     171.247 177.025 180.214  1.00  0.00    -0.017 C 
ATOM      9  C   UNL     1     171.621 176.736 177.856  1.00  0.00     0.043 C 
ATOM     10  C   UNL     1     170.669 177.456 178.832  1.00  0.00    -0.003 C 
ATOM     11  C   UNL     1     170.600 177.899 181.301  1.00  0.00     0.012 C 
ATOM     12  C   UNL     1     170.943 175.521 180.542  1.00  0.00     0.013 C 
ATOM     13  C   UNL     1     170.742 178.986 178.508  1.00  0.00     0.017 C 
ATOM     14  C   UNL     1     169.192 177.097 178.789  1.00  0.00    -0.064 C 
ATOM     15  C   UNL     1     169.049 177.963 181.158  1.00  0.00     0.032 C 
ATOM     16  C   UNL     1     168.405 177.368 179.875  1.00  0.00    -0.064 C 
ATOM     17  C   UNL     1     168.601 176.523 177.538  1.00  0.00     0.032 C 
ATOM     18  C   UNL     1     166.881 177.008 179.881  1.00  0.00    -0.008 C 
ATOM     19  C   UNL     1     167.242 177.142 177.293  1.00  0.00     0.009 C 
ATOM     20  C   UNL     1     166.263 176.739 178.419  1.00  0.00     0.007 C 
ATOM     21  C   UNL     1     166.083 178.136 180.613  1.00  0.00     0.014 C 
ATOM     22  C   UNL     1     166.749 175.708 180.713  1.00  0.00     0.016 C 
ATOM     23  C   UNL     1     164.805 177.329 178.172  1.00  0.00    -0.006 C 
ATOM     24  C   UNL     1     165.741 179.271 179.661  1.00  0.00     0.033 C 
ATOM     25  C   UNL     1     164.696 178.843 178.612  1.00  0.00     0.120 C 
ATOM     26  C   UNL     1     163.757 176.472 178.946  1.00  0.00     0.014 C 
ATOM     27  C   UNL     1     164.375 177.178 176.681  1.00  0.00     0.014 C 
BRANCH   7  28
ATOM     28  O   UNL     1     173.648 175.551 178.435  1.00  0.00    -0.393 OA
ATOM     29  H   UNL     1     174.618 175.729 178.339  1.00  0.00     0.210 HD
ENDBRANCH   7  28
BRANCH  25  30
ATOM     30  O   UNL     1     164.814 179.706 177.506  1.00  0.00    -0.393 OA
ATOM     31  H   UNL     1     165.759 179.672 177.205  1.00  0.00     0.210 HD
ENDBRANCH  25  30
ENDBRANCH   2   6
ENDBRANCH   1   2
BRANCH   1  32
ATOM     32  C   UNL     1     174.665 179.156 180.587  1.00  0.00     0.031 C 
BRANCH  32  33
ATOM     33  C   UNL     1     175.989 179.427 179.889  1.00  0.00    -0.075 C 
ATOM     34  C   UNL     1     177.030 179.846 180.631  1.00  0.00     0.008 C 
BRANCH  33  35
ATOM     35  C   UNL     1     176.165 179.319 178.375  1.00  0.00     0.008 C 
ATOM     36  C   UNL     1     174.875 179.725 177.651  1.00  0.00     0.012 C 
ATOM     37  C   UNL     1     176.626 177.933 177.900  1.00  0.00     0.012 C 
ENDBRANCH  33  35
ENDBRANCH  32  33
ENDBRANCH   1  32
TORSDOF 8
ENDMDL
MODEL 7
REMARK VINA RESULT:    -6.763     10.794     12.573
REMARK INTER + INTRA:         -10.202
REMARK INTER:                  -8.543
REMARK INTRA:                  -1.659
REMARK UNBOUND:                -0.671
REMARK SMILES C=C(CC[C@H](C(=O)[O-])[C@H]1[C@@H](O)C[C@@]2(C)C3=C(CC[C@]12C)[C@@]1(C)CC[C@@H](O)C(C)(C)[C@H]1CC3)C(C)C
REMARK SMILES IDX 4 1 5 2 6 3 7 4 8 5 9 6 10 7 19 8 12 9 13 10 18 11 20 12
REMARK SMILES IDX 14 13 15 14 17 15 16 16 32 17 21 18 31 19 30 20 23 21 22 22
REMARK SMILES IDX 27 23 24 24 25 25 28 26 29 27 11 28 26 30 3 32 2 33 1 34
REMARK SMILES IDX 33 35 34 36 35 37
REMARK H PARENT 11 29 26 31
REMARK Flexibility Score: inf
ROOT
ATOM      1  C   UNL     1     174.350 176.371 179.709  1.00  0.00     0.014 C 
ENDROOT
BRANCH   1   2
ATOM      2  C   UNL     1     173.757 177.802 179.592  1.00  0.00     0.042 C 
BRANCH   2   3
ATOM      3  C   UNL     1     173.128 178.183 180.916  1.00  0.00     0.045 C 
ATOM      4  O   UNL     1     172.308 177.398 181.465  1.00  0.00    -0.550 OA
ATOM      5  O   UNL     1     173.337 179.433 181.480  1.00  0.00    -0.550 OA
ENDBRANCH   2   3
BRANCH   2   6
ATOM      6  C   UNL     1     172.856 177.966 178.311  1.00  0.00     0.033 C 
ATOM      7  C   UNL     1     171.696 179.005 178.321  1.00  0.00     0.119 C 
ATOM      8  C   UNL     1     173.520 178.146 176.918  1.00  0.00    -0.017 C 
ATOM      9  C   UNL     1     171.498 179.445 176.847  1.00  0.00     0.043 C 
ATOM     10  C   UNL     1     172.285 178.419 176.007  1.00  0.00    -0.003 C 
ATOM     11  C   UNL     1     174.261 176.916 176.368  1.00  0.00     0.012 C 
ATOM     12  C   UNL     1     174.519 179.356 176.940  1.00  0.00     0.013 C 
ATOM     13  C   UNL     1     171.337 177.199 175.757  1.00  0.00     0.017 C 
ATOM     14  C   UNL     1     172.777 178.846 174.633  1.00  0.00    -0.064 C 
ATOM     15  C   UNL     1     174.506 177.015 174.832  1.00  0.00     0.032 C 
ATOM     16  C   UNL     1     173.808 178.161 174.049  1.00  0.00    -0.064 C 
ATOM     17  C   UNL     1     172.084 179.956 173.905  1.00  0.00     0.032 C 
ATOM     18  C   UNL     1     174.356 178.568 172.639  1.00  0.00    -0.008 C 
ATOM     19  C   UNL     1     171.957 179.595 172.440  1.00  0.00     0.009 C 
ATOM     20  C   UNL     1     173.356 179.504 171.792  1.00  0.00     0.007 C 
ATOM     21  C   UNL     1     174.719 177.282 171.830  1.00  0.00     0.014 C 
ATOM     22  C   UNL     1     175.662 179.359 172.897  1.00  0.00     0.016 C 
ATOM     23  C   UNL     1     173.266 179.176 170.236  1.00  0.00    -0.006 C 
ATOM     24  C   UNL     1     173.499 176.719 171.118  1.00  0.00     0.033 C 
ATOM     25  C   UNL     1     173.035 177.635 169.968  1.00  0.00     0.120 C 
ATOM     26  C   UNL     1     174.569 179.652 169.525  1.00  0.00     0.014 C 
ATOM     27  C   UNL     1     172.143 180.007 169.543  1.00  0.00     0.014 C 
BRANCH   7  28
ATOM     28  O   UNL     1     171.983 180.120 179.118  1.00  0.00    -0.393 OA
ATOM     29  H   UNL     1     172.889 179.975 179.494  1.00  0.00     0.210 HD
ENDBRANCH   7  28
BRANCH  25  30
ATOM     30  O   UNL     1     171.679 177.359 169.713  1.00  0.00    -0.393 OA
ATOM     31  H   UNL     1     171.647 176.568 169.115  1.00  0.00     0.210 HD
ENDBRANCH  25  30
ENDBRANCH   2   6
ENDBRANCH   1   2
BRANCH   1  32
ATOM     32  C   UNL     1     175.726 176.337 180.396  1.00  0.00     0.031 C 
BRANCH  32  33
ATOM     33  C   UNL     1     176.689 177.301 179.722  1.00  0.00    -0.075 C 
ATOM     34  C   UNL     1     177.125 177.011 178.483  1.00  0.00     0.008 C 
BRANCH  33  35
ATOM     35  C   UNL     1     177.242 178.544 180.420  1.00  0.00     0.008 C 
ATOM     36  C   UNL     1     176.744 178.616 181.869  1.00  0.00     0.012 C 
ATOM     37  C   UNL     1     176.933 179.857 179.687  1.00  0.00     0.012 C 
ENDBRANCH  33  35
ENDBRANCH  32  33
ENDBRANCH   1  32
TORSDOF 8
ENDMDL
MODEL 8
REMARK VINA RESULT:    -6.746      6.823     10.478
REMARK INTER + INTRA:         -10.178
REMARK INTER:                  -8.838
REMARK INTRA:                  -1.340
REMARK UNBOUND:                -0.671
REMARK SMILES C=C(CC[C@H](C(=O)[O-])[C@H]1[C@@H](O)C[C@@]2(C)C3=C(CC[C@]12C)[C@@]1(C)CC[C@@H](O)C(C)(C)[C@H]1CC3)C(C)C
REMARK SMILES IDX 4 1 5 2 6 3 7 4 8 5 9 6 10 7 19 8 12 9 13 10 18 11 20 12
REMARK SMILES IDX 14 13 15 14 17 15 16 16 32 17 21 18 31 19 30 20 23 21 22 22
REMARK SMILES IDX 27 23 24 24 25 25 28 26 29 27 11 28 26 30 3 32 2 33 1 34
REMARK SMILES IDX 33 35 34 36 35 37
REMARK H PARENT 11 29 26 31
REMARK Flexibility Score: inf
ROOT
ATOM      1  C   UNL     1     164.712 178.209 181.123  1.00  0.00     0.014 C 
ENDROOT
BRANCH   1   2
ATOM      2  C   UNL     1     164.818 176.990 180.165  1.00  0.00     0.042 C 
BRANCH   2   3
ATOM      3  C   UNL     1     163.627 176.082 180.394  1.00  0.00     0.045 C 
ATOM      4  O   UNL     1     163.316 175.745 181.568  1.00  0.00    -0.550 OA
ATOM      5  O   UNL     1     162.942 175.510 179.331  1.00  0.00    -0.550 OA
ENDBRANCH   2   3
BRANCH   2   6
ATOM      6  C   UNL     1     166.239 176.315 180.222  1.00  0.00     0.033 C 
ATOM      7  C   UNL     1     166.466 174.951 179.505  1.00  0.00     0.119 C 
ATOM      8  C   UNL     1     167.503 177.147 179.870  1.00  0.00    -0.017 C 
ATOM      9  C   UNL     1     167.966 174.910 179.117  1.00  0.00     0.043 C 
ATOM     10  C   UNL     1     168.621 176.061 179.908  1.00  0.00    -0.003 C 
ATOM     11  C   UNL     1     167.873 178.253 180.872  1.00  0.00     0.012 C 
ATOM     12  C   UNL     1     167.353 177.795 178.450  1.00  0.00     0.013 C 
ATOM     13  C   UNL     1     168.986 175.503 181.324  1.00  0.00     0.017 C 
ATOM     14  C   UNL     1     169.905 176.665 179.361  1.00  0.00    -0.064 C 
ATOM     15  C   UNL     1     169.347 178.731 180.703  1.00  0.00     0.032 C 
ATOM     16  C   UNL     1     170.279 177.919 179.761  1.00  0.00    -0.064 C 
ATOM     17  C   UNL     1     170.781 175.858 178.453  1.00  0.00     0.032 C 
ATOM     18  C   UNL     1     171.587 178.587 179.219  1.00  0.00    -0.008 C 
ATOM     19  C   UNL     1     172.231 176.082 178.823  1.00  0.00     0.009 C 
ATOM     20  C   UNL     1     172.627 177.551 178.556  1.00  0.00     0.007 C 
ATOM     21  C   UNL     1     172.276 179.393 180.368  1.00  0.00     0.014 C 
ATOM     22  C   UNL     1     171.138 179.591 178.129  1.00  0.00     0.016 C 
ATOM     23  C   UNL     1     174.162 177.819 178.884  1.00  0.00    -0.006 C 
ATOM     24  C   UNL     1     173.165 178.494 181.212  1.00  0.00     0.033 C 
ATOM     25  C   UNL     1     174.410 178.026 180.431  1.00  0.00     0.120 C 
ATOM     26  C   UNL     1     174.656 179.067 178.092  1.00  0.00     0.014 C 
ATOM     27  C   UNL     1     175.067 176.664 178.354  1.00  0.00     0.014 C 
BRANCH   7  28
ATOM     28  O   UNL     1     165.672 174.809 178.361  1.00  0.00    -0.393 OA
ATOM     29  H   UNL     1     165.339 173.875 178.359  1.00  0.00     0.210 HD
ENDBRANCH   7  28
BRANCH  25  30
ATOM     30  O   UNL     1     174.883 176.847 181.036  1.00  0.00    -0.393 OA
ATOM     31  H   UNL     1     174.629 176.884 181.994  1.00  0.00     0.210 HD
ENDBRANCH  25  30
ENDBRANCH   2   6
ENDBRANCH   1   2
BRANCH   1  32
ATOM     32  C   UNL     1     164.489 179.542 180.389  1.00  0.00     0.031 C 
BRANCH  32  33
ATOM     33  C   UNL     1     163.031 179.700 179.987  1.00  0.00    -0.075 C 
ATOM     34  C   UNL     1     162.118 179.897 180.955  1.00  0.00     0.008 C 
BRANCH  33  35
ATOM     35  C   UNL     1     162.551 179.568 178.542  1.00  0.00     0.008 C 
ATOM     36  C   UNL     1     161.392 178.567 178.448  1.00  0.00     0.012 C 
ATOM     37  C   UNL     1     163.660 179.189 177.550  1.00  0.00     0.012 C 
ENDBRANCH  33  35
ENDBRANCH  32  33
ENDBRANCH   1  32
TORSDOF 8
ENDMDL
MODEL 9
REMARK VINA RESULT:    -6.673     10.071     12.901
REMARK INTER + INTRA:         -10.074
REMARK INTER:                  -8.603
REMARK INTRA:                  -1.471
REMARK UNBOUND:                -0.671
REMARK SMILES C=C(CC[C@H](C(=O)[O-])[C@H]1[C@@H](O)C[C@@]2(C)C3=C(CC[C@]12C)[C@@]1(C)CC[C@@H](O)C(C)(C)[C@H]1CC3)C(C)C
REMARK SMILES IDX 4 1 5 2 6 3 7 4 8 5 9 6 10 7 19 8 12 9 13 10 18 11 20 12
REMARK SMILES IDX 14 13 15 14 17 15 16 16 32 17 21 18 31 19 30 20 23 21 22 22
REMARK SMILES IDX 27 23 24 24 25 25 28 26 29 27 11 28 26 30 3 32 2 33 1 34
REMARK SMILES IDX 33 35 34 36 35 37
REMARK H PARENT 11 29 26 31
REMARK Flexibility Score: inf
ROOT
ATOM      1  C   UNL     1     176.198 180.125 178.773  1.00  0.00     0.014 C 
ENDROOT
BRANCH   1   2
ATOM      2  C   UNL     1     175.872 178.849 177.949  1.00  0.00     0.042 C 
BRANCH   2   3
ATOM      3  C   UNL     1     177.054 178.528 177.056  1.00  0.00     0.045 C 
ATOM      4  O   UNL     1     177.492 179.403 176.262  1.00  0.00    -0.550 OA
ATOM      5  O   UNL     1     177.589 177.248 177.002  1.00  0.00    -0.550 OA
ENDBRANCH   2   3
BRANCH   2   6
ATOM      6  C   UNL     1     174.465 178.940 177.248  1.00  0.00     0.033 C 
ATOM      7  C   UNL     1     174.324 178.510 175.758  1.00  0.00     0.119 C 
ATOM      8  C   UNL     1     173.216 178.330 177.943  1.00  0.00    -0.017 C 
ATOM      9  C   UNL     1     172.861 178.029 175.584  1.00  0.00     0.043 C 
ATOM     10  C   UNL     1     172.121 178.510 176.848  1.00  0.00    -0.003 C 
ATOM     11  C   UNL     1     172.745 179.048 179.218  1.00  0.00     0.012 C 
ATOM     12  C   UNL     1     173.466 176.820 178.289  1.00  0.00     0.013 C 
ATOM     13  C   UNL     1     171.656 179.981 176.583  1.00  0.00     0.017 C 
ATOM     14  C   UNL     1     170.873 177.755 177.279  1.00  0.00    -0.064 C 
ATOM     15  C   UNL     1     171.281 178.674 179.597  1.00  0.00     0.032 C 
ATOM     16  C   UNL     1     170.444 177.857 178.574  1.00  0.00    -0.064 C 
ATOM     17  C   UNL     1     170.089 176.974 176.270  1.00  0.00     0.032 C 
ATOM     18  C   UNL     1     169.169 177.091 179.067  1.00  0.00    -0.008 C 
ATOM     19  C   UNL     1     168.610 177.181 176.512  1.00  0.00     0.009 C 
ATOM     20  C   UNL     1     168.207 176.584 177.880  1.00  0.00     0.007 C 
ATOM     21  C   UNL     1     168.375 177.992 180.068  1.00  0.00     0.014 C 
ATOM     22  C   UNL     1     169.684 175.852 179.841  1.00  0.00     0.016 C 
ATOM     23  C   UNL     1     166.645 176.735 178.153  1.00  0.00    -0.006 C 
ATOM     24  C   UNL     1     167.439 178.937 179.331  1.00  0.00     0.033 C 
ATOM     25  C   UNL     1     166.270 178.182 178.667  1.00  0.00     0.120 C 
ATOM     26  C   UNL     1     166.191 175.665 179.192  1.00  0.00     0.014 C 
ATOM     27  C   UNL     1     165.809 176.392 176.882  1.00  0.00     0.014 C 
BRANCH   7  28
ATOM     28  O   UNL     1     175.210 177.482 175.412  1.00  0.00    -0.393 OA
ATOM     29  H   UNL     1     174.656 176.722 175.099  1.00  0.00     0.210 HD
ENDBRANCH   7  28
BRANCH  25  30
ATOM     30  O   UNL     1     165.774 178.982 177.621  1.00  0.00    -0.393 OA
ATOM     31  H   UNL     1     166.506 179.089 176.960  1.00  0.00     0.210 HD
ENDBRANCH  25  30
ENDBRANCH   2   6
ENDBRANCH   1   2
BRANCH   1  32
ATOM     32  C   UNL     1     176.978 179.832 180.066  1.00  0.00     0.031 C 
BRANCH  32  33
ATOM     33  C   UNL     1     176.184 178.908 180.977  1.00  0.00    -0.075 C 
ATOM     34  C   UNL     1     175.061 179.380 181.547  1.00  0.00     0.008 C 
BRANCH  33  35
ATOM     35  C   UNL     1     176.648 177.496 181.333  1.00  0.00     0.008 C 
ATOM     36  C   UNL     1     177.904 177.122 180.534  1.00  0.00     0.012 C 
ATOM     37  C   UNL     1     175.565 176.422 181.150  1.00  0.00     0.012 C 
ENDBRANCH  33  35
ENDBRANCH  32  33
ENDBRANCH   1  32
TORSDOF 8
ENDMDL
