MODEL 1
REMARK VINA RESULT:    -3.885      0.000      0.000
REMARK INTER + INTRA:          -6.691
REMARK INTER:                  -5.929
REMARK INTRA:                  -0.762
REMARK UNBOUND:                -0.762
REMARK SMILES O=C([O-])CCCCCCCCC(=O)[O-]
REMARK SMILES IDX 7 1 6 2 5 3 4 4 2 5 1 6 3 7 8 8 9 9 10 10 11 11 12 12 13 13
REMARK SMILES IDX 14 14
REMARK H PARENT
REMARK Flexibility Score: inf
ROOT
ATOM      1  C   UNL     1       3.901  -1.080  -4.224  1.00  0.00     0.000 C 
ENDROOT
BRANCH   1   2
ATOM      2  C   UNL     1       2.970   0.136  -4.074  1.00  0.00     0.000 C 
BRANCH   2   3
ATOM      3  C   UNL     1       3.275   1.243  -5.097  1.00  0.00     0.006 C 
BRANCH   3   4
ATOM      4  C   UNL     1       2.087   1.533  -6.022  1.00  0.00     0.053 C 
BRANCH   4   5
ATOM      5  C   UNL     1       2.004   2.996  -6.322  1.00  0.00     0.041 C 
ATOM      6  O   UNL     1       1.487   3.393  -7.400  1.00  0.00    -0.550 OA
ATOM      7  O   UNL     1       2.543   3.920  -5.435  1.00  0.00    -0.550 OA
ENDBRANCH   4   5
ENDBRANCH   3   4
ENDBRANCH   2   3
ENDBRANCH   1   2
BRANCH   1   8
ATOM      8  C   UNL     1       3.235  -2.249  -4.967  1.00  0.00     0.000 C 
BRANCH   8   9
ATOM      9  C   UNL     1       3.662  -2.329  -6.443  1.00  0.00     0.000 C 
BRANCH   9  10
ATOM     10  C   UNL     1       2.468  -2.534  -7.391  1.00  0.00     0.006 C 
BRANCH  10  11
ATOM     11  C   UNL     1       2.236  -1.334  -8.318  1.00  0.00     0.053 C 
BRANCH  11  12
ATOM     12  C   UNL     1       0.780  -1.193  -8.631  1.00  0.00     0.041 C 
ATOM     13  O   UNL     1       0.057  -2.216  -8.760  1.00  0.00    -0.550 OA
ATOM     14  O   UNL     1       0.211   0.070  -8.735  1.00  0.00    -0.550 OA
ENDBRANCH  11  12
ENDBRANCH  10  11
ENDBRANCH   9  10
ENDBRANCH   8   9
ENDBRANCH   1   8
TORSDOF 9
ENDMDL
MODEL 2
REMARK VINA RESULT:    -3.840      1.169      2.045
REMARK INTER + INTRA:          -6.622
REMARK INTER:                  -5.942
REMARK INTRA:                  -0.680
REMARK UNBOUND:                -0.762
REMARK SMILES O=C([O-])CCCCCCCCC(=O)[O-]
REMARK SMILES IDX 7 1 6 2 5 3 4 4 2 5 1 6 3 7 8 8 9 9 10 10 11 11 12 12 13 13
REMARK SMILES IDX 14 14
REMARK H PARENT
REMARK Flexibility Score: inf
ROOT
ATOM      1  C   UNL     1       3.221  -2.172  -5.122  1.00  0.00     0.000 C 
ENDROOT
BRANCH   1   2
ATOM      2  C   UNL     1       4.359  -1.643  -4.231  1.00  0.00     0.000 C 
BRANCH   2   3
ATOM      3  C   UNL     1       4.177  -0.163  -3.856  1.00  0.00     0.006 C 
BRANCH   3   4
ATOM      4  C   UNL     1       2.812   0.389  -4.287  1.00  0.00     0.053 C 
BRANCH   4   5
ATOM      5  C   UNL     1       2.979   1.407  -5.371  1.00  0.00     0.041 C 
ATOM      6  O   UNL     1       4.008   1.396  -6.097  1.00  0.00    -0.550 OA
ATOM      7  O   UNL     1       2.023   2.399  -5.548  1.00  0.00    -0.550 OA
ENDBRANCH   4   5
ENDBRANCH   3   4
ENDBRANCH   2   3
ENDBRANCH   1   2
BRANCH   1   8
ATOM      8  C   UNL     1       3.591  -2.184  -6.613  1.00  0.00     0.000 C 
BRANCH   8   9
ATOM      9  C   UNL     1       2.487  -2.799  -7.490  1.00  0.00     0.000 C 
BRANCH   9  10
ATOM     10  C   UNL     1       2.173  -1.944  -8.729  1.00  0.00     0.006 C 
BRANCH  10  11
ATOM     11  C   UNL     1       1.979  -0.460  -8.390  1.00  0.00     0.053 C 
BRANCH  11  12
ATOM     12  C   UNL     1       0.545  -0.068  -8.568  1.00  0.00     0.041 C 
ATOM     13  O   UNL     1       0.175   1.108  -8.315  1.00  0.00    -0.550 OA
ATOM     14  O   UNL     1      -0.371  -0.989  -9.058  1.00  0.00    -0.550 OA
ENDBRANCH  11  12
ENDBRANCH  10  11
ENDBRANCH   9  10
ENDBRANCH   8   9
ENDBRANCH   1   8
TORSDOF 9
ENDMDL
MODEL 3
REMARK VINA RESULT:    -3.837      0.232      4.382
REMARK INTER + INTRA:          -6.618
REMARK INTER:                  -5.840
REMARK INTRA:                  -0.777
REMARK UNBOUND:                -0.762
REMARK SMILES O=C([O-])CCCCCCCCC(=O)[O-]
REMARK SMILES IDX 7 1 6 2 5 3 4 4 2 5 1 6 3 7 8 8 9 9 10 10 11 11 12 12 13 13
REMARK SMILES IDX 14 14
REMARK H PARENT
REMARK Flexibility Score: inf
ROOT
ATOM      1  C   UNL     1       3.208  -2.096  -4.994  1.00  0.00     0.000 C 
ENDROOT
BRANCH   1   2
ATOM      2  C   UNL     1       3.651  -2.288  -6.455  1.00  0.00     0.000 C 
BRANCH   2   3
ATOM      3  C   UNL     1       2.462  -2.424  -7.421  1.00  0.00     0.006 C 
BRANCH   3   4
ATOM      4  C   UNL     1       2.261  -1.174  -8.286  1.00  0.00     0.053 C 
BRANCH   4   5
ATOM      5  C   UNL     1       0.814  -1.006  -8.631  1.00  0.00     0.041 C 
ATOM      6  O   UNL     1       0.121  -2.005  -8.959  1.00  0.00    -0.550 OA
ATOM      7  O   UNL     1       0.243   0.260  -8.639  1.00  0.00    -0.550 OA
ENDBRANCH   4   5
ENDBRANCH   3   4
ENDBRANCH   2   3
ENDBRANCH   1   2
BRANCH   1   8
ATOM      8  C   UNL     1       4.104  -1.110  -4.227  1.00  0.00     0.000 C 
BRANCH   8   9
ATOM      9  C   UNL     1       3.386   0.212  -3.906  1.00  0.00     0.000 C 
BRANCH   9  10
ATOM     10  C   UNL     1       3.480   1.228  -5.056  1.00  0.00     0.006 C 
BRANCH  10  11
ATOM     11  C   UNL     1       2.140   1.437  -5.773  1.00  0.00     0.053 C 
BRANCH  11  12
ATOM     12  C   UNL     1       2.002   2.861  -6.213  1.00  0.00     0.041 C 
ATOM     13  O   UNL     1       1.328   3.144  -7.239  1.00  0.00    -0.550 OA
ATOM     14  O   UNL     1       2.577   3.879  -5.464  1.00  0.00    -0.550 OA
ENDBRANCH  11  12
ENDBRANCH  10  11
ENDBRANCH   9  10
ENDBRANCH   8   9
ENDBRANCH   1   8
TORSDOF 9
ENDMDL
MODEL 4
REMARK VINA RESULT:    -3.775      1.387      3.942
REMARK INTER + INTRA:          -6.522
REMARK INTER:                  -5.633
REMARK INTRA:                  -0.889
REMARK UNBOUND:                -0.762
REMARK SMILES O=C([O-])CCCCCCCCC(=O)[O-]
REMARK SMILES IDX 7 1 6 2 5 3 4 4 2 5 1 6 3 7 8 8 9 9 10 10 11 11 12 12 13 13
REMARK SMILES IDX 14 14
REMARK H PARENT
REMARK Flexibility Score: inf
ROOT
ATOM      1  C   UNL     1       3.896  -2.492  -6.314  1.00  0.00     0.000 C 
ENDROOT
BRANCH   1   2
ATOM      2  C   UNL     1       2.794  -2.512  -7.387  1.00  0.00     0.000 C 
BRANCH   2   3
ATOM      3  C   UNL     1       2.660  -1.168  -8.122  1.00  0.00     0.006 C 
BRANCH   3   4
ATOM      4  C   UNL     1       1.213  -0.857  -8.523  1.00  0.00     0.053 C 
BRANCH   4   5
ATOM      5  C   UNL     1       0.999   0.622  -8.600  1.00  0.00     0.041 C 
ATOM      6  O   UNL     1      -0.138   1.110  -8.363  1.00  0.00    -0.550 OA
ATOM      7  O   UNL     1       2.041   1.457  -8.981  1.00  0.00    -0.550 OA
ENDBRANCH   4   5
ENDBRANCH   3   4
ENDBRANCH   2   3
ENDBRANCH   1   2
BRANCH   1   8
ATOM      8  C   UNL     1       3.345  -2.226  -4.903  1.00  0.00     0.000 C 
BRANCH   8   9
ATOM      9  C   UNL     1       4.375  -1.541  -3.988  1.00  0.00     0.000 C 
BRANCH   9  10
ATOM     10  C   UNL     1       4.162  -0.020  -3.896  1.00  0.00     0.006 C 
BRANCH  10  11
ATOM     11  C   UNL     1       2.766   0.411  -4.362  1.00  0.00     0.053 C 
BRANCH  11  12
ATOM     12  C   UNL     1       2.872   1.440  -5.444  1.00  0.00     0.041 C 
ATOM     13  O   UNL     1       1.984   2.324  -5.567  1.00  0.00    -0.550 OA
ATOM     14  O   UNL     1       3.977   1.451  -6.286  1.00  0.00    -0.550 OA
ENDBRANCH  11  12
ENDBRANCH  10  11
ENDBRANCH   9  10
ENDBRANCH   8   9
ENDBRANCH   1   8
TORSDOF 9
ENDMDL
MODEL 5
REMARK VINA RESULT:    -3.706      1.031      1.791
REMARK INTER + INTRA:          -6.417
REMARK INTER:                  -5.561
REMARK INTRA:                  -0.856
REMARK UNBOUND:                -0.762
REMARK SMILES O=C([O-])CCCCCCCCC(=O)[O-]
REMARK SMILES IDX 7 1 6 2 5 3 4 4 2 5 1 6 3 7 8 8 9 9 10 10 11 11 12 12 13 13
REMARK SMILES IDX 14 14
REMARK H PARENT
REMARK Flexibility Score: inf
ROOT
ATOM      1  C   UNL     1       3.266  -0.106  -4.160  1.00  0.00     0.000 C 
ENDROOT
BRANCH   1   2
ATOM      2  C   UNL     1       4.251   1.011  -4.545  1.00  0.00     0.000 C 
BRANCH   2   3
ATOM      3  C   UNL     1       3.792   1.803  -5.781  1.00  0.00     0.006 C 
BRANCH   3   4
ATOM      4  C   UNL     1       2.266   1.836  -5.925  1.00  0.00     0.053 C 
BRANCH   4   5
ATOM      5  C   UNL     1       1.795   3.236  -6.163  1.00  0.00     0.041 C 
ATOM      6  O   UNL     1       2.271   4.188  -5.490  1.00  0.00    -0.550 OA
ATOM      7  O   UNL     1       0.793   3.485  -7.094  1.00  0.00    -0.550 OA
ENDBRANCH   4   5
ENDBRANCH   3   4
ENDBRANCH   2   3
ENDBRANCH   1   2
BRANCH   1   8
ATOM      8  C   UNL     1       3.887  -1.508  -4.266  1.00  0.00     0.000 C 
BRANCH   8   9
ATOM      9  C   UNL     1       3.189  -2.383  -5.322  1.00  0.00     0.000 C 
BRANCH   9  10
ATOM     10  C   UNL     1       3.676  -2.084  -6.750  1.00  0.00     0.006 C 
BRANCH  10  11
ATOM     11  C   UNL     1       2.569  -1.513  -7.645  1.00  0.00     0.053 C 
BRANCH  11  12
ATOM     12  C   UNL     1       1.771  -2.622  -8.257  1.00  0.00     0.041 C 
ATOM     13  O   UNL     1       0.523  -2.510  -8.380  1.00  0.00    -0.550 OA
ATOM     14  O   UNL     1       2.411  -3.758  -8.734  1.00  0.00    -0.550 OA
ENDBRANCH  11  12
ENDBRANCH  10  11
ENDBRANCH   9  10
ENDBRANCH   8   9
ENDBRANCH   1   8
TORSDOF 9
ENDMDL
MODEL 6
REMARK VINA RESULT:    -3.705      1.109      5.058
REMARK INTER + INTRA:          -6.416
REMARK INTER:                  -5.773
REMARK INTRA:                  -0.643
REMARK UNBOUND:                -0.762
REMARK SMILES O=C([O-])CCCCCCCCC(=O)[O-]
REMARK SMILES IDX 7 1 6 2 5 3 4 4 2 5 1 6 3 7 8 8 9 9 10 10 11 11 12 12 13 13
REMARK SMILES IDX 14 14
REMARK H PARENT
REMARK Flexibility Score: inf
ROOT
ATOM      1  C   UNL     1       4.056  -1.138  -4.266  1.00  0.00     0.000 C 
ENDROOT
BRANCH   1   2
ATOM      2  C   UNL     1       3.213  -2.211  -4.976  1.00  0.00     0.000 C 
BRANCH   2   3
ATOM      3  C   UNL     1       3.618  -2.402  -6.447  1.00  0.00     0.006 C 
BRANCH   3   4
ATOM      4  C   UNL     1       2.678  -1.675  -7.416  1.00  0.00     0.053 C 
BRANCH   4   5
ATOM      5  C   UNL     1       1.844  -2.660  -8.173  1.00  0.00     0.041 C 
ATOM      6  O   UNL     1       0.603  -2.483  -8.288  1.00  0.00    -0.550 OA
ATOM      7  O   UNL     1       2.429  -3.800  -8.708  1.00  0.00    -0.550 OA
ENDBRANCH   4   5
ENDBRANCH   3   4
ENDBRANCH   2   3
ENDBRANCH   1   2
BRANCH   1   8
ATOM      8  C   UNL     1       3.255   0.137  -3.957  1.00  0.00     0.000 C 
BRANCH   8   9
ATOM      9  C   UNL     1       3.459   1.233  -5.017  1.00  0.00     0.000 C 
BRANCH   9  10
ATOM     10  C   UNL     1       2.155   1.599  -5.745  1.00  0.00     0.006 C 
BRANCH  10  11
ATOM     11  C   UNL     1       2.321   2.795  -6.691  1.00  0.00     0.053 C 
BRANCH  11  12
ATOM     12  C   UNL     1       1.600   3.990  -6.151  1.00  0.00     0.041 C 
ATOM     13  O   UNL     1       2.195   4.799  -5.391  1.00  0.00    -0.550 OA
ATOM     14  O   UNL     1       0.285   4.237  -6.527  1.00  0.00    -0.550 OA
ENDBRANCH  11  12
ENDBRANCH  10  11
ENDBRANCH   9  10
ENDBRANCH   8   9
ENDBRANCH   1   8
TORSDOF 9
ENDMDL
MODEL 7
REMARK VINA RESULT:    -3.624      2.029      3.916
REMARK INTER + INTRA:          -6.292
REMARK INTER:                  -5.620
REMARK INTRA:                  -0.673
REMARK UNBOUND:                -0.762
REMARK SMILES O=C([O-])CCCCCCCCC(=O)[O-]
REMARK SMILES IDX 7 1 6 2 5 3 4 4 2 5 1 6 3 7 8 8 9 9 10 10 11 11 12 12 13 13
REMARK SMILES IDX 14 14
REMARK H PARENT
REMARK Flexibility Score: inf
ROOT
ATOM      1  C   UNL     1       3.105   0.263  -4.064  1.00  0.00     0.000 C 
ENDROOT
BRANCH   1   2
ATOM      2  C   UNL     1       4.438  -0.415  -3.703  1.00  0.00     0.000 C 
BRANCH   2   3
ATOM      3  C   UNL     1       4.518  -1.866  -4.207  1.00  0.00     0.006 C 
BRANCH   3   4
ATOM      4  C   UNL     1       3.231  -2.316  -4.910  1.00  0.00     0.053 C 
BRANCH   4   5
ATOM      5  C   UNL     1       3.429  -2.343  -6.393  1.00  0.00     0.041 C 
ATOM      6  O   UNL     1       2.495  -2.718  -7.150  1.00  0.00    -0.550 OA
ATOM      7  O   UNL     1       4.661  -2.002  -6.937  1.00  0.00    -0.550 OA
ENDBRANCH   4   5
ENDBRANCH   3   4
ENDBRANCH   2   3
ENDBRANCH   1   2
BRANCH   1   8
ATOM      8  C   UNL     1       3.263   1.344  -5.146  1.00  0.00     0.000 C 
BRANCH   8   9
ATOM      9  C   UNL     1       2.101   1.342  -6.155  1.00  0.00     0.000 C 
BRANCH   9  10
ATOM     10  C   UNL     1       2.565   1.025  -7.586  1.00  0.00     0.006 C 
BRANCH  10  11
ATOM     11  C   UNL     1       1.764   1.787  -8.650  1.00  0.00     0.053 C 
BRANCH  11  12
ATOM     12  C   UNL     1       0.337   1.335  -8.650  1.00  0.00     0.041 C 
ATOM     13  O   UNL     1       0.055   0.129  -8.881  1.00  0.00    -0.550 OA
ATOM     14  O   UNL     1      -0.678   2.235  -8.349  1.00  0.00    -0.550 OA
ENDBRANCH  11  12
ENDBRANCH  10  11
ENDBRANCH   9  10
ENDBRANCH   8   9
ENDBRANCH   1   8
TORSDOF 9
ENDMDL
MODEL 8
REMARK VINA RESULT:    -3.564      1.294      4.453
REMARK INTER + INTRA:          -6.200
REMARK INTER:                  -5.282
REMARK INTRA:                  -0.918
REMARK UNBOUND:                -0.762
REMARK SMILES O=C([O-])CCCCCCCCC(=O)[O-]
REMARK SMILES IDX 7 1 6 2 5 3 4 4 2 5 1 6 3 7 8 8 9 9 10 10 11 11 12 12 13 13
REMARK SMILES IDX 14 14
REMARK H PARENT
REMARK Flexibility Score: inf
ROOT
ATOM      1  C   UNL     1       3.171  -0.901  -4.294  1.00  0.00     0.000 C 
ENDROOT
BRANCH   1   2
ATOM      2  C   UNL     1       3.586  -2.317  -4.733  1.00  0.00     0.000 C 
BRANCH   2   3
ATOM      3  C   UNL     1       3.954  -2.389  -6.224  1.00  0.00     0.006 C 
BRANCH   3   4
ATOM      4  C   UNL     1       2.720  -2.431  -7.133  1.00  0.00     0.053 C 
BRANCH   4   5
ATOM      5  C   UNL     1       2.624  -1.176  -7.943  1.00  0.00     0.041 C 
ATOM      6  O   UNL     1       1.504  -0.765  -8.343  1.00  0.00    -0.550 OA
ATOM      7  O   UNL     1       3.777  -0.488  -8.298  1.00  0.00    -0.550 OA
ENDBRANCH   4   5
ENDBRANCH   3   4
ENDBRANCH   2   3
ENDBRANCH   1   2
BRANCH   1   8
ATOM      8  C   UNL     1       4.339   0.097  -4.328  1.00  0.00     0.000 C 
BRANCH   8   9
ATOM      9  C   UNL     1       3.980   1.400  -5.061  1.00  0.00     0.000 C 
BRANCH   9  10
ATOM     10  C   UNL     1       2.483   1.493  -5.399  1.00  0.00     0.006 C 
BRANCH  10  11
ATOM     11  C   UNL     1       2.206   2.367  -6.628  1.00  0.00     0.053 C 
BRANCH  11  12
ATOM     12  C   UNL     1       1.606   3.674  -6.214  1.00  0.00     0.041 C 
ATOM     13  O   UNL     1       2.233   4.442  -5.438  1.00  0.00    -0.550 OA
ATOM     14  O   UNL     1       0.374   4.066  -6.723  1.00  0.00    -0.550 OA
ENDBRANCH  11  12
ENDBRANCH  10  11
ENDBRANCH   9  10
ENDBRANCH   8   9
ENDBRANCH   1   8
TORSDOF 9
ENDMDL
MODEL 9
REMARK VINA RESULT:    -3.535      1.915      3.270
REMARK INTER + INTRA:          -6.157
REMARK INTER:                  -5.285
REMARK INTRA:                  -0.872
REMARK UNBOUND:                -0.762
REMARK SMILES O=C([O-])CCCCCCCCC(=O)[O-]
REMARK SMILES IDX 7 1 6 2 5 3 4 4 2 5 1 6 3 7 8 8 9 9 10 10 11 11 12 12 13 13
REMARK SMILES IDX 14 14
REMARK H PARENT
REMARK Flexibility Score: inf
ROOT
ATOM      1  C   UNL     1       2.590   1.228  -5.005  1.00  0.00     0.000 C 
ENDROOT
BRANCH   1   2
ATOM      2  C   UNL     1       3.686   1.255  -6.085  1.00  0.00     0.000 C 
BRANCH   2   3
ATOM      3  C   UNL     1       3.130   1.570  -7.483  1.00  0.00     0.006 C 
BRANCH   3   4
ATOM      4  C   UNL     1       2.069   0.560  -7.937  1.00  0.00     0.053 C 
BRANCH   4   5
ATOM      5  C   UNL     1       0.771   1.253  -8.209  1.00  0.00     0.041 C 
ATOM      6  O   UNL     1      -0.189   0.620  -8.723  1.00  0.00    -0.550 OA
ATOM      7  O   UNL     1       0.637   2.609  -7.942  1.00  0.00    -0.550 OA
ENDBRANCH   4   5
ENDBRANCH   3   4
ENDBRANCH   2   3
ENDBRANCH   1   2
BRANCH   1   8
ATOM      8  C   UNL     1       2.824   0.135  -3.950  1.00  0.00     0.000 C 
BRANCH   8   9
ATOM      9  C   UNL     1       4.283  -0.350  -3.916  1.00  0.00     0.000 C 
BRANCH   9  10
ATOM     10  C   UNL     1       4.419  -1.838  -4.278  1.00  0.00     0.006 C 
BRANCH  10  11
ATOM     11  C   UNL     1       3.176  -2.390  -4.987  1.00  0.00     0.053 C 
BRANCH  11  12
ATOM     12  C   UNL     1       3.409  -2.466  -6.464  1.00  0.00     0.041 C 
ATOM     13  O   UNL     1       2.477  -2.815  -7.235  1.00  0.00    -0.550 OA
ATOM     14  O   UNL     1       4.642  -2.105  -6.992  1.00  0.00    -0.550 OA
ENDBRANCH  11  12
ENDBRANCH  10  11
ENDBRANCH   9  10
ENDBRANCH   8   9
ENDBRANCH   1   8
TORSDOF 9
ENDMDL
