MODEL 1
REMARK VINA RESULT:    -3.861      0.000      0.000
REMARK INTER + INTRA:          -5.130
REMARK INTER:                  -4.990
REMARK INTRA:                  -0.140
REMARK UNBOUND:                -0.140
REMARK SMILES CCCCCCC=O
REMARK SMILES IDX 4 1 3 2 2 3 1 4 5 5 6 6 7 7 8 8
REMARK H PARENT
REMARK Flexibility Score: inf
ROOT
ATOM      1  C   UNL     1      25.160  58.057  -8.995  1.00  0.00     0.000 C 
ENDROOT
BRANCH   1   2
ATOM      2  C   UNL     1      26.272  59.030  -9.432  1.00  0.00    -0.000 C 
BRANCH   2   3
ATOM      3  C   UNL     1      27.191  58.502 -10.548  1.00  0.00    -0.003 C 
ATOM      4  C   UNL     1      28.357  59.440 -10.856  1.00  0.00     0.004 C 
ENDBRANCH   2   3
ENDBRANCH   1   2
BRANCH   1   5
ATOM      5  C   UNL     1      25.552  56.583  -9.170  1.00  0.00     0.008 C 
BRANCH   5   6
ATOM      6  C   UNL     1      25.293  55.792  -7.884  1.00  0.00     0.072 C 
BRANCH   6   7
ATOM      7  C   UNL     1      23.960  55.107  -7.935  1.00  0.00     0.224 C 
ATOM      8  O   UNL     1      23.230  55.102  -6.957  1.00  0.00    -0.303 OA
ENDBRANCH   6   7
ENDBRANCH   5   6
ENDBRANCH   1   5
TORSDOF 5
ENDMDL
MODEL 2
REMARK VINA RESULT:    -3.770      3.015      5.148
REMARK INTER + INTRA:          -5.013
REMARK INTER:                  -4.883
REMARK INTRA:                  -0.129
REMARK UNBOUND:                -0.140
REMARK SMILES CCCCCCC=O
REMARK SMILES IDX 4 1 3 2 2 3 1 4 5 5 6 6 7 7 8 8
REMARK H PARENT
REMARK Flexibility Score: inf
ROOT
ATOM      1  C   UNL     1      25.172  57.997  -9.002  1.00  0.00     0.000 C 
ENDROOT
BRANCH   1   2
ATOM      2  C   UNL     1      25.694  56.555  -9.144  1.00  0.00    -0.000 C 
BRANCH   2   3
ATOM      3  C   UNL     1      25.392  55.638  -7.945  1.00  0.00    -0.003 C 
ATOM      4  C   UNL     1      23.916  55.259  -7.838  1.00  0.00     0.004 C 
ENDBRANCH   2   3
ENDBRANCH   1   2
BRANCH   1   5
ATOM      5  C   UNL     1      26.212  59.052  -9.406  1.00  0.00     0.008 C 
BRANCH   5   6
ATOM      6  C   UNL     1      27.173  58.497 -10.462  1.00  0.00     0.072 C 
BRANCH   6   7
ATOM      7  C   UNL     1      28.428  59.315 -10.529  1.00  0.00     0.224 C 
ATOM      8  O   UNL     1      28.445  60.374 -11.136  1.00  0.00    -0.303 OA
ENDBRANCH   6   7
ENDBRANCH   5   6
ENDBRANCH   1   5
TORSDOF 5
ENDMDL
MODEL 3
REMARK VINA RESULT:    -3.430      3.073      5.247
REMARK INTER + INTRA:          -4.573
REMARK INTER:                  -4.442
REMARK INTRA:                  -0.131
REMARK UNBOUND:                -0.140
REMARK SMILES CCCCCCC=O
REMARK SMILES IDX 4 1 3 2 2 3 1 4 5 5 6 6 7 7 8 8
REMARK H PARENT
REMARK Flexibility Score: inf
ROOT
ATOM      1  C   UNL     1      26.234  59.132  -9.385  1.00  0.00     0.000 C 
ENDROOT
BRANCH   1   2
ATOM      2  C   UNL     1      25.184  58.067  -9.016  1.00  0.00    -0.000 C 
BRANCH   2   3
ATOM      3  C   UNL     1      25.704  56.618  -9.022  1.00  0.00    -0.003 C 
ATOM      4  C   UNL     1      24.809  55.659  -8.238  1.00  0.00     0.004 C 
ENDBRANCH   2   3
ENDBRANCH   1   2
BRANCH   1   5
ATOM      5  C   UNL     1      27.290  58.614 -10.372  1.00  0.00     0.008 C 
BRANCH   5   6
ATOM      6  C   UNL     1      28.163  59.761 -10.892  1.00  0.00     0.072 C 
BRANCH   6   7
ATOM      7  C   UNL     1      29.620  59.432 -10.753  1.00  0.00     0.224 C 
ATOM      8  O   UNL     1      30.140  59.382  -9.650  1.00  0.00    -0.303 OA
ENDBRANCH   6   7
ENDBRANCH   5   6
ENDBRANCH   1   5
TORSDOF 5
ENDMDL
MODEL 4
REMARK VINA RESULT:    -3.395     17.428     18.599
REMARK INTER + INTRA:          -4.527
REMARK INTER:                  -4.298
REMARK INTRA:                  -0.230
REMARK UNBOUND:                -0.140
REMARK SMILES CCCCCCC=O
REMARK SMILES IDX 4 1 3 2 2 3 1 4 5 5 6 6 7 7 8 8
REMARK H PARENT
REMARK Flexibility Score: inf
ROOT
ATOM      1  C   UNL     1      17.487  43.377   1.576  1.00  0.00     0.000 C 
ENDROOT
BRANCH   1   2
ATOM      2  C   UNL     1      16.250  44.243   1.879  1.00  0.00    -0.000 C 
BRANCH   2   3
ATOM      3  C   UNL     1      15.705  45.034   0.676  1.00  0.00    -0.003 C 
ATOM      4  C   UNL     1      16.775  45.344  -0.370  1.00  0.00     0.004 C 
ENDBRANCH   2   3
ENDBRANCH   1   2
BRANCH   1   5
ATOM      5  C   UNL     1      18.713  43.773   2.411  1.00  0.00     0.008 C 
BRANCH   5   6
ATOM      6  C   UNL     1      19.888  44.163   1.508  1.00  0.00     0.072 C 
BRANCH   6   7
ATOM      7  C   UNL     1      20.804  42.997   1.286  1.00  0.00     0.224 C 
ATOM      8  O   UNL     1      20.999  42.570   0.159  1.00  0.00    -0.303 OA
ENDBRANCH   6   7
ENDBRANCH   5   6
ENDBRANCH   1   5
TORSDOF 5
ENDMDL
MODEL 5
REMARK VINA RESULT:    -3.374      3.354      5.015
REMARK INTER + INTRA:          -4.501
REMARK INTER:                  -4.370
REMARK INTRA:                  -0.131
REMARK UNBOUND:                -0.140
REMARK SMILES CCCCCCC=O
REMARK SMILES IDX 4 1 3 2 2 3 1 4 5 5 6 6 7 7 8 8
REMARK H PARENT
REMARK Flexibility Score: inf
ROOT
ATOM      1  C   UNL     1      30.105  59.222 -11.351  1.00  0.00     0.000 C 
ENDROOT
BRANCH   1   2
ATOM      2  C   UNL     1      30.232  58.915 -12.855  1.00  0.00    -0.000 C 
BRANCH   2   3
ATOM      3  C   UNL     1      30.019  57.439 -13.234  1.00  0.00    -0.003 C 
ATOM      4  C   UNL     1      31.324  56.646 -13.307  1.00  0.00     0.004 C 
ENDBRANCH   2   3
ENDBRANCH   1   2
BRANCH   1   5
ATOM      5  C   UNL     1      28.790  59.930 -10.994  1.00  0.00     0.008 C 
BRANCH   5   6
ATOM      6  C   UNL     1      27.698  58.913 -10.646  1.00  0.00     0.072 C 
BRANCH   6   7
ATOM      7  C   UNL     1      26.783  59.450  -9.586  1.00  0.00     0.224 C 
ATOM      8  O   UNL     1      25.778  58.835  -9.267  1.00  0.00    -0.303 OA
ENDBRANCH   6   7
ENDBRANCH   5   6
ENDBRANCH   1   5
TORSDOF 5
ENDMDL
MODEL 6
REMARK VINA RESULT:    -3.361     17.099     18.432
REMARK INTER + INTRA:          -4.484
REMARK INTER:                  -4.267
REMARK INTRA:                  -0.217
REMARK UNBOUND:                -0.140
REMARK SMILES CCCCCCC=O
REMARK SMILES IDX 4 1 3 2 2 3 1 4 5 5 6 6 7 7 8 8
REMARK H PARENT
REMARK Flexibility Score: inf
ROOT
ATOM      1  C   UNL     1      17.755  44.716   0.122  1.00  0.00     0.000 C 
ENDROOT
BRANCH   1   2
ATOM      2  C   UNL     1      17.091  43.800   1.166  1.00  0.00    -0.000 C 
BRANCH   2   3
ATOM      3  C   UNL     1      15.862  44.404   1.869  1.00  0.00    -0.003 C 
ATOM      4  C   UNL     1      15.076  45.366   0.978  1.00  0.00     0.004 C 
ENDBRANCH   2   3
ENDBRANCH   1   2
BRANCH   1   5
ATOM      5  C   UNL     1      19.289  44.665   0.170  1.00  0.00     0.008 C 
BRANCH   5   6
ATOM      6  C   UNL     1      19.777  44.186   1.541  1.00  0.00     0.072 C 
BRANCH   6   7
ATOM      7  C   UNL     1      20.774  43.075   1.397  1.00  0.00     0.224 C 
ATOM      8  O   UNL     1      21.039  42.621   0.295  1.00  0.00    -0.303 OA
ENDBRANCH   6   7
ENDBRANCH   5   6
ENDBRANCH   1   5
TORSDOF 5
ENDMDL
MODEL 7
REMARK VINA RESULT:    -3.358      4.211      6.062
REMARK INTER + INTRA:          -4.480
REMARK INTER:                  -4.284
REMARK INTRA:                  -0.196
REMARK UNBOUND:                -0.140
REMARK SMILES CCCCCCC=O
REMARK SMILES IDX 4 1 3 2 2 3 1 4 5 5 6 6 7 7 8 8
REMARK H PARENT
REMARK Flexibility Score: inf
ROOT
ATOM      1  C   UNL     1      30.320  58.881 -12.841  1.00  0.00     0.000 C 
ENDROOT
BRANCH   1   2
ATOM      2  C   UNL     1      30.108  57.404 -13.224  1.00  0.00    -0.000 C 
BRANCH   2   3
ATOM      3  C   UNL     1      31.357  56.694 -13.776  1.00  0.00    -0.003 C 
ATOM      4  C   UNL     1      32.528  57.646 -14.018  1.00  0.00     0.004 C 
ENDBRANCH   2   3
ENDBRANCH   1   2
BRANCH   1   5
ATOM      5  C   UNL     1      30.075  59.152 -11.349  1.00  0.00     0.008 C 
BRANCH   5   6
ATOM      6  C   UNL     1      28.929  60.151 -11.155  1.00  0.00     0.072 C 
BRANCH   6   7
ATOM      7  C   UNL     1      27.747  59.491 -10.511  1.00  0.00     0.224 C 
ATOM      8  O   UNL     1      27.335  58.419 -10.924  1.00  0.00    -0.303 OA
ENDBRANCH   6   7
ENDBRANCH   5   6
ENDBRANCH   1   5
TORSDOF 5
ENDMDL
MODEL 8
REMARK VINA RESULT:    -3.339      1.647      3.038
REMARK INTER + INTRA:          -4.455
REMARK INTER:                  -4.337
REMARK INTRA:                  -0.118
REMARK UNBOUND:                -0.140
REMARK SMILES CCCCCCC=O
REMARK SMILES IDX 4 1 3 2 2 3 1 4 5 5 6 6 7 7 8 8
REMARK H PARENT
REMARK Flexibility Score: inf
ROOT
ATOM      1  C   UNL     1      28.199  59.449 -10.014  1.00  0.00     0.000 C 
ENDROOT
BRANCH   1   2
ATOM      2  C   UNL     1      29.007  59.932 -11.234  1.00  0.00    -0.000 C 
BRANCH   2   3
ATOM      3  C   UNL     1      30.212  59.047 -11.602  1.00  0.00    -0.003 C 
ATOM      4  C   UNL     1      30.065  58.374 -12.966  1.00  0.00     0.004 C 
ENDBRANCH   2   3
ENDBRANCH   1   2
BRANCH   1   5
ATOM      5  C   UNL     1      27.076  58.472 -10.390  1.00  0.00     0.008 C 
BRANCH   5   6
ATOM      6  C   UNL     1      26.010  58.414  -9.290  1.00  0.00     0.072 C 
BRANCH   6   7
ATOM      7  C   UNL     1      25.663  56.994  -8.954  1.00  0.00     0.224 C 
ATOM      8  O   UNL     1      24.561  56.715  -8.510  1.00  0.00    -0.303 OA
ENDBRANCH   6   7
ENDBRANCH   5   6
ENDBRANCH   1   5
TORSDOF 5
ENDMDL
MODEL 9
REMARK VINA RESULT:    -3.337     15.318     16.812
REMARK INTER + INTRA:          -4.453
REMARK INTER:                  -4.261
REMARK INTRA:                  -0.191
REMARK UNBOUND:                -0.140
REMARK SMILES CCCCCCC=O
REMARK SMILES IDX 4 1 3 2 2 3 1 4 5 5 6 6 7 7 8 8
REMARK H PARENT
REMARK Flexibility Score: inf
ROOT
ATOM      1  C   UNL     1      32.224  44.757   1.924  1.00  0.00     0.000 C 
ENDROOT
BRANCH   1   2
ATOM      2  C   UNL     1      33.101  45.960   2.319  1.00  0.00    -0.000 C 
BRANCH   2   3
ATOM      3  C   UNL     1      32.912  46.450   3.766  1.00  0.00    -0.003 C 
ATOM      4  C   UNL     1      31.961  47.641   3.875  1.00  0.00     0.004 C 
ENDBRANCH   2   3
ENDBRANCH   1   2
BRANCH   1   5
ATOM      5  C   UNL     1      31.395  45.012   0.657  1.00  0.00     0.008 C 
BRANCH   5   6
ATOM      6  C   UNL     1      29.942  45.346   1.011  1.00  0.00     0.072 C 
BRANCH   6   7
ATOM      7  C   UNL     1      29.062  45.266  -0.201  1.00  0.00     0.224 C 
ATOM      8  O   UNL     1      28.112  46.021  -0.327  1.00  0.00    -0.303 OA
ENDBRANCH   6   7
ENDBRANCH   5   6
ENDBRANCH   1   5
TORSDOF 5
ENDMDL
