MODEL 1
REMARK VINA RESULT:    -3.969      0.000      0.000
REMARK INTER + INTRA:          -5.445
REMARK INTER:                  -5.593
REMARK INTRA:                   0.147
REMARK UNBOUND:                 0.147
REMARK SMILES CC1=CCC(=C(C)C)C(=O)CC(C)=CCC1
REMARK SMILES IDX 12 1 14 2 13 3 15 4 16 5 2 6 1 7 3 8 11 10 9 11 10 12 5 13
REMARK SMILES IDX 6 14 7 15 8 16 4 17
REMARK H PARENT
REMARK Flexibility Score: 60.00
ROOT
ATOM      1  C   UNL     1      18.250  26.296  27.854  1.00  0.00    -0.070 C 
ATOM      2  C   UNL     1      19.246  25.383  27.926  1.00  0.00    -0.027 C 
ATOM      3  C   UNL     1      16.831  25.812  28.000  1.00  0.00     0.039 C 
ENDROOT
BRANCH   2   4
ATOM      4  C   UNL     1      20.702  25.667  27.657  1.00  0.00     0.032 C 
BRANCH   4   5
ATOM      5  C   UNL     1      21.420  25.994  28.972  1.00  0.00     0.034 C 
BRANCH   5   6
ATOM      6  C   UNL     1      22.183  27.302  28.906  1.00  0.00    -0.077 C 
ATOM      7  C   UNL     1      23.494  27.337  28.161  1.00  0.00     0.039 C 
ATOM      8  C   UNL     1      21.717  28.468  29.418  1.00  0.00    -0.023 CG0
ATOM      9  G   UNL     1      20.465  28.676  30.252  1.00  0.00     0.000 G0
ENDBRANCH   5   6
ENDBRANCH   4   5
ENDBRANCH   2   4
BRANCH   1  10
ATOM     10  C   UNL     1      18.494  27.779  27.654  1.00  0.00     0.111 C 
BRANCH  10  11
ATOM     11  C   UNL     1      18.256  28.564  28.921  1.00  0.00     0.163 C 
ATOM     12  O   UNL     1      17.106  28.490  29.435  1.00  0.00    -0.294 OA
BRANCH  11  13
ATOM     13  C   UNL     1      19.306  29.397  29.597  1.00  0.00    -0.002 C 
ATOM     14  C   UNL     1      19.130  30.745  29.757  1.00  0.00    -0.069 C 
ATOM     15  C   UNL     1      20.044  31.575  30.628  1.00  0.00     0.039 C 
ATOM     16  C   UNL     1      18.036  31.490  29.026  1.00  0.00     0.039 C 
BRANCH  13  17
ATOM     17  C   UNL     1      20.475  28.671  30.254  1.00  0.00     0.066 CG0
ATOM     18  G   UNL     1      21.712  28.467  29.398  1.00  0.00     0.000 G0
ENDBRANCH  13  17
ENDBRANCH  11  13
ENDBRANCH  10  11
ENDBRANCH   1  10
TORSDOF 0
ENDMDL
MODEL 2
REMARK VINA RESULT:    -3.871      1.903      3.823
REMARK INTER + INTRA:          -5.308
REMARK INTER:                  -5.429
REMARK INTRA:                   0.121
REMARK UNBOUND:                 0.147
REMARK SMILES CC1=CCC(=C(C)C)C(=O)CC(C)=CCC1
REMARK SMILES IDX 12 1 14 2 13 3 15 4 16 5 2 6 1 7 3 8 11 10 9 11 10 12 5 13
REMARK SMILES IDX 6 14 7 15 8 16 4 17
REMARK H PARENT
REMARK Flexibility Score: 60.00
ROOT
ATOM      1  C   UNL     1      20.608  25.549  28.169  1.00  0.00    -0.070 C 
ATOM      2  C   UNL     1      19.378  25.368  27.635  1.00  0.00    -0.027 C 
ATOM      3  C   UNL     1      21.776  24.858  27.513  1.00  0.00     0.039 C 
ENDROOT
BRANCH   2   4
ATOM      4  C   UNL     1      18.090  25.859  28.244  1.00  0.00     0.032 C 
BRANCH   4   5
ATOM      5  C   UNL     1      17.747  27.247  27.688  1.00  0.00     0.034 C 
BRANCH   5   6
ATOM      6  C   UNL     1      17.469  28.257  28.783  1.00  0.00    -0.077 C 
ATOM      7  C   UNL     1      16.163  28.170  29.531  1.00  0.00     0.039 C 
ATOM      8  C   UNL     1      18.362  29.196  29.182  1.00  0.00    -0.023 CG0
ATOM      9  G   UNL     1      19.707  29.517  28.553  1.00  0.00     0.000 G0
ENDBRANCH   5   6
ENDBRANCH   4   5
ENDBRANCH   2   4
BRANCH   1  10
ATOM     10  C   UNL     1      20.869  26.424  29.378  1.00  0.00     0.111 C 
BRANCH  10  11
ATOM     11  C   UNL     1      21.528  27.728  28.998  1.00  0.00     0.163 C 
ATOM     12  O   UNL     1      22.616  27.659  28.364  1.00  0.00    -0.294 OA
BRANCH  11  13
ATOM     13  C   UNL     1      20.951  29.078  29.313  1.00  0.00    -0.002 C 
ATOM     14  C   UNL     1      21.616  29.944  30.138  1.00  0.00    -0.069 C 
ATOM     15  C   UNL     1      21.192  31.386  30.296  1.00  0.00     0.039 C 
ATOM     16  C   UNL     1      22.786  29.489  30.981  1.00  0.00     0.039 C 
BRANCH  13  17
ATOM     17  C   UNL     1      19.708  29.516  28.546  1.00  0.00     0.066 CG0
ATOM     18  G   UNL     1      18.369  29.196  29.188  1.00  0.00     0.000 G0
ENDBRANCH  13  17
ENDBRANCH  11  13
ENDBRANCH  10  11
ENDBRANCH   1  10
TORSDOF 0
ENDMDL
MODEL 3
REMARK VINA RESULT:    -3.846      1.759      3.829
REMARK INTER + INTRA:          -5.272
REMARK INTER:                  -5.262
REMARK INTRA:                  -0.010
REMARK UNBOUND:                 0.147
REMARK SMILES CC1=CCC(=C(C)C)C(=O)CC(C)=CCC1
REMARK SMILES IDX 12 1 14 2 13 3 15 4 16 5 2 6 1 7 3 8 11 10 9 11 10 12 5 13
REMARK SMILES IDX 6 14 7 15 8 16 4 17
REMARK H PARENT
REMARK Flexibility Score: 60.00
ROOT
ATOM      1  C   UNL     1      22.020  26.923  28.792  1.00  0.00    -0.070 C 
ATOM      2  C   UNL     1      21.403  25.888  28.175  1.00  0.00    -0.027 C 
ATOM      3  C   UNL     1      23.426  27.264  28.372  1.00  0.00     0.039 C 
ENDROOT
BRANCH   2   4
ATOM      4  C   UNL     1      20.063  25.320  28.569  1.00  0.00     0.032 C 
BRANCH   4   5
ATOM      5  C   UNL     1      19.032  25.611  27.472  1.00  0.00     0.034 C 
BRANCH   5   6
ATOM      6  C   UNL     1      17.755  26.214  28.022  1.00  0.00    -0.077 C 
ATOM      7  C   UNL     1      16.613  25.294  28.372  1.00  0.00     0.039 C 
ATOM      8  C   UNL     1      17.604  27.535  28.290  1.00  0.00    -0.023 CG0
ATOM      9  G   UNL     1      18.578  28.658  27.977  1.00  0.00     0.000 G0
ENDBRANCH   5   6
ENDBRANCH   4   5
ENDBRANCH   2   4
BRANCH   1  10
ATOM     10  C   UNL     1      21.359  27.764  29.866  1.00  0.00     0.111 C 
BRANCH  10  11
ATOM     11  C   UNL     1      20.775  29.037  29.304  1.00  0.00     0.163 C 
ATOM     12  O   UNL     1      21.588  29.918  28.912  1.00  0.00    -0.294 OA
BRANCH  11  13
ATOM     13  C   UNL     1      19.301  29.293  29.172  1.00  0.00    -0.002 C 
ATOM     14  C   UNL     1      18.674  30.188  29.995  1.00  0.00    -0.069 C 
ATOM     15  C   UNL     1      17.254  30.645  29.748  1.00  0.00     0.039 C 
ATOM     16  C   UNL     1      19.352  30.733  31.232  1.00  0.00     0.039 C 
BRANCH  13  17
ATOM     17  C   UNL     1      18.575  28.667  27.986  1.00  0.00     0.066 CG0
ATOM     18  G   UNL     1      17.599  27.549  28.305  1.00  0.00     0.000 G0
ENDBRANCH  13  17
ENDBRANCH  11  13
ENDBRANCH  10  11
ENDBRANCH   1  10
TORSDOF 0
ENDMDL
MODEL 4
REMARK VINA RESULT:    -3.742     10.218     12.824
REMARK INTER + INTRA:          -5.126
REMARK INTER:                  -4.979
REMARK INTRA:                  -0.147
REMARK UNBOUND:                 0.147
REMARK SMILES CC1=CCC(=C(C)C)C(=O)CC(C)=CCC1
REMARK SMILES IDX 12 1 14 2 13 3 15 4 16 5 2 6 1 7 3 8 11 10 9 11 10 12 5 13
REMARK SMILES IDX 6 14 7 15 8 16 4 17
REMARK H PARENT
REMARK Flexibility Score: 60.00
ROOT
ATOM      1  C   UNL     1      28.882  31.266  29.883  1.00  0.00    -0.070 C 
ATOM      2  C   UNL     1      28.902  32.077  30.965  1.00  0.00    -0.027 C 
ATOM      3  C   UNL     1      27.544  30.889  29.302  1.00  0.00     0.039 C 
ENDROOT
BRANCH   2   4
ATOM      4  C   UNL     1      30.134  32.433  31.757  1.00  0.00     0.032 C 
BRANCH   4   5
ATOM      5  C   UNL     1      30.676  33.791  31.296  1.00  0.00     0.034 C 
BRANCH   5   6
ATOM      6  C   UNL     1      32.186  33.797  31.162  1.00  0.00    -0.077 C 
ATOM      7  C   UNL     1      33.022  33.886  32.414  1.00  0.00     0.039 C 
ATOM      8  C   UNL     1      32.835  33.653  29.980  1.00  0.00    -0.023 CG0
ATOM      9  G   UNL     1      32.223  33.603  28.591  1.00  0.00     0.000 G0
ENDBRANCH   5   6
ENDBRANCH   4   5
ENDBRANCH   2   4
BRANCH   1  10
ATOM     10  C   UNL     1      30.136  30.736  29.216  1.00  0.00     0.111 C 
BRANCH  10  11
ATOM     11  C   UNL     1      30.597  31.630  28.091  1.00  0.00     0.163 C 
ATOM     12  O   UNL     1      29.752  31.912  27.198  1.00  0.00    -0.294 OA
BRANCH  11  13
ATOM     13  C   UNL     1      31.980  32.207  27.996  1.00  0.00    -0.002 C 
ATOM     14  C   UNL     1      32.947  31.578  27.260  1.00  0.00    -0.069 C 
ATOM     15  C   UNL     1      34.272  32.236  26.948  1.00  0.00     0.039 C 
ATOM     16  C   UNL     1      32.762  30.163  26.759  1.00  0.00     0.039 C 
BRANCH  13  17
ATOM     17  C   UNL     1      32.215  33.593  28.586  1.00  0.00     0.066 CG0
ATOM     18  G   UNL     1      32.828  33.642  29.975  1.00  0.00     0.000 G0
ENDBRANCH  13  17
ENDBRANCH  11  13
ENDBRANCH  10  11
ENDBRANCH   1  10
TORSDOF 0
ENDMDL
MODEL 5
REMARK VINA RESULT:    -3.666      1.960      3.150
REMARK INTER + INTRA:          -5.019
REMARK INTER:                  -4.900
REMARK INTRA:                  -0.119
REMARK UNBOUND:                 0.147
REMARK SMILES CC1=CCC(=C(C)C)C(=O)CC(C)=CCC1
REMARK SMILES IDX 12 1 14 2 13 3 15 4 16 5 2 6 1 7 3 8 11 10 9 11 10 12 5 13
REMARK SMILES IDX 6 14 7 15 8 16 4 17
REMARK H PARENT
REMARK Flexibility Score: 60.00
ROOT
ATOM      1  C   UNL     1      19.654  28.442  28.545  1.00  0.00    -0.070 C 
ATOM      2  C   UNL     1      20.876  28.060  28.984  1.00  0.00    -0.027 C 
ATOM      3  C   UNL     1      18.717  27.377  28.038  1.00  0.00     0.039 C 
ENDROOT
BRANCH   2   4
ATOM      4  C   UNL     1      21.985  29.000  29.384  1.00  0.00     0.032 C 
BRANCH   4   5
ATOM      5  C   UNL     1      21.908  29.285  30.888  1.00  0.00     0.034 C 
BRANCH   5   6
ATOM      6  C   UNL     1      22.097  30.754  31.210  1.00  0.00    -0.077 C 
ATOM      7  C   UNL     1      23.472  31.355  31.061  1.00  0.00     0.039 C 
ATOM      8  C   UNL     1      21.081  31.582  31.556  1.00  0.00    -0.023 CG0
ATOM      9  G   UNL     1      19.634  31.207  31.825  1.00  0.00     0.000 G0
ENDBRANCH   5   6
ENDBRANCH   4   5
ENDBRANCH   2   4
BRANCH   1  10
ATOM     10  C   UNL     1      19.178  29.881  28.558  1.00  0.00     0.111 C 
BRANCH  10  11
ATOM     11  C   UNL     1      18.379  30.199  29.799  1.00  0.00     0.163 C 
ATOM     12  O   UNL     1      17.451  29.401  30.105  1.00  0.00    -0.294 OA
BRANCH  11  13
ATOM     13  C   UNL     1      18.644  31.384  30.681  1.00  0.00    -0.002 C 
ATOM     14  C   UNL     1      17.904  32.528  30.552  1.00  0.00    -0.069 C 
ATOM     15  C   UNL     1      17.978  33.649  31.562  1.00  0.00     0.039 C 
ATOM     16  C   UNL     1      17.004  32.754  29.357  1.00  0.00     0.039 C 
BRANCH  13  17
ATOM     17  C   UNL     1      19.628  31.207  31.833  1.00  0.00     0.066 CG0
ATOM     18  G   UNL     1      21.072  31.583  31.553  1.00  0.00     0.000 G0
ENDBRANCH  13  17
ENDBRANCH  11  13
ENDBRANCH  10  11
ENDBRANCH   1  10
TORSDOF 0
ENDMDL
MODEL 6
REMARK VINA RESULT:    -3.556      2.336      3.485
REMARK INTER + INTRA:          -4.864
REMARK INTER:                  -4.913
REMARK INTRA:                   0.049
REMARK UNBOUND:                 0.147
REMARK SMILES CC1=CCC(=C(C)C)C(=O)CC(C)=CCC1
REMARK SMILES IDX 12 1 14 2 13 3 15 4 16 5 2 6 1 7 3 8 11 10 9 11 10 12 5 13
REMARK SMILES IDX 6 14 7 15 8 16 4 17
REMARK H PARENT
REMARK Flexibility Score: 60.00
ROOT
ATOM      1  C   UNL     1      17.041  30.360  29.435  1.00  0.00    -0.070 C 
ATOM      2  C   UNL     1      17.600  29.131  29.358  1.00  0.00    -0.027 C 
ATOM      3  C   UNL     1      15.642  30.471  29.985  1.00  0.00     0.039 C 
ENDROOT
BRANCH   2   4
ATOM      4  C   UNL     1      18.922  28.822  28.702  1.00  0.00     0.032 C 
BRANCH   4   5
ATOM      5  C   UNL     1      19.934  28.367  29.761  1.00  0.00     0.034 C 
BRANCH   5   6
ATOM      6  C   UNL     1      21.239  29.134  29.683  1.00  0.00    -0.077 C 
ATOM      7  C   UNL     1      22.377  28.545  28.889  1.00  0.00     0.039 C 
ATOM      8  C   UNL     1      21.420  30.362  30.229  1.00  0.00    -0.023 CG0
ATOM      9  G   UNL     1      20.454  31.131  31.114  1.00  0.00     0.000 G0
ENDBRANCH   5   6
ENDBRANCH   4   5
ENDBRANCH   2   4
BRANCH   1  10
ATOM     10  C   UNL     1      17.757  31.629  29.016  1.00  0.00     0.111 C 
BRANCH  10  11
ATOM     11  C   UNL     1      18.348  32.359  30.197  1.00  0.00     0.163 C 
ATOM     12  O   UNL     1      17.544  32.952  30.967  1.00  0.00    -0.294 OA
BRANCH  11  13
ATOM     13  C   UNL     1      19.817  32.395  30.506  1.00  0.00    -0.002 C 
ATOM     14  C   UNL     1      20.521  33.565  30.406  1.00  0.00    -0.069 C 
ATOM     15  C   UNL     1      21.934  33.696  30.926  1.00  0.00     0.039 C 
ATOM     16  C   UNL     1      19.938  34.780  29.721  1.00  0.00     0.039 C 
BRANCH  13  17
ATOM     17  C   UNL     1      20.448  31.143  31.104  1.00  0.00     0.066 CG0
ATOM     18  G   UNL     1      21.418  30.384  30.216  1.00  0.00     0.000 G0
ENDBRANCH  13  17
ENDBRANCH  11  13
ENDBRANCH  10  11
ENDBRANCH   1  10
TORSDOF 0
ENDMDL
MODEL 7
REMARK VINA RESULT:    -3.548      2.750      4.690
REMARK INTER + INTRA:          -4.852
REMARK INTER:                  -5.452
REMARK INTRA:                   0.599
REMARK UNBOUND:                 0.147
REMARK SMILES CC1=CCC(=C(C)C)C(=O)CC(C)=CCC1
REMARK SMILES IDX 12 1 14 2 13 3 15 4 16 5 2 6 1 7 3 8 11 10 9 11 10 12 5 13
REMARK SMILES IDX 6 14 7 15 8 16 4 17
REMARK H PARENT
REMARK Flexibility Score: 60.00
ROOT
ATOM      1  C   UNL     1      18.516  26.262  28.007  1.00  0.00    -0.070 C 
ATOM      2  C   UNL     1      17.524  25.379  27.751  1.00  0.00    -0.027 C 
ATOM      3  C   UNL     1      19.892  25.720  28.300  1.00  0.00     0.039 C 
ENDROOT
BRANCH   2   4
ATOM      4  C   UNL     1      16.069  25.737  27.585  1.00  0.00     0.032 C 
BRANCH   4   5
ATOM      5  C   UNL     1      15.213  24.893  28.537  1.00  0.00     0.034 C 
BRANCH   5   6
ATOM      6  C   UNL     1      15.408  25.280  29.989  1.00  0.00    -0.077 C 
ATOM      7  C   UNL     1      15.567  24.186  31.014  1.00  0.00     0.039 C 
ATOM      8  C   UNL     1      15.522  26.563  30.414  1.00  0.00    -0.023 CG0
ATOM      9  G   UNL     1      15.342  27.828  29.592  1.00  0.00     0.000 G0
ENDBRANCH   5   6
ENDBRANCH   4   5
ENDBRANCH   2   4
BRANCH   1  10
ATOM     10  C   UNL     1      18.317  27.764  27.996  1.00  0.00     0.111 C 
BRANCH  10  11
ATOM     11  C   UNL     1      17.890  28.287  29.345  1.00  0.00     0.163 C 
ATOM     12  O   UNL     1      18.754  28.278  30.265  1.00  0.00    -0.294 OA
BRANCH  11  13
ATOM     13  C   UNL     1      16.520  28.827  29.637  1.00  0.00    -0.002 C 
ATOM     14  C   UNL     1      16.316  30.174  29.769  1.00  0.00    -0.069 C 
ATOM     15  C   UNL     1      14.929  30.772  29.830  1.00  0.00     0.039 C 
ATOM     16  C   UNL     1      17.473  31.136  29.914  1.00  0.00     0.039 C 
BRANCH  13  17
ATOM     17  C   UNL     1      15.348  27.851  29.596  1.00  0.00     0.066 CG0
ATOM     18  G   UNL     1      15.502  26.577  30.407  1.00  0.00     0.000 G0
ENDBRANCH  13  17
ENDBRANCH  11  13
ENDBRANCH  10  11
ENDBRANCH   1  10
TORSDOF 0
ENDMDL
MODEL 8
REMARK VINA RESULT:    -3.545      2.266      4.238
REMARK INTER + INTRA:          -4.848
REMARK INTER:                  -5.164
REMARK INTRA:                   0.317
REMARK UNBOUND:                 0.147
REMARK SMILES CC1=CCC(=C(C)C)C(=O)CC(C)=CCC1
REMARK SMILES IDX 12 1 14 2 13 3 15 4 16 5 2 6 1 7 3 8 11 10 9 11 10 12 5 13
REMARK SMILES IDX 6 14 7 15 8 16 4 17
REMARK H PARENT
REMARK Flexibility Score: 60.00
ROOT
ATOM      1  C   UNL     1      21.713  29.907  29.847  1.00  0.00    -0.070 C 
ATOM      2  C   UNL     1      21.716  28.624  29.417  1.00  0.00    -0.027 C 
ATOM      3  C   UNL     1      22.841  30.360  30.737  1.00  0.00     0.039 C 
ENDROOT
BRANCH   2   4
ATOM      4  C   UNL     1      20.598  27.967  28.647  1.00  0.00     0.032 C 
BRANCH   4   5
ATOM      5  C   UNL     1      19.409  27.704  29.579  1.00  0.00     0.034 C 
BRANCH   5   6
ATOM      6  C   UNL     1      18.078  28.009  28.921  1.00  0.00    -0.077 C 
ATOM      7  C   UNL     1      17.680  27.223  27.698  1.00  0.00     0.039 C 
ATOM      8  C   UNL     1      17.185  28.903  29.414  1.00  0.00    -0.023 CG0
ATOM      9  G   UNL     1      17.377  29.848  30.588  1.00  0.00     0.000 G0
ENDBRANCH   5   6
ENDBRANCH   4   5
ENDBRANCH   2   4
BRANCH   1  10
ATOM     10  C   UNL     1      20.645  30.911  29.462  1.00  0.00     0.111 C 
BRANCH  10  11
ATOM     11  C   UNL     1      19.639  31.117  30.569  1.00  0.00     0.163 C 
ATOM     12  O   UNL     1      20.094  31.303  31.731  1.00  0.00    -0.294 OA
BRANCH  11  13
ATOM     13  C   UNL     1      18.153  31.131  30.355  1.00  0.00    -0.002 C 
ATOM     14  C   UNL     1      17.541  32.220  29.797  1.00  0.00    -0.069 C 
ATOM     15  C   UNL     1      16.096  32.188  29.354  1.00  0.00     0.039 C 
ATOM     16  C   UNL     1      18.265  33.538  29.639  1.00  0.00     0.039 C 
BRANCH  13  17
ATOM     17  C   UNL     1      17.386  29.837  30.607  1.00  0.00     0.066 CG0
ATOM     18  G   UNL     1      17.199  28.918  29.412  1.00  0.00     0.000 G0
ENDBRANCH  13  17
ENDBRANCH  11  13
ENDBRANCH  10  11
ENDBRANCH   1  10
TORSDOF 0
ENDMDL
MODEL 9
REMARK VINA RESULT:    -3.462      2.877      4.634
REMARK INTER + INTRA:          -4.731
REMARK INTER:                  -4.894
REMARK INTRA:                   0.162
REMARK UNBOUND:                 0.147
REMARK SMILES CC1=CCC(=C(C)C)C(=O)CC(C)=CCC1
REMARK SMILES IDX 12 1 14 2 13 3 15 4 16 5 2 6 1 7 3 8 11 10 9 11 10 12 5 13
REMARK SMILES IDX 6 14 7 15 8 16 4 17
REMARK H PARENT
REMARK Flexibility Score: 60.00
ROOT
ATOM      1  C   UNL     1      19.345  29.375  29.351  1.00  0.00    -0.070 C 
ATOM      2  C   UNL     1      18.934  28.514  28.392  1.00  0.00    -0.027 C 
ATOM      3  C   UNL     1      20.032  30.644  28.919  1.00  0.00     0.039 C 
ENDROOT
BRANCH   2   4
ATOM      4  C   UNL     1      18.366  27.141  28.649  1.00  0.00     0.032 C 
BRANCH   4   5
ATOM      5  C   UNL     1      16.899  27.093  28.206  1.00  0.00     0.034 C 
BRANCH   5   6
ATOM      6  C   UNL     1      15.939  27.134  29.378  1.00  0.00    -0.077 C 
ATOM      7  C   UNL     1      15.435  25.831  29.946  1.00  0.00     0.039 C 
ATOM      8  C   UNL     1      15.561  28.279  29.999  1.00  0.00    -0.023 CG0
ATOM      9  G   UNL     1      15.884  29.704  29.584  1.00  0.00     0.000 G0
ENDBRANCH   5   6
ENDBRANCH   4   5
ENDBRANCH   2   4
BRANCH   1  10
ATOM     10  C   UNL     1      19.130  29.136  30.833  1.00  0.00     0.111 C 
BRANCH  10  11
ATOM     11  C   UNL     1      17.812  29.695  31.309  1.00  0.00     0.163 C 
ATOM     12  O   UNL     1      17.503  29.490  32.514  1.00  0.00    -0.294 OA
BRANCH  11  13
ATOM     13  C   UNL     1      16.879  30.488  30.441  1.00  0.00    -0.002 C 
ATOM     14  C   UNL     1      17.034  31.841  30.305  1.00  0.00    -0.069 C 
ATOM     15  C   UNL     1      16.271  32.636  29.271  1.00  0.00     0.039 C 
ATOM     16  C   UNL     1      17.944  32.626  31.223  1.00  0.00     0.039 C 
BRANCH  13  17
ATOM     17  C   UNL     1      15.881  29.719  29.581  1.00  0.00     0.066 CG0
ATOM     18  G   UNL     1      15.582  28.291  30.007  1.00  0.00     0.000 G0
ENDBRANCH  13  17
ENDBRANCH  11  13
ENDBRANCH  10  11
ENDBRANCH   1  10
TORSDOF 0
ENDMDL
