MODEL 1
REMARK VINA RESULT:    -3.181      0.000      0.000
REMARK INTER + INTRA:          -6.535
REMARK INTER:                  -5.040
REMARK INTRA:                  -1.494
REMARK UNBOUND:                -1.494
REMARK SMILES CCCCCCCCCCCC(=O)[O-]
REMARK SMILES IDX 7 1 8 2 9 3 10 4 11 5 12 6 13 7 14 8 6 9 5 10 4 11 3 12 2 13
REMARK SMILES IDX 1 14
REMARK H PARENT
REMARK Flexibility Score: inf
ROOT
ATOM      1  C   UNL     1      31.102  46.854   8.644  1.00  0.00     0.000 C 
ENDROOT
BRANCH   1   2
ATOM      2  C   UNL     1      31.959  47.992   8.049  1.00  0.00     0.000 C 
BRANCH   2   3
ATOM      3  C   UNL     1      31.650  48.287   6.571  1.00  0.00     0.000 C 
BRANCH   3   4
ATOM      4  C   UNL     1      31.542  49.789   6.272  1.00  0.00     0.006 C 
BRANCH   4   5
ATOM      5  C   UNL     1      32.365  50.607   7.272  1.00  0.00     0.053 C 
BRANCH   5   6
ATOM      6  C   UNL     1      32.286  52.066   6.946  1.00  0.00     0.041 C 
ATOM      7  O   UNL     1      33.322  52.781   6.991  1.00  0.00    -0.550 OA
ATOM      8  O   UNL     1      31.061  52.645   6.642  1.00  0.00    -0.550 OA
ENDBRANCH   5   6
ENDBRANCH   4   5
ENDBRANCH   3   4
ENDBRANCH   2   3
ENDBRANCH   1   2
BRANCH   1   9
ATOM      9  C   UNL     1      30.134  46.257   7.612  1.00  0.00     0.000 C 
BRANCH   9  10
ATOM     10  C   UNL     1      28.694  46.257   8.142  1.00  0.00    -0.000 C 
BRANCH  10  11
ATOM     11  C   UNL     1      28.374  47.578   8.858  1.00  0.00    -0.000 C 
BRANCH  11  12
ATOM     12  C   UNL     1      27.547  48.538   7.987  1.00  0.00    -0.000 C 
BRANCH  12  13
ATOM     13  C   UNL     1      28.193  49.925   7.858  1.00  0.00    -0.003 C 
ATOM     14  C   UNL     1      29.137  50.203   9.025  1.00  0.00     0.004 C 
ENDBRANCH  12  13
ENDBRANCH  11  12
ENDBRANCH  10  11
ENDBRANCH   9  10
ENDBRANCH   1   9
TORSDOF 10
ENDMDL
MODEL 2
REMARK VINA RESULT:    -3.130     17.550     18.758
REMARK INTER + INTRA:          -6.454
REMARK INTER:                  -5.781
REMARK INTRA:                  -0.673
REMARK UNBOUND:                -1.494
REMARK SMILES CCCCCCCCCCCC(=O)[O-]
REMARK SMILES IDX 7 1 8 2 9 3 10 4 11 5 12 6 13 7 14 8 6 9 5 10 4 11 3 12 2 13
REMARK SMILES IDX 1 14
REMARK H PARENT
REMARK Flexibility Score: inf
ROOT
ATOM      1  C   UNL     1      33.423  49.015  25.166  1.00  0.00     0.000 C 
ENDROOT
BRANCH   1   2
ATOM      2  C   UNL     1      34.131  47.752  25.699  1.00  0.00     0.000 C 
BRANCH   2   3
ATOM      3  C   UNL     1      35.647  47.737  25.437  1.00  0.00     0.000 C 
BRANCH   3   4
ATOM      4  C   UNL     1      36.357  46.552  26.106  1.00  0.00     0.006 C 
BRANCH   4   5
ATOM      5  C   UNL     1      35.675  45.230  25.743  1.00  0.00     0.053 C 
BRANCH   5   6
ATOM      6  C   UNL     1      36.689  44.223  25.298  1.00  0.00     0.041 C 
ATOM      7  O   UNL     1      37.910  44.400  25.551  1.00  0.00    -0.550 OA
ATOM      8  O   UNL     1      36.292  43.115  24.561  1.00  0.00    -0.550 OA
ENDBRANCH   5   6
ENDBRANCH   4   5
ENDBRANCH   3   4
ENDBRANCH   2   3
ENDBRANCH   1   2
BRANCH   1   9
ATOM      9  C   UNL     1      34.391  50.196  24.998  1.00  0.00     0.000 C 
BRANCH   9  10
ATOM     10  C   UNL     1      33.867  51.444  25.719  1.00  0.00    -0.000 C 
BRANCH  10  11
ATOM     11  C   UNL     1      32.332  51.441  25.777  1.00  0.00    -0.000 C 
BRANCH  11  12
ATOM     12  C   UNL     1      31.724  52.812  25.442  1.00  0.00    -0.000 C 
BRANCH  12  13
ATOM     13  C   UNL     1      30.935  52.804  24.125  1.00  0.00    -0.003 C 
ATOM     14  C   UNL     1      30.681  51.377  23.645  1.00  0.00     0.004 C 
ENDBRANCH  12  13
ENDBRANCH  11  12
ENDBRANCH  10  11
ENDBRANCH   9  10
ENDBRANCH   1   9
TORSDOF 10
ENDMDL
MODEL 3
REMARK VINA RESULT:    -3.116     17.724     18.925
REMARK INTER + INTRA:          -6.432
REMARK INTER:                  -5.967
REMARK INTRA:                  -0.465
REMARK UNBOUND:                -1.494
REMARK SMILES CCCCCCCCCCCC(=O)[O-]
REMARK SMILES IDX 7 1 8 2 9 3 10 4 11 5 12 6 13 7 14 8 6 9 5 10 4 11 3 12 2 13
REMARK SMILES IDX 1 14
REMARK H PARENT
REMARK Flexibility Score: inf
ROOT
ATOM      1  C   UNL     1      33.924  47.381  25.350  1.00  0.00     0.000 C 
ENDROOT
BRANCH   1   2
ATOM      2  C   UNL     1      34.239  46.004  25.971  1.00  0.00     0.000 C 
BRANCH   2   3
ATOM      3  C   UNL     1      35.731  45.633  25.922  1.00  0.00     0.000 C 
BRANCH   3   4
ATOM      4  C   UNL     1      35.966  44.131  25.708  1.00  0.00     0.006 C 
BRANCH   4   5
ATOM      5  C   UNL     1      37.240  43.886  24.894  1.00  0.00     0.053 C 
BRANCH   5   6
ATOM      6  C   UNL     1      37.105  42.641  24.074  1.00  0.00     0.041 C 
ATOM      7  O   UNL     1      36.731  42.711  22.874  1.00  0.00    -0.550 OA
ATOM      8  O   UNL     1      37.344  41.400  24.650  1.00  0.00    -0.550 OA
ENDBRANCH   5   6
ENDBRANCH   4   5
ENDBRANCH   3   4
ENDBRANCH   2   3
ENDBRANCH   1   2
BRANCH   1   9
ATOM      9  C   UNL     1      35.156  48.298  25.315  1.00  0.00     0.000 C 
BRANCH   9  10
ATOM     10  C   UNL     1      34.744  49.775  25.334  1.00  0.00    -0.000 C 
BRANCH  10  11
ATOM     11  C   UNL     1      33.381  49.974  24.654  1.00  0.00    -0.000 C 
BRANCH  11  12
ATOM     12  C   UNL     1      32.474  50.949  25.420  1.00  0.00    -0.000 C 
BRANCH  12  13
ATOM     13  C   UNL     1      33.150  52.302  25.686  1.00  0.00    -0.003 C 
ATOM     14  C   UNL     1      32.337  53.449  25.093  1.00  0.00     0.004 C 
ENDBRANCH  12  13
ENDBRANCH  11  12
ENDBRANCH  10  11
ENDBRANCH   9  10
ENDBRANCH   1   9
TORSDOF 10
ENDMDL
MODEL 4
REMARK VINA RESULT:    -3.084      1.909      3.250
REMARK INTER + INTRA:          -6.382
REMARK INTER:                  -5.384
REMARK INTRA:                  -0.997
REMARK UNBOUND:                -1.494
REMARK SMILES CCCCCCCCCCCC(=O)[O-]
REMARK SMILES IDX 7 1 8 2 9 3 10 4 11 5 12 6 13 7 14 8 6 9 5 10 4 11 3 12 2 13
REMARK SMILES IDX 1 14
REMARK H PARENT
REMARK Flexibility Score: inf
ROOT
ATOM      1  C   UNL     1      29.369  47.677   9.556  1.00  0.00     0.000 C 
ENDROOT
BRANCH   1   2
ATOM      2  C   UNL     1      29.932  46.701   8.501  1.00  0.00     0.000 C 
BRANCH   2   3
ATOM      3  C   UNL     1      31.420  46.928   8.184  1.00  0.00     0.000 C 
BRANCH   3   4
ATOM      4  C   UNL     1      31.646  48.025   7.134  1.00  0.00     0.006 C 
BRANCH   4   5
ATOM      5  C   UNL     1      32.256  49.276   7.772  1.00  0.00     0.053 C 
BRANCH   5   6
ATOM      6  C   UNL     1      31.413  50.478   7.479  1.00  0.00     0.041 C 
ATOM      7  O   UNL     1      30.703  50.988   8.384  1.00  0.00    -0.550 OA
ATOM      8  O   UNL     1      31.373  51.002   6.193  1.00  0.00    -0.550 OA
ENDBRANCH   5   6
ENDBRANCH   4   5
ENDBRANCH   3   4
ENDBRANCH   2   3
ENDBRANCH   1   2
BRANCH   1   9
ATOM      9  C   UNL     1      28.261  48.574   8.983  1.00  0.00     0.000 C 
BRANCH   9  10
ATOM     10  C   UNL     1      27.121  47.734   8.394  1.00  0.00    -0.000 C 
BRANCH  10  11
ATOM     11  C   UNL     1      26.042  47.455   9.452  1.00  0.00    -0.000 C 
BRANCH  11  12
ATOM     12  C   UNL     1      26.019  45.986   9.901  1.00  0.00    -0.000 C 
BRANCH  12  13
ATOM     13  C   UNL     1      25.711  45.019   8.749  1.00  0.00    -0.003 C 
ATOM     14  C   UNL     1      26.850  44.024   8.546  1.00  0.00     0.004 C 
ENDBRANCH  12  13
ENDBRANCH  11  12
ENDBRANCH  10  11
ENDBRANCH   9  10
ENDBRANCH   1   9
TORSDOF 10
ENDMDL
MODEL 5
REMARK VINA RESULT:    -3.069      1.733      4.076
REMARK INTER + INTRA:          -6.358
REMARK INTER:                  -4.975
REMARK INTRA:                  -1.382
REMARK UNBOUND:                -1.494
REMARK SMILES CCCCCCCCCCCC(=O)[O-]
REMARK SMILES IDX 7 1 8 2 9 3 10 4 11 5 12 6 13 7 14 8 6 9 5 10 4 11 3 12 2 13
REMARK SMILES IDX 1 14
REMARK H PARENT
REMARK Flexibility Score: inf
ROOT
ATOM      1  C   UNL     1      30.470  45.770   7.411  1.00  0.00     0.000 C 
ENDROOT
BRANCH   1   2
ATOM      2  C   UNL     1      28.961  45.708   7.728  1.00  0.00     0.000 C 
BRANCH   2   3
ATOM      3  C   UNL     1      28.122  46.728   6.938  1.00  0.00     0.000 C 
BRANCH   3   4
ATOM      4  C   UNL     1      27.467  47.785   7.837  1.00  0.00     0.006 C 
BRANCH   4   5
ATOM      5  C   UNL     1      27.938  49.193   7.460  1.00  0.00     0.053 C 
BRANCH   5   6
ATOM      6  C   UNL     1      28.689  49.816   8.595  1.00  0.00     0.041 C 
ATOM      7  O   UNL     1      29.005  51.034   8.552  1.00  0.00    -0.550 OA
ATOM      8  O   UNL     1      29.083  49.039   9.677  1.00  0.00    -0.550 OA
ENDBRANCH   5   6
ENDBRANCH   4   5
ENDBRANCH   3   4
ENDBRANCH   2   3
ENDBRANCH   1   2
BRANCH   1   9
ATOM      9  C   UNL     1      31.277  46.401   8.556  1.00  0.00     0.000 C 
BRANCH   9  10
ATOM     10  C   UNL     1      31.876  47.748   8.130  1.00  0.00    -0.000 C 
BRANCH  10  11
ATOM     11  C   UNL     1      31.551  48.052   6.660  1.00  0.00    -0.000 C 
BRANCH  11  12
ATOM     12  C   UNL     1      31.615  49.554   6.339  1.00  0.00    -0.000 C 
BRANCH  12  13
ATOM     13  C   UNL     1      32.259  50.374   7.465  1.00  0.00    -0.003 C 
ATOM     14  C   UNL     1      32.460  51.826   7.043  1.00  0.00     0.004 C 
ENDBRANCH  12  13
ENDBRANCH  11  12
ENDBRANCH  10  11
ENDBRANCH   9  10
ENDBRANCH   1   9
TORSDOF 10
ENDMDL
MODEL 6
REMARK VINA RESULT:    -3.037      1.880      4.700
REMARK INTER + INTRA:          -6.307
REMARK INTER:                  -5.208
REMARK INTRA:                  -1.099
REMARK UNBOUND:                -1.494
REMARK SMILES CCCCCCCCCCCC(=O)[O-]
REMARK SMILES IDX 7 1 8 2 9 3 10 4 11 5 12 6 13 7 14 8 6 9 5 10 4 11 3 12 2 13
REMARK SMILES IDX 1 14
REMARK H PARENT
REMARK Flexibility Score: inf
ROOT
ATOM      1  C   UNL     1      31.872  48.023   8.169  1.00  0.00     0.000 C 
ENDROOT
BRANCH   1   2
ATOM      2  C   UNL     1      30.903  47.338   7.183  1.00  0.00     0.000 C 
BRANCH   2   3
ATOM      3  C   UNL     1      29.584  46.883   7.831  1.00  0.00     0.000 C 
BRANCH   3   4
ATOM      4  C   UNL     1      29.313  47.569   9.178  1.00  0.00     0.006 C 
BRANCH   4   5
ATOM      5  C   UNL     1      28.131  48.537   9.071  1.00  0.00     0.053 C 
BRANCH   5   6
ATOM      6  C   UNL     1      28.577  49.846   8.498  1.00  0.00     0.041 C 
ATOM      7  O   UNL     1      28.226  50.182   7.337  1.00  0.00    -0.550 OA
ATOM      8  O   UNL     1      29.422  50.672   9.229  1.00  0.00    -0.550 OA
ENDBRANCH   5   6
ENDBRANCH   4   5
ENDBRANCH   3   4
ENDBRANCH   2   3
ENDBRANCH   1   2
BRANCH   1   9
ATOM      9  C   UNL     1      32.327  49.403   7.670  1.00  0.00     0.000 C 
BRANCH   9  10
ATOM     10  C   UNL     1      31.649  49.759   6.341  1.00  0.00    -0.000 C 
BRANCH  10  11
ATOM     11  C   UNL     1      31.472  51.280   6.206  1.00  0.00    -0.000 C 
BRANCH  11  12
ATOM     12  C   UNL     1      32.553  52.071   6.960  1.00  0.00    -0.000 C 
BRANCH  12  13
ATOM     13  C   UNL     1      32.927  53.382   6.254  1.00  0.00    -0.003 C 
ATOM     14  C   UNL     1      33.725  54.296   7.181  1.00  0.00     0.004 C 
ENDBRANCH  12  13
ENDBRANCH  11  12
ENDBRANCH  10  11
ENDBRANCH   9  10
ENDBRANCH   1   9
TORSDOF 10
ENDMDL
MODEL 7
REMARK VINA RESULT:    -3.002      3.845      5.527
REMARK INTER + INTRA:          -6.251
REMARK INTER:                  -4.914
REMARK INTRA:                  -1.337
REMARK UNBOUND:                -1.494
REMARK SMILES CCCCCCCCCCCC(=O)[O-]
REMARK SMILES IDX 7 1 8 2 9 3 10 4 11 5 12 6 13 7 14 8 6 9 5 10 4 11 3 12 2 13
REMARK SMILES IDX 1 14
REMARK H PARENT
REMARK Flexibility Score: inf
ROOT
ATOM      1  C   UNL     1      31.583  47.469   8.149  1.00  0.00     0.000 C 
ENDROOT
BRANCH   1   2
ATOM      2  C   UNL     1      30.084  47.104   8.133  1.00  0.00     0.000 C 
BRANCH   2   3
ATOM      3  C   UNL     1      29.320  47.582   9.379  1.00  0.00     0.000 C 
BRANCH   3   4
ATOM      4  C   UNL     1      27.861  47.955   9.078  1.00  0.00     0.006 C 
BRANCH   4   5
ATOM      5  C   UNL     1      27.220  46.937   8.130  1.00  0.00     0.053 C 
BRANCH   5   6
ATOM      6  C   UNL     1      26.765  45.730   8.889  1.00  0.00     0.041 C 
ATOM      7  O   UNL     1      26.086  45.862   9.941  1.00  0.00    -0.550 OA
ATOM      8  O   UNL     1      27.136  44.461   8.462  1.00  0.00    -0.550 OA
ENDBRANCH   5   6
ENDBRANCH   4   5
ENDBRANCH   3   4
ENDBRANCH   2   3
ENDBRANCH   1   2
BRANCH   1   9
ATOM      9  C   UNL     1      31.929  48.547   7.111  1.00  0.00     0.000 C 
BRANCH   9  10
ATOM     10  C   UNL     1      32.311  49.867   7.794  1.00  0.00    -0.000 C 
BRANCH  10  11
ATOM     11  C   UNL     1      31.373  51.003   7.357  1.00  0.00    -0.000 C 
BRANCH  11  12
ATOM     12  C   UNL     1      30.153  50.493   6.574  1.00  0.00    -0.000 C 
BRANCH  12  13
ATOM     13  C   UNL     1      28.825  51.024   7.134  1.00  0.00    -0.003 C 
ATOM     14  C   UNL     1      28.948  51.353   8.619  1.00  0.00     0.004 C 
ENDBRANCH  12  13
ENDBRANCH  11  12
ENDBRANCH  10  11
ENDBRANCH   9  10
ENDBRANCH   1   9
TORSDOF 10
ENDMDL
MODEL 8
REMARK VINA RESULT:    -2.996      1.831      2.736
REMARK INTER + INTRA:          -6.242
REMARK INTER:                  -5.251
REMARK INTRA:                  -0.990
REMARK UNBOUND:                -1.494
REMARK SMILES CCCCCCCCCCCC(=O)[O-]
REMARK SMILES IDX 7 1 8 2 9 3 10 4 11 5 12 6 13 7 14 8 6 9 5 10 4 11 3 12 2 13
REMARK SMILES IDX 1 14
REMARK H PARENT
REMARK Flexibility Score: inf
ROOT
ATOM      1  C   UNL     1      31.690  47.264   8.487  1.00  0.00     0.000 C 
ENDROOT
BRANCH   1   2
ATOM      2  C   UNL     1      31.969  48.219   7.308  1.00  0.00     0.000 C 
BRANCH   2   3
ATOM      3  C   UNL     1      32.200  49.679   7.738  1.00  0.00     0.000 C 
BRANCH   3   4
ATOM      4  C   UNL     1      31.386  50.682   6.908  1.00  0.00     0.006 C 
BRANCH   4   5
ATOM      5  C   UNL     1      29.887  50.383   7.005  1.00  0.00     0.053 C 
BRANCH   5   6
ATOM      6  C   UNL     1      29.238  51.285   8.007  1.00  0.00     0.041 C 
ATOM      7  O   UNL     1      28.583  52.290   7.624  1.00  0.00    -0.550 OA
ATOM      8  O   UNL     1      29.398  51.045   9.366  1.00  0.00    -0.550 OA
ENDBRANCH   5   6
ENDBRANCH   4   5
ENDBRANCH   3   4
ENDBRANCH   2   3
ENDBRANCH   1   2
BRANCH   1   9
ATOM      9  C   UNL     1      30.746  46.118   8.094  1.00  0.00     0.000 C 
BRANCH   9  10
ATOM     10  C   UNL     1      29.292  46.602   8.023  1.00  0.00    -0.000 C 
BRANCH  10  11
ATOM     11  C   UNL     1      28.959  47.516   9.212  1.00  0.00    -0.000 C 
BRANCH  11  12
ATOM     12  C   UNL     1      27.471  47.897   9.266  1.00  0.00    -0.000 C 
BRANCH  12  13
ATOM     13  C   UNL     1      26.543  46.693   9.052  1.00  0.00    -0.003 C 
ATOM     14  C   UNL     1      25.482  46.616  10.146  1.00  0.00     0.004 C 
ENDBRANCH  12  13
ENDBRANCH  11  12
ENDBRANCH  10  11
ENDBRANCH   9  10
ENDBRANCH   1   9
TORSDOF 10
ENDMDL
