MODEL 1
REMARK VINA RESULT:    -4.440      0.000      0.000
REMARK INTER + INTRA:          -8.855
REMARK INTER:                  -7.554
REMARK INTRA:                  -1.300
REMARK UNBOUND:                -1.300
REMARK SMILES CCCCCCCCCCCCCC(=O)[O-]
REMARK SMILES IDX 8 1 9 2 10 3 11 4 12 5 13 6 14 7 15 8 16 9 7 10 6 11 5 12
REMARK SMILES IDX 4 13 3 14 2 15 1 16
REMARK H PARENT
REMARK Flexibility Score: inf
ROOT
ATOM      1  C   UNL     1      -9.621 -36.705  44.268  1.00  0.00     0.000 C 
ENDROOT
BRANCH   1   2
ATOM      2  C   UNL     1     -10.622 -35.825  45.024  1.00  0.00     0.000 C 
BRANCH   2   3
ATOM      3  C   UNL     1     -10.230 -34.343  44.935  1.00  0.00     0.000 C 
BRANCH   3   4
ATOM      4  C   UNL     1      -9.440 -34.008  43.657  1.00  0.00     0.000 C 
BRANCH   4   5
ATOM      5  C   UNL     1     -10.298 -33.536  42.465  1.00  0.00     0.006 C 
BRANCH   5   6
ATOM      6  C   UNL     1      -9.560 -33.515  41.117  1.00  0.00     0.053 C 
BRANCH   6   7
ATOM      7  C   UNL     1      -8.242 -32.810  41.208  1.00  0.00     0.041 C 
ATOM      8  O   UNL     1      -8.201 -31.562  41.366  1.00  0.00    -0.550 OA
ATOM      9  O   UNL     1      -7.059 -33.528  41.082  1.00  0.00    -0.550 OA
ENDBRANCH   6   7
ENDBRANCH   5   6
ENDBRANCH   4   5
ENDBRANCH   3   4
ENDBRANCH   2   3
ENDBRANCH   1   2
BRANCH   1  10
ATOM     10  C   UNL     1      -9.895 -38.193  44.517  1.00  0.00     0.000 C 
BRANCH  10  11
ATOM     11  C   UNL     1     -11.367 -38.534  44.255  1.00  0.00    -0.000 C 
BRANCH  11  12
ATOM     12  C   UNL     1     -11.830 -39.694  45.150  1.00  0.00    -0.000 C 
BRANCH  12  13
ATOM     13  C   UNL     1     -13.009 -39.307  46.057  1.00  0.00    -0.000 C 
BRANCH  13  14
ATOM     14  C   UNL     1     -12.660 -38.173  47.031  1.00  0.00    -0.000 C 
BRANCH  14  15
ATOM     15  C   UNL     1     -11.728 -38.673  48.142  1.00  0.00    -0.003 C 
ATOM     16  C   UNL     1     -10.425 -37.879  48.167  1.00  0.00     0.004 C 
ENDBRANCH  14  15
ENDBRANCH  13  14
ENDBRANCH  12  13
ENDBRANCH  11  12
ENDBRANCH  10  11
ENDBRANCH   1  10
TORSDOF 12
ENDMDL
MODEL 2
REMARK VINA RESULT:    -4.433      1.262      1.944
REMARK INTER + INTRA:          -8.843
REMARK INTER:                  -7.330
REMARK INTRA:                  -1.513
REMARK UNBOUND:                -1.300
REMARK SMILES CCCCCCCCCCCCCC(=O)[O-]
REMARK SMILES IDX 8 1 9 2 10 3 11 4 12 5 13 6 14 7 15 8 16 9 7 10 6 11 5 12
REMARK SMILES IDX 4 13 3 14 2 15 1 16
REMARK H PARENT
REMARK Flexibility Score: inf
ROOT
ATOM      1  C   UNL     1     -10.153 -38.890  44.216  1.00  0.00     0.000 C 
ENDROOT
BRANCH   1   2
ATOM      2  C   UNL     1      -9.623 -37.488  44.540  1.00  0.00     0.000 C 
BRANCH   2   3
ATOM      3  C   UNL     1     -10.723 -36.612  45.156  1.00  0.00     0.000 C 
BRANCH   3   4
ATOM      4  C   UNL     1     -10.588 -35.126  44.777  1.00  0.00     0.000 C 
BRANCH   4   5
ATOM      5  C   UNL     1      -9.695 -34.843  43.551  1.00  0.00     0.006 C 
BRANCH   5   6
ATOM      6  C   UNL     1     -10.199 -33.711  42.643  1.00  0.00     0.053 C 
BRANCH   6   7
ATOM      7  C   UNL     1      -9.346 -33.546  41.422  1.00  0.00     0.041 C 
ATOM      8  O   UNL     1      -9.878 -33.328  40.303  1.00  0.00    -0.550 OA
ATOM      9  O   UNL     1      -7.966 -33.670  41.517  1.00  0.00    -0.550 OA
ENDBRANCH   6   7
ENDBRANCH   5   6
ENDBRANCH   4   5
ENDBRANCH   3   4
ENDBRANCH   2   3
ENDBRANCH   1   2
BRANCH   1  10
ATOM     10  C   UNL     1     -11.686 -38.904  44.174  1.00  0.00     0.000 C 
BRANCH  10  11
ATOM     11  C   UNL     1     -12.243 -40.188  44.800  1.00  0.00    -0.000 C 
BRANCH  11  12
ATOM     12  C   UNL     1     -11.661 -40.412  46.204  1.00  0.00    -0.000 C 
BRANCH  12  13
ATOM     13  C   UNL     1     -12.141 -39.362  47.219  1.00  0.00    -0.000 C 
BRANCH  13  14
ATOM     14  C   UNL     1     -11.051 -38.970  48.226  1.00  0.00    -0.000 C 
BRANCH  14  15
ATOM     15  C   UNL     1      -9.831 -39.891  48.099  1.00  0.00    -0.003 C 
ATOM     16  C   UNL     1      -8.573 -39.096  47.757  1.00  0.00     0.004 C 
ENDBRANCH  14  15
ENDBRANCH  13  14
ENDBRANCH  12  13
ENDBRANCH  11  12
ENDBRANCH  10  11
ENDBRANCH   1  10
TORSDOF 12
ENDMDL
MODEL 3
REMARK VINA RESULT:    -4.426      1.274      2.281
REMARK INTER + INTRA:          -8.831
REMARK INTER:                  -7.875
REMARK INTRA:                  -0.956
REMARK UNBOUND:                -1.300
REMARK SMILES CCCCCCCCCCCCCC(=O)[O-]
REMARK SMILES IDX 8 1 9 2 10 3 11 4 12 5 13 6 14 7 15 8 16 9 7 10 6 11 5 12
REMARK SMILES IDX 4 13 3 14 2 15 1 16
REMARK H PARENT
REMARK Flexibility Score: inf
ROOT
ATOM      1  C   UNL     1     -10.612 -36.264  45.510  1.00  0.00     0.000 C 
ENDROOT
BRANCH   1   2
ATOM      2  C   UNL     1     -10.352 -34.901  44.859  1.00  0.00     0.000 C 
BRANCH   2   3
ATOM      3  C   UNL     1     -10.257 -35.030  43.331  1.00  0.00     0.000 C 
BRANCH   3   4
ATOM      4  C   UNL     1     -10.300 -33.671  42.611  1.00  0.00     0.000 C 
BRANCH   4   5
ATOM      5  C   UNL     1      -9.642 -33.650  41.216  1.00  0.00     0.006 C 
BRANCH   5   6
ATOM      6  C   UNL     1      -8.141 -33.321  41.223  1.00  0.00     0.053 C 
BRANCH   6   7
ATOM      7  C   UNL     1      -7.859 -31.995  41.859  1.00  0.00     0.041 C 
ATOM      8  O   UNL     1      -8.088 -30.929  41.230  1.00  0.00    -0.550 OA
ATOM      9  O   UNL     1      -7.310 -31.937  43.134  1.00  0.00    -0.550 OA
ENDBRANCH   6   7
ENDBRANCH   5   6
ENDBRANCH   4   5
ENDBRANCH   3   4
ENDBRANCH   2   3
ENDBRANCH   1   2
BRANCH   1  10
ATOM     10  C   UNL     1      -9.465 -37.240  45.224  1.00  0.00     0.000 C 
BRANCH  10  11
ATOM     11  C   UNL     1      -9.001 -37.939  46.508  1.00  0.00    -0.000 C 
BRANCH  11  12
ATOM     12  C   UNL     1      -9.826 -37.472  47.717  1.00  0.00    -0.000 C 
BRANCH  12  13
ATOM     13  C   UNL     1     -10.620 -38.615  48.369  1.00  0.00    -0.000 C 
BRANCH  13  14
ATOM     14  C   UNL     1     -10.424 -39.958  47.649  1.00  0.00    -0.000 C 
BRANCH  14  15
ATOM     15  C   UNL     1     -11.751 -40.472  47.079  1.00  0.00    -0.003 C 
ATOM     16  C   UNL     1     -12.631 -39.319  46.604  1.00  0.00     0.004 C 
ENDBRANCH  14  15
ENDBRANCH  13  14
ENDBRANCH  12  13
ENDBRANCH  11  12
ENDBRANCH  10  11
ENDBRANCH   1  10
TORSDOF 12
ENDMDL
MODEL 4
REMARK VINA RESULT:    -4.408      1.310      2.402
REMARK INTER + INTRA:          -8.800
REMARK INTER:                  -7.277
REMARK INTRA:                  -1.523
REMARK UNBOUND:                -1.300
REMARK SMILES CCCCCCCCCCCCCC(=O)[O-]
REMARK SMILES IDX 8 1 9 2 10 3 11 4 12 5 13 6 14 7 15 8 16 9 7 10 6 11 5 12
REMARK SMILES IDX 4 13 3 14 2 15 1 16
REMARK H PARENT
REMARK Flexibility Score: inf
ROOT
ATOM      1  C   UNL     1      -9.025 -37.897  44.414  1.00  0.00     0.000 C 
ENDROOT
BRANCH   1   2
ATOM      2  C   UNL     1     -10.522 -37.571  44.451  1.00  0.00     0.000 C 
BRANCH   2   3
ATOM      3  C   UNL     1     -10.765 -36.163  45.013  1.00  0.00     0.000 C 
BRANCH   3   4
ATOM      4  C   UNL     1      -9.744 -35.130  44.504  1.00  0.00     0.000 C 
BRANCH   4   5
ATOM      5  C   UNL     1     -10.327 -34.026  43.597  1.00  0.00     0.006 C 
BRANCH   5   6
ATOM      6  C   UNL     1      -9.732 -33.985  42.180  1.00  0.00     0.053 C 
BRANCH   6   7
ATOM      7  C   UNL     1      -8.374 -33.355  42.158  1.00  0.00     0.041 C 
ATOM      8  O   UNL     1      -7.611 -33.530  41.173  1.00  0.00    -0.550 OA
ATOM      9  O   UNL     1      -7.938 -32.603  43.242  1.00  0.00    -0.550 OA
ENDBRANCH   6   7
ENDBRANCH   5   6
ENDBRANCH   4   5
ENDBRANCH   3   4
ENDBRANCH   2   3
ENDBRANCH   1   2
BRANCH   1  10
ATOM     10  C   UNL     1      -8.644 -38.875  45.531  1.00  0.00     0.000 C 
BRANCH  10  11
ATOM     11  C   UNL     1      -8.424 -38.139  46.858  1.00  0.00    -0.000 C 
BRANCH  11  12
ATOM     12  C   UNL     1      -9.222 -38.799  47.992  1.00  0.00    -0.000 C 
BRANCH  12  13
ATOM     13  C   UNL     1     -10.553 -38.083  48.275  1.00  0.00    -0.000 C 
BRANCH  13  14
ATOM     14  C   UNL     1     -11.766 -38.847  47.724  1.00  0.00    -0.000 C 
BRANCH  14  15
ATOM     15  C   UNL     1     -11.430 -40.329  47.515  1.00  0.00    -0.003 C 
ATOM     16  C   UNL     1     -11.962 -40.831  46.175  1.00  0.00     0.004 C 
ENDBRANCH  14  15
ENDBRANCH  13  14
ENDBRANCH  12  13
ENDBRANCH  11  12
ENDBRANCH  10  11
ENDBRANCH   1  10
TORSDOF 12
ENDMDL
MODEL 5
REMARK VINA RESULT:    -4.394      3.569      7.151
REMARK INTER + INTRA:          -8.777
REMARK INTER:                  -7.555
REMARK INTRA:                  -1.222
REMARK UNBOUND:                -1.300
REMARK SMILES CCCCCCCCCCCCCC(=O)[O-]
REMARK SMILES IDX 8 1 9 2 10 3 11 4 12 5 13 6 14 7 15 8 16 9 7 10 6 11 5 12
REMARK SMILES IDX 4 13 3 14 2 15 1 16
REMARK H PARENT
REMARK Flexibility Score: inf
ROOT
ATOM      1  C   UNL     1      -9.333 -32.874  40.946  1.00  0.00     0.000 C 
ENDROOT
BRANCH   1   2
ATOM      2  C   UNL     1      -9.912 -34.027  41.774  1.00  0.00     0.000 C 
BRANCH   2   3
ATOM      3  C   UNL     1     -10.657 -33.499  43.008  1.00  0.00     0.000 C 
BRANCH   3   4
ATOM      4  C   UNL     1     -10.314 -34.275  44.293  1.00  0.00     0.000 C 
BRANCH   4   5
ATOM      5  C   UNL     1      -9.644 -35.646  44.068  1.00  0.00     0.006 C 
BRANCH   5   6
ATOM      6  C   UNL     1     -10.510 -36.853  44.465  1.00  0.00     0.053 C 
BRANCH   6   7
ATOM      7  C   UNL     1      -9.723 -38.127  44.484  1.00  0.00     0.041 C 
ATOM      8  O   UNL     1     -10.253 -39.203  44.101  1.00  0.00    -0.550 OA
ATOM      9  O   UNL     1      -8.418 -38.132  44.959  1.00  0.00    -0.550 OA
ENDBRANCH   6   7
ENDBRANCH   5   6
ENDBRANCH   4   5
ENDBRANCH   3   4
ENDBRANCH   2   3
ENDBRANCH   1   2
BRANCH   1  10
ATOM     10  C   UNL     1      -7.838 -32.686  41.230  1.00  0.00     0.000 C 
BRANCH  10  11
ATOM     11  C   UNL     1      -7.616 -31.719  42.399  1.00  0.00    -0.000 C 
BRANCH  11  12
ATOM     12  C   UNL     1      -7.025 -32.451  43.613  1.00  0.00    -0.000 C 
BRANCH  12  13
ATOM     13  C   UNL     1      -7.464 -31.831  44.949  1.00  0.00    -0.000 C 
BRANCH  13  14
ATOM     14  C   UNL     1      -6.276 -31.366  45.805  1.00  0.00    -0.000 C 
BRANCH  14  15
ATOM     15  C   UNL     1      -5.932 -29.900  45.513  1.00  0.00    -0.003 C 
ATOM     16  C   UNL     1      -4.601 -29.783  44.775  1.00  0.00     0.004 C 
ENDBRANCH  14  15
ENDBRANCH  13  14
ENDBRANCH  12  13
ENDBRANCH  11  12
ENDBRANCH  10  11
ENDBRANCH   1  10
TORSDOF 12
ENDMDL
MODEL 6
REMARK VINA RESULT:    -4.387      3.558      5.609
REMARK INTER + INTRA:          -8.765
REMARK INTER:                  -7.512
REMARK INTRA:                  -1.253
REMARK UNBOUND:                -1.300
REMARK SMILES CCCCCCCCCCCCCC(=O)[O-]
REMARK SMILES IDX 8 1 9 2 10 3 11 4 12 5 13 6 14 7 15 8 16 9 7 10 6 11 5 12
REMARK SMILES IDX 4 13 3 14 2 15 1 16
REMARK H PARENT
REMARK Flexibility Score: inf
ROOT
ATOM      1  C   UNL     1      -8.121 -33.091  41.538  1.00  0.00     0.000 C 
ENDROOT
BRANCH   1   2
ATOM      2  C   UNL     1      -7.965 -31.566  41.518  1.00  0.00     0.000 C 
BRANCH   2   3
ATOM      3  C   UNL     1      -7.269 -31.068  42.793  1.00  0.00     0.000 C 
BRANCH   3   4
ATOM      4  C   UNL     1      -6.982 -32.196  43.800  1.00  0.00     0.000 C 
BRANCH   4   5
ATOM      5  C   UNL     1      -6.922 -31.754  45.276  1.00  0.00     0.006 C 
BRANCH   5   6
ATOM      6  C   UNL     1      -5.579 -31.142  45.706  1.00  0.00     0.053 C 
BRANCH   6   7
ATOM      7  C   UNL     1      -5.261 -31.434  47.140  1.00  0.00     0.041 C 
ATOM      8  O   UNL     1      -5.713 -32.473  47.690  1.00  0.00    -0.550 OA
ATOM      9  O   UNL     1      -4.497 -30.540  47.879  1.00  0.00    -0.550 OA
ENDBRANCH   6   7
ENDBRANCH   5   6
ENDBRANCH   4   5
ENDBRANCH   3   4
ENDBRANCH   2   3
ENDBRANCH   1   2
BRANCH   1  10
ATOM     10  C   UNL     1      -9.509 -33.511  41.038  1.00  0.00     0.000 C 
BRANCH  10  11
ATOM     11  C   UNL     1     -10.244 -34.349  42.090  1.00  0.00    -0.000 C 
BRANCH  11  12
ATOM     12  C   UNL     1     -10.415 -33.562  43.398  1.00  0.00    -0.000 C 
BRANCH  12  13
ATOM     13  C   UNL     1     -10.038 -34.387  44.639  1.00  0.00    -0.000 C 
BRANCH  13  14
ATOM     14  C   UNL     1      -9.724 -35.853  44.303  1.00  0.00    -0.000 C 
BRANCH  14  15
ATOM     15  C   UNL     1     -10.761 -36.792  44.933  1.00  0.00    -0.003 C 
ATOM     16  C   UNL     1     -11.207 -37.864  43.941  1.00  0.00     0.004 C 
ENDBRANCH  14  15
ENDBRANCH  13  14
ENDBRANCH  12  13
ENDBRANCH  11  12
ENDBRANCH  10  11
ENDBRANCH   1  10
TORSDOF 12
ENDMDL
MODEL 7
REMARK VINA RESULT:    -4.358      1.612      2.782
REMARK INTER + INTRA:          -8.716
REMARK INTER:                  -7.457
REMARK INTRA:                  -1.260
REMARK UNBOUND:                -1.300
REMARK SMILES CCCCCCCCCCCCCC(=O)[O-]
REMARK SMILES IDX 8 1 9 2 10 3 11 4 12 5 13 6 14 7 15 8 16 9 7 10 6 11 5 12
REMARK SMILES IDX 4 13 3 14 2 15 1 16
REMARK H PARENT
REMARK Flexibility Score: inf
ROOT
ATOM      1  C   UNL     1      -9.006 -38.959  45.797  1.00  0.00     0.000 C 
ENDROOT
BRANCH   1   2
ATOM      2  C   UNL     1      -9.039 -37.920  44.670  1.00  0.00     0.000 C 
BRANCH   2   3
ATOM      3  C   UNL     1     -10.467 -37.410  44.433  1.00  0.00     0.000 C 
BRANCH   3   4
ATOM      4  C   UNL     1     -10.587 -35.881  44.560  1.00  0.00     0.000 C 
BRANCH   4   5
ATOM      5  C   UNL     1      -9.551 -35.075  43.749  1.00  0.00     0.006 C 
BRANCH   5   6
ATOM      6  C   UNL     1     -10.151 -33.969  42.866  1.00  0.00     0.053 C 
BRANCH   6   7
ATOM      7  C   UNL     1      -9.297 -33.679  41.670  1.00  0.00     0.041 C 
ATOM      8  O   UNL     1      -8.045 -33.619  41.787  1.00  0.00    -0.550 OA
ATOM      9  O   UNL     1      -9.886 -33.439  40.436  1.00  0.00    -0.550 OA
ENDBRANCH   6   7
ENDBRANCH   5   6
ENDBRANCH   4   5
ENDBRANCH   3   4
ENDBRANCH   2   3
ENDBRANCH   1   2
BRANCH   1  10
ATOM     10  C   UNL     1      -8.385 -38.373  47.071  1.00  0.00     0.000 C 
BRANCH  10  11
ATOM     11  C   UNL     1      -8.356 -39.411  48.199  1.00  0.00    -0.000 C 
BRANCH  11  12
ATOM     12  C   UNL     1      -9.656 -40.229  48.227  1.00  0.00    -0.000 C 
BRANCH  12  13
ATOM     13  C   UNL     1     -10.752 -39.569  49.080  1.00  0.00    -0.000 C 
BRANCH  13  14
ATOM     14  C   UNL     1     -11.836 -38.891  48.229  1.00  0.00    -0.000 C 
BRANCH  14  15
ATOM     15  C   UNL     1     -12.200 -37.515  48.802  1.00  0.00    -0.003 C 
ATOM     16  C   UNL     1     -11.293 -36.425  48.238  1.00  0.00     0.004 C 
ENDBRANCH  14  15
ENDBRANCH  13  14
ENDBRANCH  12  13
ENDBRANCH  11  12
ENDBRANCH  10  11
ENDBRANCH   1  10
TORSDOF 12
ENDMDL
MODEL 8
REMARK VINA RESULT:    -4.352      5.133      7.597
REMARK INTER + INTRA:          -8.706
REMARK INTER:                  -7.676
REMARK INTRA:                  -1.030
REMARK UNBOUND:                -1.300
REMARK SMILES CCCCCCCCCCCCCC(=O)[O-]
REMARK SMILES IDX 8 1 9 2 10 3 11 4 12 5 13 6 14 7 15 8 16 9 7 10 6 11 5 12
REMARK SMILES IDX 4 13 3 14 2 15 1 16
REMARK H PARENT
REMARK Flexibility Score: inf
ROOT
ATOM      1  C   UNL     1     -10.145 -39.569  44.948  1.00  0.00     0.000 C 
ENDROOT
BRANCH   1   2
ATOM      2  C   UNL     1     -10.905 -40.829  45.375  1.00  0.00     0.000 C 
BRANCH   2   3
ATOM      3  C   UNL     1     -11.833 -40.536  46.563  1.00  0.00     0.000 C 
BRANCH   3   4
ATOM      4  C   UNL     1     -11.619 -39.134  47.160  1.00  0.00     0.000 C 
BRANCH   4   5
ATOM      5  C   UNL     1     -10.908 -39.110  48.529  1.00  0.00     0.006 C 
BRANCH   5   6
ATOM      6  C   UNL     1      -9.967 -40.299  48.781  1.00  0.00     0.053 C 
BRANCH   6   7
ATOM      7  C   UNL     1      -8.539 -39.958  48.486  1.00  0.00     0.041 C 
ATOM      8  O   UNL     1      -7.633 -40.811  48.675  1.00  0.00    -0.550 OA
ATOM      9  O   UNL     1      -8.205 -38.686  48.037  1.00  0.00    -0.550 OA
ENDBRANCH   6   7
ENDBRANCH   5   6
ENDBRANCH   4   5
ENDBRANCH   3   4
ENDBRANCH   2   3
ENDBRANCH   1   2
BRANCH   1  10
ATOM     10  C   UNL     1      -8.994 -39.914  43.995  1.00  0.00     0.000 C 
BRANCH  10  11
ATOM     11  C   UNL     1      -9.386 -41.052  43.046  1.00  0.00    -0.000 C 
BRANCH  11  12
ATOM     12  C   UNL     1      -8.287 -41.301  42.002  1.00  0.00    -0.000 C 
BRANCH  12  13
ATOM     13  C   UNL     1      -6.945 -41.698  42.638  1.00  0.00    -0.000 C 
BRANCH  13  14
ATOM     14  C   UNL     1      -6.814 -43.214  42.847  1.00  0.00    -0.000 C 
BRANCH  14  15
ATOM     15  C   UNL     1      -5.766 -43.529  43.921  1.00  0.00    -0.003 C 
ATOM     16  C   UNL     1      -5.151 -42.250  44.484  1.00  0.00     0.004 C 
ENDBRANCH  14  15
ENDBRANCH  13  14
ENDBRANCH  12  13
ENDBRANCH  11  12
ENDBRANCH  10  11
ENDBRANCH   1  10
TORSDOF 12
ENDMDL
MODEL 9
REMARK VINA RESULT:    -4.343      3.231      7.042
REMARK INTER + INTRA:          -8.690
REMARK INTER:                  -7.533
REMARK INTRA:                  -1.157
REMARK UNBOUND:                -1.300
REMARK SMILES CCCCCCCCCCCCCC(=O)[O-]
REMARK SMILES IDX 8 1 9 2 10 3 11 4 12 5 13 6 14 7 15 8 16 9 7 10 6 11 5 12
REMARK SMILES IDX 4 13 3 14 2 15 1 16
REMARK H PARENT
REMARK Flexibility Score: inf
ROOT
ATOM      1  C   UNL     1      -9.915 -38.521  44.566  1.00  0.00     0.000 C 
ENDROOT
BRANCH   1   2
ATOM      2  C   UNL     1     -11.439 -38.614  44.427  1.00  0.00     0.000 C 
BRANCH   2   3
ATOM      3  C   UNL     1     -12.037 -39.509  45.522  1.00  0.00     0.000 C 
BRANCH   3   4
ATOM      4  C   UNL     1     -10.970 -40.298  46.302  1.00  0.00     0.000 C 
BRANCH   4   5
ATOM      5  C   UNL     1     -11.131 -40.274  47.836  1.00  0.00     0.006 C 
BRANCH   5   6
ATOM      6  C   UNL     1      -9.890 -39.786  48.601  1.00  0.00     0.053 C 
BRANCH   6   7
ATOM      7  C   UNL     1      -9.423 -38.447  48.118  1.00  0.00     0.041 C 
ATOM      8  O   UNL     1      -8.226 -38.285  47.763  1.00  0.00    -0.550 OA
ATOM      9  O   UNL     1     -10.300 -37.370  48.095  1.00  0.00    -0.550 OA
ENDBRANCH   6   7
ENDBRANCH   5   6
ENDBRANCH   4   5
ENDBRANCH   3   4
ENDBRANCH   2   3
ENDBRANCH   1   2
BRANCH   1  10
ATOM     10  C   UNL     1      -9.441 -37.065  44.480  1.00  0.00     0.000 C 
BRANCH  10  11
ATOM     11  C   UNL     1     -10.573 -36.143  44.013  1.00  0.00    -0.000 C 
BRANCH  11  12
ATOM     12  C   UNL     1     -10.379 -34.718  44.554  1.00  0.00    -0.000 C 
BRANCH  12  13
ATOM     13  C   UNL     1     -10.259 -33.672  43.434  1.00  0.00    -0.000 C 
BRANCH  13  14
ATOM     14  C   UNL     1      -8.801 -33.297  43.127  1.00  0.00    -0.000 C 
BRANCH  14  15
ATOM     15  C   UNL     1      -8.450 -33.617  41.668  1.00  0.00    -0.003 C 
ATOM     16  C   UNL     1      -9.622 -33.312  40.739  1.00  0.00     0.004 C 
ENDBRANCH  14  15
ENDBRANCH  13  14
ENDBRANCH  12  13
ENDBRANCH  11  12
ENDBRANCH  10  11
ENDBRANCH   1  10
TORSDOF 12
ENDMDL
