MODEL 1
REMARK VINA RESULT:     5.616      0.000      0.000
REMARK INTER + INTRA:          11.508
REMARK INTER:                  12.182
REMARK INTRA:                  -0.675
REMARK UNBOUND:                -0.675
REMARK SMILES CCCCCCCCCCCCCCCCCCCCCC(=O)[O-]
REMARK SMILES IDX 12 1 11 2 10 3 9 4 8 5 7 6 6 7 5 8 4 9 3 10 2 11 1 12 13 13
REMARK SMILES IDX 14 14 15 15 16 16 17 17 18 18 19 19 20 20 21 21 22 22 23 23
REMARK SMILES IDX 24 24
REMARK H PARENT
REMARK Flexibility Score: inf
ROOT
ATOM      1  C   UNL     1       1.843  43.045  12.114  1.00  0.00     0.000 C 
ENDROOT
BRANCH   1   2
ATOM      2  C   UNL     1       1.484  44.221  13.044  1.00  0.00     0.000 C 
BRANCH   2   3
ATOM      3  C   UNL     1      -0.024  44.494  13.197  1.00  0.00     0.000 C 
BRANCH   3   4
ATOM      4  C   UNL     1      -0.380  45.125  14.555  1.00  0.00    -0.000 C 
BRANCH   4   5
ATOM      5  C   UNL     1      -1.892  45.119  14.832  1.00  0.00    -0.000 C 
BRANCH   5   6
ATOM      6  C   UNL     1      -2.354  43.839  15.553  1.00  0.00    -0.000 C 
BRANCH   6   7
ATOM      7  C   UNL     1      -3.421  43.067  14.758  1.00  0.00    -0.000 C 
BRANCH   7   8
ATOM      8  C   UNL     1      -2.850  41.814  14.069  1.00  0.00    -0.000 C 
BRANCH   8   9
ATOM      9  C   UNL     1      -1.685  42.142  13.119  1.00  0.00    -0.000 C 
BRANCH   9  10
ATOM     10  C   UNL     1      -1.198  40.912  12.333  1.00  0.00    -0.000 C 
BRANCH  10  11
ATOM     11  C   UNL     1      -0.554  41.289  10.990  1.00  0.00    -0.003 C 
ATOM     12  C   UNL     1      -0.480  40.113  10.016  1.00  0.00     0.004 C 
ENDBRANCH  10  11
ENDBRANCH   9  10
ENDBRANCH   8   9
ENDBRANCH   7   8
ENDBRANCH   6   7
ENDBRANCH   5   6
ENDBRANCH   4   5
ENDBRANCH   3   4
ENDBRANCH   2   3
ENDBRANCH   1   2
BRANCH   1  13
ATOM     13  C   UNL     1       1.698  43.331  10.606  1.00  0.00     0.000 C 
BRANCH  13  14
ATOM     14  C   UNL     1       3.020  43.632   9.876  1.00  0.00     0.000 C 
BRANCH  14  15
ATOM     15  C   UNL     1       3.563  45.036  10.187  1.00  0.00     0.000 C 
BRANCH  15  16
ATOM     16  C   UNL     1       5.090  45.123  10.039  1.00  0.00     0.000 C 
BRANCH  16  17
ATOM     17  C   UNL     1       5.815  45.098  11.397  1.00  0.00     0.000 C 
BRANCH  17  18
ATOM     18  C   UNL     1       7.341  44.990  11.250  1.00  0.00     0.000 C 
BRANCH  18  19
ATOM     19  C   UNL     1       7.774  43.723  10.498  1.00  0.00     0.000 C 
BRANCH  19  20
ATOM     20  C   UNL     1       7.422  42.463  11.297  1.00  0.00     0.006 C 
BRANCH  20  21
ATOM     21  C   UNL     1       8.151  42.445  12.644  1.00  0.00     0.053 C 
BRANCH  21  22
ATOM     22  C   UNL     1       7.201  42.102  13.748  1.00  0.00     0.041 C 
ATOM     23  O   UNL     1       6.177  42.808  13.945  1.00  0.00    -0.550 OA
ATOM     24  O   UNL     1       7.472  41.031  14.591  1.00  0.00    -0.550 OA
ENDBRANCH  21  22
ENDBRANCH  20  21
ENDBRANCH  19  20
ENDBRANCH  18  19
ENDBRANCH  17  18
ENDBRANCH  16  17
ENDBRANCH  15  16
ENDBRANCH  14  15
ENDBRANCH  13  14
ENDBRANCH   1  13
TORSDOF 20
ENDMDL
MODEL 2
REMARK VINA RESULT:     6.615      3.974      9.179
REMARK INTER + INTRA:          13.674
REMARK INTER:                  13.952
REMARK INTRA:                  -0.278
REMARK UNBOUND:                -0.675
REMARK SMILES CCCCCCCCCCCCCCCCCCCCCC(=O)[O-]
REMARK SMILES IDX 12 1 11 2 10 3 9 4 8 5 7 6 6 7 5 8 4 9 3 10 2 11 1 12 13 13
REMARK SMILES IDX 14 14 15 15 16 16 17 17 18 18 19 19 20 20 21 21 22 22 23 23
REMARK SMILES IDX 24 24
REMARK H PARENT
REMARK Flexibility Score: inf
ROOT
ATOM      1  C   UNL     1       0.774  42.958  11.805  1.00  0.00     0.000 C 
ENDROOT
BRANCH   1   2
ATOM      2  C   UNL     1       1.224  42.777  10.341  1.00  0.00     0.000 C 
BRANCH   2   3
ATOM      3  C   UNL     1       2.714  43.061  10.076  1.00  0.00     0.000 C 
BRANCH   3   4
ATOM      4  C   UNL     1       3.010  44.559   9.886  1.00  0.00    -0.000 C 
BRANCH   4   5
ATOM      5  C   UNL     1       4.247  45.022  10.672  1.00  0.00    -0.000 C 
BRANCH   5   6
ATOM      6  C   UNL     1       5.552  44.844   9.875  1.00  0.00    -0.000 C 
BRANCH   6   7
ATOM      7  C   UNL     1       6.210  43.475  10.118  1.00  0.00    -0.000 C 
BRANCH   7   8
ATOM      8  C   UNL     1       7.262  43.516  11.240  1.00  0.00    -0.000 C 
BRANCH   8   9
ATOM      9  C   UNL     1       7.634  42.114  11.754  1.00  0.00    -0.000 C 
BRANCH   9  10
ATOM     10  C   UNL     1       7.579  42.011  13.288  1.00  0.00    -0.000 C 
BRANCH  10  11
ATOM     11  C   UNL     1       6.563  42.983  13.906  1.00  0.00    -0.003 C 
ATOM     12  C   UNL     1       5.217  42.976  13.180  1.00  0.00     0.004 C 
ENDBRANCH  10  11
ENDBRANCH   9  10
ENDBRANCH   8   9
ENDBRANCH   7   8
ENDBRANCH   6   7
ENDBRANCH   5   6
ENDBRANCH   4   5
ENDBRANCH   3   4
ENDBRANCH   2   3
ENDBRANCH   1   2
BRANCH   1  13
ATOM     13  C   UNL     1       1.636  43.923  12.642  1.00  0.00     0.000 C 
BRANCH  13  14
ATOM     14  C   UNL     1       0.863  45.095  13.275  1.00  0.00     0.000 C 
BRANCH  14  15
ATOM     15  C   UNL     1      -0.653  44.845  13.331  1.00  0.00     0.000 C 
BRANCH  15  16
ATOM     16  C   UNL     1      -1.236  45.072  14.735  1.00  0.00     0.000 C 
BRANCH  16  17
ATOM     17  C   UNL     1      -2.501  44.233  14.990  1.00  0.00     0.000 C 
BRANCH  17  18
ATOM     18  C   UNL     1      -2.202  42.730  15.098  1.00  0.00     0.000 C 
BRANCH  18  19
ATOM     19  C   UNL     1      -2.929  41.903  14.028  1.00  0.00     0.000 C 
BRANCH  19  20
ATOM     20  C   UNL     1      -3.613  40.680  14.650  1.00  0.00     0.006 C 
BRANCH  20  21
ATOM     21  C   UNL     1      -5.122  40.700  14.386  1.00  0.00     0.053 C 
BRANCH  21  22
ATOM     22  C   UNL     1      -5.864  40.104  15.540  1.00  0.00     0.041 C 
ATOM     23  O   UNL     1      -5.346  39.174  16.214  1.00  0.00    -0.550 OA
ATOM     24  O   UNL     1      -7.146  40.542  15.843  1.00  0.00    -0.550 OA
ENDBRANCH  21  22
ENDBRANCH  20  21
ENDBRANCH  19  20
ENDBRANCH  18  19
ENDBRANCH  17  18
ENDBRANCH  16  17
ENDBRANCH  15  16
ENDBRANCH  14  15
ENDBRANCH  13  14
ENDBRANCH   1  13
TORSDOF 20
ENDMDL
