MODEL 1
REMARK VINA RESULT:    -0.403      0.000      0.000
REMARK INTER + INTRA:          -0.791
REMARK INTER:                  -0.473
REMARK INTRA:                  -0.318
REMARK UNBOUND:                -0.318
REMARK SMILES O=c1cc(-c2ccc(O)c(O)c2)oc2cc(O)cc(O)c12
REMARK SMILES IDX 4 1 3 2 2 3 1 4 21 5 19 6 18 7 16 8 15 9 14 10 13 11 5 12
REMARK SMILES IDX 6 13 7 14 8 15 12 16 10 17 9 18 11 20 20 22 17 24
REMARK H PARENT 9 19 11 21 20 23 17 25
REMARK Flexibility Score: inf
ROOT
ATOM      1  C   UNL     1      34.046  42.417  38.982  1.00  0.00     0.138 A 
ATOM      2  C   UNL     1      35.273  42.637  39.623  1.00  0.00     0.100 A 
ATOM      3  C   UNL     1      35.302  42.869  40.999  1.00  0.00     0.197 A 
ATOM      4  O   UNL     1      36.412  43.125  41.535  1.00  0.00    -0.289 OA
ATOM      5  C   UNL     1      34.097  42.852  41.741  1.00  0.00     0.107 A 
ATOM      6  C   UNL     1      34.010  43.036  43.153  1.00  0.00     0.134 A 
ATOM      7  C   UNL     1      32.751  43.115  43.762  1.00  0.00     0.093 A 
ATOM      8  C   UNL     1      31.581  42.955  43.022  1.00  0.00     0.123 A 
ATOM      9  C   UNL     1      31.656  42.721  41.647  1.00  0.00     0.094 A 
ATOM     10  C   UNL     1      32.896  42.672  41.005  1.00  0.00     0.146 A 
ATOM     11  O   UNL     1      32.923  42.461  39.693  1.00  0.00    -0.456 OA
ENDROOT
BRANCH   1  12
ATOM     12  C   UNL     1      33.958  42.164  37.523  1.00  0.00     0.021 A 
ATOM     13  C   UNL     1      35.133  42.156  36.750  1.00  0.00     0.016 A 
ATOM     14  C   UNL     1      35.076  41.928  35.373  1.00  0.00     0.051 A 
ATOM     15  C   UNL     1      33.844  41.713  34.742  1.00  0.00     0.157 A 
ATOM     16  C   UNL     1      32.721  41.961  36.880  1.00  0.00     0.062 A 
ATOM     17  C   UNL     1      32.662  41.735  35.499  1.00  0.00     0.158 A 
BRANCH  15  18
ATOM     18  O   UNL     1      33.791  41.485  33.368  1.00  0.00    -0.504 OA
ATOM     19  H   UNL     1      33.430  42.184  32.727  1.00  0.00     0.293 HD
ENDBRANCH  15  18
BRANCH  17  20
ATOM     20  O   UNL     1      31.419  41.536  34.899  1.00  0.00    -0.504 OA
ATOM     21  H   UNL     1      31.171  41.969  34.018  1.00  0.00     0.293 HD
ENDBRANCH  17  20
ENDBRANCH   1  12
BRANCH   6  22
ATOM     22  O   UNL     1      35.119  43.122  43.999  1.00  0.00    -0.507 OA
ATOM     23  H   UNL     1      35.928  42.521  43.954  1.00  0.00     0.293 HD
ENDBRANCH   6  22
BRANCH   8  24
ATOM     24  O   UNL     1      30.347  43.024  43.663  1.00  0.00    -0.508 OA
ATOM     25  H   UNL     1      29.618  43.653  43.346  1.00  0.00     0.293 HD
ENDBRANCH   8  24
TORSDOF 5
ENDMDL
MODEL 2
REMARK VINA RESULT:    -0.393      1.158      3.078
REMARK INTER + INTRA:          -0.780
REMARK INTER:                  -0.462
REMARK INTRA:                  -0.318
REMARK UNBOUND:                -0.318
REMARK SMILES O=c1cc(-c2ccc(O)c(O)c2)oc2cc(O)cc(O)c12
REMARK SMILES IDX 4 1 3 2 2 3 1 4 21 5 19 6 18 7 16 8 15 9 14 10 13 11 5 12
REMARK SMILES IDX 6 13 7 14 8 15 12 16 10 17 9 18 11 20 20 22 17 24
REMARK H PARENT 9 19 11 21 20 23 17 25
REMARK Flexibility Score: inf
ROOT
ATOM      1  C   UNL     1      32.549  42.257  38.881  1.00  0.00     0.138 A 
ATOM      2  C   UNL     1      31.245  42.242  39.394  1.00  0.00     0.100 A 
ATOM      3  C   UNL     1      31.039  42.427  40.762  1.00  0.00     0.197 A 
ATOM      4  O   UNL     1      29.863  42.346  41.201  1.00  0.00    -0.289 OA
ATOM      5  C   UNL     1      32.145  42.656  41.615  1.00  0.00     0.107 A 
ATOM      6  C   UNL     1      32.052  42.897  43.019  1.00  0.00     0.134 A 
ATOM      7  C   UNL     1      33.222  42.995  43.781  1.00  0.00     0.093 A 
ATOM      8  C   UNL     1      34.480  42.923  43.183  1.00  0.00     0.123 A 
ATOM      9  C   UNL     1      34.582  42.742  41.802  1.00  0.00     0.094 A 
ATOM     10  C   UNL     1      33.433  42.605  41.020  1.00  0.00     0.146 A 
ATOM     11  O   UNL     1      33.574  42.420  39.711  1.00  0.00    -0.456 OA
ENDROOT
BRANCH   1  12
ATOM     12  C   UNL     1      32.825  42.068  37.435  1.00  0.00     0.021 A 
ATOM     13  C   UNL     1      31.753  41.866  36.547  1.00  0.00     0.016 A 
ATOM     14  C   UNL     1      31.987  41.678  35.183  1.00  0.00     0.051 A 
ATOM     15  C   UNL     1      33.295  41.677  34.682  1.00  0.00     0.157 A 
ATOM     16  C   UNL     1      34.139  42.054  36.927  1.00  0.00     0.062 A 
ATOM     17  C   UNL     1      34.375  41.862  35.560  1.00  0.00     0.158 A 
BRANCH  15  18
ATOM     18  O   UNL     1      33.524  41.490  33.320  1.00  0.00    -0.504 OA
ATOM     19  H   UNL     1      32.761  41.346  32.668  1.00  0.00     0.293 HD
ENDBRANCH  15  18
BRANCH  17  20
ATOM     20  O   UNL     1      35.690  41.856  35.095  1.00  0.00    -0.504 OA
ATOM     21  H   UNL     1      36.302  41.060  35.222  1.00  0.00     0.293 HD
ENDBRANCH  17  20
ENDBRANCH   1  12
BRANCH   6  22
ATOM     22  O   UNL     1      30.845  43.070  43.703  1.00  0.00    -0.507 OA
ATOM     23  H   UNL     1      29.965  42.657  43.435  1.00  0.00     0.293 HD
ENDBRANCH   6  22
BRANCH   8  24
ATOM     24  O   UNL     1      35.623  43.041  43.970  1.00  0.00    -0.508 OA
ATOM     25  H   UNL     1      36.187  43.883  43.963  1.00  0.00     0.293 HD
ENDBRANCH   8  24
TORSDOF 5
ENDMDL
MODEL 3
REMARK VINA RESULT:    -0.356      5.595      6.816
REMARK INTER + INTRA:          -0.737
REMARK INTER:                  -0.420
REMARK INTRA:                  -0.317
REMARK UNBOUND:                -0.318
REMARK SMILES O=c1cc(-c2ccc(O)c(O)c2)oc2cc(O)cc(O)c12
REMARK SMILES IDX 4 1 3 2 2 3 1 4 21 5 19 6 18 7 16 8 15 9 14 10 13 11 5 12
REMARK SMILES IDX 6 13 7 14 8 15 12 16 10 17 9 18 11 20 20 22 17 24
REMARK H PARENT 9 19 11 21 20 23 17 25
REMARK Flexibility Score: inf
ROOT
ATOM      1  C   UNL     1      29.867  38.496  41.875  1.00  0.00     0.138 A 
ATOM      2  C   UNL     1      31.157  39.019  42.037  1.00  0.00     0.100 A 
ATOM      3  C   UNL     1      31.324  40.274  42.625  1.00  0.00     0.197 A 
ATOM      4  O   UNL     1      32.489  40.743  42.701  1.00  0.00    -0.289 OA
ATOM      5  C   UNL     1      30.193  40.994  43.079  1.00  0.00     0.107 A 
ATOM      6  C   UNL     1      30.246  42.264  43.729  1.00  0.00     0.134 A 
ATOM      7  C   UNL     1      29.055  42.935  44.029  1.00  0.00     0.093 A 
ATOM      8  C   UNL     1      27.815  42.358  43.759  1.00  0.00     0.123 A 
ATOM      9  C   UNL     1      27.751  41.093  43.172  1.00  0.00     0.094 A 
ATOM     10  C   UNL     1      28.922  40.412  42.829  1.00  0.00     0.146 A 
ATOM     11  O   UNL     1      28.818  39.216  42.259  1.00  0.00    -0.456 OA
ENDROOT
BRANCH   1  12
ATOM     12  C   UNL     1      29.632  37.166  41.258  1.00  0.00     0.021 A 
ATOM     13  C   UNL     1      30.727  36.329  40.981  1.00  0.00     0.016 A 
ATOM     14  C   UNL     1      30.533  35.077  40.393  1.00  0.00     0.051 A 
ATOM     15  C   UNL     1      29.243  34.642  40.062  1.00  0.00     0.157 A 
ATOM     16  C   UNL     1      28.338  36.729  40.911  1.00  0.00     0.062 A 
ATOM     17  C   UNL     1      28.143  35.475  40.319  1.00  0.00     0.158 A 
BRANCH  15  18
ATOM     18  O   UNL     1      29.054  33.392  39.477  1.00  0.00    -0.504 OA
ATOM     19  H   UNL     1      29.453  33.163  38.573  1.00  0.00     0.293 HD
ENDBRANCH  15  18
BRANCH  17  20
ATOM     20  O   UNL     1      26.847  35.076  39.992  1.00  0.00    -0.504 OA
ATOM     21  H   UNL     1      26.221  34.668  40.674  1.00  0.00     0.293 HD
ENDBRANCH  17  20
ENDBRANCH   1  12
BRANCH   6  22
ATOM     22  O   UNL     1      31.432  42.892  44.120  1.00  0.00    -0.507 OA
ATOM     23  H   UNL     1      31.577  43.352  45.006  1.00  0.00     0.293 HD
ENDBRANCH   6  22
BRANCH   8  24
ATOM     24  O   UNL     1      26.650  43.048  44.086  1.00  0.00    -0.508 OA
ATOM     25  H   UNL     1      26.503  44.008  43.796  1.00  0.00     0.293 HD
ENDBRANCH   8  24
TORSDOF 5
ENDMDL
MODEL 4
REMARK VINA RESULT:    -0.352      5.722      7.087
REMARK INTER + INTRA:          -0.732
REMARK INTER:                  -0.414
REMARK INTRA:                  -0.318
REMARK UNBOUND:                -0.318
REMARK SMILES O=c1cc(-c2ccc(O)c(O)c2)oc2cc(O)cc(O)c12
REMARK SMILES IDX 4 1 3 2 2 3 1 4 21 5 19 6 18 7 16 8 15 9 14 10 13 11 5 12
REMARK SMILES IDX 6 13 7 14 8 15 12 16 10 17 9 18 11 20 20 22 17 24
REMARK H PARENT 9 19 11 21 20 23 17 25
REMARK Flexibility Score: inf
ROOT
ATOM      1  C   UNL     1      31.924  37.929  43.076  1.00  0.00     0.138 A 
ATOM      2  C   UNL     1      33.178  38.514  43.300  1.00  0.00     0.100 A 
ATOM      3  C   UNL     1      33.272  39.892  43.500  1.00  0.00     0.197 A 
ATOM      4  O   UNL     1      34.416  40.396  43.636  1.00  0.00    -0.289 OA
ATOM      5  C   UNL     1      32.098  40.683  43.504  1.00  0.00     0.107 A 
ATOM      6  C   UNL     1      32.068  42.091  43.737  1.00  0.00     0.134 A 
ATOM      7  C   UNL     1      30.860  42.787  43.602  1.00  0.00     0.093 A 
ATOM      8  C   UNL     1      29.674  42.119  43.303  1.00  0.00     0.123 A 
ATOM      9  C   UNL     1      29.682  40.735  43.125  1.00  0.00     0.094 A 
ATOM     10  C   UNL     1      30.877  40.017  43.220  1.00  0.00     0.146 A 
ATOM     11  O   UNL     1      30.844  38.701  43.030  1.00  0.00    -0.456 OA
ENDROOT
BRANCH   1  12
ATOM     12  C   UNL     1      31.768  36.469  42.860  1.00  0.00     0.021 A 
ATOM     13  C   UNL     1      32.880  35.622  43.018  1.00  0.00     0.016 A 
ATOM     14  C   UNL     1      32.761  34.246  42.812  1.00  0.00     0.051 A 
ATOM     15  C   UNL     1      31.531  33.691  42.435  1.00  0.00     0.157 A 
ATOM     16  C   UNL     1      30.537  35.906  42.468  1.00  0.00     0.062 A 
ATOM     17  C   UNL     1      30.416  34.526  42.259  1.00  0.00     0.158 A 
BRANCH  15  18
ATOM     18  O   UNL     1      31.416  32.317  42.231  1.00  0.00    -0.504 OA
ATOM     19  H   UNL     1      30.939  31.939  41.420  1.00  0.00     0.293 HD
ENDBRANCH  15  18
BRANCH  17  20
ATOM     20  O   UNL     1      29.181  34.006  41.873  1.00  0.00    -0.504 OA
ATOM     21  H   UNL     1      28.913  33.920  40.901  1.00  0.00     0.293 HD
ENDBRANCH  17  20
ENDBRANCH   1  12
BRANCH   6  22
ATOM     22  O   UNL     1      33.181  42.842  44.125  1.00  0.00    -0.507 OA
ATOM     23  H   UNL     1      33.706  42.700  44.974  1.00  0.00     0.293 HD
ENDBRANCH   6  22
BRANCH   8  24
ATOM     24  O   UNL     1      28.488  42.842  43.191  1.00  0.00    -0.508 OA
ATOM     25  H   UNL     1      28.451  43.834  43.393  1.00  0.00     0.293 HD
ENDBRANCH   8  24
TORSDOF 5
ENDMDL
MODEL 5
REMARK VINA RESULT:    -0.352      3.322      4.538
REMARK INTER + INTRA:          -0.731
REMARK INTER:                  -0.417
REMARK INTRA:                  -0.314
REMARK UNBOUND:                -0.318
REMARK SMILES O=c1cc(-c2ccc(O)c(O)c2)oc2cc(O)cc(O)c12
REMARK SMILES IDX 4 1 3 2 2 3 1 4 21 5 19 6 18 7 16 8 15 9 14 10 13 11 5 12
REMARK SMILES IDX 6 13 7 14 8 15 12 16 10 17 9 18 11 20 20 22 17 24
REMARK H PARENT 9 19 11 21 20 23 17 25
REMARK Flexibility Score: inf
ROOT
ATOM      1  C   UNL     1      32.368  39.728  40.471  1.00  0.00     0.138 A 
ATOM      2  C   UNL     1      31.096  40.035  40.973  1.00  0.00     0.100 A 
ATOM      3  C   UNL     1      30.968  40.950  42.019  1.00  0.00     0.197 A 
ATOM      4  O   UNL     1      29.820  41.158  42.489  1.00  0.00    -0.289 OA
ATOM      5  C   UNL     1      32.120  41.583  42.544  1.00  0.00     0.107 A 
ATOM      6  C   UNL     1      32.107  42.562  43.583  1.00  0.00     0.134 A 
ATOM      7  C   UNL     1      33.319  43.033  44.102  1.00  0.00     0.093 A 
ATOM      8  C   UNL     1      34.540  42.608  43.580  1.00  0.00     0.123 A 
ATOM      9  C   UNL     1      34.564  41.691  42.527  1.00  0.00     0.094 A 
ATOM     10  C   UNL     1      33.372  41.176  42.011  1.00  0.00     0.146 A 
ATOM     11  O   UNL     1      33.438  40.294  41.019  1.00  0.00    -0.456 OA
ENDROOT
BRANCH   1  12
ATOM     12  C   UNL     1      32.560  38.763  39.360  1.00  0.00     0.021 A 
ATOM     13  C   UNL     1      31.526  37.868  39.033  1.00  0.00     0.016 A 
ATOM     14  C   UNL     1      31.685  36.945  37.997  1.00  0.00     0.051 A 
ATOM     15  C   UNL     1      32.884  36.893  37.274  1.00  0.00     0.157 A 
ATOM     16  C   UNL     1      33.768  38.697  38.637  1.00  0.00     0.062 A 
ATOM     17  C   UNL     1      33.931  37.771  37.600  1.00  0.00     0.158 A 
BRANCH  15  18
ATOM     18  O   UNL     1      33.039  35.972  36.240  1.00  0.00    -0.504 OA
ATOM     19  H   UNL     1      33.314  35.013  36.420  1.00  0.00     0.293 HD
ENDBRANCH  15  18
BRANCH  17  20
ATOM     20  O   UNL     1      35.141  37.736  36.907  1.00  0.00    -0.504 OA
ATOM     21  H   UNL     1      35.795  36.970  37.004  1.00  0.00     0.293 HD
ENDBRANCH  17  20
ENDBRANCH   1  12
BRANCH   6  22
ATOM     22  O   UNL     1      30.941  43.117  44.117  1.00  0.00    -0.507 OA
ATOM     23  H   UNL     1      30.190  43.516  43.575  1.00  0.00     0.293 HD
ENDBRANCH   6  22
BRANCH   8  24
ATOM     24  O   UNL     1      35.726  43.110  44.110  1.00  0.00    -0.508 OA
ATOM     25  H   UNL     1      36.044  44.050  43.903  1.00  0.00     0.293 HD
ENDBRANCH   8  24
TORSDOF 5
ENDMDL
MODEL 6
REMARK VINA RESULT:    -0.343      4.145      5.321
REMARK INTER + INTRA:          -0.721
REMARK INTER:                  -0.404
REMARK INTRA:                  -0.318
REMARK UNBOUND:                -0.318
REMARK SMILES O=c1cc(-c2ccc(O)c(O)c2)oc2cc(O)cc(O)c12
REMARK SMILES IDX 4 1 3 2 2 3 1 4 21 5 19 6 18 7 16 8 15 9 14 10 13 11 5 12
REMARK SMILES IDX 6 13 7 14 8 15 12 16 10 17 9 18 11 20 20 22 17 24
REMARK H PARENT 9 19 11 21 20 23 17 25
REMARK Flexibility Score: inf
ROOT
ATOM      1  C   UNL     1      28.902  41.226  39.297  1.00  0.00     0.138 A 
ATOM      2  C   UNL     1      30.110  41.717  39.810  1.00  0.00     0.100 A 
ATOM      3  C   UNL     1      30.147  42.246  41.102  1.00  0.00     0.197 A 
ATOM      4  O   UNL     1      31.231  42.736  41.511  1.00  0.00    -0.289 OA
ATOM      5  C   UNL     1      28.974  42.254  41.892  1.00  0.00     0.107 A 
ATOM      6  C   UNL     1      28.903  42.731  43.236  1.00  0.00     0.134 A 
ATOM      7  C   UNL     1      27.661  42.798  43.879  1.00  0.00     0.093 A 
ATOM      8  C   UNL     1      26.499  42.349  43.252  1.00  0.00     0.123 A 
ATOM      9  C   UNL     1      26.565  41.831  41.958  1.00  0.00     0.094 A 
ATOM     10  C   UNL     1      27.784  41.783  41.277  1.00  0.00     0.146 A 
ATOM     11  O   UNL     1      27.802  41.296  40.040  1.00  0.00    -0.456 OA
ENDROOT
BRANCH   1  12
ATOM     12  C   UNL     1      28.806  40.652  37.932  1.00  0.00     0.021 A 
ATOM     13  C   UNL     1      29.971  40.514  37.156  1.00  0.00     0.016 A 
ATOM     14  C   UNL     1      29.906  39.984  35.865  1.00  0.00     0.051 A 
ATOM     15  C   UNL     1      28.676  39.591  35.322  1.00  0.00     0.157 A 
ATOM     16  C   UNL     1      27.570  40.267  37.375  1.00  0.00     0.062 A 
ATOM     17  C   UNL     1      27.503  39.738  36.080  1.00  0.00     0.158 A 
BRANCH  15  18
ATOM     18  O   UNL     1      28.615  39.062  34.034  1.00  0.00    -0.504 OA
ATOM     19  H   UNL     1      28.550  39.659  33.218  1.00  0.00     0.293 HD
ENDBRANCH  15  18
BRANCH  17  20
ATOM     20  O   UNL     1      26.262  39.367  35.565  1.00  0.00    -0.504 OA
ATOM     21  H   UNL     1      25.554  38.920  36.134  1.00  0.00     0.293 HD
ENDBRANCH  17  20
ENDBRANCH   1  12
BRANCH   6  22
ATOM     22  O   UNL     1      30.015  43.125  43.984  1.00  0.00    -0.507 OA
ATOM     23  H   UNL     1      30.017  43.271  44.982  1.00  0.00     0.293 HD
ENDBRANCH   6  22
BRANCH   8  24
ATOM     24  O   UNL     1      25.283  42.416  43.929  1.00  0.00    -0.508 OA
ATOM     25  H   UNL     1      24.732  41.585  44.113  1.00  0.00     0.293 HD
ENDBRANCH   8  24
TORSDOF 5
ENDMDL
MODEL 7
REMARK VINA RESULT:    -0.325     17.796     18.278
REMARK INTER + INTRA:          -0.699
REMARK INTER:                  -0.385
REMARK INTRA:                  -0.315
REMARK UNBOUND:                -0.318
REMARK SMILES O=c1cc(-c2ccc(O)c(O)c2)oc2cc(O)cc(O)c12
REMARK SMILES IDX 4 1 3 2 2 3 1 4 21 5 19 6 18 7 16 8 15 9 14 10 13 11 5 12
REMARK SMILES IDX 6 13 7 14 8 15 12 16 10 17 9 18 11 20 20 22 17 24
REMARK H PARENT 9 19 11 21 20 23 17 25
REMARK Flexibility Score: inf
ROOT
ATOM      1  C   UNL     1      30.728  24.920  39.576  1.00  0.00     0.138 A 
ATOM      2  C   UNL     1      29.453  24.586  40.052  1.00  0.00     0.100 A 
ATOM      3  C   UNL     1      29.319  23.985  41.305  1.00  0.00     0.197 A 
ATOM      4  O   UNL     1      28.168  23.641  41.679  1.00  0.00    -0.289 OA
ATOM      5  C   UNL     1      30.468  23.744  42.096  1.00  0.00     0.107 A 
ATOM      6  C   UNL     1      30.449  23.174  43.404  1.00  0.00     0.134 A 
ATOM      7  C   UNL     1      31.658  22.875  44.044  1.00  0.00     0.093 A 
ATOM      8  C   UNL     1      32.882  23.181  43.451  1.00  0.00     0.123 A 
ATOM      9  C   UNL     1      32.912  23.788  42.194  1.00  0.00     0.094 A 
ATOM     10  C   UNL     1      31.723  24.067  41.515  1.00  0.00     0.146 A 
ATOM     11  O   UNL     1      31.796  24.632  40.315  1.00  0.00    -0.456 OA
ENDROOT
BRANCH   1  12
ATOM     12  C   UNL     1      30.927  25.562  38.253  1.00  0.00     0.021 A 
ATOM     13  C   UNL     1      29.830  26.143  37.593  1.00  0.00     0.016 A 
ATOM     14  C   UNL     1      29.990  26.746  36.344  1.00  0.00     0.051 A 
ATOM     15  C   UNL     1      31.246  26.771  35.725  1.00  0.00     0.157 A 
ATOM     16  C   UNL     1      32.186  25.578  37.619  1.00  0.00     0.062 A 
ATOM     17  C   UNL     1      32.347  26.180  36.365  1.00  0.00     0.158 A 
BRANCH  15  18
ATOM     18  O   UNL     1      31.402  27.374  34.479  1.00  0.00    -0.504 OA
ATOM     19  H   UNL     1      32.005  26.976  33.768  1.00  0.00     0.293 HD
ENDBRANCH  15  18
BRANCH  17  20
ATOM     20  O   UNL     1      33.609  26.178  35.771  1.00  0.00    -0.504 OA
ATOM     21  H   UNL     1      34.412  26.608  36.212  1.00  0.00     0.293 HD
ENDBRANCH  17  20
ENDBRANCH   1  12
BRANCH   6  22
ATOM     22  O   UNL     1      29.280  22.907  44.122  1.00  0.00    -0.507 OA
ATOM     23  H   UNL     1      29.168  22.155  44.785  1.00  0.00     0.293 HD
ENDBRANCH   6  22
BRANCH   8  24
ATOM     24  O   UNL     1      34.065  22.884  44.124  1.00  0.00    -0.508 OA
ATOM     25  H   UNL     1      34.933  22.726  43.625  1.00  0.00     0.293 HD
ENDBRANCH   8  24
TORSDOF 5
ENDMDL
MODEL 8
REMARK VINA RESULT:    -0.317      2.797      4.300
REMARK INTER + INTRA:          -0.691
REMARK INTER:                  -0.378
REMARK INTRA:                  -0.312
REMARK UNBOUND:                -0.318
REMARK SMILES O=c1cc(-c2ccc(O)c(O)c2)oc2cc(O)cc(O)c12
REMARK SMILES IDX 4 1 3 2 2 3 1 4 21 5 19 6 18 7 16 8 15 9 14 10 13 11 5 12
REMARK SMILES IDX 6 13 7 14 8 15 12 16 10 17 9 18 11 20 20 22 17 24
REMARK H PARENT 9 19 11 21 20 23 17 25
REMARK Flexibility Score: inf
ROOT
ATOM      1  C   UNL     1      34.503  42.505  40.893  1.00  0.00     0.138 A 
ATOM      2  C   UNL     1      34.365  42.313  42.275  1.00  0.00     0.100 A 
ATOM      3  C   UNL     1      33.090  42.281  42.843  1.00  0.00     0.197 A 
ATOM      4  O   UNL     1      33.001  42.169  44.093  1.00  0.00    -0.289 OA
ATOM      5  C   UNL     1      31.949  42.413  42.018  1.00  0.00     0.107 A 
ATOM      6  C   UNL     1      30.600  42.355  42.481  1.00  0.00     0.134 A 
ATOM      7  C   UNL     1      29.552  42.616  41.589  1.00  0.00     0.093 A 
ATOM      8  C   UNL     1      29.800  42.870  40.241  1.00  0.00     0.123 A 
ATOM      9  C   UNL     1      31.113  42.875  39.766  1.00  0.00     0.094 A 
ATOM     10  C   UNL     1      32.181  42.654  40.638  1.00  0.00     0.146 A 
ATOM     11  O   UNL     1      33.417  42.681  40.148  1.00  0.00    -0.456 OA
ENDROOT
BRANCH   1  12
ATOM     12  C   UNL     1      35.834  42.545  40.237  1.00  0.00     0.021 A 
ATOM     13  C   UNL     1      36.978  42.820  41.008  1.00  0.00     0.016 A 
ATOM     14  C   UNL     1      38.240  42.871  40.413  1.00  0.00     0.051 A 
ATOM     15  C   UNL     1      38.382  42.660  39.036  1.00  0.00     0.157 A 
ATOM     16  C   UNL     1      35.982  42.346  38.851  1.00  0.00     0.062 A 
ATOM     17  C   UNL     1      37.247  42.400  38.252  1.00  0.00     0.158 A 
BRANCH  15  18
ATOM     18  O   UNL     1      39.644  42.711  38.445  1.00  0.00    -0.504 OA
ATOM     19  H   UNL     1      39.765  42.622  37.443  1.00  0.00     0.293 HD
ENDBRANCH  15  18
BRANCH  17  20
ATOM     20  O   UNL     1      37.353  42.196  36.876  1.00  0.00    -0.504 OA
ATOM     21  H   UNL     1      38.235  42.284  36.386  1.00  0.00     0.293 HD
ENDBRANCH  17  20
ENDBRANCH   1  12
BRANCH   6  22
ATOM     22  O   UNL     1      30.238  42.026  43.791  1.00  0.00    -0.507 OA
ATOM     23  H   UNL     1      29.379  41.566  44.054  1.00  0.00     0.293 HD
ENDBRANCH   6  22
BRANCH   8  24
ATOM     24  O   UNL     1      28.732  43.109  39.379  1.00  0.00    -0.508 OA
ATOM     25  H   UNL     1      28.741  42.781  38.420  1.00  0.00     0.293 HD
ENDBRANCH   8  24
TORSDOF 5
ENDMDL
