MODEL 1
REMARK VINA RESULT:    -4.001      0.000      0.000
REMARK INTER + INTRA:          -6.646
REMARK INTER:                  -6.106
REMARK INTRA:                  -0.540
REMARK UNBOUND:                -0.540
REMARK SMILES C=CCCCCCCCCCC
REMARK SMILES IDX 7 1 8 2 9 3 10 4 11 5 12 6 6 7 5 8 4 9 3 10 2 11 1 12
REMARK H PARENT
REMARK Flexibility Score: inf
ROOT
ATOM      1  C   UNL     1     139.494 135.865 135.734  1.00  0.00     0.000 C 
ENDROOT
BRANCH   1   2
ATOM      2  C   UNL     1     140.072 134.551 135.186  1.00  0.00    -0.000 C 
BRANCH   2   3
ATOM      3  C   UNL     1     139.732 133.340 136.068  1.00  0.00    -0.000 C 
BRANCH   3   4
ATOM      4  C   UNL     1     138.799 132.371 135.334  1.00  0.00    -0.000 C 
BRANCH   4   5
ATOM      5  C   UNL     1     137.670 131.889 136.254  1.00  0.00    -0.003 C 
ATOM      6  C   UNL     1     137.643 132.685 137.556  1.00  0.00     0.004 C 
ENDBRANCH   4   5
ENDBRANCH   3   4
ENDBRANCH   2   3
ENDBRANCH   1   2
BRANCH   1   7
ATOM      7  C   UNL     1     140.487 137.034 135.639  1.00  0.00     0.000 C 
BRANCH   7   8
ATOM      8  C   UNL     1     140.506 137.843 136.945  1.00  0.00     0.000 C 
BRANCH   8   9
ATOM      9  C   UNL     1     139.472 138.980 136.952  1.00  0.00     0.004 C 
BRANCH   9  10
ATOM     10  C   UNL     1     139.343 139.671 135.586  1.00  0.00     0.027 C 
BRANCH  10  11
ATOM     11  C   UNL     1     137.903 139.951 135.253  1.00  0.00    -0.035 C 
ATOM     12  C   UNL     1     137.556 140.679 134.189  1.00  0.00     0.004 C 
ENDBRANCH  10  11
ENDBRANCH   9  10
ENDBRANCH   8   9
ENDBRANCH   7   8
ENDBRANCH   1   7
TORSDOF 9
ENDMDL
MODEL 2
REMARK VINA RESULT:    -3.994      3.637      6.217
REMARK INTER + INTRA:          -6.635
REMARK INTER:                  -5.817
REMARK INTRA:                  -0.818
REMARK UNBOUND:                -0.540
REMARK SMILES C=CCCCCCCCCCC
REMARK SMILES IDX 7 1 8 2 9 3 10 4 11 5 12 6 6 7 5 8 4 9 3 10 2 11 1 12
REMARK H PARENT
REMARK Flexibility Score: inf
ROOT
ATOM      1  C   UNL     1     136.520 132.998 136.370  1.00  0.00     0.000 C 
ENDROOT
BRANCH   1   2
ATOM      2  C   UNL     1     137.534 131.863 136.159  1.00  0.00    -0.000 C 
BRANCH   2   3
ATOM      3  C   UNL     1     138.722 132.285 135.280  1.00  0.00    -0.000 C 
BRANCH   3   4
ATOM      4  C   UNL     1     139.586 133.332 135.991  1.00  0.00    -0.000 C 
BRANCH   4   5
ATOM      5  C   UNL     1     140.096 134.388 135.003  1.00  0.00    -0.003 C 
ATOM      6  C   UNL     1     139.200 134.469 133.771  1.00  0.00     0.004 C 
ENDBRANCH   4   5
ENDBRANCH   3   4
ENDBRANCH   2   3
ENDBRANCH   1   2
BRANCH   1   7
ATOM      7  C   UNL     1     135.790 133.390 135.077  1.00  0.00     0.000 C 
BRANCH   7   8
ATOM      8  C   UNL     1     134.507 132.564 134.900  1.00  0.00     0.000 C 
BRANCH   8   9
ATOM      9  C   UNL     1     133.445 132.885 135.962  1.00  0.00     0.004 C 
BRANCH   9  10
ATOM     10  C   UNL     1     132.313 133.769 135.417  1.00  0.00     0.027 C 
BRANCH  10  11
ATOM     11  C   UNL     1     131.863 134.771 136.444  1.00  0.00    -0.035 C 
ATOM     12  C   UNL     1     132.632 135.105 137.485  1.00  0.00     0.004 C 
ENDBRANCH  10  11
ENDBRANCH   9  10
ENDBRANCH   8   9
ENDBRANCH   7   8
ENDBRANCH   1   7
TORSDOF 9
ENDMDL
MODEL 3
REMARK VINA RESULT:    -3.985      1.613      2.516
REMARK INTER + INTRA:          -6.622
REMARK INTER:                  -5.474
REMARK INTRA:                  -1.148
REMARK UNBOUND:                -0.540
REMARK SMILES C=CCCCCCCCCCC
REMARK SMILES IDX 7 1 8 2 9 3 10 4 11 5 12 6 6 7 5 8 4 9 3 10 2 11 1 12
REMARK H PARENT
REMARK Flexibility Score: inf
ROOT
ATOM      1  C   UNL     1     139.110 134.790 133.964  1.00  0.00     0.000 C 
ENDROOT
BRANCH   1   2
ATOM      2  C   UNL     1     140.212 134.451 134.980  1.00  0.00    -0.000 C 
BRANCH   2   3
ATOM      3  C   UNL     1     139.807 133.321 135.939  1.00  0.00    -0.000 C 
BRANCH   3   4
ATOM      4  C   UNL     1     138.757 132.407 135.298  1.00  0.00    -0.000 C 
BRANCH   4   5
ATOM      5  C   UNL     1     137.852 131.777 136.364  1.00  0.00    -0.003 C 
ATOM      6  C   UNL     1     137.623 132.735 137.530  1.00  0.00     0.004 C 
ENDBRANCH   4   5
ENDBRANCH   3   4
ENDBRANCH   2   3
ENDBRANCH   1   2
BRANCH   1   7
ATOM      7  C   UNL     1     138.814 136.296 133.892  1.00  0.00     0.000 C 
BRANCH   7   8
ATOM      8  C   UNL     1     140.104 137.115 134.043  1.00  0.00     0.000 C 
BRANCH   8   9
ATOM      9  C   UNL     1     140.007 138.176 135.150  1.00  0.00     0.004 C 
BRANCH   9  10
ATOM     10  C   UNL     1     140.874 137.836 136.372  1.00  0.00     0.027 C 
BRANCH  10  11
ATOM     11  C   UNL     1     140.028 137.634 137.598  1.00  0.00    -0.035 C 
ATOM     12  C   UNL     1     139.063 136.712 137.643  1.00  0.00     0.004 C 
ENDBRANCH  10  11
ENDBRANCH   9  10
ENDBRANCH   8   9
ENDBRANCH   7   8
ENDBRANCH   1   7
TORSDOF 9
ENDMDL
MODEL 4
REMARK VINA RESULT:    -3.976      3.581      6.085
REMARK INTER + INTRA:          -6.609
REMARK INTER:                  -5.767
REMARK INTRA:                  -0.841
REMARK UNBOUND:                -0.540
REMARK SMILES C=CCCCCCCCCCC
REMARK SMILES IDX 7 1 8 2 9 3 10 4 11 5 12 6 6 7 5 8 4 9 3 10 2 11 1 12
REMARK H PARENT
REMARK Flexibility Score: inf
ROOT
ATOM      1  C   UNL     1     135.861 133.442 135.328  1.00  0.00     0.000 C 
ENDROOT
BRANCH   1   2
ATOM      2  C   UNL     1     134.637 132.567 135.014  1.00  0.00    -0.000 C 
BRANCH   2   3
ATOM      3  C   UNL     1     133.447 132.859 135.940  1.00  0.00    -0.000 C 
BRANCH   3   4
ATOM      4  C   UNL     1     132.577 133.988 135.377  1.00  0.00    -0.000 C 
BRANCH   4   5
ATOM      5  C   UNL     1     131.870 134.753 136.503  1.00  0.00    -0.003 C 
ATOM      6  C   UNL     1     132.850 135.137 137.608  1.00  0.00     0.004 C 
ENDBRANCH   4   5
ENDBRANCH   3   4
ENDBRANCH   2   3
ENDBRANCH   1   2
BRANCH   1   7
ATOM      7  C   UNL     1     136.550 133.047 136.643  1.00  0.00     0.000 C 
BRANCH   7   8
ATOM      8  C   UNL     1     137.591 131.943 136.405  1.00  0.00     0.000 C 
BRANCH   8   9
ATOM      9  C   UNL     1     138.677 132.358 135.401  1.00  0.00     0.004 C 
BRANCH   9  10
ATOM     10  C   UNL     1     139.718 133.307 136.015  1.00  0.00     0.027 C 
BRANCH  10  11
ATOM     11  C   UNL     1     140.050 134.431 135.074  1.00  0.00    -0.035 C 
ATOM     12  C   UNL     1     139.420 134.579 133.905  1.00  0.00     0.004 C 
ENDBRANCH  10  11
ENDBRANCH   9  10
ENDBRANCH   8   9
ENDBRANCH   7   8
ENDBRANCH   1   7
TORSDOF 9
ENDMDL
MODEL 5
REMARK VINA RESULT:    -3.974      5.485      6.550
REMARK INTER + INTRA:          -6.605
REMARK INTER:                  -4.944
REMARK INTRA:                  -1.661
REMARK UNBOUND:                -0.540
REMARK SMILES C=CCCCCCCCCCC
REMARK SMILES IDX 7 1 8 2 9 3 10 4 11 5 12 6 6 7 5 8 4 9 3 10 2 11 1 12
REMARK H PARENT
REMARK Flexibility Score: inf
ROOT
ATOM      1  C   UNL     1     133.059 135.278 137.466  1.00  0.00     0.000 C 
ENDROOT
BRANCH   1   2
ATOM      2  C   UNL     1     131.853 134.829 136.626  1.00  0.00    -0.000 C 
BRANCH   2   3
ATOM      3  C   UNL     1     132.238 133.838 135.518  1.00  0.00    -0.000 C 
BRANCH   3   4
ATOM      4  C   UNL     1     133.357 132.900 135.984  1.00  0.00    -0.000 C 
BRANCH   4   5
ATOM      5  C   UNL     1     134.450 132.773 134.917  1.00  0.00    -0.003 C 
ATOM      6  C   UNL     1     134.213 133.747 133.765  1.00  0.00     0.004 C 
ENDBRANCH   4   5
ENDBRANCH   3   4
ENDBRANCH   2   3
ENDBRANCH   1   2
BRANCH   1   7
ATOM      7  C   UNL     1     133.504 136.713 137.144  1.00  0.00     0.000 C 
BRANCH   7   8
ATOM      8  C   UNL     1     134.518 136.727 135.992  1.00  0.00     0.000 C 
BRANCH   8   9
ATOM      9  C   UNL     1     133.972 137.409 134.728  1.00  0.00     0.004 C 
BRANCH   9  10
ATOM     10  C   UNL     1     132.581 138.026 134.944  1.00  0.00     0.027 C 
BRANCH  10  11
ATOM     11  C   UNL     1     131.558 137.387 134.047  1.00  0.00    -0.035 C 
ATOM     12  C   UNL     1     131.909 136.704 132.954  1.00  0.00     0.004 C 
ENDBRANCH  10  11
ENDBRANCH   9  10
ENDBRANCH   8   9
ENDBRANCH   7   8
ENDBRANCH   1   7
TORSDOF 9
ENDMDL
MODEL 6
REMARK VINA RESULT:    -3.966      1.086      2.510
REMARK INTER + INTRA:          -6.593
REMARK INTER:                  -5.626
REMARK INTRA:                  -0.966
REMARK UNBOUND:                -0.540
REMARK SMILES C=CCCCCCCCCCC
REMARK SMILES IDX 7 1 8 2 9 3 10 4 11 5 12 6 6 7 5 8 4 9 3 10 2 11 1 12
REMARK H PARENT
REMARK Flexibility Score: inf
ROOT
ATOM      1  C   UNL     1     139.887 133.456 135.851  1.00  0.00     0.000 C 
ENDROOT
BRANCH   1   2
ATOM      2  C   UNL     1     138.845 132.492 135.263  1.00  0.00    -0.000 C 
BRANCH   2   3
ATOM      3  C   UNL     1     137.918 131.896 136.333  1.00  0.00    -0.000 C 
BRANCH   3   4
ATOM      4  C   UNL     1     137.213 133.001 137.126  1.00  0.00    -0.000 C 
BRANCH   4   5
ATOM      5  C   UNL     1     137.472 132.849 138.631  1.00  0.00    -0.003 C 
ATOM      6  C   UNL     1     138.349 133.983 139.156  1.00  0.00     0.004 C 
ENDBRANCH   4   5
ENDBRANCH   3   4
ENDBRANCH   2   3
ENDBRANCH   1   2
BRANCH   1   7
ATOM      7  C   UNL     1     140.103 134.701 134.976  1.00  0.00     0.000 C 
BRANCH   7   8
ATOM      8  C   UNL     1     139.199 135.855 135.435  1.00  0.00     0.000 C 
BRANCH   8   9
ATOM      9  C   UNL     1     139.697 136.520 136.728  1.00  0.00     0.004 C 
BRANCH   9  10
ATOM     10  C   UNL     1     140.702 137.650 136.463  1.00  0.00     0.027 C 
BRANCH  10  11
ATOM     11  C   UNL     1     140.136 138.669 135.513  1.00  0.00    -0.035 C 
ATOM     12  C   UNL     1     139.393 139.694 135.942  1.00  0.00     0.004 C 
ENDBRANCH  10  11
ENDBRANCH   9  10
ENDBRANCH   8   9
ENDBRANCH   7   8
ENDBRANCH   1   7
TORSDOF 9
ENDMDL
MODEL 7
REMARK VINA RESULT:    -3.952      2.915      5.304
REMARK INTER + INTRA:          -6.572
REMARK INTER:                  -5.924
REMARK INTRA:                  -0.648
REMARK UNBOUND:                -0.540
REMARK SMILES C=CCCCCCCCCCC
REMARK SMILES IDX 7 1 8 2 9 3 10 4 11 5 12 6 6 7 5 8 4 9 3 10 2 11 1 12
REMARK H PARENT
REMARK Flexibility Score: inf
ROOT
ATOM      1  C   UNL     1     138.171 140.128 135.143  1.00  0.00     0.000 C 
ENDROOT
BRANCH   1   2
ATOM      2  C   UNL     1     139.417 139.778 135.971  1.00  0.00    -0.000 C 
BRANCH   2   3
ATOM      3  C   UNL     1     140.298 138.716 135.297  1.00  0.00    -0.000 C 
BRANCH   3   4
ATOM      4  C   UNL     1     140.827 137.709 136.323  1.00  0.00    -0.000 C 
BRANCH   4   5
ATOM      5  C   UNL     1     139.964 137.709 137.591  1.00  0.00    -0.003 C 
ATOM      6  C   UNL     1     139.118 136.442 137.682  1.00  0.00     0.004 C 
ENDBRANCH   4   5
ENDBRANCH   3   4
ENDBRANCH   2   3
ENDBRANCH   1   2
BRANCH   1   7
ATOM      7  C   UNL     1     136.871 139.616 135.783  1.00  0.00     0.000 C 
BRANCH   7   8
ATOM      8  C   UNL     1     135.674 140.478 135.354  1.00  0.00     0.000 C 
BRANCH   8   9
ATOM      9  C   UNL     1     134.711 140.774 136.514  1.00  0.00     0.004 C 
BRANCH   9  10
ATOM     10  C   UNL     1     133.681 139.653 136.728  1.00  0.00     0.027 C 
BRANCH  10  11
ATOM     11  C   UNL     1     133.008 139.282 135.436  1.00  0.00    -0.035 C 
ATOM     12  C   UNL     1     132.672 138.019 135.155  1.00  0.00     0.004 C 
ENDBRANCH  10  11
ENDBRANCH   9  10
ENDBRANCH   8   9
ENDBRANCH   7   8
ENDBRANCH   1   7
TORSDOF 9
ENDMDL
MODEL 8
REMARK VINA RESULT:    -3.910      2.288      5.940
REMARK INTER + INTRA:          -6.507
REMARK INTER:                  -5.758
REMARK INTRA:                  -0.749
REMARK UNBOUND:                -0.540
REMARK SMILES C=CCCCCCCCCCC
REMARK SMILES IDX 7 1 8 2 9 3 10 4 11 5 12 6 6 7 5 8 4 9 3 10 2 11 1 12
REMARK H PARENT
REMARK Flexibility Score: inf
ROOT
ATOM      1  C   UNL     1     138.215 139.771 135.037  1.00  0.00     0.000 C 
ENDROOT
BRANCH   1   2
ATOM      2  C   UNL     1     136.848 139.501 135.685  1.00  0.00    -0.000 C 
BRANCH   2   3
ATOM      3  C   UNL     1     135.773 140.503 135.240  1.00  0.00    -0.000 C 
BRANCH   3   4
ATOM      4  C   UNL     1     134.835 140.854 136.401  1.00  0.00    -0.000 C 
BRANCH   4   5
ATOM      5  C   UNL     1     134.035 139.626 136.852  1.00  0.00    -0.003 C 
ATOM      6  C   UNL     1     132.957 139.265 135.834  1.00  0.00     0.004 C 
ENDBRANCH   4   5
ENDBRANCH   3   4
ENDBRANCH   2   3
ENDBRANCH   1   2
BRANCH   1   7
ATOM      7  C   UNL     1     139.354 139.846 136.064  1.00  0.00     0.000 C 
BRANCH   7   8
ATOM      8  C   UNL     1     139.035 138.990 137.299  1.00  0.00     0.000 C 
BRANCH   8   9
ATOM      9  C   UNL     1     139.928 137.745 137.405  1.00  0.00     0.004 C 
BRANCH   9  10
ATOM     10  C   UNL     1     140.891 137.606 136.216  1.00  0.00     0.027 C 
BRANCH  10  11
ATOM     11  C   UNL     1     140.441 136.522 135.276  1.00  0.00    -0.035 C 
ATOM     12  C   UNL     1     139.603 135.557 135.665  1.00  0.00     0.004 C 
ENDBRANCH  10  11
ENDBRANCH   9  10
ENDBRANCH   8   9
ENDBRANCH   7   8
ENDBRANCH   1   7
TORSDOF 9
ENDMDL
MODEL 9
REMARK VINA RESULT:    -3.868      3.239      5.744
REMARK INTER + INTRA:          -6.442
REMARK INTER:                  -5.023
REMARK INTRA:                  -1.420
REMARK UNBOUND:                -0.540
REMARK SMILES C=CCCCCCCCCCC
REMARK SMILES IDX 7 1 8 2 9 3 10 4 11 5 12 6 6 7 5 8 4 9 3 10 2 11 1 12
REMARK H PARENT
REMARK Flexibility Score: inf
ROOT
ATOM      1  C   UNL     1     134.530 140.214 134.998  1.00  0.00     0.000 C 
ENDROOT
BRANCH   1   2
ATOM      2  C   UNL     1     134.900 140.798 136.370  1.00  0.00    -0.000 C 
BRANCH   2   3
ATOM      3  C   UNL     1     134.722 139.787 137.513  1.00  0.00    -0.000 C 
BRANCH   3   4
ATOM      4  C   UNL     1     136.037 139.059 137.811  1.00  0.00    -0.000 C 
BRANCH   4   5
ATOM      5  C   UNL     1     135.886 137.545 137.616  1.00  0.00    -0.003 C 
ATOM      6  C   UNL     1     136.466 137.102 136.275  1.00  0.00     0.004 C 
ENDBRANCH   4   5
ENDBRANCH   3   4
ENDBRANCH   2   3
ENDBRANCH   1   2
BRANCH   1   7
ATOM      7  C   UNL     1     135.738 140.102 134.056  1.00  0.00     0.000 C 
BRANCH   7   8
ATOM      8  C   UNL     1     136.991 140.720 134.696  1.00  0.00     0.000 C 
BRANCH   8   9
ATOM      9  C   UNL     1     138.250 139.867 134.479  1.00  0.00     0.004 C 
BRANCH   9  10
ATOM     10  C   UNL     1     139.097 139.729 135.753  1.00  0.00     0.027 C 
BRANCH  10  11
ATOM     11  C   UNL     1     140.131 138.647 135.604  1.00  0.00    -0.035 C 
ATOM     12  C   UNL     1     140.499 137.878 136.632  1.00  0.00     0.004 C 
ENDBRANCH  10  11
ENDBRANCH   9  10
ENDBRANCH   8   9
ENDBRANCH   7   8
ENDBRANCH   1   7
TORSDOF 9
ENDMDL
