MODEL 1
REMARK VINA RESULT:    -4.837      0.000      0.000
REMARK INTER + INTRA:          -7.580
REMARK INTER:                  -6.817
REMARK INTRA:                  -0.763
REMARK UNBOUND:                -0.763
REMARK SMILES CCCCCCCCC(=O)[O-]
REMARK SMILES IDX 6 1 7 2 8 3 9 4 10 5 11 6 5 7 4 8 3 9 2 10 1 11
REMARK H PARENT
REMARK Flexibility Score: inf
ROOT
ATOM      1  C   UNL     1      30.797  -1.108   6.581  1.00  0.00     0.000 C 
ENDROOT
BRANCH   1   2
ATOM      2  C   UNL     1      30.268  -0.014   7.523  1.00  0.00     0.006 C 
BRANCH   2   3
ATOM      3  C   UNL     1      30.015  -0.545   8.942  1.00  0.00     0.053 C 
BRANCH   3   4
ATOM      4  C   UNL     1      28.908   0.196   9.626  1.00  0.00     0.041 C 
ATOM      5  O   UNL     1      28.027   0.786   8.946  1.00  0.00    -0.550 OA
ATOM      6  O   UNL     1      28.832   0.212  11.012  1.00  0.00    -0.550 OA
ENDBRANCH   3   4
ENDBRANCH   2   3
ENDBRANCH   1   2
BRANCH   1   7
ATOM      7  C   UNL     1      30.585  -2.524   7.142  1.00  0.00     0.000 C 
BRANCH   7   8
ATOM      8  C   UNL     1      29.816  -3.436   6.171  1.00  0.00    -0.000 C 
BRANCH   8   9
ATOM      9  C   UNL     1      28.622  -2.724   5.513  1.00  0.00    -0.000 C 
BRANCH   9  10
ATOM     10  C   UNL     1      27.425  -2.579   6.464  1.00  0.00    -0.003 C 
ATOM     11  C   UNL     1      26.816  -1.183   6.371  1.00  0.00     0.004 C 
ENDBRANCH   9  10
ENDBRANCH   8   9
ENDBRANCH   7   8
ENDBRANCH   1   7
TORSDOF 7
ENDMDL
MODEL 2
REMARK VINA RESULT:    -4.792      1.946      2.961
REMARK INTER + INTRA:          -7.516
REMARK INTER:                  -6.772
REMARK INTRA:                  -0.744
REMARK UNBOUND:                -0.763
REMARK SMILES CCCCCCCCC(=O)[O-]
REMARK SMILES IDX 6 1 7 2 8 3 9 4 10 5 11 6 5 7 4 8 3 9 2 10 1 11
REMARK H PARENT
REMARK Flexibility Score: inf
ROOT
ATOM      1  C   UNL     1      30.050  -3.408   6.169  1.00  0.00     0.000 C 
ENDROOT
BRANCH   1   2
ATOM      2  C   UNL     1      31.010  -2.969   7.288  1.00  0.00     0.006 C 
BRANCH   2   3
ATOM      3  C   UNL     1      31.572  -1.561   7.050  1.00  0.00     0.053 C 
BRANCH   3   4
ATOM      4  C   UNL     1      31.819  -0.833   8.336  1.00  0.00     0.041 C 
ATOM      5  O   UNL     1      32.198   0.368   8.320  1.00  0.00    -0.550 OA
ATOM      6  O   UNL     1      31.603  -1.471   9.550  1.00  0.00    -0.550 OA
ENDBRANCH   3   4
ENDBRANCH   2   3
ENDBRANCH   1   2
BRANCH   1   7
ATOM      7  C   UNL     1      29.096  -2.282   5.736  1.00  0.00     0.000 C 
BRANCH   7   8
ATOM      8  C   UNL     1      27.645  -2.531   6.184  1.00  0.00    -0.000 C 
BRANCH   8   9
ATOM      9  C   UNL     1      27.117  -1.424   7.111  1.00  0.00    -0.000 C 
BRANCH   9  10
ATOM     10  C   UNL     1      28.127  -0.283   7.302  1.00  0.00    -0.003 C 
ATOM     11  C   UNL     1      28.282   0.073   8.777  1.00  0.00     0.004 C 
ENDBRANCH   9  10
ENDBRANCH   8   9
ENDBRANCH   7   8
ENDBRANCH   1   7
TORSDOF 7
ENDMDL
MODEL 3
REMARK VINA RESULT:    -4.776      2.706      4.165
REMARK INTER + INTRA:          -7.495
REMARK INTER:                  -6.831
REMARK INTRA:                  -0.664
REMARK UNBOUND:                -0.763
REMARK SMILES CCCCCCCCC(=O)[O-]
REMARK SMILES IDX 6 1 7 2 8 3 9 4 10 5 11 6 5 7 4 8 3 9 2 10 1 11
REMARK H PARENT
REMARK Flexibility Score: inf
ROOT
ATOM      1  C   UNL     1      29.016  -2.276   5.628  1.00  0.00     0.000 C 
ENDROOT
BRANCH   1   2
ATOM      2  C   UNL     1      29.930  -3.425   6.088  1.00  0.00     0.006 C 
BRANCH   2   3
ATOM      3  C   UNL     1      30.839  -3.010   7.254  1.00  0.00     0.053 C 
BRANCH   3   4
ATOM      4  C   UNL     1      32.089  -2.338   6.775  1.00  0.00     0.041 C 
ATOM      5  O   UNL     1      32.715  -2.799   5.784  1.00  0.00    -0.550 OA
ATOM      6  O   UNL     1      32.546  -1.188   7.403  1.00  0.00    -0.550 OA
ENDBRANCH   3   4
ENDBRANCH   2   3
ENDBRANCH   1   2
BRANCH   1   7
ATOM      7  C   UNL     1      27.561  -2.460   6.089  1.00  0.00     0.000 C 
BRANCH   7   8
ATOM      8  C   UNL     1      27.151  -1.449   7.174  1.00  0.00    -0.000 C 
BRANCH   8   9
ATOM      9  C   UNL     1      28.167  -0.305   7.327  1.00  0.00    -0.000 C 
BRANCH   9  10
ATOM     10  C   UNL     1      28.360   0.121   8.790  1.00  0.00    -0.003 C 
ATOM     11  C   UNL     1      29.814  -0.043   9.223  1.00  0.00     0.004 C 
ENDBRANCH   9  10
ENDBRANCH   8   9
ENDBRANCH   7   8
ENDBRANCH   1   7
TORSDOF 7
ENDMDL
MODEL 4
REMARK VINA RESULT:    -4.760     12.232     13.936
REMARK INTER + INTRA:          -7.472
REMARK INTER:                  -6.989
REMARK INTRA:                  -0.483
REMARK UNBOUND:                -0.763
REMARK SMILES CCCCCCCCC(=O)[O-]
REMARK SMILES IDX 6 1 7 2 8 3 9 4 10 5 11 6 5 7 4 8 3 9 2 10 1 11
REMARK H PARENT
REMARK Flexibility Score: inf
ROOT
ATOM      1  C   UNL     1      15.915   1.230  14.878  1.00  0.00     0.000 C 
ENDROOT
BRANCH   1   2
ATOM      2  C   UNL     1      16.367  -0.218  14.621  1.00  0.00     0.006 C 
BRANCH   2   3
ATOM      3  C   UNL     1      17.587  -0.603  15.470  1.00  0.00     0.053 C 
BRANCH   3   4
ATOM      4  C   UNL     1      18.869  -0.423  14.717  1.00  0.00     0.041 C 
ATOM      5  O   UNL     1      18.890  -0.546  13.464  1.00  0.00    -0.550 OA
ATOM      6  O   UNL     1      20.035  -0.091  15.394  1.00  0.00    -0.550 OA
ENDBRANCH   3   4
ENDBRANCH   2   3
ENDBRANCH   1   2
BRANCH   1   7
ATOM      7  C   UNL     1      14.889   1.720  13.843  1.00  0.00     0.000 C 
BRANCH   7   8
ATOM      8  C   UNL     1      15.490   2.722  12.842  1.00  0.00    -0.000 C 
BRANCH   8   9
ATOM      9  C   UNL     1      15.792   2.082  11.477  1.00  0.00    -0.000 C 
BRANCH   9  10
ATOM     10  C   UNL     1      17.298   1.969  11.199  1.00  0.00    -0.003 C 
ATOM     11  C   UNL     1      17.618   0.699  10.415  1.00  0.00     0.004 C 
ENDBRANCH   9  10
ENDBRANCH   8   9
ENDBRANCH   7   8
ENDBRANCH   1   7
TORSDOF 7
ENDMDL
MODEL 5
REMARK VINA RESULT:    -4.731     14.357     16.196
REMARK INTER + INTRA:          -7.430
REMARK INTER:                  -7.067
REMARK INTRA:                  -0.363
REMARK UNBOUND:                -0.763
REMARK SMILES CCCCCCCCC(=O)[O-]
REMARK SMILES IDX 6 1 7 2 8 3 9 4 10 5 11 6 5 7 4 8 3 9 2 10 1 11
REMARK H PARENT
REMARK Flexibility Score: inf
ROOT
ATOM      1  C   UNL     1      15.133   2.671  13.620  1.00  0.00     0.000 C 
ENDROOT
BRANCH   1   2
ATOM      2  C   UNL     1      15.229   1.563  12.558  1.00  0.00     0.006 C 
BRANCH   2   3
ATOM      3  C   UNL     1      16.094   1.982  11.361  1.00  0.00     0.053 C 
BRANCH   3   4
ATOM      4  C   UNL     1      17.297   1.103  11.207  1.00  0.00     0.041 C 
ATOM      5  O   UNL     1      17.816   0.558  12.216  1.00  0.00    -0.550 OA
ATOM      6  O   UNL     1      17.827   0.862   9.946  1.00  0.00    -0.550 OA
ENDBRANCH   3   4
ENDBRANCH   2   3
ENDBRANCH   1   2
BRANCH   1   7
ATOM      7  C   UNL     1      15.555   2.187  15.017  1.00  0.00     0.000 C 
BRANCH   7   8
ATOM      8  C   UNL     1      14.351   1.850  15.915  1.00  0.00    -0.000 C 
BRANCH   8   9
ATOM      9  C   UNL     1      13.194   2.849  15.749  1.00  0.00    -0.000 C 
BRANCH   9  10
ATOM     10  C   UNL     1      12.980   3.716  16.999  1.00  0.00    -0.003 C 
ATOM     11  C   UNL     1      13.537   3.032  18.244  1.00  0.00     0.004 C 
ENDBRANCH   9  10
ENDBRANCH   8   9
ENDBRANCH   7   8
ENDBRANCH   1   7
TORSDOF 7
ENDMDL
MODEL 6
REMARK VINA RESULT:    -4.715     13.214     14.802
REMARK INTER + INTRA:          -7.408
REMARK INTER:                  -6.811
REMARK INTRA:                  -0.597
REMARK UNBOUND:                -0.763
REMARK SMILES CCCCCCCCC(=O)[O-]
REMARK SMILES IDX 6 1 7 2 8 3 9 4 10 5 11 6 5 7 4 8 3 9 2 10 1 11
REMARK H PARENT
REMARK Flexibility Score: inf
ROOT
ATOM      1  C   UNL     1      15.217   2.854  13.214  1.00  0.00     0.000 C 
ENDROOT
BRANCH   1   2
ATOM      2  C   UNL     1      14.635   2.280  14.517  1.00  0.00     0.006 C 
BRANCH   2   3
ATOM      3  C   UNL     1      15.690   1.525  15.338  1.00  0.00     0.053 C 
BRANCH   3   4
ATOM      4  C   UNL     1      16.061   2.266  16.586  1.00  0.00     0.041 C 
ATOM      5  O   UNL     1      16.975   1.828  17.334  1.00  0.00    -0.550 OA
ATOM      6  O   UNL     1      15.420   3.454  16.908  1.00  0.00    -0.550 OA
ENDBRANCH   3   4
ENDBRANCH   2   3
ENDBRANCH   1   2
BRANCH   1   7
ATOM      7  C   UNL     1      15.533   1.763  12.178  1.00  0.00     0.000 C 
BRANCH   7   8
ATOM      8  C   UNL     1      16.787   2.082  11.346  1.00  0.00    -0.000 C 
BRANCH   8   9
ATOM      9  C   UNL     1      17.830   0.953  11.395  1.00  0.00    -0.000 C 
BRANCH   9  10
ATOM     10  C   UNL     1      17.467  -0.141  12.411  1.00  0.00    -0.003 C 
ATOM     11  C   UNL     1      18.540  -0.269  13.488  1.00  0.00     0.004 C 
ENDBRANCH   9  10
ENDBRANCH   8   9
ENDBRANCH   7   8
ENDBRANCH   1   7
TORSDOF 7
ENDMDL
MODEL 7
REMARK VINA RESULT:    -4.706     15.918     17.526
REMARK INTER + INTRA:          -7.396
REMARK INTER:                  -6.989
REMARK INTRA:                  -0.407
REMARK UNBOUND:                -0.763
REMARK SMILES CCCCCCCCC(=O)[O-]
REMARK SMILES IDX 6 1 7 2 8 3 9 4 10 5 11 6 5 7 4 8 3 9 2 10 1 11
REMARK H PARENT
REMARK Flexibility Score: inf
ROOT
ATOM      1  C   UNL     1      12.918   3.432  16.611  1.00  0.00     0.000 C 
ENDROOT
BRANCH   1   2
ATOM      2  C   UNL     1      14.152   3.741  17.475  1.00  0.00     0.006 C 
BRANCH   2   3
ATOM      3  C   UNL     1      14.076   3.068  18.853  1.00  0.00     0.053 C 
BRANCH   3   4
ATOM      4  C   UNL     1      14.616   1.671  18.822  1.00  0.00     0.041 C 
ATOM      5  O   UNL     1      15.858   1.474  18.764  1.00  0.00    -0.550 OA
ATOM      6  O   UNL     1      13.750   0.587  18.887  1.00  0.00    -0.550 OA
ENDBRANCH   3   4
ENDBRANCH   2   3
ENDBRANCH   1   2
BRANCH   1   7
ATOM      7  C   UNL     1      13.263   2.595  15.369  1.00  0.00     0.000 C 
BRANCH   7   8
ATOM      8  C   UNL     1      14.779   2.478  15.136  1.00  0.00    -0.000 C 
BRANCH   8   9
ATOM      9  C   UNL     1      15.183   2.836  13.696  1.00  0.00    -0.000 C 
BRANCH   9  10
ATOM     10  C   UNL     1      15.292   1.601  12.790  1.00  0.00    -0.003 C 
ATOM     11  C   UNL     1      15.863   1.971  11.423  1.00  0.00     0.004 C 
ENDBRANCH   9  10
ENDBRANCH   8   9
ENDBRANCH   7   8
ENDBRANCH   1   7
TORSDOF 7
ENDMDL
MODEL 8
REMARK VINA RESULT:    -4.634     16.125     17.878
REMARK INTER + INTRA:          -7.294
REMARK INTER:                  -6.835
REMARK INTRA:                  -0.459
REMARK UNBOUND:                -0.763
REMARK SMILES CCCCCCCCC(=O)[O-]
REMARK SMILES IDX 6 1 7 2 8 3 9 4 10 5 11 6 5 7 4 8 3 9 2 10 1 11
REMARK H PARENT
REMARK Flexibility Score: inf
ROOT
ATOM      1  C   UNL     1      15.450   0.338  20.378  1.00  0.00     0.000 C 
ENDROOT
BRANCH   1   2
ATOM      2  C   UNL     1      16.402  -0.432  19.448  1.00  0.00     0.006 C 
BRANCH   2   3
ATOM      3  C   UNL     1      17.681   0.361  19.143  1.00  0.00     0.053 C 
BRANCH   3   4
ATOM      4  C   UNL     1      17.718   0.836  17.722  1.00  0.00     0.041 C 
ATOM      5  O   UNL     1      17.224   1.953  17.416  1.00  0.00    -0.550 OA
ATOM      6  O   UNL     1      18.323   0.059  16.744  1.00  0.00    -0.550 OA
ENDBRANCH   3   4
ENDBRANCH   2   3
ENDBRANCH   1   2
BRANCH   1   7
ATOM      7  C   UNL     1      14.012   0.393  19.836  1.00  0.00     0.000 C 
BRANCH   7   8
ATOM      8  C   UNL     1      13.908   1.173  18.514  1.00  0.00    -0.000 C 
BRANCH   8   9
ATOM      9  C   UNL     1      13.967   2.695  18.721  1.00  0.00    -0.000 C 
BRANCH   9  10
ATOM     10  C   UNL     1      12.941   3.448  17.860  1.00  0.00    -0.003 C 
ATOM     11  C   UNL     1      13.119   3.118  16.381  1.00  0.00     0.004 C 
ENDBRANCH   9  10
ENDBRANCH   8   9
ENDBRANCH   7   8
ENDBRANCH   1   7
TORSDOF 7
ENDMDL
MODEL 9
REMARK VINA RESULT:    -4.630      2.217      3.354
REMARK INTER + INTRA:          -7.287
REMARK INTER:                  -6.603
REMARK INTRA:                  -0.684
REMARK UNBOUND:                -0.763
REMARK SMILES CCCCCCCCC(=O)[O-]
REMARK SMILES IDX 6 1 7 2 8 3 9 4 10 5 11 6 5 7 4 8 3 9 2 10 1 11
REMARK H PARENT
REMARK Flexibility Score: inf
ROOT
ATOM      1  C   UNL     1      28.235   0.063   8.721  1.00  0.00     0.000 C 
ENDROOT
BRANCH   1   2
ATOM      2  C   UNL     1      29.667  -0.064   9.268  1.00  0.00     0.006 C 
BRANCH   2   3
ATOM      3  C   UNL     1      30.714  -0.091   8.146  1.00  0.00     0.053 C 
BRANCH   3   4
ATOM      4  C   UNL     1      31.806  -1.078   8.426  1.00  0.00     0.041 C 
ATOM      5  O   UNL     1      31.867  -1.653   9.544  1.00  0.00    -0.550 OA
ATOM      6  O   UNL     1      32.738  -1.383   7.443  1.00  0.00    -0.550 OA
ENDBRANCH   3   4
ENDBRANCH   2   3
ENDBRANCH   1   2
BRANCH   1   7
ATOM      7  C   UNL     1      28.145  -0.268   7.222  1.00  0.00     0.000 C 
BRANCH   7   8
ATOM      8  C   UNL     1      27.021  -1.271   6.904  1.00  0.00    -0.000 C 
BRANCH   8   9
ATOM      9  C   UNL     1      27.551  -2.568   6.271  1.00  0.00    -0.000 C 
BRANCH   9  10
ATOM     10  C   UNL     1      28.912  -2.376   5.586  1.00  0.00    -0.003 C 
ATOM     11  C   UNL     1      29.944  -3.360   6.130  1.00  0.00     0.004 C 
ENDBRANCH   9  10
ENDBRANCH   8   9
ENDBRANCH   7   8
ENDBRANCH   1   7
TORSDOF 7
ENDMDL
