MODEL 1
REMARK VINA RESULT:     2.872      0.000      0.000
REMARK INTER + INTRA:           3.085
REMARK INTER:                   3.124
REMARK INTRA:                  -0.039
REMARK UNBOUND:                -0.039
REMARK SMILES C[C@@H]1[C@@H](C)CC[C@@]2(C(=O)[O-])CC[C@]3(C)C(=CC[C@H]4[C@]5(C)CC[C@H](O)C(C)(C)[C@H]5CC[C@]43C)[C@@H]12
REMARK SMILES IDX 7 1 6 2 11 3 33 4 5 5 12 6 15 7 2 8 3 9 13 10 16 11 1 12
REMARK SMILES IDX 4 13 14 14 31 15 17 16 18 17 30 18 32 19 19 20 29 21 28 22
REMARK SMILES IDX 21 23 20 24 25 25 22 26 23 27 26 28 27 29 8 30 9 31 10 32
REMARK SMILES IDX 24 33
REMARK H PARENT 24 34
REMARK Flexibility Score: inf
ROOT
ATOM      1  C   UNL     1      45.783  28.838   2.644  1.00  0.00     0.017 C 
ATOM      2  C   UNL     1      47.052  27.950   2.738  1.00  0.00     0.014 C 
ATOM      3  C   UNL     1      46.082  30.125   1.847  1.00  0.00     0.014 C 
ATOM      4  C   UNL     1      44.639  27.988   1.977  1.00  0.00     0.030 C 
ATOM      5  C   UNL     1      46.880  26.719   3.634  1.00  0.00     0.004 C 
ATOM      6  C   UNL     1      46.403  29.878   0.375  1.00  0.00     0.013 C 
ATOM      7  C   UNL     1      44.721  27.924   0.432  1.00  0.00    -0.063 C 
ATOM      8  C   UNL     1      44.490  26.557   2.657  1.00  0.00    -0.003 C 
ATOM      9  C   UNL     1      45.404  26.306   3.894  1.00  0.00    -0.011 C 
ATOM     10  C   UNL     1      45.302  29.081  -0.395  1.00  0.00    -0.006 C 
ATOM     11  C   UNL     1      43.955  27.017  -0.243  1.00  0.00    -0.027 C 
ATOM     12  C   UNL     1      43.016  26.319   3.040  1.00  0.00     0.008 C 
ATOM     13  C   UNL     1      45.379  24.832   4.367  1.00  0.00     0.008 C 
ATOM     14  C   UNL     1      44.119  30.084  -0.619  1.00  0.00     0.017 C 
ATOM     15  C   UNL     1      45.935  28.484  -1.761  1.00  0.00    -0.020 C 
ATOM     16  C   UNL     1      43.683  27.093  -1.732  1.00  0.00     0.032 C 
ATOM     17  C   UNL     1      44.876  27.615  -2.590  1.00  0.00     0.006 C 
ATOM     18  C   UNL     1      46.560  29.620  -2.630  1.00  0.00     0.008 C 
ATOM     19  C   UNL     1      47.120  27.502  -1.421  1.00  0.00     0.012 C 
ATOM     20  C   UNL     1      44.498  28.167  -4.036  1.00  0.00    -0.025 C 
ATOM     21  C   UNL     1      46.914  29.235  -4.067  1.00  0.00     0.005 C 
ATOM     22  C   UNL     1      45.852  28.377  -4.818  1.00  0.00     0.003 C 
ATOM     23  C   UNL     1      43.678  27.078  -4.809  1.00  0.00     0.010 C 
ATOM     24  C   UNL     1      43.629  29.465  -3.942  1.00  0.00     0.012 C 
ATOM     25  C   UNL     1      45.717  28.717  -6.349  1.00  0.00    -0.006 C 
ATOM     26  C   UNL     1      43.502  27.363  -6.320  1.00  0.00     0.033 C 
ATOM     27  C   UNL     1      44.849  27.602  -7.041  1.00  0.00     0.120 C 
ATOM     28  C   UNL     1      47.125  28.775  -7.019  1.00  0.00     0.014 C 
ATOM     29  C   UNL     1      45.071  30.108  -6.592  1.00  0.00     0.014 C 
ENDROOT
BRANCH   1  30
ATOM     30  C   UNL     1      45.400  29.345   4.042  1.00  0.00     0.048 C 
ATOM     31  O   UNL     1      44.231  29.758   4.277  1.00  0.00    -0.550 OA
ATOM     32  O   UNL     1      46.366  29.432   5.040  1.00  0.00    -0.550 OA
ENDBRANCH   1  30
BRANCH  27  33
ATOM     33  O   UNL     1      45.498  26.348  -7.125  1.00  0.00    -0.393 OA
ATOM     34  H   UNL     1      46.484  26.500  -7.121  1.00  0.00     0.210 HD
ENDBRANCH  27  33
TORSDOF 2
ENDMDL
