MODEL 1
REMARK VINA RESULT:    -2.853      0.000      0.000
REMARK INTER + INTRA:          -3.918
REMARK INTER:                  -3.687
REMARK INTRA:                  -0.231
REMARK UNBOUND:                -0.231
REMARK SMILES CCCCCCC(=O)[O-]
REMARK SMILES IDX 5 1 6 2 7 3 8 4 9 5 4 6 3 7 2 8 1 9
REMARK H PARENT
REMARK Flexibility Score: inf
ROOT
ATOM      1  C   UNL     1     -15.285  14.291  -9.022  1.00  0.00     0.006 C 
ENDROOT
BRANCH   1   2
ATOM      2  C   UNL     1     -16.258  14.349  -7.841  1.00  0.00     0.053 C 
BRANCH   2   3
ATOM      3  C   UNL     1     -15.884  13.339  -6.803  1.00  0.00     0.041 C 
ATOM      4  O   UNL     1     -14.674  13.067  -6.589  1.00  0.00    -0.550 OA
ATOM      5  O   UNL     1     -16.872  12.731  -6.037  1.00  0.00    -0.550 OA
ENDBRANCH   2   3
ENDBRANCH   1   2
BRANCH   1   6
ATOM      6  C   UNL     1     -15.684  13.183 -10.009  1.00  0.00     0.000 C 
BRANCH   6   7
ATOM      7  C   UNL     1     -14.532  12.209 -10.302  1.00  0.00    -0.000 C 
BRANCH   7   8
ATOM      8  C   UNL     1     -14.255  12.056 -11.804  1.00  0.00    -0.003 C 
ATOM      9  C   UNL     1     -14.855  13.216 -12.594  1.00  0.00     0.004 C 
ENDBRANCH   7   8
ENDBRANCH   6   7
ENDBRANCH   1   6
TORSDOF 5
ENDMDL
MODEL 2
REMARK VINA RESULT:    -2.836      0.508      1.221
REMARK INTER + INTRA:          -3.896
REMARK INTER:                  -3.722
REMARK INTRA:                  -0.174
REMARK UNBOUND:                -0.231
REMARK SMILES CCCCCCC(=O)[O-]
REMARK SMILES IDX 5 1 6 2 7 3 8 4 9 5 4 6 3 7 2 8 1 9
REMARK H PARENT
REMARK Flexibility Score: inf
ROOT
ATOM      1  C   UNL     1     -15.410  14.351  -8.989  1.00  0.00     0.006 C 
ENDROOT
BRANCH   1   2
ATOM      2  C   UNL     1     -16.379  14.333  -7.803  1.00  0.00     0.053 C 
BRANCH   2   3
ATOM      3  C   UNL     1     -15.937  13.336  -6.780  1.00  0.00     0.041 C 
ATOM      4  O   UNL     1     -16.782  12.773  -6.035  1.00  0.00    -0.550 OA
ATOM      5  O   UNL     1     -14.594  12.990  -6.680  1.00  0.00    -0.550 OA
ENDBRANCH   2   3
ENDBRANCH   1   2
BRANCH   1   6
ATOM      6  C   UNL     1     -15.772  13.262 -10.011  1.00  0.00     0.000 C 
BRANCH   6   7
ATOM      7  C   UNL     1     -14.547  12.463 -10.483  1.00  0.00    -0.000 C 
BRANCH   7   8
ATOM      8  C   UNL     1     -14.671  11.997 -11.940  1.00  0.00    -0.003 C 
ATOM      9  C   UNL     1     -13.464  12.438 -12.762  1.00  0.00     0.004 C 
ENDBRANCH   7   8
ENDBRANCH   6   7
ENDBRANCH   1   6
TORSDOF 5
ENDMDL
MODEL 3
REMARK VINA RESULT:    -2.783      2.585      4.514
REMARK INTER + INTRA:          -3.828
REMARK INTER:                  -3.559
REMARK INTRA:                  -0.269
REMARK UNBOUND:                -0.231
REMARK SMILES CCCCCCC(=O)[O-]
REMARK SMILES IDX 5 1 6 2 7 3 8 4 9 5 4 6 3 7 2 8 1 9
REMARK H PARENT
REMARK Flexibility Score: inf
ROOT
ATOM      1  C   UNL     1     -14.541  13.149  -8.282  1.00  0.00     0.006 C 
ENDROOT
BRANCH   1   2
ATOM      2  C   UNL     1     -15.253  13.302  -9.629  1.00  0.00     0.053 C 
BRANCH   2   3
ATOM      3  C   UNL     1     -14.534  12.535 -10.693  1.00  0.00     0.041 C 
ATOM      4  O   UNL     1     -14.199  11.338 -10.496  1.00  0.00    -0.550 OA
ATOM      5  O   UNL     1     -14.275  13.128 -11.923  1.00  0.00    -0.550 OA
ENDBRANCH   2   3
ENDBRANCH   1   2
BRANCH   1   6
ATOM      6  C   UNL     1     -15.454  13.581  -7.125  1.00  0.00     0.000 C 
BRANCH   6   7
ATOM      7  C   UNL     1     -16.590  14.508  -7.583  1.00  0.00    -0.000 C 
BRANCH   7   8
ATOM      8  C   UNL     1     -16.353  15.974  -7.190  1.00  0.00    -0.003 C 
ATOM      9  C   UNL     1     -15.889  16.796  -8.389  1.00  0.00     0.004 C 
ENDBRANCH   7   8
ENDBRANCH   6   7
ENDBRANCH   1   6
TORSDOF 5
ENDMDL
MODEL 4
REMARK VINA RESULT:    -2.770      3.256      5.065
REMARK INTER + INTRA:          -3.811
REMARK INTER:                  -3.586
REMARK INTRA:                  -0.225
REMARK UNBOUND:                -0.231
REMARK SMILES CCCCCCC(=O)[O-]
REMARK SMILES IDX 5 1 6 2 7 3 8 4 9 5 4 6 3 7 2 8 1 9
REMARK H PARENT
REMARK Flexibility Score: inf
ROOT
ATOM      1  C   UNL     1     -15.418  13.457 -10.514  1.00  0.00     0.006 C 
ENDROOT
BRANCH   1   2
ATOM      2  C   UNL     1     -14.458  12.277 -10.694  1.00  0.00     0.053 C 
BRANCH   2   3
ATOM      3  C   UNL     1     -14.148  12.069 -12.142  1.00  0.00     0.041 C 
ATOM      4  O   UNL     1     -15.013  11.575 -12.912  1.00  0.00    -0.550 OA
ATOM      5  O   UNL     1     -12.918  12.465 -12.655  1.00  0.00    -0.550 OA
ENDBRANCH   2   3
ENDBRANCH   1   2
BRANCH   1   6
ATOM      6  C   UNL     1     -15.197  14.143  -9.157  1.00  0.00     0.000 C 
BRANCH   6   7
ATOM      7  C   UNL     1     -16.446  14.100  -8.263  1.00  0.00    -0.000 C 
BRANCH   7   8
ATOM      8  C   UNL     1     -16.186  13.409  -6.917  1.00  0.00    -0.003 C 
ATOM      9  C   UNL     1     -14.698  13.137  -6.718  1.00  0.00     0.004 C 
ENDBRANCH   7   8
ENDBRANCH   6   7
ENDBRANCH   1   6
TORSDOF 5
ENDMDL
MODEL 5
REMARK VINA RESULT:    -2.441      1.952      2.471
REMARK INTER + INTRA:          -3.386
REMARK INTER:                  -3.149
REMARK INTRA:                  -0.236
REMARK UNBOUND:                -0.231
REMARK SMILES CCCCCCC(=O)[O-]
REMARK SMILES IDX 5 1 6 2 7 3 8 4 9 5 4 6 3 7 2 8 1 9
REMARK H PARENT
REMARK Flexibility Score: inf
ROOT
ATOM      1  C   UNL     1     -14.842  13.054  -9.357  1.00  0.00     0.006 C 
ENDROOT
BRANCH   1   2
ATOM      2  C   UNL     1     -15.652  14.271  -9.813  1.00  0.00     0.053 C 
BRANCH   2   3
ATOM      3  C   UNL     1     -15.819  15.241  -8.688  1.00  0.00     0.041 C 
ATOM      4  O   UNL     1     -16.068  14.828  -7.525  1.00  0.00    -0.550 OA
ATOM      5  O   UNL     1     -15.653  16.603  -8.912  1.00  0.00    -0.550 OA
ENDBRANCH   2   3
ENDBRANCH   1   2
BRANCH   1   6
ATOM      6  C   UNL     1     -14.699  12.031 -10.495  1.00  0.00     0.000 C 
BRANCH   6   7
ATOM      7  C   UNL     1     -13.978  12.609 -11.723  1.00  0.00    -0.000 C 
BRANCH   7   8
ATOM      8  C   UNL     1     -14.529  12.059 -13.046  1.00  0.00    -0.003 C 
ATOM      9  C   UNL     1     -15.897  11.413 -12.844  1.00  0.00     0.004 C 
ENDBRANCH   7   8
ENDBRANCH   6   7
ENDBRANCH   1   6
TORSDOF 5
ENDMDL
MODEL 6
REMARK VINA RESULT:    -2.417      3.288      4.399
REMARK INTER + INTRA:          -3.355
REMARK INTER:                  -3.265
REMARK INTRA:                  -0.091
REMARK UNBOUND:                -0.231
REMARK SMILES CCCCCCC(=O)[O-]
REMARK SMILES IDX 5 1 6 2 7 3 8 4 9 5 4 6 3 7 2 8 1 9
REMARK H PARENT
REMARK Flexibility Score: inf
ROOT
ATOM      1  C   UNL     1     -15.976  15.660  -8.978  1.00  0.00     0.006 C 
ENDROOT
BRANCH   1   2
ATOM      2  C   UNL     1     -16.175  14.891  -7.668  1.00  0.00     0.053 C 
BRANCH   2   3
ATOM      3  C   UNL     1     -15.337  13.653  -7.654  1.00  0.00     0.041 C 
ATOM      4  O   UNL     1     -14.764  13.263  -8.704  1.00  0.00    -0.550 OA
ATOM      5  O   UNL     1     -15.149  12.954  -6.467  1.00  0.00    -0.550 OA
ENDBRANCH   2   3
ENDBRANCH   1   2
BRANCH   1   6
ATOM      6  C   UNL     1     -15.663  17.139  -8.705  1.00  0.00     0.000 C 
BRANCH   6   7
ATOM      7  C   UNL     1     -16.593  18.092  -9.471  1.00  0.00    -0.000 C 
BRANCH   7   8
ATOM      8  C   UNL     1     -15.847  18.930 -10.520  1.00  0.00    -0.003 C 
ATOM      9  C   UNL     1     -16.657  20.161 -10.916  1.00  0.00     0.004 C 
ENDBRANCH   7   8
ENDBRANCH   6   7
ENDBRANCH   1   6
TORSDOF 5
ENDMDL
MODEL 7
REMARK VINA RESULT:    -2.279      6.272      6.994
REMARK INTER + INTRA:          -3.176
REMARK INTER:                  -3.009
REMARK INTRA:                  -0.166
REMARK UNBOUND:                -0.231
REMARK SMILES CCCCCCC(=O)[O-]
REMARK SMILES IDX 5 1 6 2 7 3 8 4 9 5 4 6 3 7 2 8 1 9
REMARK H PARENT
REMARK Flexibility Score: inf
ROOT
ATOM      1  C   UNL     1     -15.775  19.373 -10.931  1.00  0.00     0.006 C 
ENDROOT
BRANCH   1   2
ATOM      2  C   UNL     1     -16.560  18.891  -9.707  1.00  0.00     0.053 C 
BRANCH   2   3
ATOM      3  C   UNL     1     -16.240  17.461  -9.408  1.00  0.00     0.041 C 
ATOM      4  O   UNL     1     -15.606  17.158  -8.364  1.00  0.00    -0.550 OA
ATOM      5  O   UNL     1     -16.685  16.456 -10.259  1.00  0.00    -0.550 OA
ENDBRANCH   2   3
ENDBRANCH   1   2
BRANCH   1   6
ATOM      6  C   UNL     1     -16.344  20.696 -11.463  1.00  0.00     0.000 C 
BRANCH   6   7
ATOM      7  C   UNL     1     -15.320  21.493 -12.286  1.00  0.00    -0.000 C 
BRANCH   7   8
ATOM      8  C   UNL     1     -13.903  20.908 -12.193  1.00  0.00    -0.003 C 
ATOM      9  C   UNL     1     -12.872  22.004 -11.943  1.00  0.00     0.004 C 
ENDBRANCH   7   8
ENDBRANCH   6   7
ENDBRANCH   1   6
TORSDOF 5
ENDMDL
MODEL 8
REMARK VINA RESULT:    -1.981     18.386     19.667
REMARK INTER + INTRA:          -2.791
REMARK INTER:                  -2.652
REMARK INTRA:                  -0.139
REMARK UNBOUND:                -0.231
REMARK SMILES CCCCCCC(=O)[O-]
REMARK SMILES IDX 5 1 6 2 7 3 8 4 9 5 4 6 3 7 2 8 1 9
REMARK H PARENT
REMARK Flexibility Score: inf
ROOT
ATOM      1  C   UNL     1       0.943   4.825 -10.957  1.00  0.00     0.006 C 
ENDROOT
BRANCH   1   2
ATOM      2  C   UNL     1       2.011   3.793 -10.585  1.00  0.00     0.053 C 
BRANCH   2   3
ATOM      3  C   UNL     1       1.983   2.641 -11.538  1.00  0.00     0.041 C 
ATOM      4  O   UNL     1       0.929   1.970 -11.690  1.00  0.00    -0.550 OA
ATOM      5  O   UNL     1       3.108   2.338 -12.296  1.00  0.00    -0.550 OA
ENDBRANCH   2   3
ENDBRANCH   1   2
BRANCH   1   6
ATOM      6  C   UNL     1       1.116   5.296 -12.409  1.00  0.00     0.000 C 
BRANCH   6   7
ATOM      7  C   UNL     1       2.526   5.837 -12.691  1.00  0.00    -0.000 C 
BRANCH   7   8
ATOM      8  C   UNL     1       2.519   7.311 -13.121  1.00  0.00    -0.003 C 
ATOM      9  C   UNL     1       1.101   7.875 -13.125  1.00  0.00     0.004 C 
ENDBRANCH   7   8
ENDBRANCH   6   7
ENDBRANCH   1   6
TORSDOF 5
ENDMDL
