MODEL 1
REMARK VINA RESULT:    10.982      0.000      0.000
REMARK INTER + INTRA:          19.071
REMARK INTER:                  19.970
REMARK INTRA:                  -0.899
REMARK UNBOUND:                -0.899
REMARK SMILES CCCCCCCCCCCCCC[C@H](C)C(=O)[O-]
REMARK SMILES IDX 9 1 10 2 11 3 12 4 13 5 14 6 15 7 16 8 17 9 18 10 19 11 8 12
REMARK SMILES IDX 7 13 6 14 5 15 4 16 3 17 2 18 1 19
REMARK H PARENT
REMARK Flexibility Score: inf
ROOT
ATOM      1  C   UNL     1      98.836  94.156  11.766  1.00  0.00     0.000 C 
ENDROOT
BRANCH   1   2
ATOM      2  C   UNL     1      99.367  95.194  10.767  1.00  0.00     0.000 C 
BRANCH   2   3
ATOM      3  C   UNL     1     100.714  94.753  10.181  1.00  0.00     0.000 C 
BRANCH   3   4
ATOM      4  C   UNL     1     101.785  95.829  10.391  1.00  0.00     0.000 C 
BRANCH   4   5
ATOM      5  C   UNL     1     101.252  97.219  10.018  1.00  0.00     0.001 C 
BRANCH   5   6
ATOM      6  C   UNL     1     102.010  98.321  10.774  1.00  0.00     0.009 C 
BRANCH   6   7
ATOM      7  C   UNL     1     101.167  99.601  10.962  1.00  0.00     0.032 C 
ATOM      8  C   UNL     1      99.666  99.343  10.778  1.00  0.00     0.014 C 
BRANCH   7   9
ATOM      9  C   UNL     1     101.619 100.654   9.986  1.00  0.00     0.044 C 
ATOM     10  O   UNL     1     102.787 101.118  10.052  1.00  0.00    -0.550 OA
ATOM     11  O   UNL     1     100.748 101.125   9.011  1.00  0.00    -0.550 OA
ENDBRANCH   7   9
ENDBRANCH   6   7
ENDBRANCH   5   6
ENDBRANCH   4   5
ENDBRANCH   3   4
ENDBRANCH   2   3
ENDBRANCH   1   2
BRANCH   1  12
ATOM     12  C   UNL     1      98.264  94.791  13.046  1.00  0.00     0.000 C 
BRANCH  12  13
ATOM     13  C   UNL     1      98.726  94.140  14.362  1.00  0.00    -0.000 C 
BRANCH  13  14
ATOM     14  C   UNL     1      98.508  95.047  15.585  1.00  0.00    -0.000 C 
BRANCH  14  15
ATOM     15  C   UNL     1      99.746  95.127  16.496  1.00  0.00    -0.000 C 
BRANCH  15  16
ATOM     16  C   UNL     1      99.600  96.055  17.717  1.00  0.00    -0.000 C 
BRANCH  16  17
ATOM     17  C   UNL     1     100.470  97.328  17.642  1.00  0.00    -0.000 C 
BRANCH  17  18
ATOM     18  C   UNL     1      99.624  98.609  17.605  1.00  0.00    -0.003 C 
ATOM     19  C   UNL     1      98.324  98.433  18.384  1.00  0.00     0.004 C 
ENDBRANCH  17  18
ENDBRANCH  16  17
ENDBRANCH  15  16
ENDBRANCH  14  15
ENDBRANCH  13  14
ENDBRANCH  12  13
ENDBRANCH   1  12
TORSDOF 14
ENDMDL
MODEL 2
REMARK VINA RESULT:    11.065      0.735      1.355
REMARK INTER + INTRA:          19.222
REMARK INTER:                  20.161
REMARK INTRA:                  -0.939
REMARK UNBOUND:                -0.899
REMARK SMILES CCCCCCCCCCCCCC[C@H](C)C(=O)[O-]
REMARK SMILES IDX 9 1 10 2 11 3 12 4 13 5 14 6 15 7 16 8 17 9 18 10 19 11 8 12
REMARK SMILES IDX 7 13 6 14 5 15 4 16 3 17 2 18 1 19
REMARK H PARENT
REMARK Flexibility Score: inf
ROOT
ATOM      1  C   UNL     1      99.445  94.000  11.056  1.00  0.00     0.000 C 
ENDROOT
BRANCH   1   2
ATOM      2  C   UNL     1     100.858  94.508  10.734  1.00  0.00     0.000 C 
BRANCH   2   3
ATOM      3  C   UNL     1     100.895  96.040  10.694  1.00  0.00     0.000 C 
BRANCH   3   4
ATOM      4  C   UNL     1     101.956  96.540   9.706  1.00  0.00     0.000 C 
BRANCH   4   5
ATOM      5  C   UNL     1     102.314  98.007   9.977  1.00  0.00     0.001 C 
BRANCH   5   6
ATOM      6  C   UNL     1     101.602  98.525  11.237  1.00  0.00     0.009 C 
BRANCH   6   7
ATOM      7  C   UNL     1     100.783  99.808  10.974  1.00  0.00     0.032 C 
ATOM      8  C   UNL     1      99.396  99.504  10.394  1.00  0.00     0.014 C 
BRANCH   7   9
ATOM      9  C   UNL     1     101.535 100.706  10.030  1.00  0.00     0.044 C 
ATOM     10  O   UNL     1     102.701 101.087  10.314  1.00  0.00    -0.550 OA
ATOM     11  O   UNL     1     100.947 101.125   8.843  1.00  0.00    -0.550 OA
ENDBRANCH   7   9
ENDBRANCH   6   7
ENDBRANCH   5   6
ENDBRANCH   4   5
ENDBRANCH   3   4
ENDBRANCH   2   3
ENDBRANCH   1   2
BRANCH   1  12
ATOM     12  C   UNL     1      98.483  95.126  11.473  1.00  0.00     0.000 C 
BRANCH  12  13
ATOM     13  C   UNL     1      98.313  95.311  12.992  1.00  0.00    -0.000 C 
BRANCH  13  14
ATOM     14  C   UNL     1      98.598  94.025  13.786  1.00  0.00    -0.000 C 
BRANCH  14  15
ATOM     15  C   UNL     1      98.661  94.264  15.305  1.00  0.00    -0.000 C 
BRANCH  15  16
ATOM     16  C   UNL     1      99.402  95.544  15.735  1.00  0.00    -0.000 C 
BRANCH  16  17
ATOM     17  C   UNL     1      99.751  95.588  17.238  1.00  0.00    -0.000 C 
BRANCH  17  18
ATOM     18  C   UNL     1     100.202  96.985  17.689  1.00  0.00    -0.003 C 
ATOM     19  C   UNL     1      99.007  97.911  17.893  1.00  0.00     0.004 C 
ENDBRANCH  17  18
ENDBRANCH  16  17
ENDBRANCH  15  16
ENDBRANCH  14  15
ENDBRANCH  13  14
ENDBRANCH  12  13
ENDBRANCH   1  12
TORSDOF 14
ENDMDL
MODEL 3
REMARK VINA RESULT:    11.198      4.491      7.845
REMARK INTER + INTRA:          19.464
REMARK INTER:                  20.025
REMARK INTRA:                  -0.560
REMARK UNBOUND:                -0.899
REMARK SMILES CCCCCCCCCCCCCC[C@H](C)C(=O)[O-]
REMARK SMILES IDX 9 1 10 2 11 3 12 4 13 5 14 6 15 7 16 8 17 9 18 10 19 11 8 12
REMARK SMILES IDX 7 13 6 14 5 15 4 16 3 17 2 18 1 19
REMARK H PARENT
REMARK Flexibility Score: inf
ROOT
ATOM      1  C   UNL     1     100.139  99.867  10.694  1.00  0.00     0.000 C 
ENDROOT
BRANCH   1   2
ATOM      2  C   UNL     1     101.530  99.224  10.789  1.00  0.00     0.000 C 
BRANCH   2   3
ATOM      3  C   UNL     1     101.605  97.949   9.941  1.00  0.00     0.000 C 
BRANCH   3   4
ATOM      4  C   UNL     1     101.736  96.705  10.827  1.00  0.00     0.000 C 
BRANCH   4   5
ATOM      5  C   UNL     1     101.151  95.468  10.132  1.00  0.00     0.001 C 
BRANCH   5   6
ATOM      6  C   UNL     1     100.453  94.547  11.143  1.00  0.00     0.009 C 
BRANCH   6   7
ATOM      7  C   UNL     1      98.921  94.738  11.164  1.00  0.00     0.032 C 
ATOM      8  C   UNL     1      98.469  95.912  10.286  1.00  0.00     0.014 C 
BRANCH   7   9
ATOM      9  C   UNL     1      98.455  94.960  12.577  1.00  0.00     0.044 C 
ATOM     10  O   UNL     1      98.059  96.098  12.941  1.00  0.00    -0.550 OA
ATOM     11  O   UNL     1      98.465  93.913  13.491  1.00  0.00    -0.550 OA
ENDBRANCH   7   9
ENDBRANCH   6   7
ENDBRANCH   5   6
ENDBRANCH   4   5
ENDBRANCH   3   4
ENDBRANCH   2   3
ENDBRANCH   1   2
BRANCH   1  12
ATOM     12  C   UNL     1      98.995  98.857  10.894  1.00  0.00     0.000 C 
BRANCH  12  13
ATOM     13  C   UNL     1      97.589  99.385  10.556  1.00  0.00    -0.000 C 
BRANCH  13  14
ATOM     14  C   UNL     1      97.325  99.455   9.042  1.00  0.00    -0.000 C 
BRANCH  14  15
ATOM     15  C   UNL     1      95.880  99.861   8.707  1.00  0.00    -0.000 C 
BRANCH  15  16
ATOM     16  C   UNL     1      95.098  98.849   7.848  1.00  0.00    -0.000 C 
BRANCH  16  17
ATOM     17  C   UNL     1      93.575  99.098   7.819  1.00  0.00    -0.000 C 
BRANCH  17  18
ATOM     18  C   UNL     1      93.063  99.406   6.405  1.00  0.00    -0.003 C 
ATOM     19  C   UNL     1      91.856 100.339   6.447  1.00  0.00     0.004 C 
ENDBRANCH  17  18
ENDBRANCH  16  17
ENDBRANCH  15  16
ENDBRANCH  14  15
ENDBRANCH  13  14
ENDBRANCH  12  13
ENDBRANCH   1  12
TORSDOF 14
ENDMDL
MODEL 4
REMARK VINA RESULT:    11.415      3.661      6.229
REMARK INTER + INTRA:          19.858
REMARK INTER:                  19.171
REMARK INTRA:                   0.687
REMARK UNBOUND:                -0.899
REMARK SMILES CCCCCCCCCCCCCC[C@H](C)C(=O)[O-]
REMARK SMILES IDX 9 1 10 2 11 3 12 4 13 5 14 6 15 7 16 8 17 9 18 10 19 11 8 12
REMARK SMILES IDX 7 13 6 14 5 15 4 16 3 17 2 18 1 19
REMARK H PARENT
REMARK Flexibility Score: inf
ROOT
ATOM      1  C   UNL     1     101.441  98.240  10.248  1.00  0.00     0.000 C 
ENDROOT
BRANCH   1   2
ATOM      2  C   UNL     1     102.038  96.990  10.910  1.00  0.00     0.000 C 
BRANCH   2   3
ATOM      3  C   UNL     1     102.502  95.979   9.854  1.00  0.00     0.000 C 
BRANCH   3   4
ATOM      4  C   UNL     1     101.496  94.831   9.711  1.00  0.00     0.000 C 
BRANCH   4   5
ATOM      5  C   UNL     1     101.056  94.308  11.085  1.00  0.00     0.001 C 
BRANCH   5   6
ATOM      6  C   UNL     1      99.694  93.604  10.996  1.00  0.00     0.009 C 
BRANCH   6   7
ATOM      7  C   UNL     1      98.512  94.552  11.295  1.00  0.00     0.032 C 
ATOM      8  C   UNL     1      98.671  95.915  10.608  1.00  0.00     0.014 C 
BRANCH   7   9
ATOM      9  C   UNL     1      98.384  94.752  12.781  1.00  0.00     0.044 C 
ATOM     10  O   UNL     1      98.151  95.897  13.248  1.00  0.00    -0.550 OA
ATOM     11  O   UNL     1      98.529  93.674  13.648  1.00  0.00    -0.550 OA
ENDBRANCH   7   9
ENDBRANCH   6   7
ENDBRANCH   5   6
ENDBRANCH   4   5
ENDBRANCH   3   4
ENDBRANCH   2   3
ENDBRANCH   1   2
BRANCH   1  12
ATOM     12  C   UNL     1     102.510  99.168   9.642  1.00  0.00     0.000 C 
BRANCH  12  13
ATOM     13  C   UNL     1     102.347 100.661   9.980  1.00  0.00    -0.000 C 
BRANCH  13  14
ATOM     14  C   UNL     1     100.880 101.122   9.956  1.00  0.00    -0.000 C 
BRANCH  14  15
ATOM     15  C   UNL     1     100.027 100.452  11.048  1.00  0.00    -0.000 C 
BRANCH  15  16
ATOM     16  C   UNL     1      98.848  99.606  10.529  1.00  0.00    -0.000 C 
BRANCH  16  17
ATOM     17  C   UNL     1      98.124  98.802  11.630  1.00  0.00    -0.000 C 
BRANCH  17  18
ATOM     18  C   UNL     1      97.613  99.700  12.765  1.00  0.00    -0.003 C 
ATOM     19  C   UNL     1      96.693  98.928  13.707  1.00  0.00     0.004 C 
ENDBRANCH  17  18
ENDBRANCH  16  17
ENDBRANCH  15  16
ENDBRANCH  14  15
ENDBRANCH  13  14
ENDBRANCH  12  13
ENDBRANCH   1  12
TORSDOF 14
ENDMDL
MODEL 5
REMARK VINA RESULT:    11.926      3.770      6.347
REMARK INTER + INTRA:          20.788
REMARK INTER:                  20.903
REMARK INTRA:                  -0.115
REMARK UNBOUND:                -0.899
REMARK SMILES CCCCCCCCCCCCCC[C@H](C)C(=O)[O-]
REMARK SMILES IDX 9 1 10 2 11 3 12 4 13 5 14 6 15 7 16 8 17 9 18 10 19 11 8 12
REMARK SMILES IDX 7 13 6 14 5 15 4 16 3 17 2 18 1 19
REMARK H PARENT
REMARK Flexibility Score: inf
ROOT
ATOM      1  C   UNL     1     102.062  99.277   9.509  1.00  0.00     0.000 C 
ENDROOT
BRANCH   1   2
ATOM      2  C   UNL     1     101.696  98.325  10.656  1.00  0.00     0.000 C 
BRANCH   2   3
ATOM      3  C   UNL     1     102.236  96.914  10.393  1.00  0.00     0.000 C 
BRANCH   3   4
ATOM      4  C   UNL     1     101.095  95.893  10.314  1.00  0.00     0.000 C 
BRANCH   4   5
ATOM      5  C   UNL     1      99.729  96.589  10.338  1.00  0.00     0.001 C 
BRANCH   5   6
ATOM      6  C   UNL     1      98.637  95.642  10.858  1.00  0.00     0.009 C 
BRANCH   6   7
ATOM      7  C   UNL     1      99.198  94.527  11.767  1.00  0.00     0.032 C 
ATOM      8  C   UNL     1      99.037  93.134  11.147  1.00  0.00     0.014 C 
BRANCH   7   9
ATOM      9  C   UNL     1      98.507  94.565  13.103  1.00  0.00     0.044 C 
ATOM     10  O   UNL     1      98.390  93.512  13.784  1.00  0.00    -0.550 OA
ATOM     11  O   UNL     1      97.988  95.759  13.590  1.00  0.00    -0.550 OA
ENDBRANCH   7   9
ENDBRANCH   6   7
ENDBRANCH   5   6
ENDBRANCH   4   5
ENDBRANCH   3   4
ENDBRANCH   2   3
ENDBRANCH   1   2
BRANCH   1  12
ATOM     12  C   UNL     1     101.947 100.762   9.899  1.00  0.00     0.000 C 
BRANCH  12  13
ATOM     13  C   UNL     1     100.709 101.122  10.740  1.00  0.00    -0.000 C 
BRANCH  13  14
ATOM     14  C   UNL     1      99.751  99.934  10.932  1.00  0.00    -0.000 C 
BRANCH  14  15
ATOM     15  C   UNL     1      98.635 100.226  11.951  1.00  0.00    -0.000 C 
BRANCH  15  16
ATOM     16  C   UNL     1      97.851  98.991  12.434  1.00  0.00    -0.000 C 
BRANCH  16  17
ATOM     17  C   UNL     1      96.460  99.323  13.015  1.00  0.00    -0.000 C 
BRANCH  17  18
ATOM     18  C   UNL     1      96.042 100.773  12.731  1.00  0.00    -0.003 C 
ATOM     19  C   UNL     1      95.068 100.846  11.559  1.00  0.00     0.004 C 
ENDBRANCH  17  18
ENDBRANCH  16  17
ENDBRANCH  15  16
ENDBRANCH  14  15
ENDBRANCH  13  14
ENDBRANCH  12  13
ENDBRANCH   1  12
TORSDOF 14
ENDMDL
MODEL 6
REMARK VINA RESULT:    11.981      2.473      3.657
REMARK INTER + INTRA:          20.887
REMARK INTER:                  19.766
REMARK INTRA:                   1.121
REMARK UNBOUND:                -0.899
REMARK SMILES CCCCCCCCCCCCCC[C@H](C)C(=O)[O-]
REMARK SMILES IDX 9 1 10 2 11 3 12 4 13 5 14 6 15 7 16 8 17 9 18 10 19 11 8 12
REMARK SMILES IDX 7 13 6 14 5 15 4 16 3 17 2 18 1 19
REMARK H PARENT
REMARK Flexibility Score: inf
ROOT
ATOM      1  C   UNL     1      99.822  93.750  10.981  1.00  0.00     0.000 C 
ENDROOT
BRANCH   1   2
ATOM      2  C   UNL     1     101.074  94.411  10.385  1.00  0.00     0.000 C 
BRANCH   2   3
ATOM      3  C   UNL     1     100.938  95.938  10.381  1.00  0.00     0.000 C 
BRANCH   3   4
ATOM      4  C   UNL     1     102.279  96.610  10.065  1.00  0.00     0.000 C 
BRANCH   4   5
ATOM      5  C   UNL     1     102.132  98.136  10.006  1.00  0.00     0.001 C 
BRANCH   5   6
ATOM      6  C   UNL     1     101.436  98.672  11.267  1.00  0.00     0.009 C 
BRANCH   6   7
ATOM      7  C   UNL     1     100.791 100.057  11.048  1.00  0.00     0.032 C 
ATOM      8  C   UNL     1      99.305  99.956  10.681  1.00  0.00     0.014 C 
BRANCH   7   9
ATOM      9  C   UNL     1     101.527 100.795   9.963  1.00  0.00     0.044 C 
ATOM     10  O   UNL     1     100.933 101.112   8.899  1.00  0.00    -0.550 OA
ATOM     11  O   UNL     1     102.867 101.125  10.124  1.00  0.00    -0.550 OA
ENDBRANCH   7   9
ENDBRANCH   6   7
ENDBRANCH   5   6
ENDBRANCH   4   5
ENDBRANCH   3   4
ENDBRANCH   2   3
ENDBRANCH   1   2
BRANCH   1  12
ATOM     12  C   UNL     1      98.567  94.635  10.876  1.00  0.00     0.000 C 
BRANCH  12  13
ATOM     13  C   UNL     1      98.679  96.012  11.555  1.00  0.00    -0.000 C 
BRANCH  13  14
ATOM     14  C   UNL     1      97.990  96.057  12.929  1.00  0.00    -0.000 C 
BRANCH  14  15
ATOM     15  C   UNL     1      98.589  95.053  13.930  1.00  0.00    -0.000 C 
BRANCH  15  16
ATOM     16  C   UNL     1      98.220  93.578  13.676  1.00  0.00    -0.000 C 
BRANCH  16  17
ATOM     17  C   UNL     1      97.520  92.896  14.869  1.00  0.00    -0.000 C 
BRANCH  17  18
ATOM     18  C   UNL     1      97.431  91.372  14.698  1.00  0.00    -0.003 C 
ATOM     19  C   UNL     1      96.024  90.865  15.000  1.00  0.00     0.004 C 
ENDBRANCH  17  18
ENDBRANCH  16  17
ENDBRANCH  15  16
ENDBRANCH  14  15
ENDBRANCH  13  14
ENDBRANCH  12  13
ENDBRANCH   1  12
TORSDOF 14
ENDMDL
MODEL 7
REMARK VINA RESULT:    12.175     15.331     17.870
REMARK INTER + INTRA:          21.240
REMARK INTER:                  21.368
REMARK INTRA:                  -0.129
REMARK UNBOUND:                -0.899
REMARK SMILES CCCCCCCCCCCCCC[C@H](C)C(=O)[O-]
REMARK SMILES IDX 9 1 10 2 11 3 12 4 13 5 14 6 15 7 16 8 17 9 18 10 19 11 8 12
REMARK SMILES IDX 7 13 6 14 5 15 4 16 3 17 2 18 1 19
REMARK H PARENT
REMARK Flexibility Score: inf
ROOT
ATOM      1  C   UNL     1      90.208  83.386  18.883  1.00  0.00     0.000 C 
ENDROOT
BRANCH   1   2
ATOM      2  C   UNL     1      90.343  84.910  19.019  1.00  0.00     0.000 C 
BRANCH   2   3
ATOM      3  C   UNL     1      91.757  85.371  18.645  1.00  0.00     0.000 C 
BRANCH   3   4
ATOM      4  C   UNL     1      92.055  86.759  19.223  1.00  0.00     0.000 C 
BRANCH   4   5
ATOM      5  C   UNL     1      92.861  87.608  18.231  1.00  0.00     0.001 C 
BRANCH   5   6
ATOM      6  C   UNL     1      92.983  86.901  16.872  1.00  0.00     0.009 C 
BRANCH   6   7
ATOM      7  C   UNL     1      92.381  87.726  15.715  1.00  0.00     0.032 C 
ATOM      8  C   UNL     1      92.608  89.233  15.895  1.00  0.00     0.014 C 
BRANCH   7   9
ATOM      9  C   UNL     1      90.906  87.450  15.608  1.00  0.00     0.044 C 
ATOM     10  O   UNL     1      90.330  86.744  16.476  1.00  0.00    -0.550 OA
ATOM     11  O   UNL     1      90.172  87.967  14.547  1.00  0.00    -0.550 OA
ENDBRANCH   7   9
ENDBRANCH   6   7
ENDBRANCH   5   6
ENDBRANCH   4   5
ENDBRANCH   3   4
ENDBRANCH   2   3
ENDBRANCH   1   2
BRANCH   1  12
ATOM     12  C   UNL     1      89.570  82.727  20.120  1.00  0.00     0.000 C 
BRANCH  12  13
ATOM     13  C   UNL     1      89.293  81.218  19.986  1.00  0.00    -0.000 C 
BRANCH  13  14
ATOM     14  C   UNL     1      87.791  80.887  19.960  1.00  0.00    -0.000 C 
BRANCH  14  15
ATOM     15  C   UNL     1      87.040  81.618  18.832  1.00  0.00    -0.000 C 
BRANCH  15  16
ATOM     16  C   UNL     1      85.521  81.362  18.786  1.00  0.00    -0.000 C 
BRANCH  16  17
ATOM     17  C   UNL     1      84.802  81.632  20.125  1.00  0.00    -0.000 C 
BRANCH  17  18
ATOM     18  C   UNL     1      83.717  82.712  19.995  1.00  0.00    -0.003 C 
ATOM     19  C   UNL     1      83.232  82.834  18.553  1.00  0.00     0.004 C 
ENDBRANCH  17  18
ENDBRANCH  16  17
ENDBRANCH  15  16
ENDBRANCH  14  15
ENDBRANCH  13  14
ENDBRANCH  12  13
ENDBRANCH   1  12
TORSDOF 14
ENDMDL
MODEL 8
REMARK VINA RESULT:    12.423      2.435      3.643
REMARK INTER + INTRA:          21.691
REMARK INTER:                  21.525
REMARK INTRA:                   0.165
REMARK UNBOUND:                -0.899
REMARK SMILES CCCCCCCCCCCCCC[C@H](C)C(=O)[O-]
REMARK SMILES IDX 9 1 10 2 11 3 12 4 13 5 14 6 15 7 16 8 17 9 18 10 19 11 8 12
REMARK SMILES IDX 7 13 6 14 5 15 4 16 3 17 2 18 1 19
REMARK H PARENT
REMARK Flexibility Score: inf
ROOT
ATOM      1  C   UNL     1      98.648  94.813  11.040  1.00  0.00     0.000 C 
ENDROOT
BRANCH   1   2
ATOM      2  C   UNL     1      99.618  95.919  10.602  1.00  0.00     0.000 C 
BRANCH   2   3
ATOM      3  C   UNL     1     101.017  95.349  10.336  1.00  0.00     0.000 C 
BRANCH   3   4
ATOM      4  C   UNL     1     102.106  96.322  10.802  1.00  0.00     0.000 C 
BRANCH   4   5
ATOM      5  C   UNL     1     102.018  97.653  10.045  1.00  0.00     0.001 C 
BRANCH   5   6
ATOM      6  C   UNL     1     100.708  98.387  10.372  1.00  0.00     0.009 C 
BRANCH   6   7
ATOM      7  C   UNL     1     100.944  99.778  11.000  1.00  0.00     0.032 C 
ATOM      8  C   UNL     1      99.634 100.457  11.419  1.00  0.00     0.014 C 
BRANCH   7   9
ATOM      9  C   UNL     1     101.676 100.658  10.024  1.00  0.00     0.044 C 
ATOM     10  O   UNL     1     102.841 101.059  10.284  1.00  0.00    -0.550 OA
ATOM     11  O   UNL     1     101.069 101.040   8.833  1.00  0.00    -0.550 OA
ENDBRANCH   7   9
ENDBRANCH   6   7
ENDBRANCH   5   6
ENDBRANCH   4   5
ENDBRANCH   3   4
ENDBRANCH   2   3
ENDBRANCH   1   2
BRANCH   1  12
ATOM     12  C   UNL     1      98.780  94.453  12.531  1.00  0.00     0.000 C 
BRANCH  12  13
ATOM     13  C   UNL     1      98.069  95.413  13.501  1.00  0.00    -0.000 C 
BRANCH  13  14
ATOM     14  C   UNL     1      97.651  96.735  12.833  1.00  0.00    -0.000 C 
BRANCH  14  15
ATOM     15  C   UNL     1      97.336  97.844  13.852  1.00  0.00    -0.000 C 
BRANCH  15  16
ATOM     16  C   UNL     1      97.245  99.265  13.265  1.00  0.00    -0.000 C 
BRANCH  16  17
ATOM     17  C   UNL     1      95.803  99.724  12.961  1.00  0.00    -0.000 C 
BRANCH  17  18
ATOM     18  C   UNL     1      95.766 100.962  12.053  1.00  0.00    -0.003 C 
ATOM     19  C   UNL     1      94.726 100.804  10.948  1.00  0.00     0.004 C 
ENDBRANCH  17  18
ENDBRANCH  16  17
ENDBRANCH  15  16
ENDBRANCH  14  15
ENDBRANCH  13  14
ENDBRANCH  12  13
ENDBRANCH   1  12
TORSDOF 14
ENDMDL
MODEL 9
REMARK VINA RESULT:    12.714      3.877      7.055
REMARK INTER + INTRA:          22.221
REMARK INTER:                  22.162
REMARK INTRA:                   0.060
REMARK UNBOUND:                -0.899
REMARK SMILES CCCCCCCCCCCCCC[C@H](C)C(=O)[O-]
REMARK SMILES IDX 9 1 10 2 11 3 12 4 13 5 14 6 15 7 16 8 17 9 18 10 19 11 8 12
REMARK SMILES IDX 7 13 6 14 5 15 4 16 3 17 2 18 1 19
REMARK H PARENT
REMARK Flexibility Score: inf
ROOT
ATOM      1  C   UNL     1     102.251  99.438   9.646  1.00  0.00     0.000 C 
ENDROOT
BRANCH   1   2
ATOM      2  C   UNL     1     101.953  98.376  10.714  1.00  0.00     0.000 C 
BRANCH   2   3
ATOM      3  C   UNL     1     101.275  97.148  10.093  1.00  0.00     0.000 C 
BRANCH   3   4
ATOM      4  C   UNL     1     101.691  95.863  10.817  1.00  0.00     0.000 C 
BRANCH   4   5
ATOM      5  C   UNL     1     101.012  94.635  10.197  1.00  0.00     0.001 C 
BRANCH   5   6
ATOM      6  C   UNL     1     100.096  93.939  11.214  1.00  0.00     0.009 C 
BRANCH   6   7
ATOM      7  C   UNL     1      98.697  94.588  11.298  1.00  0.00     0.032 C 
ATOM      8  C   UNL     1      98.594  95.860  10.447  1.00  0.00     0.014 C 
BRANCH   7   9
ATOM      9  C   UNL     1      98.374  94.915  12.730  1.00  0.00     0.044 C 
ATOM     10  O   UNL     1      97.954  96.061  13.038  1.00  0.00    -0.550 OA
ATOM     11  O   UNL     1      98.543  93.957  13.723  1.00  0.00    -0.550 OA
ENDBRANCH   7   9
ENDBRANCH   6   7
ENDBRANCH   5   6
ENDBRANCH   4   5
ENDBRANCH   3   4
ENDBRANCH   2   3
ENDBRANCH   1   2
BRANCH   1  12
ATOM     12  C   UNL     1     101.584 100.794   9.944  1.00  0.00     0.000 C 
BRANCH  12  13
ATOM     13  C   UNL     1     100.049 100.760  10.040  1.00  0.00    -0.000 C 
BRANCH  13  14
ATOM     14  C   UNL     1      99.546 100.063  11.316  1.00  0.00    -0.000 C 
BRANCH  14  15
ATOM     15  C   UNL     1      98.242  99.277  11.091  1.00  0.00    -0.000 C 
BRANCH  15  16
ATOM     16  C   UNL     1      97.846  99.075   9.616  1.00  0.00    -0.000 C 
BRANCH  16  17
ATOM     17  C   UNL     1      96.492  99.712   9.240  1.00  0.00    -0.000 C 
BRANCH  17  18
ATOM     18  C   UNL     1      95.942  99.168   7.913  1.00  0.00    -0.003 C 
ATOM     19  C   UNL     1      94.418  99.102   7.935  1.00  0.00     0.004 C 
ENDBRANCH  17  18
ENDBRANCH  16  17
ENDBRANCH  15  16
ENDBRANCH  14  15
ENDBRANCH  13  14
ENDBRANCH  12  13
ENDBRANCH   1  12
TORSDOF 14
ENDMDL
