MODEL 1
REMARK VINA RESULT:    -6.054      0.000      0.000
REMARK INTER + INTRA:          -6.054
REMARK INTER:                  -6.054
REMARK INTRA:                   0.000
REMARK UNBOUND:                 0.000
REMARK SMILES CC(C)=C1CC[C@@H](C)CC1=O
REMARK SMILES IDX 8 1 7 2 6 3 5 4 4 5 2 6 1 7 3 8 10 9 11 10 9 11
REMARK H PARENT
REMARK Flexibility Score: inf
ROOT
ATOM      1  C   UNL     1      23.983 -15.482  28.380  1.00  0.00     0.008 C 
ATOM      2  C   UNL     1      24.951 -14.435  28.942  1.00  0.00    -0.006 C 
ATOM      3  C   UNL     1      25.997 -14.042  27.887  1.00  0.00     0.008 C 
ATOM      4  C   UNL     1      26.912 -12.921  28.397  1.00  0.00     0.039 C 
ATOM      5  C   UNL     1      27.536 -13.247  29.747  1.00  0.00    -0.006 C 
ATOM      6  C   UNL     1      28.776 -12.786  30.084  1.00  0.00    -0.070 C 
ATOM      7  C   UNL     1      29.431 -13.149  31.398  1.00  0.00     0.039 C 
ATOM      8  C   UNL     1      29.575 -11.919  29.138  1.00  0.00     0.039 C 
ATOM      9  C   UNL     1      26.669 -13.991  30.709  1.00  0.00     0.159 C 
ATOM     10  O   UNL     1      26.768 -13.814  31.952  1.00  0.00    -0.295 OA
ATOM     11  C   UNL     1      25.650 -14.969  30.201  1.00  0.00     0.084 C 
ENDROOT
TORSDOF 0
ENDMDL
MODEL 2
REMARK VINA RESULT:    -6.052      1.816      4.603
REMARK INTER + INTRA:          -6.052
REMARK INTER:                  -6.052
REMARK INTRA:                   0.000
REMARK UNBOUND:                 0.000
REMARK SMILES CC(C)=C1CC[C@@H](C)CC1=O
REMARK SMILES IDX 8 1 7 2 6 3 5 4 4 5 2 6 1 7 3 8 10 9 11 10 9 11
REMARK H PARENT
REMARK Flexibility Score: inf
ROOT
ATOM      1  C   UNL     1      32.031 -12.479  31.387  1.00  0.00     0.008 C 
ATOM      2  C   UNL     1      30.930 -13.126  30.541  1.00  0.00    -0.006 C 
ATOM      3  C   UNL     1      31.116 -12.780  29.055  1.00  0.00     0.008 C 
ATOM      4  C   UNL     1      30.083 -13.502  28.180  1.00  0.00     0.039 C 
ATOM      5  C   UNL     1      28.654 -13.278  28.659  1.00  0.00    -0.006 C 
ATOM      6  C   UNL     1      27.610 -13.244  27.781  1.00  0.00    -0.070 C 
ATOM      7  C   UNL     1      26.194 -12.967  28.237  1.00  0.00     0.039 C 
ATOM      8  C   UNL     1      27.824 -13.443  26.298  1.00  0.00     0.039 C 
ATOM      9  C   UNL     1      28.460 -13.219  30.138  1.00  0.00     0.159 C 
ATOM     10  O   UNL     1      27.398 -13.631  30.677  1.00  0.00    -0.295 OA
ATOM     11  C   UNL     1      29.544 -12.667  31.018  1.00  0.00     0.084 C 
ENDROOT
TORSDOF 0
ENDMDL
MODEL 3
REMARK VINA RESULT:    -6.045      1.991      3.777
REMARK INTER + INTRA:          -6.045
REMARK INTER:                  -6.045
REMARK INTRA:                   0.000
REMARK UNBOUND:                 0.000
REMARK SMILES CC(C)=C1CC[C@@H](C)CC1=O
REMARK SMILES IDX 8 1 7 2 6 3 5 4 4 5 2 6 1 7 3 8 10 9 11 10 9 11
REMARK H PARENT
REMARK Flexibility Score: inf
ROOT
ATOM      1  C   UNL     1      28.847 -11.362  25.745  1.00  0.00     0.008 C 
ATOM      2  C   UNL     1      28.043 -11.568  27.033  1.00  0.00    -0.006 C 
ATOM      3  C   UNL     1      28.924 -11.318  28.268  1.00  0.00     0.008 C 
ATOM      4  C   UNL     1      28.111 -11.419  29.565  1.00  0.00     0.039 C 
ATOM      5  C   UNL     1      27.326 -12.721  29.660  1.00  0.00    -0.006 C 
ATOM      6  C   UNL     1      27.080 -13.313  30.865  1.00  0.00    -0.070 C 
ATOM      7  C   UNL     1      26.351 -14.634  30.969  1.00  0.00     0.039 C 
ATOM      8  C   UNL     1      27.562 -12.694  32.157  1.00  0.00     0.039 C 
ATOM      9  C   UNL     1      26.749 -13.235  28.382  1.00  0.00     0.159 C 
ATOM     10  O   UNL     1      25.664 -13.874  28.363  1.00  0.00    -0.295 OA
ATOM     11  C   UNL     1      27.461 -12.989  27.083  1.00  0.00     0.084 C 
ENDROOT
TORSDOF 0
ENDMDL
MODEL 4
REMARK VINA RESULT:    -6.039      2.171      4.967
REMARK INTER + INTRA:          -6.039
REMARK INTER:                  -6.039
REMARK INTRA:                   0.000
REMARK UNBOUND:                 0.000
REMARK SMILES CC(C)=C1CC[C@@H](C)CC1=O
REMARK SMILES IDX 8 1 7 2 6 3 5 4 4 5 2 6 1 7 3 8 10 9 11 10 9 11
REMARK H PARENT
REMARK Flexibility Score: inf
ROOT
ATOM      1  C   UNL     1      31.401 -12.488  31.382  1.00  0.00     0.008 C 
ATOM      2  C   UNL     1      30.171 -12.315  30.484  1.00  0.00    -0.006 C 
ATOM      3  C   UNL     1      29.009 -13.188  30.984  1.00  0.00     0.008 C 
ATOM      4  C   UNL     1      27.738 -12.951  30.158  1.00  0.00     0.039 C 
ATOM      5  C   UNL     1      27.978 -13.098  28.662  1.00  0.00    -0.006 C 
ATOM      6  C   UNL     1      27.000 -13.558  27.828  1.00  0.00    -0.070 C 
ATOM      7  C   UNL     1      27.244 -13.761  26.349  1.00  0.00     0.039 C 
ATOM      8  C   UNL     1      25.631 -13.926  28.353  1.00  0.00     0.039 C 
ATOM      9  C   UNL     1      29.293 -12.601  28.157  1.00  0.00     0.159 C 
ATOM     10  O   UNL     1      29.408 -12.108  27.003  1.00  0.00    -0.295 OA
ATOM     11  C   UNL     1      30.512 -12.675  29.030  1.00  0.00     0.084 C 
ENDROOT
TORSDOF 0
ENDMDL
MODEL 5
REMARK VINA RESULT:    -5.657      1.841      3.065
REMARK INTER + INTRA:          -5.657
REMARK INTER:                  -5.657
REMARK INTRA:                   0.000
REMARK UNBOUND:                 0.000
REMARK SMILES CC(C)=C1CC[C@@H](C)CC1=O
REMARK SMILES IDX 8 1 7 2 6 3 5 4 4 5 2 6 1 7 3 8 10 9 11 10 9 11
REMARK H PARENT
REMARK Flexibility Score: inf
ROOT
ATOM      1  C   UNL     1      26.219 -14.475  32.937  1.00  0.00     0.008 C 
ATOM      2  C   UNL     1      26.717 -13.679  31.725  1.00  0.00    -0.006 C 
ATOM      3  C   UNL     1      26.245 -14.334  30.417  1.00  0.00     0.008 C 
ATOM      4  C   UNL     1      26.647 -13.495  29.196  1.00  0.00     0.039 C 
ATOM      5  C   UNL     1      28.133 -13.163  29.182  1.00  0.00    -0.006 C 
ATOM      6  C   UNL     1      28.817 -13.025  28.008  1.00  0.00    -0.070 C 
ATOM      7  C   UNL     1      30.304 -12.750  27.980  1.00  0.00     0.039 C 
ATOM      8  C   UNL     1      28.124 -13.180  26.673  1.00  0.00     0.039 C 
ATOM      9  C   UNL     1      28.757 -12.885  30.510  1.00  0.00     0.159 C 
ATOM     10  O   UNL     1      29.707 -12.066  30.629  1.00  0.00    -0.295 OA
ATOM     11  C   UNL     1      28.250 -13.580  31.739  1.00  0.00     0.084 C 
ENDROOT
TORSDOF 0
ENDMDL
MODEL 6
REMARK VINA RESULT:    -5.633      1.660      2.501
REMARK INTER + INTRA:          -5.633
REMARK INTER:                  -5.633
REMARK INTRA:                   0.000
REMARK UNBOUND:                 0.000
REMARK SMILES CC(C)=C1CC[C@@H](C)CC1=O
REMARK SMILES IDX 8 1 7 2 6 3 5 4 4 5 2 6 1 7 3 8 10 9 11 10 9 11
REMARK H PARENT
REMARK Flexibility Score: inf
ROOT
ATOM      1  C   UNL     1      24.018 -15.506  28.742  1.00  0.00     0.008 C 
ATOM      2  C   UNL     1      25.436 -14.950  28.915  1.00  0.00    -0.006 C 
ATOM      3  C   UNL     1      25.662 -14.485  30.362  1.00  0.00     0.008 C 
ATOM      4  C   UNL     1      27.108 -14.020  30.580  1.00  0.00     0.039 C 
ATOM      5  C   UNL     1      27.546 -12.980  29.556  1.00  0.00    -0.006 C 
ATOM      6  C   UNL     1      28.445 -12.004  29.878  1.00  0.00    -0.070 C 
ATOM      7  C   UNL     1      28.845 -10.933  28.888  1.00  0.00     0.039 C 
ATOM      8  C   UNL     1      29.055 -11.923  31.259  1.00  0.00     0.039 C 
ATOM      9  C   UNL     1      27.029 -13.168  28.168  1.00  0.00     0.159 C 
ATOM     10  O   UNL     1      27.708 -12.824  27.164  1.00  0.00    -0.295 OA
ATOM     11  C   UNL     1      25.678 -13.783  27.945  1.00  0.00     0.084 C 
ENDROOT
TORSDOF 0
ENDMDL
MODEL 7
REMARK VINA RESULT:    -5.604      1.949      3.824
REMARK INTER + INTRA:          -5.604
REMARK INTER:                  -5.604
REMARK INTRA:                   0.000
REMARK UNBOUND:                 0.000
REMARK SMILES CC(C)=C1CC[C@@H](C)CC1=O
REMARK SMILES IDX 8 1 7 2 6 3 5 4 4 5 2 6 1 7 3 8 10 9 11 10 9 11
REMARK H PARENT
REMARK Flexibility Score: inf
ROOT
ATOM      1  C   UNL     1      28.847 -11.116  25.814  1.00  0.00     0.008 C 
ATOM      2  C   UNL     1      28.766 -12.017  27.051  1.00  0.00    -0.006 C 
ATOM      3  C   UNL     1      27.379 -12.672  27.154  1.00  0.00     0.008 C 
ATOM      4  C   UNL     1      27.313 -13.657  28.329  1.00  0.00     0.039 C 
ATOM      5  C   UNL     1      27.762 -13.029  29.642  1.00  0.00    -0.006 C 
ATOM      6  C   UNL     1      27.226 -13.421  30.834  1.00  0.00    -0.070 C 
ATOM      7  C   UNL     1      27.623 -12.767  32.139  1.00  0.00     0.039 C 
ATOM      8  C   UNL     1      26.176 -14.506  30.904  1.00  0.00     0.039 C 
ATOM      9  C   UNL     1      28.894 -12.059  29.552  1.00  0.00     0.159 C 
ATOM     10  O   UNL     1      29.726 -11.935  30.489  1.00  0.00    -0.295 OA
ATOM     11  C   UNL     1      29.061 -11.210  28.325  1.00  0.00     0.084 C 
ENDROOT
TORSDOF 0
ENDMDL
MODEL 8
REMARK VINA RESULT:    -5.546      1.672      4.669
REMARK INTER + INTRA:          -5.546
REMARK INTER:                  -5.546
REMARK INTRA:                   0.000
REMARK UNBOUND:                 0.000
REMARK SMILES CC(C)=C1CC[C@@H](C)CC1=O
REMARK SMILES IDX 8 1 7 2 6 3 5 4 4 5 2 6 1 7 3 8 10 9 11 10 9 11
REMARK H PARENT
REMARK Flexibility Score: inf
ROOT
ATOM      1  C   UNL     1      31.641 -12.458  29.492  1.00  0.00     0.008 C 
ATOM      2  C   UNL     1      30.173 -12.495  29.932  1.00  0.00    -0.006 C 
ATOM      3  C   UNL     1      30.023 -13.272  31.250  1.00  0.00     0.008 C 
ATOM      4  C   UNL     1      28.576 -13.233  31.759  1.00  0.00     0.039 C 
ATOM      5  C   UNL     1      27.573 -13.676  30.701  1.00  0.00    -0.006 C 
ATOM      6  C   UNL     1      26.417 -14.315  31.044  1.00  0.00    -0.070 C 
ATOM      7  C   UNL     1      25.441 -14.810  30.001  1.00  0.00     0.039 C 
ATOM      8  C   UNL     1      26.075 -14.596  32.490  1.00  0.00     0.039 C 
ATOM      9  C   UNL     1      27.876 -13.266  29.298  1.00  0.00     0.159 C 
ATOM     10  O   UNL     1      26.956 -13.016  28.475  1.00  0.00    -0.295 OA
ATOM     11  C   UNL     1      29.301 -13.137  28.842  1.00  0.00     0.084 C 
ENDROOT
TORSDOF 0
ENDMDL
MODEL 9
REMARK VINA RESULT:    -5.350      2.023      3.315
REMARK INTER + INTRA:          -5.350
REMARK INTER:                  -5.350
REMARK INTRA:                   0.000
REMARK UNBOUND:                 0.000
REMARK SMILES CC(C)=C1CC[C@@H](C)CC1=O
REMARK SMILES IDX 8 1 7 2 6 3 5 4 4 5 2 6 1 7 3 8 10 9 11 10 9 11
REMARK H PARENT
REMARK Flexibility Score: inf
ROOT
ATOM      1  C   UNL     1      26.099 -14.760  32.521  1.00  0.00     0.008 C 
ATOM      2  C   UNL     1      27.107 -14.080  31.589  1.00  0.00    -0.006 C 
ATOM      3  C   UNL     1      27.496 -12.695  32.131  1.00  0.00     0.008 C 
ATOM      4  C   UNL     1      28.581 -12.041  31.264  1.00  0.00     0.039 C 
ATOM      5  C   UNL     1      28.207 -12.008  29.788  1.00  0.00    -0.006 C 
ATOM      6  C   UNL     1      28.627 -10.996  28.974  1.00  0.00    -0.070 C 
ATOM      7  C   UNL     1      28.216 -10.921  27.520  1.00  0.00     0.039 C 
ATOM      8  C   UNL     1      29.495  -9.875  29.498  1.00  0.00     0.039 C 
ATOM      9  C   UNL     1      27.463 -13.196  29.273  1.00  0.00     0.159 C 
ATOM     10  O   UNL     1      27.608 -13.595  28.087  1.00  0.00    -0.295 OA
ATOM     11  C   UNL     1      26.524 -13.945  30.174  1.00  0.00     0.084 C 
ENDROOT
TORSDOF 0
ENDMDL
