MODEL 1
REMARK VINA RESULT:    -5.559      0.000      0.000
REMARK INTER + INTRA:          -7.076
REMARK INTER:                  -6.697
REMARK INTRA:                  -0.379
REMARK UNBOUND:                -0.379
REMARK SMILES O=c1ccn([C@@H]2O[C@@H](CO)[C@H](O)[C@H]2O)c(=O)[nH]1
REMARK SMILES IDX 6 1 13 2 11 3 8 4 7 5 5 6 3 7 4 8 2 9 17 10 1 11 15 12 16 14
REMARK SMILES IDX 14 15 12 17 9 19 10 20
REMARK H PARENT 17 13 14 16 12 18 10 21
REMARK Flexibility Score: inf
ROOT
ATOM      1  C   UNL     1      32.888  19.484 -19.895  1.00  0.00     0.255 C 
ATOM      2  C   UNL     1      32.045  20.689 -20.311  1.00  0.00     0.196 C 
ATOM      3  C   UNL     1      32.983  21.843 -20.078  1.00  0.00     0.179 C 
ATOM      4  C   UNL     1      33.851  21.319 -18.930  1.00  0.00     0.178 C 
ATOM      5  O   UNL     1      33.842  19.905 -18.942  1.00  0.00    -0.347 OA
ENDROOT
BRANCH   1   6
ATOM      6  N   UNL     1      32.033  18.412 -19.343  1.00  0.00    -0.271 N 
ATOM      7  C   UNL     1      30.007  17.740 -18.246  1.00  0.00     0.090 A 
ATOM      8  C   UNL     1      30.843  18.734 -18.749  1.00  0.00     0.099 A 
ATOM      9  C   UNL     1      30.400  16.412 -18.374  1.00  0.00     0.253 A 
ATOM     10  N   UNL     1      31.575  16.111 -18.986  1.00  0.00    -0.274 N 
ATOM     11  O   UNL     1      29.664  15.491 -17.928  1.00  0.00    -0.269 OA
ATOM     12  C   UNL     1      32.386  17.091 -19.476  1.00  0.00     0.330 A 
ATOM     13  H   UNL     1      31.859  15.110 -19.088  1.00  0.00     0.175 HD
ATOM     14  O   UNL     1      33.458  16.766 -20.056  1.00  0.00    -0.248 OA
ENDBRANCH   1   6
BRANCH   2  15
ATOM     15  O   UNL     1      31.601  20.609 -21.645  1.00  0.00    -0.386 OA
ATOM     16  H   UNL     1      31.515  19.650 -21.890  1.00  0.00     0.211 HD
ENDBRANCH   2  15
BRANCH   3  17
ATOM     17  O   UNL     1      32.270  22.992 -19.703  1.00  0.00    -0.387 OA
ATOM     18  H   UNL     1      32.195  22.965 -18.714  1.00  0.00     0.211 HD
ENDBRANCH   3  17
BRANCH   4  19
ATOM     19  C   UNL     1      35.294  21.838 -18.999  1.00  0.00     0.191 C 
BRANCH  19  20
ATOM     20  O   UNL     1      35.498  22.892 -18.095  1.00  0.00    -0.394 OA
ATOM     21  H   UNL     1      35.199  23.721 -18.551  1.00  0.00     0.210 HD
ENDBRANCH  19  20
ENDBRANCH   4  19
TORSDOF 5
ENDMDL
MODEL 2
REMARK VINA RESULT:    -5.503      7.533     10.631
REMARK INTER + INTRA:          -7.009
REMARK INTER:                  -6.630
REMARK INTRA:                  -0.379
REMARK UNBOUND:                -0.379
REMARK SMILES O=c1ccn([C@@H]2O[C@@H](CO)[C@H](O)[C@H]2O)c(=O)[nH]1
REMARK SMILES IDX 6 1 13 2 11 3 8 4 7 5 5 6 3 7 4 8 2 9 17 10 1 11 15 12 16 14
REMARK SMILES IDX 14 15 12 17 9 19 10 20
REMARK H PARENT 17 13 14 16 12 18 10 21
REMARK Flexibility Score: inf
ROOT
ATOM      1  C   UNL     1      32.917  10.579 -22.230  1.00  0.00     0.255 C 
ATOM      2  C   UNL     1      31.968   9.528 -21.656  1.00  0.00     0.196 C 
ATOM      3  C   UNL     1      32.786   8.268 -21.735  1.00  0.00     0.179 C 
ATOM      4  C   UNL     1      33.684   8.548 -22.943  1.00  0.00     0.178 C 
ATOM      5  O   UNL     1      33.812   9.944 -23.120  1.00  0.00    -0.347 OA
ENDROOT
BRANCH   1   6
ATOM      6  N   UNL     1      32.163  11.647 -22.919  1.00  0.00    -0.271 N 
ATOM      7  C   UNL     1      30.459  12.301 -24.478  1.00  0.00     0.090 A 
ATOM      8  C   UNL     1      31.203  11.314 -23.837  1.00  0.00     0.099 A 
ATOM      9  C   UNL     1      30.700  13.632 -24.155  1.00  0.00     0.253 A 
ATOM     10  N   UNL     1      31.641  13.942 -23.225  1.00  0.00    -0.274 N 
ATOM     11  O   UNL     1      30.043  14.547 -24.720  1.00  0.00    -0.269 OA
ATOM     12  C   UNL     1      32.364  12.969 -22.603  1.00  0.00     0.330 A 
ATOM     13  H   UNL     1      31.811  14.945 -22.981  1.00  0.00     0.175 HD
ATOM     14  O   UNL     1      33.213  13.299 -21.730  1.00  0.00    -0.248 OA
ENDBRANCH   1   6
BRANCH   2  15
ATOM     15  O   UNL     1      31.552   9.827 -20.344  1.00  0.00    -0.386 OA
ATOM     16  H   UNL     1      31.909  10.721 -20.098  1.00  0.00     0.211 HD
ENDBRANCH   2  15
BRANCH   3  17
ATOM     17  O   UNL     1      31.960   7.155 -21.952  1.00  0.00    -0.387 OA
ATOM     18  H   UNL     1      32.116   6.537 -21.192  1.00  0.00     0.211 HD
ENDBRANCH   3  17
BRANCH   4  19
ATOM     19  C   UNL     1      35.071   7.903 -22.809  1.00  0.00     0.191 C 
BRANCH  19  20
ATOM     20  O   UNL     1      35.361   7.087 -23.913  1.00  0.00    -0.394 OA
ATOM     21  H   UNL     1      36.015   6.408 -23.603  1.00  0.00     0.210 HD
ENDBRANCH  19  20
ENDBRANCH   4  19
TORSDOF 5
ENDMDL
MODEL 3
REMARK VINA RESULT:    -5.395     12.211     14.181
REMARK INTER + INTRA:          -6.879
REMARK INTER:                  -6.350
REMARK INTRA:                  -0.529
REMARK UNBOUND:                -0.379
REMARK SMILES O=c1ccn([C@@H]2O[C@@H](CO)[C@H](O)[C@H]2O)c(=O)[nH]1
REMARK SMILES IDX 6 1 13 2 11 3 8 4 7 5 5 6 3 7 4 8 2 9 17 10 1 11 15 12 16 14
REMARK SMILES IDX 14 15 12 17 9 19 10 20
REMARK H PARENT 17 13 14 16 12 18 10 21
REMARK Flexibility Score: inf
ROOT
ATOM      1  C   UNL     1      43.692  13.058 -21.963  1.00  0.00     0.255 C 
ATOM      2  C   UNL     1      42.643  12.964 -23.070  1.00  0.00     0.196 C 
ATOM      3  C   UNL     1      43.036  11.701 -23.789  1.00  0.00     0.179 C 
ATOM      4  C   UNL     1      44.549  11.661 -23.556  1.00  0.00     0.178 C 
ATOM      5  O   UNL     1      44.865  12.397 -22.391  1.00  0.00    -0.347 OA
ENDROOT
BRANCH   1   6
ATOM      6  N   UNL     1      43.978  14.470 -21.630  1.00  0.00    -0.271 N 
ATOM      7  C   UNL     1      43.931  16.790 -22.242  1.00  0.00     0.090 A 
ATOM      8  C   UNL     1      43.697  15.450 -22.543  1.00  0.00     0.099 A 
ATOM      9  C   UNL     1      44.442  17.112 -20.989  1.00  0.00     0.253 A 
ATOM     10  N   UNL     1      44.694  16.126 -20.089  1.00  0.00    -0.274 N 
ATOM     11  O   UNL     1      44.665  18.315 -20.689  1.00  0.00    -0.269 OA
ATOM     12  C   UNL     1      44.461  14.818 -20.392  1.00  0.00     0.330 A 
ATOM     13  H   UNL     1      45.070  16.376 -19.145  1.00  0.00     0.175 HD
ATOM     14  O   UNL     1      44.690  13.936 -19.520  1.00  0.00    -0.248 OA
ENDBRANCH   1   6
BRANCH   2  15
ATOM     15  O   UNL     1      41.326  12.921 -22.572  1.00  0.00    -0.386 OA
ATOM     16  H   UNL     1      41.368  12.806 -21.587  1.00  0.00     0.211 HD
ENDBRANCH   2  15
BRANCH   3  17
ATOM     17  O   UNL     1      42.725  11.791 -25.154  1.00  0.00    -0.387 OA
ATOM     18  H   UNL     1      42.396  10.896 -25.427  1.00  0.00     0.211 HD
ENDBRANCH   3  17
BRANCH   4  19
ATOM     19  C   UNL     1      45.089  10.229 -23.439  1.00  0.00     0.191 C 
BRANCH  19  20
ATOM     20  O   UNL     1      44.415   9.359 -24.309  1.00  0.00    -0.394 OA
ATOM     21  H   UNL     1      44.453   9.770 -25.211  1.00  0.00     0.210 HD
ENDBRANCH  19  20
ENDBRANCH   4  19
TORSDOF 5
ENDMDL
MODEL 4
REMARK VINA RESULT:    -5.246      3.011      5.441
REMARK INTER + INTRA:          -6.699
REMARK INTER:                  -6.031
REMARK INTRA:                  -0.668
REMARK UNBOUND:                -0.379
REMARK SMILES O=c1ccn([C@@H]2O[C@@H](CO)[C@H](O)[C@H]2O)c(=O)[nH]1
REMARK SMILES IDX 6 1 13 2 11 3 8 4 7 5 5 6 3 7 4 8 2 9 17 10 1 11 15 12 16 14
REMARK SMILES IDX 14 15 12 17 9 19 10 20
REMARK H PARENT 17 13 14 16 12 18 10 21
REMARK Flexibility Score: inf
ROOT
ATOM      1  C   UNL     1      31.349  19.057 -18.340  1.00  0.00     0.255 C 
ATOM      2  C   UNL     1      32.737  18.588 -18.774  1.00  0.00     0.196 C 
ATOM      3  C   UNL     1      32.433  17.340 -19.558  1.00  0.00     0.179 C 
ATOM      4  C   UNL     1      31.151  16.845 -18.880  1.00  0.00     0.178 C 
ATOM      5  O   UNL     1      30.494  17.935 -18.266  1.00  0.00    -0.347 OA
ENDROOT
BRANCH   1   6
ATOM      6  N   UNL     1      31.414  19.754 -17.038  1.00  0.00    -0.271 N 
ATOM      7  C   UNL     1      31.347  19.667 -14.641  1.00  0.00     0.090 A 
ATOM      8  C   UNL     1      31.261  19.039 -15.880  1.00  0.00     0.099 A 
ATOM      9  C   UNL     1      31.606  21.033 -14.602  1.00  0.00     0.253 A 
ATOM     10  N   UNL     1      31.776  21.721 -15.761  1.00  0.00    -0.274 N 
ATOM     11  O   UNL     1      31.688  21.628 -13.495  1.00  0.00    -0.269 OA
ATOM     12  C   UNL     1      31.692  21.097 -16.970  1.00  0.00     0.330 A 
ATOM     13  H   UNL     1      31.980  22.746 -15.725  1.00  0.00     0.175 HD
ATOM     14  O   UNL     1      31.877  21.770 -18.021  1.00  0.00    -0.248 OA
ENDBRANCH   1   6
BRANCH   2  15
ATOM     15  O   UNL     1      33.427  19.554 -19.533  1.00  0.00    -0.386 OA
ATOM     16  H   UNL     1      33.714  20.284 -18.924  1.00  0.00     0.211 HD
ENDBRANCH   2  15
BRANCH   3  17
ATOM     17  O   UNL     1      33.476  16.410 -19.431  1.00  0.00    -0.387 OA
ATOM     18  H   UNL     1      33.446  15.842 -20.245  1.00  0.00     0.211 HD
ENDBRANCH   3  17
BRANCH   4  19
ATOM     19  C   UNL     1      30.202  16.140 -19.859  1.00  0.00     0.191 C 
BRANCH  19  20
ATOM     20  O   UNL     1      30.913  15.346 -20.772  1.00  0.00    -0.394 OA
ATOM     21  H   UNL     1      31.537  14.787 -20.241  1.00  0.00     0.210 HD
ENDBRANCH  19  20
ENDBRANCH   4  19
TORSDOF 5
ENDMDL
MODEL 5
REMARK VINA RESULT:    -5.143      8.739      9.957
REMARK INTER + INTRA:          -6.574
REMARK INTER:                  -6.241
REMARK INTRA:                  -0.333
REMARK UNBOUND:                -0.379
REMARK SMILES O=c1ccn([C@@H]2O[C@@H](CO)[C@H](O)[C@H]2O)c(=O)[nH]1
REMARK SMILES IDX 6 1 13 2 11 3 8 4 7 5 5 6 3 7 4 8 2 9 17 10 1 11 15 12 16 14
REMARK SMILES IDX 14 15 12 17 9 19 10 20
REMARK H PARENT 17 13 14 16 12 18 10 21
REMARK Flexibility Score: inf
ROOT
ATOM      1  C   UNL     1      30.654  11.374 -24.654  1.00  0.00     0.255 C 
ATOM      2  C   UNL     1      30.002  12.636 -24.091  1.00  0.00     0.196 C 
ATOM      3  C   UNL     1      29.708  13.436 -25.331  1.00  0.00     0.179 C 
ATOM      4  C   UNL     1      30.820  12.975 -26.277  1.00  0.00     0.178 C 
ATOM      5  O   UNL     1      31.267  11.692 -25.887  1.00  0.00    -0.347 OA
ENDROOT
BRANCH   1   6
ATOM      6  N   UNL     1      31.645  10.826 -23.703  1.00  0.00    -0.271 N 
ATOM      7  C   UNL     1      33.085  11.135 -21.808  1.00  0.00     0.090 A 
ATOM      8  C   UNL     1      32.172  11.636 -22.733  1.00  0.00     0.099 A 
ATOM      9  C   UNL     1      33.437   9.792 -21.880  1.00  0.00     0.253 A 
ATOM     10  N   UNL     1      32.887   8.999 -22.837  1.00  0.00    -0.274 N 
ATOM     11  O   UNL     1      34.262   9.311 -21.057  1.00  0.00    -0.269 OA
ATOM     12  C   UNL     1      31.993   9.498 -23.737  1.00  0.00     0.330 A 
ATOM     13  H   UNL     1      33.149   7.988 -22.879  1.00  0.00     0.175 HD
ATOM     14  O   UNL     1      31.490   8.722 -24.595  1.00  0.00    -0.248 OA
ENDBRANCH   1   6
BRANCH   2  15
ATOM     15  O   UNL     1      28.848  12.362 -23.332  1.00  0.00    -0.386 OA
ATOM     16  H   UNL     1      29.131  12.016 -22.445  1.00  0.00     0.211 HD
ENDBRANCH   2  15
BRANCH   3  17
ATOM     17  O   UNL     1      29.794  14.811 -25.064  1.00  0.00    -0.387 OA
ATOM     18  H   UNL     1      30.221  15.225 -25.859  1.00  0.00     0.211 HD
ENDBRANCH   3  17
BRANCH   4  19
ATOM     19  C   UNL     1      30.373  12.954 -27.746  1.00  0.00     0.191 C 
BRANCH  19  20
ATOM     20  O   UNL     1      30.976  13.991 -28.475  1.00  0.00    -0.394 OA
ATOM     21  H   UNL     1      31.949  13.946 -28.285  1.00  0.00     0.210 HD
ENDBRANCH  19  20
ENDBRANCH   4  19
TORSDOF 5
ENDMDL
MODEL 6
REMARK VINA RESULT:    -5.106     12.927     14.875
REMARK INTER + INTRA:          -6.531
REMARK INTER:                  -5.863
REMARK INTRA:                  -0.668
REMARK UNBOUND:                -0.379
REMARK SMILES O=c1ccn([C@@H]2O[C@@H](CO)[C@H](O)[C@H]2O)c(=O)[nH]1
REMARK SMILES IDX 6 1 13 2 11 3 8 4 7 5 5 6 3 7 4 8 2 9 17 10 1 11 15 12 16 14
REMARK SMILES IDX 14 15 12 17 9 19 10 20
REMARK H PARENT 17 13 14 16 12 18 10 21
REMARK Flexibility Score: inf
ROOT
ATOM      1  C   UNL     1      43.017  12.202 -23.880  1.00  0.00     0.255 C 
ATOM      2  C   UNL     1      44.039  12.397 -24.998  1.00  0.00     0.196 C 
ATOM      3  C   UNL     1      43.722  11.263 -25.936  1.00  0.00     0.179 C 
ATOM      4  C   UNL     1      43.174  10.203 -24.976  1.00  0.00     0.178 C 
ATOM      5  O   UNL     1      42.668  10.834 -23.818  1.00  0.00    -0.347 OA
ENDROOT
BRANCH   1   6
ATOM      6  N   UNL     1      43.561  12.663 -22.585  1.00  0.00    -0.271 N 
ATOM      7  C   UNL     1      44.782  12.201 -20.572  1.00  0.00     0.090 A 
ATOM      8  C   UNL     1      44.236  11.783 -21.783  1.00  0.00     0.099 A 
ATOM      9  C   UNL     1      44.642  13.534 -20.202  1.00  0.00     0.253 A 
ATOM     10  N   UNL     1      43.987  14.397 -21.022  1.00  0.00    -0.274 N 
ATOM     11  O   UNL     1      45.125  13.939 -19.111  1.00  0.00    -0.269 OA
ATOM     12  C   UNL     1      43.457  13.979 -22.205  1.00  0.00     0.330 A 
ATOM     13  H   UNL     1      43.893  15.400 -20.742  1.00  0.00     0.175 HD
ATOM     14  O   UNL     1      42.875  14.818 -22.947  1.00  0.00    -0.248 OA
ENDBRANCH   1   6
BRANCH   2  15
ATOM     15  O   UNL     1      43.938  13.659 -25.615  1.00  0.00    -0.386 OA
ATOM     16  H   UNL     1      44.659  14.241 -25.258  1.00  0.00     0.211 HD
ENDBRANCH   2  15
BRANCH   3  17
ATOM     17  O   UNL     1      44.884  10.821 -26.587  1.00  0.00    -0.387 OA
ATOM     18  H   UNL     1      45.313  10.164 -25.979  1.00  0.00     0.211 HD
ENDBRANCH   3  17
BRANCH   4  19
ATOM     19  C   UNL     1      42.087   9.331 -25.621  1.00  0.00     0.191 C 
BRANCH  19  20
ATOM     20  O   UNL     1      42.411   9.014 -26.948  1.00  0.00    -0.394 OA
ATOM     21  H   UNL     1      42.062   9.751 -27.513  1.00  0.00     0.210 HD
ENDBRANCH  19  20
ENDBRANCH   4  19
TORSDOF 5
ENDMDL
MODEL 7
REMARK VINA RESULT:    -5.093      1.701      2.449
REMARK INTER + INTRA:          -6.515
REMARK INTER:                  -5.941
REMARK INTRA:                  -0.574
REMARK UNBOUND:                -0.379
REMARK SMILES O=c1ccn([C@@H]2O[C@@H](CO)[C@H](O)[C@H]2O)c(=O)[nH]1
REMARK SMILES IDX 6 1 13 2 11 3 8 4 7 5 5 6 3 7 4 8 2 9 17 10 1 11 15 12 16 14
REMARK SMILES IDX 14 15 12 17 9 19 10 20
REMARK H PARENT 17 13 14 16 12 18 10 21
REMARK Flexibility Score: inf
ROOT
ATOM      1  C   UNL     1      31.931  18.437 -18.303  1.00  0.00     0.255 C 
ATOM      2  C   UNL     1      32.569  18.568 -19.685  1.00  0.00     0.196 C 
ATOM      3  C   UNL     1      33.092  19.979 -19.674  1.00  0.00     0.179 C 
ATOM      4  C   UNL     1      32.106  20.676 -18.733  1.00  0.00     0.178 C 
ATOM      5  O   UNL     1      31.528  19.720 -17.866  1.00  0.00    -0.347 OA
ENDROOT
BRANCH   1   6
ATOM      6  N   UNL     1      30.779  17.512 -18.342  1.00  0.00    -0.271 N 
ATOM      7  C   UNL     1      28.664  16.880 -19.283  1.00  0.00     0.090 A 
ATOM      8  C   UNL     1      29.746  17.753 -19.208  1.00  0.00     0.099 A 
ATOM      9  C   UNL     1      28.661  15.750 -18.472  1.00  0.00     0.253 A 
ATOM     10  N   UNL     1      29.705  15.517 -17.635  1.00  0.00    -0.274 N 
ATOM     11  O   UNL     1      27.694  14.943 -18.519  1.00  0.00    -0.269 OA
ATOM     12  C   UNL     1      30.761  16.376 -17.569  1.00  0.00     0.330 A 
ATOM     13  H   UNL     1      29.701  14.661 -17.035  1.00  0.00     0.175 HD
ATOM     14  O   UNL     1      31.720  16.111 -16.793  1.00  0.00    -0.248 OA
ENDBRANCH   1   6
BRANCH   2  15
ATOM     15  O   UNL     1      33.580  17.613 -19.911  1.00  0.00    -0.386 OA
ATOM     16  H   UNL     1      34.082  17.482 -19.065  1.00  0.00     0.211 HD
ENDBRANCH   2  15
BRANCH   3  17
ATOM     17  O   UNL     1      33.053  20.531 -20.964  1.00  0.00    -0.387 OA
ATOM     18  H   UNL     1      33.683  19.999 -21.515  1.00  0.00     0.211 HD
ENDBRANCH   3  17
BRANCH   4  19
ATOM     19  C   UNL     1      32.763  21.798 -17.917  1.00  0.00     0.191 C 
BRANCH  19  20
ATOM     20  O   UNL     1      34.025  22.129 -18.434  1.00  0.00    -0.394 OA
ATOM     21  H   UNL     1      34.401  22.831 -17.842  1.00  0.00     0.210 HD
ENDBRANCH  19  20
ENDBRANCH   4  19
TORSDOF 5
ENDMDL
MODEL 8
REMARK VINA RESULT:    -5.065      8.632     10.266
REMARK INTER + INTRA:          -6.481
REMARK INTER:                  -5.844
REMARK INTRA:                  -0.637
REMARK UNBOUND:                -0.379
REMARK SMILES O=c1ccn([C@@H]2O[C@@H](CO)[C@H](O)[C@H]2O)c(=O)[nH]1
REMARK SMILES IDX 6 1 13 2 11 3 8 4 7 5 5 6 3 7 4 8 2 9 17 10 1 11 15 12 16 14
REMARK SMILES IDX 14 15 12 17 9 19 10 20
REMARK H PARENT 17 13 14 16 12 18 10 21
REMARK Flexibility Score: inf
ROOT
ATOM      1  C   UNL     1      30.361  12.070 -24.628  1.00  0.00     0.255 C 
ATOM      2  C   UNL     1      31.328  13.042 -25.303  1.00  0.00     0.196 C 
ATOM      3  C   UNL     1      30.563  13.472 -26.525  1.00  0.00     0.179 C 
ATOM      4  C   UNL     1      29.701  12.239 -26.810  1.00  0.00     0.178 C 
ATOM      5  O   UNL     1      29.525  11.503 -25.616  1.00  0.00    -0.347 OA
ENDROOT
BRANCH   1   6
ATOM      6  N   UNL     1      31.099  11.017 -23.899  1.00  0.00    -0.271 N 
ATOM      7  C   UNL     1      32.070   8.823 -23.856  1.00  0.00     0.090 A 
ATOM      8  C   UNL     1      31.352   9.820 -24.512  1.00  0.00     0.099 A 
ATOM      9  C   UNL     1      32.539   9.075 -22.571  1.00  0.00     0.253 A 
ATOM     10  N   UNL     1      32.297  10.278 -21.988  1.00  0.00    -0.274 N 
ATOM     11  O   UNL     1      33.191   8.191 -21.953  1.00  0.00    -0.269 OA
ATOM     12  C   UNL     1      31.594  11.248 -22.638  1.00  0.00     0.330 A 
ATOM     13  H   UNL     1      32.660  10.464 -21.025  1.00  0.00     0.175 HD
ATOM     14  O   UNL     1      31.409  12.358 -22.068  1.00  0.00    -0.248 OA
ENDBRANCH   1   6
BRANCH   2  15
ATOM     15  O   UNL     1      31.682  14.124 -24.472  1.00  0.00    -0.386 OA
ATOM     16  H   UNL     1      31.877  13.771 -23.565  1.00  0.00     0.211 HD
ENDBRANCH   2  15
BRANCH   3  17
ATOM     17  O   UNL     1      31.439  13.746 -27.586  1.00  0.00    -0.387 OA
ATOM     18  H   UNL     1      32.035  12.957 -27.669  1.00  0.00     0.211 HD
ENDBRANCH   3  17
BRANCH   4  19
ATOM     19  C   UNL     1      28.336  12.600 -27.412  1.00  0.00     0.191 C 
BRANCH  19  20
ATOM     20  O   UNL     1      28.353  13.888 -27.971  1.00  0.00    -0.394 OA
ATOM     21  H   UNL     1      27.643  13.908 -28.665  1.00  0.00     0.210 HD
ENDBRANCH  19  20
ENDBRANCH   4  19
TORSDOF 5
ENDMDL
MODEL 9
REMARK VINA RESULT:    -4.973      7.898      9.744
REMARK INTER + INTRA:          -6.370
REMARK INTER:                  -5.794
REMARK INTRA:                  -0.576
REMARK UNBOUND:                -0.379
REMARK SMILES O=c1ccn([C@@H]2O[C@@H](CO)[C@H](O)[C@H]2O)c(=O)[nH]1
REMARK SMILES IDX 6 1 13 2 11 3 8 4 7 5 5 6 3 7 4 8 2 9 17 10 1 11 15 12 16 14
REMARK SMILES IDX 14 15 12 17 9 19 10 20
REMARK H PARENT 17 13 14 16 12 18 10 21
REMARK Flexibility Score: inf
ROOT
ATOM      1  C   UNL     1      31.636  12.016 -23.756  1.00  0.00     0.255 C 
ATOM      2  C   UNL     1      32.072  11.881 -22.298  1.00  0.00     0.196 C 
ATOM      3  C   UNL     1      32.613  10.478 -22.245  1.00  0.00     0.179 C 
ATOM      4  C   UNL     1      31.783   9.777 -23.324  1.00  0.00     0.178 C 
ATOM      5  O   UNL     1      31.320  10.733 -24.256  1.00  0.00    -0.347 OA
ENDROOT
BRANCH   1   6
ATOM      6  N   UNL     1      30.476  12.925 -23.876  1.00  0.00    -0.271 N 
ATOM      7  C   UNL     1      28.265  13.557 -23.190  1.00  0.00     0.090 A 
ATOM      8  C   UNL     1      29.359  12.699 -23.117  1.00  0.00     0.099 A 
ATOM      9  C   UNL     1      28.336  14.657 -24.039  1.00  0.00     0.253 A 
ATOM     10  N   UNL     1      29.461  14.876 -24.768  1.00  0.00    -0.274 N 
ATOM     11  O   UNL     1      27.360  15.449 -24.127  1.00  0.00    -0.269 OA
ATOM     12  C   UNL     1      30.528  14.031 -24.689  1.00  0.00     0.330 A 
ATOM     13  H   UNL     1      29.511  15.709 -25.397  1.00  0.00     0.175 HD
ATOM     14  O   UNL     1      31.561  14.283 -25.367  1.00  0.00    -0.248 OA
ENDBRANCH   1   6
BRANCH   2  15
ATOM     15  O   UNL     1      33.024  12.848 -21.922  1.00  0.00    -0.386 OA
ATOM     16  H   UNL     1      33.115  13.503 -22.663  1.00  0.00     0.211 HD
ENDBRANCH   2  15
BRANCH   3  17
ATOM     17  O   UNL     1      32.398   9.913 -20.979  1.00  0.00    -0.387 OA
ATOM     18  H   UNL     1      33.238   9.445 -20.735  1.00  0.00     0.211 HD
ENDBRANCH   3  17
BRANCH   4  19
ATOM     19  C   UNL     1      32.568   8.672 -24.046  1.00  0.00     0.191 C 
BRANCH  19  20
ATOM     20  O   UNL     1      33.380   7.959 -23.151  1.00  0.00    -0.394 OA
ATOM     21  H   UNL     1      34.259   8.420 -23.133  1.00  0.00     0.210 HD
ENDBRANCH  19  20
ENDBRANCH   4  19
TORSDOF 5
ENDMDL
