MODEL 1
REMARK VINA RESULT:    -6.314      0.000      0.000
REMARK INTER + INTRA:         -10.134
REMARK INTER:                  -9.637
REMARK INTRA:                  -0.498
REMARK UNBOUND:                -0.498
REMARK SMILES O=C([O-])CCCCCCCCC(=O)[O-]
REMARK SMILES IDX 7 1 6 2 5 3 4 4 2 5 1 6 3 7 8 8 9 9 10 10 11 11 12 12 13 13
REMARK SMILES IDX 14 14
REMARK H PARENT
REMARK Flexibility Score: inf
ROOT
ATOM      1  C   UNL     1     -22.107 -21.618  30.796  1.00  0.00     0.000 C 
ENDROOT
BRANCH   1   2
ATOM      2  C   UNL     1     -22.312 -20.857  29.477  1.00  0.00     0.000 C 
BRANCH   2   3
ATOM      3  C   UNL     1     -21.285 -19.734  29.274  1.00  0.00     0.006 C 
BRANCH   3   4
ATOM      4  C   UNL     1     -20.766 -19.215  30.619  1.00  0.00     0.053 C 
BRANCH   4   5
ATOM      5  C   UNL     1     -19.469 -18.492  30.437  1.00  0.00     0.041 C 
ATOM      6  O   UNL     1     -18.824 -18.608  29.363  1.00  0.00    -0.550 OA
ATOM      7  O   UNL     1     -18.996 -17.651  31.437  1.00  0.00    -0.550 OA
ENDBRANCH   4   5
ENDBRANCH   3   4
ENDBRANCH   2   3
ENDBRANCH   1   2
BRANCH   1   8
ATOM      8  C   UNL     1     -22.071 -23.142  30.601  1.00  0.00     0.000 C 
BRANCH   8   9
ATOM      9  C   UNL     1     -21.992 -23.501  29.113  1.00  0.00     0.000 C 
BRANCH   9  10
ATOM     10  C   UNL     1     -23.009 -24.591  28.754  1.00  0.00     0.006 C 
BRANCH  10  11
ATOM     11  C   UNL     1     -23.528 -25.295  30.010  1.00  0.00     0.053 C 
BRANCH  11  12
ATOM     12  C   UNL     1     -24.231 -26.564  29.648  1.00  0.00     0.041 C 
ATOM     13  O   UNL     1     -24.284 -26.939  28.447  1.00  0.00    -0.550 OA
ATOM     14  O   UNL     1     -24.872 -27.310  30.630  1.00  0.00    -0.550 OA
ENDBRANCH  11  12
ENDBRANCH  10  11
ENDBRANCH   9  10
ENDBRANCH   8   9
ENDBRANCH   1   8
TORSDOF 9
ENDMDL
MODEL 2
REMARK VINA RESULT:    -6.293      1.166      7.776
REMARK INTER + INTRA:         -10.102
REMARK INTER:                  -9.732
REMARK INTRA:                  -0.369
REMARK UNBOUND:                -0.498
REMARK SMILES O=C([O-])CCCCCCCCC(=O)[O-]
REMARK SMILES IDX 7 1 6 2 5 3 4 4 2 5 1 6 3 7 8 8 9 9 10 10 11 11 12 12 13 13
REMARK SMILES IDX 14 14
REMARK H PARENT
REMARK Flexibility Score: inf
ROOT
ATOM      1  C   UNL     1     -21.754 -21.033  30.781  1.00  0.00     0.000 C 
ENDROOT
BRANCH   1   2
ATOM      2  C   UNL     1     -22.346 -22.340  31.331  1.00  0.00     0.000 C 
BRANCH   2   3
ATOM      3  C   UNL     1     -22.218 -23.510  30.344  1.00  0.00     0.006 C 
BRANCH   3   4
ATOM      4  C   UNL     1     -23.202 -24.631  30.693  1.00  0.00     0.053 C 
BRANCH   4   5
ATOM      5  C   UNL     1     -23.502 -25.460  29.484  1.00  0.00     0.041 C 
ATOM      6  O   UNL     1     -23.239 -25.022  28.334  1.00  0.00    -0.550 OA
ATOM      7  O   UNL     1     -24.029 -26.737  29.630  1.00  0.00    -0.550 OA
ENDBRANCH   4   5
ENDBRANCH   3   4
ENDBRANCH   2   3
ENDBRANCH   1   2
BRANCH   1   8
ATOM      8  C   UNL     1     -21.994 -20.863  29.273  1.00  0.00     0.000 C 
BRANCH   8   9
ATOM      9  C   UNL     1     -21.225 -19.653  28.728  1.00  0.00     0.000 C 
BRANCH   9  10
ATOM     10  C   UNL     1     -20.729 -18.757  29.868  1.00  0.00     0.006 C 
BRANCH  10  11
ATOM     11  C   UNL     1     -19.700 -17.742  29.362  1.00  0.00     0.053 C 
BRANCH  11  12
ATOM     12  C   UNL     1     -18.966 -17.122  30.509  1.00  0.00     0.041 C 
ATOM     13  O   UNL     1     -19.040 -17.632  31.658  1.00  0.00    -0.550 OA
ATOM     14  O   UNL     1     -18.239 -15.953  30.320  1.00  0.00    -0.550 OA
ENDBRANCH  11  12
ENDBRANCH  10  11
ENDBRANCH   9  10
ENDBRANCH   8   9
ENDBRANCH   1   8
TORSDOF 9
ENDMDL
MODEL 3
REMARK VINA RESULT:    -6.284      0.099      7.604
REMARK INTER + INTRA:         -10.089
REMARK INTER:                  -9.601
REMARK INTRA:                  -0.488
REMARK UNBOUND:                -0.498
REMARK SMILES O=C([O-])CCCCCCCCC(=O)[O-]
REMARK SMILES IDX 7 1 6 2 5 3 4 4 2 5 1 6 3 7 8 8 9 9 10 10 11 11 12 12 13 13
REMARK SMILES IDX 14 14
REMARK H PARENT
REMARK Flexibility Score: inf
ROOT
ATOM      1  C   UNL     1     -22.107 -23.159  30.627  1.00  0.00     0.000 C 
ENDROOT
BRANCH   1   2
ATOM      2  C   UNL     1     -22.086 -23.517  29.133  1.00  0.00     0.000 C 
BRANCH   2   3
ATOM      3  C   UNL     1     -23.078 -24.634  28.777  1.00  0.00     0.006 C 
BRANCH   3   4
ATOM      4  C   UNL     1     -23.692 -25.245  30.040  1.00  0.00     0.053 C 
BRANCH   4   5
ATOM      5  C   UNL     1     -24.305 -26.575  29.734  1.00  0.00     0.041 C 
ATOM      6  O   UNL     1     -24.807 -27.268  30.657  1.00  0.00    -0.550 OA
ATOM      7  O   UNL     1     -24.368 -27.027  28.422  1.00  0.00    -0.550 OA
ENDBRANCH   4   5
ENDBRANCH   3   4
ENDBRANCH   2   3
ENDBRANCH   1   2
BRANCH   1   8
ATOM      8  C   UNL     1     -22.043 -21.643  30.873  1.00  0.00     0.000 C 
BRANCH   8   9
ATOM      9  C   UNL     1     -22.338 -20.866  29.585  1.00  0.00     0.000 C 
BRANCH   9  10
ATOM     10  C   UNL     1     -21.290 -19.772  29.348  1.00  0.00     0.006 C 
BRANCH  10  11
ATOM     11  C   UNL     1     -20.777 -19.205  30.674  1.00  0.00     0.053 C 
BRANCH  11  12
ATOM     12  C   UNL     1     -19.506 -18.444  30.463  1.00  0.00     0.041 C 
ATOM     13  O   UNL     1     -18.823 -18.629  29.422  1.00  0.00    -0.550 OA
ATOM     14  O   UNL     1     -19.050 -17.566  31.439  1.00  0.00    -0.550 OA
ENDBRANCH  11  12
ENDBRANCH  10  11
ENDBRANCH   9  10
ENDBRANCH   8   9
ENDBRANCH   1   8
TORSDOF 9
ENDMDL
MODEL 4
REMARK VINA RESULT:    -6.275      0.732      1.400
REMARK INTER + INTRA:         -10.074
REMARK INTER:                  -9.590
REMARK INTRA:                  -0.484
REMARK UNBOUND:                -0.498
REMARK SMILES O=C([O-])CCCCCCCCC(=O)[O-]
REMARK SMILES IDX 7 1 6 2 5 3 4 4 2 5 1 6 3 7 8 8 9 9 10 10 11 11 12 12 13 13
REMARK SMILES IDX 14 14
REMARK H PARENT
REMARK Flexibility Score: inf
ROOT
ATOM      1  C   UNL     1     -22.077 -21.464  30.409  1.00  0.00     0.000 C 
ENDROOT
BRANCH   1   2
ATOM      2  C   UNL     1     -22.037 -20.836  29.007  1.00  0.00     0.000 C 
BRANCH   2   3
ATOM      3  C   UNL     1     -21.256 -19.515  28.972  1.00  0.00     0.006 C 
BRANCH   3   4
ATOM      4  C   UNL     1     -20.813 -19.101  30.378  1.00  0.00     0.053 C 
BRANCH   4   5
ATOM      5  C   UNL     1     -19.495 -18.395  30.327  1.00  0.00     0.041 C 
ATOM      6  O   UNL     1     -19.106 -17.709  31.307  1.00  0.00    -0.550 OA
ATOM      7  O   UNL     1     -18.674 -18.535  29.216  1.00  0.00    -0.550 OA
ENDBRANCH   4   5
ENDBRANCH   3   4
ENDBRANCH   2   3
ENDBRANCH   1   2
BRANCH   1   8
ATOM      8  C   UNL     1     -22.143 -22.999  30.368  1.00  0.00     0.000 C 
BRANCH   8   9
ATOM      9  C   UNL     1     -22.307 -23.502  28.929  1.00  0.00     0.000 C 
BRANCH   9  10
ATOM     10  C   UNL     1     -23.095 -24.817  28.891  1.00  0.00     0.006 C 
BRANCH  10  11
ATOM     11  C   UNL     1     -23.548 -25.228  30.294  1.00  0.00     0.053 C 
BRANCH  11  12
ATOM     12  C   UNL     1     -24.909 -25.847  30.245  1.00  0.00     0.041 C 
ATOM     13  O   UNL     1     -25.346 -26.495  31.232  1.00  0.00    -0.550 OA
ATOM     14  O   UNL     1     -25.676 -25.752  29.090  1.00  0.00    -0.550 OA
ENDBRANCH  11  12
ENDBRANCH  10  11
ENDBRANCH   9  10
ENDBRANCH   8   9
ENDBRANCH   1   8
TORSDOF 9
ENDMDL
MODEL 5
REMARK VINA RESULT:    -6.232      0.976      7.726
REMARK INTER + INTRA:         -10.009
REMARK INTER:                  -9.557
REMARK INTRA:                  -0.452
REMARK UNBOUND:                -0.498
REMARK SMILES O=C([O-])CCCCCCCCC(=O)[O-]
REMARK SMILES IDX 7 1 6 2 5 3 4 4 2 5 1 6 3 7 8 8 9 9 10 10 11 11 12 12 13 13
REMARK SMILES IDX 14 14
REMARK H PARENT
REMARK Flexibility Score: inf
ROOT
ATOM      1  C   UNL     1     -22.152 -22.900  28.818  1.00  0.00     0.000 C 
ENDROOT
BRANCH   1   2
ATOM      2  C   UNL     1     -22.052 -23.493  30.232  1.00  0.00     0.000 C 
BRANCH   2   3
ATOM      3  C   UNL     1     -23.061 -24.625  30.473  1.00  0.00     0.006 C 
BRANCH   3   4
ATOM      4  C   UNL     1     -23.515 -25.246  29.149  1.00  0.00     0.053 C 
BRANCH   4   5
ATOM      5  C   UNL     1     -24.372 -26.447  29.399  1.00  0.00     0.041 C 
ATOM      6  O   UNL     1     -24.682 -27.213  28.450  1.00  0.00    -0.550 OA
ATOM      7  O   UNL     1     -24.788 -26.748  30.690  1.00  0.00    -0.550 OA
ENDBRANCH   4   5
ENDBRANCH   3   4
ENDBRANCH   2   3
ENDBRANCH   1   2
BRANCH   1   8
ATOM      8  C   UNL     1     -22.086 -21.365  28.814  1.00  0.00     0.000 C 
BRANCH   8   9
ATOM      9  C   UNL     1     -22.171 -20.809  30.240  1.00  0.00     0.000 C 
BRANCH   9  10
ATOM     10  C   UNL     1     -21.207 -19.631  30.431  1.00  0.00     0.006 C 
BRANCH  10  11
ATOM     11  C   UNL     1     -20.841 -18.997  29.087  1.00  0.00     0.053 C 
BRANCH  11  12
ATOM     12  C   UNL     1     -20.051 -17.743  29.297  1.00  0.00     0.041 C 
ATOM     13  O   UNL     1     -19.591 -17.111  28.310  1.00  0.00    -0.550 OA
ATOM     14  O   UNL     1     -19.780 -17.299  30.586  1.00  0.00    -0.550 OA
ENDBRANCH  11  12
ENDBRANCH  10  11
ENDBRANCH   9  10
ENDBRANCH   8   9
ENDBRANCH   1   8
TORSDOF 9
ENDMDL
MODEL 6
REMARK VINA RESULT:    -6.222      1.347      7.519
REMARK INTER + INTRA:          -9.994
REMARK INTER:                  -9.559
REMARK INTRA:                  -0.435
REMARK UNBOUND:                -0.498
REMARK SMILES O=C([O-])CCCCCCCCC(=O)[O-]
REMARK SMILES IDX 7 1 6 2 5 3 4 4 2 5 1 6 3 7 8 8 9 9 10 10 11 11 12 12 13 13
REMARK SMILES IDX 14 14
REMARK H PARENT
REMARK Flexibility Score: inf
ROOT
ATOM      1  C   UNL     1     -22.068 -23.779  29.566  1.00  0.00     0.000 C 
ENDROOT
BRANCH   1   2
ATOM      2  C   UNL     1     -23.075 -24.419  28.597  1.00  0.00     0.000 C 
BRANCH   2   3
ATOM      3  C   UNL     1     -23.437 -25.860  28.985  1.00  0.00     0.006 C 
BRANCH   3   4
ATOM      4  C   UNL     1     -24.940 -25.996  29.249  1.00  0.00     0.053 C 
BRANCH   4   5
ATOM      5  C   UNL     1     -25.187 -26.867  30.440  1.00  0.00     0.041 C 
ATOM      6  O   UNL     1     -24.802 -26.503  31.582  1.00  0.00    -0.550 OA
ATOM      7  O   UNL     1     -25.887 -28.058  30.297  1.00  0.00    -0.550 OA
ENDBRANCH   4   5
ENDBRANCH   3   4
ENDBRANCH   2   3
ENDBRANCH   1   2
BRANCH   1   8
ATOM      8  C   UNL     1     -22.685 -23.463  30.938  1.00  0.00     0.000 C 
BRANCH   8   9
ATOM      9  C   UNL     1     -22.109 -22.164  31.511  1.00  0.00     0.000 C 
BRANCH   9  10
ATOM     10  C   UNL     1     -22.232 -21.014  30.504  1.00  0.00     0.006 C 
BRANCH  10  11
ATOM     11  C   UNL     1     -21.280 -19.868  30.858  1.00  0.00     0.053 C 
BRANCH  11  12
ATOM     12  C   UNL     1     -20.859 -19.136  29.624  1.00  0.00     0.041 C 
ATOM     13  O   UNL     1     -20.999 -19.670  28.492  1.00  0.00    -0.550 OA
ATOM     14  O   UNL     1     -20.265 -17.884  29.726  1.00  0.00    -0.550 OA
ENDBRANCH  11  12
ENDBRANCH  10  11
ENDBRANCH   9  10
ENDBRANCH   8   9
ENDBRANCH   1   8
TORSDOF 9
ENDMDL
MODEL 7
REMARK VINA RESULT:    -6.194      1.155      1.860
REMARK INTER + INTRA:          -9.952
REMARK INTER:                  -9.523
REMARK INTRA:                  -0.429
REMARK UNBOUND:                -0.498
REMARK SMILES O=C([O-])CCCCCCCCC(=O)[O-]
REMARK SMILES IDX 7 1 6 2 5 3 4 4 2 5 1 6 3 7 8 8 9 9 10 10 11 11 12 12 13 13
REMARK SMILES IDX 14 14
REMARK H PARENT
REMARK Flexibility Score: inf
ROOT
ATOM      1  C   UNL     1     -22.259 -23.462  30.625  1.00  0.00     0.000 C 
ENDROOT
BRANCH   1   2
ATOM      2  C   UNL     1     -22.071 -22.092  31.295  1.00  0.00     0.000 C 
BRANCH   2   3
ATOM      3  C   UNL     1     -22.070 -20.934  30.288  1.00  0.00     0.006 C 
BRANCH   3   4
ATOM      4  C   UNL     1     -21.250 -19.751  30.812  1.00  0.00     0.053 C 
BRANCH   4   5
ATOM      5  C   UNL     1     -20.500 -19.097  29.695  1.00  0.00     0.041 C 
ATOM      6  O   UNL     1     -19.343 -18.642  29.891  1.00  0.00    -0.550 OA
ATOM      7  O   UNL     1     -21.059 -19.033  28.425  1.00  0.00    -0.550 OA
ENDBRANCH   4   5
ENDBRANCH   3   4
ENDBRANCH   2   3
ENDBRANCH   1   2
BRANCH   1   8
ATOM      8  C   UNL     1     -22.136 -23.394  29.095  1.00  0.00     0.000 C 
BRANCH   8   9
ATOM      9  C   UNL     1     -22.741 -24.641  28.440  1.00  0.00     0.000 C 
BRANCH   9  10
ATOM     10  C   UNL     1     -24.041 -25.056  29.140  1.00  0.00     0.006 C 
BRANCH  10  11
ATOM     11  C   UNL     1     -24.193 -26.579  29.159  1.00  0.00     0.053 C 
BRANCH  11  12
ATOM     12  C   UNL     1     -24.961 -27.014  30.367  1.00  0.00     0.041 C 
ATOM     13  O   UNL     1     -25.773 -27.973  30.291  1.00  0.00    -0.550 OA
ATOM     14  O   UNL     1     -24.817 -26.328  31.567  1.00  0.00    -0.550 OA
ENDBRANCH  11  12
ENDBRANCH  10  11
ENDBRANCH   9  10
ENDBRANCH   8   9
ENDBRANCH   1   8
TORSDOF 9
ENDMDL
MODEL 8
REMARK VINA RESULT:    -6.117      1.358      7.689
REMARK INTER + INTRA:          -9.833
REMARK INTER:                  -9.378
REMARK INTRA:                  -0.455
REMARK UNBOUND:                -0.498
REMARK SMILES O=C([O-])CCCCCCCCC(=O)[O-]
REMARK SMILES IDX 7 1 6 2 5 3 4 4 2 5 1 6 3 7 8 8 9 9 10 10 11 11 12 12 13 13
REMARK SMILES IDX 14 14
REMARK H PARENT
REMARK Flexibility Score: inf
ROOT
ATOM      1  C   UNL     1     -22.215 -21.037  30.255  1.00  0.00     0.000 C 
ENDROOT
BRANCH   1   2
ATOM      2  C   UNL     1     -22.247 -21.811  28.928  1.00  0.00     0.000 C 
BRANCH   2   3
ATOM      3  C   UNL     1     -21.925 -23.302  29.102  1.00  0.00     0.006 C 
BRANCH   3   4
ATOM      4  C   UNL     1     -22.428 -23.817  30.454  1.00  0.00     0.053 C 
BRANCH   4   5
ATOM      5  C   UNL     1     -23.363 -24.969  30.261  1.00  0.00     0.041 C 
ATOM      6  O   UNL     1     -23.862 -25.553  31.258  1.00  0.00    -0.550 OA
ATOM      7  O   UNL     1     -23.724 -25.365  28.979  1.00  0.00    -0.550 OA
ENDBRANCH   4   5
ENDBRANCH   3   4
ENDBRANCH   2   3
ENDBRANCH   1   2
BRANCH   1   8
ATOM      8  C   UNL     1     -21.244 -19.846  30.223  1.00  0.00     0.000 C 
BRANCH   8   9
ATOM      9  C   UNL     1     -21.096 -19.299  28.799  1.00  0.00     0.000 C 
BRANCH   9  10
ATOM     10  C   UNL     1     -20.460 -17.903  28.807  1.00  0.00     0.006 C 
BRANCH  10  11
ATOM     11  C   UNL     1     -18.993 -17.970  29.239  1.00  0.00     0.053 C 
BRANCH  11  12
ATOM     12  C   UNL     1     -18.759 -17.103  30.435  1.00  0.00     0.041 C 
ATOM     13  O   UNL     1     -18.229 -15.969  30.302  1.00  0.00    -0.550 OA
ATOM     14  O   UNL     1     -19.079 -17.568  31.705  1.00  0.00    -0.550 OA
ENDBRANCH  11  12
ENDBRANCH  10  11
ENDBRANCH   9  10
ENDBRANCH   8   9
ENDBRANCH   1   8
TORSDOF 9
ENDMDL
MODEL 9
REMARK VINA RESULT:    -6.084      1.368      1.970
REMARK INTER + INTRA:          -9.784
REMARK INTER:                  -9.362
REMARK INTRA:                  -0.422
REMARK UNBOUND:                -0.498
REMARK SMILES O=C([O-])CCCCCCCCC(=O)[O-]
REMARK SMILES IDX 7 1 6 2 5 3 4 4 2 5 1 6 3 7 8 8 9 9 10 10 11 11 12 12 13 13
REMARK SMILES IDX 14 14
REMARK H PARENT
REMARK Flexibility Score: inf
ROOT
ATOM      1  C   UNL     1     -20.945 -20.117  31.413  1.00  0.00     0.000 C 
ENDROOT
BRANCH   1   2
ATOM      2  C   UNL     1     -21.573 -19.741  30.061  1.00  0.00     0.000 C 
BRANCH   2   3
ATOM      3  C   UNL     1     -20.539 -19.225  29.050  1.00  0.00     0.006 C 
BRANCH   3   4
ATOM      4  C   UNL     1     -20.540 -17.695  28.996  1.00  0.00     0.053 C 
BRANCH   4   5
ATOM      5  C   UNL     1     -19.185 -17.156  29.328  1.00  0.00     0.041 C 
ATOM      6  O   UNL     1     -18.422 -16.752  28.413  1.00  0.00    -0.550 OA
ATOM      7  O   UNL     1     -18.782 -17.054  30.654  1.00  0.00    -0.550 OA
ENDBRANCH   4   5
ENDBRANCH   3   4
ENDBRANCH   2   3
ENDBRANCH   1   2
BRANCH   1   8
ATOM      8  C   UNL     1     -21.183 -21.589  31.787  1.00  0.00     0.000 C 
BRANCH   8   9
ATOM      9  C   UNL     1     -22.404 -22.150  31.049  1.00  0.00     0.000 C 
BRANCH   9  10
ATOM     10  C   UNL     1     -22.093 -23.516  30.427  1.00  0.00     0.006 C 
BRANCH  10  11
ATOM     11  C   UNL     1     -23.121 -24.565  30.858  1.00  0.00     0.053 C 
BRANCH  11  12
ATOM     12  C   UNL     1     -23.557 -25.385  29.685  1.00  0.00     0.041 C 
ATOM     13  O   UNL     1     -24.186 -26.461  29.863  1.00  0.00    -0.550 OA
ATOM     14  O   UNL     1     -23.225 -24.987  28.395  1.00  0.00    -0.550 OA
ENDBRANCH  11  12
ENDBRANCH  10  11
ENDBRANCH   9  10
ENDBRANCH   8   9
ENDBRANCH   1   8
TORSDOF 9
ENDMDL
