MODEL 1
REMARK VINA RESULT:    -5.295      0.000      0.000
REMARK INTER + INTRA:          -6.455
REMARK INTER:                  -6.378
REMARK INTRA:                  -0.077
REMARK UNBOUND:                -0.077
REMARK SMILES CC[C@@H](C)[C@@H]([NH3+])C(=O)[O-]
REMARK SMILES IDX 3 1 4 2 5 3 6 4 7 8 8 9 9 10 2 11 1 12
REMARK H PARENT 6 5 6 6 6 7
REMARK Flexibility Score: inf
ROOT
ATOM      1  C   UNL     1       6.090   0.669  16.432  1.00  0.00     0.050 C 
ATOM      2  C   UNL     1       4.739   0.758  15.696  1.00  0.00     0.014 C 
ENDROOT
BRANCH   1   3
ATOM      3  C   UNL     1       7.288   0.890  15.455  1.00  0.00     0.230 C 
BRANCH   3   4
ATOM      4  N   UNL     1       8.432   1.528  16.125  1.00  0.00    -0.350 N 
ATOM      5  H   UNL     1       8.915   2.195  15.478  1.00  0.00     0.345 HD
ATOM      6  H   UNL     1       9.112   0.806  16.453  1.00  0.00     0.345 HD
ATOM      7  H   UNL     1       8.106   2.052  16.971  1.00  0.00     0.345 HD
ENDBRANCH   3   4
BRANCH   3   8
ATOM      8  C   UNL     1       7.729  -0.418  14.846  1.00  0.00     0.099 C 
ATOM      9  O   UNL     1       8.088  -1.376  15.582  1.00  0.00    -0.544 OA
ATOM     10  O   UNL     1       7.728  -0.578  13.466  1.00  0.00    -0.544 OA
ENDBRANCH   3   8
ENDBRANCH   1   3
BRANCH   1  11
ATOM     11  C   UNL     1       6.103   1.608  17.667  1.00  0.00     0.006 C 
ATOM     12  C   UNL     1       4.857   1.511  18.554  1.00  0.00     0.004 C 
ENDBRANCH   1  11
TORSDOF 4
ENDMDL
MODEL 2
REMARK VINA RESULT:    -5.073      1.901      2.478
REMARK INTER + INTRA:          -6.189
REMARK INTER:                  -6.166
REMARK INTRA:                  -0.023
REMARK UNBOUND:                -0.077
REMARK SMILES CC[C@@H](C)[C@@H]([NH3+])C(=O)[O-]
REMARK SMILES IDX 3 1 4 2 5 3 6 4 7 8 8 9 9 10 2 11 1 12
REMARK H PARENT 6 5 6 6 6 7
REMARK Flexibility Score: inf
ROOT
ATOM      1  C   UNL     1       6.828   0.614  14.767  1.00  0.00     0.050 C 
ATOM      2  C   UNL     1       7.668   1.073  15.975  1.00  0.00     0.014 C 
ENDROOT
BRANCH   1   3
ATOM      3  C   UNL     1       7.271  -0.798  14.268  1.00  0.00     0.230 C 
BRANCH   3   4
ATOM      4  N   UNL     1       8.492  -0.734  13.451  1.00  0.00    -0.350 N 
ATOM      5  H   UNL     1       8.365  -0.077  12.646  1.00  0.00     0.345 HD
ATOM      6  H   UNL     1       8.740  -1.682  13.090  1.00  0.00     0.345 HD
ATOM      7  H   UNL     1       9.297  -0.406  14.033  1.00  0.00     0.345 HD
ENDBRANCH   3   4
BRANCH   3   8
ATOM      8  C   UNL     1       7.494  -1.731  15.433  1.00  0.00     0.099 C 
ATOM      9  O   UNL     1       6.517  -2.157  16.105  1.00  0.00    -0.544 OA
ATOM     10  O   UNL     1       8.782  -2.134  15.763  1.00  0.00    -0.544 OA
ENDBRANCH   3   8
ENDBRANCH   1   3
BRANCH   1  11
ATOM     11  C   UNL     1       5.313   0.724  15.080  1.00  0.00     0.006 C 
ATOM     12  C   UNL     1       4.985   0.997  16.553  1.00  0.00     0.004 C 
ENDBRANCH   1  11
TORSDOF 4
ENDMDL
MODEL 3
REMARK VINA RESULT:    -4.986      2.464      2.842
REMARK INTER + INTRA:          -6.084
REMARK INTER:                  -6.007
REMARK INTRA:                  -0.077
REMARK UNBOUND:                -0.077
REMARK SMILES CC[C@@H](C)[C@@H]([NH3+])C(=O)[O-]
REMARK SMILES IDX 3 1 4 2 5 3 6 4 7 8 8 9 9 10 2 11 1 12
REMARK H PARENT 6 5 6 6 6 7
REMARK Flexibility Score: inf
ROOT
ATOM      1  C   UNL     1       7.364   1.233  16.384  1.00  0.00     0.050 C 
ATOM      2  C   UNL     1       6.873   1.065  14.933  1.00  0.00     0.014 C 
ENDROOT
BRANCH   1   3
ATOM      3  C   UNL     1       8.430   2.369  16.498  1.00  0.00     0.230 C 
BRANCH   3   4
ATOM      4  N   UNL     1       8.083   3.344  17.543  1.00  0.00    -0.350 N 
ATOM      5  H   UNL     1       8.244   4.322  17.205  1.00  0.00     0.345 HD
ATOM      6  H   UNL     1       8.651   3.175  18.403  1.00  0.00     0.345 HD
ATOM      7  H   UNL     1       7.077   3.239  17.813  1.00  0.00     0.345 HD
ENDBRANCH   3   4
BRANCH   3   8
ATOM      8  C   UNL     1       9.796   1.793  16.782  1.00  0.00     0.099 C 
ATOM      9  O   UNL     1      10.571   2.360  17.598  1.00  0.00    -0.544 OA
ATOM     10  O   UNL     1      10.201   0.622  16.152  1.00  0.00    -0.544 OA
ENDBRANCH   3   8
ENDBRANCH   1   3
BRANCH   1  11
ATOM     11  C   UNL     1       6.164   1.397  17.353  1.00  0.00     0.006 C 
ATOM     12  C   UNL     1       4.814   0.958  16.774  1.00  0.00     0.004 C 
ENDBRANCH   1  11
TORSDOF 4
ENDMDL
MODEL 4
REMARK VINA RESULT:    -4.984      3.262      4.216
REMARK INTER + INTRA:          -6.081
REMARK INTER:                  -6.186
REMARK INTRA:                   0.104
REMARK UNBOUND:                -0.077
REMARK SMILES CC[C@@H](C)[C@@H]([NH3+])C(=O)[O-]
REMARK SMILES IDX 3 1 4 2 5 3 6 4 7 8 8 9 9 10 2 11 1 12
REMARK H PARENT 6 5 6 6 6 7
REMARK Flexibility Score: inf
ROOT
ATOM      1  C   UNL     1       5.132   1.316  17.935  1.00  0.00     0.050 C 
ATOM      2  C   UNL     1       4.073   0.955  16.876  1.00  0.00     0.014 C 
ENDROOT
BRANCH   1   3
ATOM      3  C   UNL     1       5.156   0.274  19.098  1.00  0.00     0.230 C 
BRANCH   3   4
ATOM      4  N   UNL     1       4.482   0.781  20.304  1.00  0.00    -0.350 N 
ATOM      5  H   UNL     1       3.708   0.139  20.592  1.00  0.00     0.345 HD
ATOM      6  H   UNL     1       4.098   1.736  20.132  1.00  0.00     0.345 HD
ATOM      7  H   UNL     1       5.167   0.862  21.091  1.00  0.00     0.345 HD
ENDBRANCH   3   4
BRANCH   3   8
ATOM      8  C   UNL     1       4.511  -1.020  18.668  1.00  0.00     0.099 C 
ATOM      9  O   UNL     1       5.177  -1.890  18.046  1.00  0.00    -0.544 OA
ATOM     10  O   UNL     1       3.176  -1.265  18.969  1.00  0.00    -0.544 OA
ENDBRANCH   3   8
ENDBRANCH   1   3
BRANCH   1  11
ATOM     11  C   UNL     1       6.515   1.548  17.270  1.00  0.00     0.006 C 
ATOM     12  C   UNL     1       6.654   0.949  15.866  1.00  0.00     0.004 C 
ENDBRANCH   1  11
TORSDOF 4
ENDMDL
MODEL 5
REMARK VINA RESULT:    -4.837      1.684      1.977
REMARK INTER + INTRA:          -5.904
REMARK INTER:                  -6.168
REMARK INTRA:                   0.264
REMARK UNBOUND:                -0.077
REMARK SMILES CC[C@@H](C)[C@@H]([NH3+])C(=O)[O-]
REMARK SMILES IDX 3 1 4 2 5 3 6 4 7 8 8 9 9 10 2 11 1 12
REMARK H PARENT 6 5 6 6 6 7
REMARK Flexibility Score: inf
ROOT
ATOM      1  C   UNL     1       6.305   0.970  15.893  1.00  0.00     0.050 C 
ATOM      2  C   UNL     1       7.727   1.549  16.020  1.00  0.00     0.014 C 
ENDROOT
BRANCH   1   3
ATOM      3  C   UNL     1       6.324  -0.466  15.278  1.00  0.00     0.230 C 
BRANCH   3   4
ATOM      4  N   UNL     1       5.314  -0.624  14.221  1.00  0.00    -0.350 N 
ATOM      5  H   UNL     1       5.756  -0.554  13.275  1.00  0.00     0.345 HD
ATOM      6  H   UNL     1       4.572   0.104  14.314  1.00  0.00     0.345 HD
ATOM      7  H   UNL     1       4.845  -1.556  14.309  1.00  0.00     0.345 HD
ENDBRANCH   3   4
BRANCH   3   8
ATOM      8  C   UNL     1       7.690  -0.789  14.722  1.00  0.00     0.099 C 
ATOM      9  O   UNL     1       8.581  -1.281  15.465  1.00  0.00    -0.544 OA
ATOM     10  O   UNL     1       7.966  -0.556  13.381  1.00  0.00    -0.544 OA
ENDBRANCH   3   8
ENDBRANCH   1   3
BRANCH   1  11
ATOM     11  C   UNL     1       5.553   1.064  17.247  1.00  0.00     0.006 C 
ATOM     12  C   UNL     1       4.033   0.888  17.145  1.00  0.00     0.004 C 
ENDBRANCH   1  11
TORSDOF 4
ENDMDL
MODEL 6
REMARK VINA RESULT:    -4.829      1.869      2.346
REMARK INTER + INTRA:          -5.894
REMARK INTER:                  -5.940
REMARK INTRA:                   0.046
REMARK UNBOUND:                -0.077
REMARK SMILES CC[C@@H](C)[C@@H]([NH3+])C(=O)[O-]
REMARK SMILES IDX 3 1 4 2 5 3 6 4 7 8 8 9 9 10 2 11 1 12
REMARK H PARENT 6 5 6 6 6 7
REMARK Flexibility Score: inf
ROOT
ATOM      1  C   UNL     1       4.638   0.570  16.913  1.00  0.00     0.050 C 
ATOM      2  C   UNL     1       5.737   1.419  17.581  1.00  0.00     0.014 C 
ENDROOT
BRANCH   1   3
ATOM      3  C   UNL     1       5.170  -0.148  15.632  1.00  0.00     0.230 C 
BRANCH   3   4
ATOM      4  N   UNL     1       5.505   0.808  14.566  1.00  0.00    -0.350 N 
ATOM      5  H   UNL     1       5.523   0.332  13.634  1.00  0.00     0.345 HD
ATOM      6  H   UNL     1       6.433   1.249  14.750  1.00  0.00     0.345 HD
ATOM      7  H   UNL     1       4.797   1.579  14.539  1.00  0.00     0.345 HD
ENDBRANCH   3   4
BRANCH   3   8
ATOM      8  C   UNL     1       6.383  -0.986  15.955  1.00  0.00     0.099 C 
ATOM      9  O   UNL     1       6.254  -2.107  16.516  1.00  0.00    -0.544 OA
ATOM     10  O   UNL     1       7.652  -0.529  15.622  1.00  0.00    -0.544 OA
ENDBRANCH   3   8
ENDBRANCH   1   3
BRANCH   1  11
ATOM     11  C   UNL     1       3.983  -0.387  17.944  1.00  0.00     0.006 C 
ATOM     12  C   UNL     1       4.450  -0.182  19.390  1.00  0.00     0.004 C 
ENDBRANCH   1  11
TORSDOF 4
ENDMDL
MODEL 7
REMARK VINA RESULT:    -4.821      3.355      4.407
REMARK INTER + INTRA:          -5.885
REMARK INTER:                  -5.852
REMARK INTRA:                  -0.033
REMARK UNBOUND:                -0.077
REMARK SMILES CC[C@@H](C)[C@@H]([NH3+])C(=O)[O-]
REMARK SMILES IDX 3 1 4 2 5 3 6 4 7 8 8 9 9 10 2 11 1 12
REMARK H PARENT 6 5 6 6 6 7
REMARK Flexibility Score: inf
ROOT
ATOM      1  C   UNL     1       5.472   0.793  17.938  1.00  0.00     0.050 C 
ATOM      2  C   UNL     1       5.676   2.255  18.380  1.00  0.00     0.014 C 
ENDROOT
BRANCH   1   3
ATOM      3  C   UNL     1       5.078  -0.119  19.144  1.00  0.00     0.230 C 
BRANCH   3   4
ATOM      4  N   UNL     1       4.144   0.554  20.059  1.00  0.00    -0.350 N 
ATOM      5  H   UNL     1       4.644   0.896  20.912  1.00  0.00     0.345 HD
ATOM      6  H   UNL     1       3.377  -0.097  20.341  1.00  0.00     0.345 HD
ATOM      7  H   UNL     1       3.695   1.369  19.578  1.00  0.00     0.345 HD
ENDBRANCH   3   4
BRANCH   3   8
ATOM      8  C   UNL     1       4.465  -1.410  18.658  1.00  0.00     0.099 C 
ATOM      9  O   UNL     1       5.195  -2.339  18.222  1.00  0.00    -0.544 OA
ATOM     10  O   UNL     1       3.087  -1.584  18.702  1.00  0.00    -0.544 OA
ENDBRANCH   3   8
ENDBRANCH   1   3
BRANCH   1  11
ATOM     11  C   UNL     1       4.487   0.714  16.742  1.00  0.00     0.006 C 
ATOM     12  C   UNL     1       5.156   0.759  15.363  1.00  0.00     0.004 C 
ENDBRANCH   1  11
TORSDOF 4
ENDMDL
MODEL 8
REMARK VINA RESULT:    -4.675      2.574      3.180
REMARK INTER + INTRA:          -5.709
REMARK INTER:                  -5.645
REMARK INTRA:                  -0.064
REMARK UNBOUND:                -0.077
REMARK SMILES CC[C@@H](C)[C@@H]([NH3+])C(=O)[O-]
REMARK SMILES IDX 3 1 4 2 5 3 6 4 7 8 8 9 9 10 2 11 1 12
REMARK H PARENT 6 5 6 6 6 7
REMARK Flexibility Score: inf
ROOT
ATOM      1  C   UNL     1       4.425  -0.976  18.486  1.00  0.00     0.050 C 
ATOM      2  C   UNL     1       2.958  -1.091  18.943  1.00  0.00     0.014 C 
ENDROOT
BRANCH   1   3
ATOM      3  C   UNL     1       4.527  -0.452  17.018  1.00  0.00     0.230 C 
BRANCH   3   4
ATOM      4  N   UNL     1       4.016   0.921  16.888  1.00  0.00    -0.350 N 
ATOM      5  H   UNL     1       3.138   0.937  16.320  1.00  0.00     0.345 HD
ATOM      6  H   UNL     1       4.732   1.536  16.442  1.00  0.00     0.345 HD
ATOM      7  H   UNL     1       3.815   1.321  17.835  1.00  0.00     0.345 HD
ENDBRANCH   3   4
BRANCH   3   8
ATOM      8  C   UNL     1       5.954  -0.506  16.530  1.00  0.00     0.099 C 
ATOM      9  O   UNL     1       6.457  -1.596  16.146  1.00  0.00    -0.544 OA
ATOM     10  O   UNL     1       6.719   0.654  16.490  1.00  0.00    -0.544 OA
ENDBRANCH   3   8
ENDBRANCH   1   3
BRANCH   1  11
ATOM     11  C   UNL     1       5.254  -0.152  19.507  1.00  0.00     0.006 C 
ATOM     12  C   UNL     1       4.429   0.816  20.362  1.00  0.00     0.004 C 
ENDBRANCH   1  11
TORSDOF 4
ENDMDL
MODEL 9
REMARK VINA RESULT:    -4.654      3.170      4.442
REMARK INTER + INTRA:          -5.684
REMARK INTER:                  -5.614
REMARK INTRA:                  -0.070
REMARK UNBOUND:                -0.077
REMARK SMILES CC[C@@H](C)[C@@H]([NH3+])C(=O)[O-]
REMARK SMILES IDX 3 1 4 2 5 3 6 4 7 8 8 9 9 10 2 11 1 12
REMARK H PARENT 6 5 6 6 6 7
REMARK Flexibility Score: inf
ROOT
ATOM      1  C   UNL     1       6.077   0.991  17.082  1.00  0.00     0.050 C 
ATOM      2  C   UNL     1       7.127   2.092  17.322  1.00  0.00     0.014 C 
ENDROOT
BRANCH   1   3
ATOM      3  C   UNL     1       4.821   1.191  17.989  1.00  0.00     0.230 C 
BRANCH   3   4
ATOM      4  N   UNL     1       3.569   0.962  17.251  1.00  0.00    -0.350 N 
ATOM      5  H   UNL     1       2.958   0.282  17.761  1.00  0.00     0.345 HD
ATOM      6  H   UNL     1       3.771   0.599  16.293  1.00  0.00     0.345 HD
ATOM      7  H   UNL     1       3.050   1.864  17.135  1.00  0.00     0.345 HD
ENDBRANCH   3   4
BRANCH   3   8
ATOM      8  C   UNL     1       4.875   0.273  19.185  1.00  0.00     0.099 C 
ATOM      9  O   UNL     1       4.652   0.718  20.342  1.00  0.00    -0.544 OA
ATOM     10  O   UNL     1       5.159  -1.076  19.013  1.00  0.00    -0.544 OA
ENDBRANCH   3   8
ENDBRANCH   1   3
BRANCH   1  11
ATOM     11  C   UNL     1       5.748   0.869  15.570  1.00  0.00     0.006 C 
ATOM     12  C   UNL     1       6.972   0.907  14.648  1.00  0.00     0.004 C 
ENDBRANCH   1  11
TORSDOF 4
ENDMDL
