MODEL 1
REMARK VINA RESULT:     0.599      0.000      0.000
REMARK INTER + INTRA:           1.119
REMARK INTER:                   0.914
REMARK INTRA:                   0.205
REMARK UNBOUND:                 0.205
REMARK SMILES CCCCCCCCCCC(=O)[O-]
REMARK SMILES IDX 7 1 8 2 9 3 10 4 11 5 12 6 13 7 6 8 5 9 4 10 3 11 2 12 1 13
REMARK H PARENT
REMARK Flexibility Score: inf
ROOT
ATOM      1  C   UNL     1     100.803  96.107  10.395  1.00  0.00     0.000 C 
ENDROOT
BRANCH   1   2
ATOM      2  C   UNL     1     100.952  94.582  10.425  1.00  0.00     0.000 C 
BRANCH   2   3
ATOM      3  C   UNL     1      99.739  93.922  11.093  1.00  0.00     0.006 C 
BRANCH   3   4
ATOM      4  C   UNL     1      98.581  94.915  11.231  1.00  0.00     0.053 C 
BRANCH   4   5
ATOM      5  C   UNL     1      98.318  95.216  12.673  1.00  0.00     0.041 C 
ATOM      6  O   UNL     1      97.885  96.347  13.016  1.00  0.00    -0.550 OA
ATOM      7  O   UNL     1      98.504  94.230  13.635  1.00  0.00    -0.550 OA
ENDBRANCH   4   5
ENDBRANCH   3   4
ENDBRANCH   2   3
ENDBRANCH   1   2
BRANCH   1   8
ATOM      8  C   UNL     1     102.173  96.795  10.365  1.00  0.00     0.000 C 
BRANCH   8   9
ATOM      9  C   UNL     1     102.022  98.317  10.237  1.00  0.00    -0.000 C 
BRANCH   9  10
ATOM     10  C   UNL     1     100.584  98.802  10.493  1.00  0.00    -0.000 C 
BRANCH  10  11
ATOM     11  C   UNL     1     100.430 100.325  10.658  1.00  0.00    -0.000 C 
BRANCH  11  12
ATOM     12  C   UNL     1     101.245 101.123   9.630  1.00  0.00    -0.003 C 
ATOM     13  C   UNL     1     102.729 101.125   9.985  1.00  0.00     0.004 C 
ENDBRANCH  11  12
ENDBRANCH  10  11
ENDBRANCH   9  10
ENDBRANCH   8   9
ENDBRANCH   1   8
TORSDOF 9
ENDMDL
MODEL 2
REMARK VINA RESULT:     2.271      0.856      1.495
REMARK INTER + INTRA:           3.671
REMARK INTER:                   3.643
REMARK INTRA:                   0.028
REMARK UNBOUND:                 0.205
REMARK SMILES CCCCCCCCCCC(=O)[O-]
REMARK SMILES IDX 7 1 8 2 9 3 10 4 11 5 12 6 13 7 6 8 5 9 4 10 3 11 2 12 1 13
REMARK H PARENT
REMARK Flexibility Score: inf
ROOT
ATOM      1  C   UNL     1     101.028  95.519  10.435  1.00  0.00     0.000 C 
ENDROOT
BRANCH   1   2
ATOM      2  C   UNL     1      99.722  96.306  10.594  1.00  0.00     0.000 C 
BRANCH   2   3
ATOM      3  C   UNL     1      98.518  95.362  10.701  1.00  0.00     0.006 C 
BRANCH   3   4
ATOM      4  C   UNL     1      98.807  94.214  11.672  1.00  0.00     0.053 C 
BRANCH   4   5
ATOM      5  C   UNL     1      98.450  94.609  13.071  1.00  0.00     0.041 C 
ATOM      6  O   UNL     1      98.113  95.794  13.329  1.00  0.00    -0.550 OA
ATOM      7  O   UNL     1      98.441  93.656  14.082  1.00  0.00    -0.550 OA
ENDBRANCH   4   5
ENDBRANCH   3   4
ENDBRANCH   2   3
ENDBRANCH   1   2
BRANCH   1   8
ATOM      8  C   UNL     1     102.217  96.461  10.216  1.00  0.00     0.000 C 
BRANCH   8   9
ATOM      9  C   UNL     1     101.886  97.883  10.691  1.00  0.00    -0.000 C 
BRANCH   9  10
ATOM     10  C   UNL     1     102.055  98.941   9.585  1.00  0.00    -0.000 C 
BRANCH  10  11
ATOM     11  C   UNL     1     102.169 100.392  10.085  1.00  0.00    -0.000 C 
BRANCH  11  12
ATOM     12  C   UNL     1     100.804 101.054  10.319  1.00  0.00    -0.003 C 
ATOM     13  C   UNL     1      99.790 100.048  10.857  1.00  0.00     0.004 C 
ENDBRANCH  11  12
ENDBRANCH  10  11
ENDBRANCH   9  10
ENDBRANCH   8   9
ENDBRANCH   1   8
TORSDOF 9
ENDMDL
MODEL 3
REMARK VINA RESULT:     3.397      3.175      5.989
REMARK INTER + INTRA:           5.389
REMARK INTER:                   5.550
REMARK INTRA:                  -0.161
REMARK UNBOUND:                 0.205
REMARK SMILES CCCCCCCCCCC(=O)[O-]
REMARK SMILES IDX 7 1 8 2 9 3 10 4 11 5 12 6 13 7 6 8 5 9 4 10 3 11 2 12 1 13
REMARK H PARENT
REMARK Flexibility Score: inf
ROOT
ATOM      1  C   UNL     1     102.138  96.758  10.382  1.00  0.00     0.000 C 
ENDROOT
BRANCH   1   2
ATOM      2  C   UNL     1     101.955  98.269  10.197  1.00  0.00     0.000 C 
BRANCH   2   3
ATOM      3  C   UNL     1     100.751  98.780  10.998  1.00  0.00     0.006 C 
BRANCH   3   4
ATOM      4  C   UNL     1     100.696 100.311  10.989  1.00  0.00     0.053 C 
BRANCH   4   5
ATOM      5  C   UNL     1     101.560 100.859   9.898  1.00  0.00     0.041 C 
ATOM      6  O   UNL     1     101.065 101.125   8.771  1.00  0.00    -0.550 OA
ATOM      7  O   UNL     1     102.903 101.125  10.140  1.00  0.00    -0.550 OA
ENDBRANCH   4   5
ENDBRANCH   3   4
ENDBRANCH   2   3
ENDBRANCH   1   2
BRANCH   1   8
ATOM      8  C   UNL     1     100.810  96.015  10.196  1.00  0.00     0.000 C 
BRANCH   8   9
ATOM      9  C   UNL     1     100.987  94.507  10.424  1.00  0.00    -0.000 C 
BRANCH   9  10
ATOM     10  C   UNL     1      99.777  93.857  11.120  1.00  0.00    -0.000 C 
BRANCH  10  11
ATOM     11  C   UNL     1      98.574  94.792  11.340  1.00  0.00    -0.000 C 
BRANCH  11  12
ATOM     12  C   UNL     1      98.488  95.329  12.776  1.00  0.00    -0.003 C 
ATOM     13  C   UNL     1      98.333  94.190  13.780  1.00  0.00     0.004 C 
ENDBRANCH  11  12
ENDBRANCH  10  11
ENDBRANCH   9  10
ENDBRANCH   8   9
ENDBRANCH   1   8
TORSDOF 9
ENDMDL
MODEL 4
REMARK VINA RESULT:     3.412     17.200     20.185
REMARK INTER + INTRA:           5.413
REMARK INTER:                   5.744
REMARK INTRA:                  -0.331
REMARK UNBOUND:                 0.205
REMARK SMILES CCCCCCCCCCC(=O)[O-]
REMARK SMILES IDX 7 1 8 2 9 3 10 4 11 5 12 6 13 7 6 8 5 9 4 10 3 11 2 12 1 13
REMARK H PARENT
REMARK Flexibility Score: inf
ROOT
ATOM      1  C   UNL     1      88.895  81.516  18.943  1.00  0.00     0.000 C 
ENDROOT
BRANCH   1   2
ATOM      2  C   UNL     1      87.683  81.197  19.826  1.00  0.00     0.000 C 
BRANCH   2   3
ATOM      3  C   UNL     1      86.377  81.308  19.031  1.00  0.00     0.006 C 
BRANCH   3   4
ATOM      4  C   UNL     1      85.312  82.065  19.828  1.00  0.00     0.053 C 
BRANCH   4   5
ATOM      5  C   UNL     1      84.031  82.134  19.057  1.00  0.00     0.041 C 
ATOM      6  O   UNL     1      83.693  81.184  18.303  1.00  0.00    -0.550 OA
ATOM      7  O   UNL     1      83.185  83.226  19.209  1.00  0.00    -0.550 OA
ENDBRANCH   4   5
ENDBRANCH   3   4
ENDBRANCH   2   3
ENDBRANCH   1   2
BRANCH   1   8
ATOM      8  C   UNL     1      89.806  82.553  19.610  1.00  0.00     0.000 C 
BRANCH   8   9
ATOM      9  C   UNL     1      89.301  83.979  19.347  1.00  0.00    -0.000 C 
BRANCH   9  10
ATOM     10  C   UNL     1      90.438  84.977  19.060  1.00  0.00    -0.000 C 
BRANCH  10  11
ATOM     11  C   UNL     1      90.441  85.569  17.639  1.00  0.00    -0.000 C 
BRANCH  11  12
ATOM     12  C   UNL     1      91.477  86.686  17.458  1.00  0.00    -0.003 C 
ATOM     13  C   UNL     1      91.357  87.331  16.080  1.00  0.00     0.004 C 
ENDBRANCH  11  12
ENDBRANCH  10  11
ENDBRANCH   9  10
ENDBRANCH   8   9
ENDBRANCH   1   8
TORSDOF 9
ENDMDL
