MODEL 1
REMARK VINA RESULT:    -4.823      0.000      0.000
REMARK INTER + INTRA:          -5.204
REMARK INTER:                  -5.105
REMARK INTRA:                  -0.099
REMARK UNBOUND:                -0.099
REMARK SMILES C=C(C)[C@H]1CC=C(C)C(=O)C1
REMARK SMILES IDX 8 1 7 2 6 3 5 4 4 5 11 6 9 7 10 8 2 9 1 10 3 11
REMARK H PARENT
REMARK Flexibility Score: inf
ROOT
ATOM      1  C   UNL     1       3.089   7.367 107.845  1.00  0.00     0.048 C 
ATOM      2  C   UNL     1       3.334   5.924 107.500  1.00  0.00    -0.012 C 
ATOM      3  C   UNL     1       4.348   5.260 108.080  1.00  0.00    -0.019 C 
ATOM      4  C   UNL     1       4.648   3.820 107.758  1.00  0.00     0.036 C 
ATOM      5  C   UNL     1       3.357   3.046 107.428  1.00  0.00     0.025 C 
ATOM      6  C   UNL     1       2.588   3.749 106.295  1.00  0.00     0.089 C 
ATOM      7  C   UNL     1       2.381   5.203 106.618  1.00  0.00     0.158 C 
ATOM      8  O   UNL     1       1.408   5.814 106.102  1.00  0.00    -0.295 OA
ENDROOT
BRANCH   5   9
ATOM      9  C   UNL     1       3.653   1.593 107.082  1.00  0.00    -0.077 C 
ATOM     10  C   UNL     1       3.268   1.092 105.897  1.00  0.00     0.008 C 
ATOM     11  C   UNL     1       4.378   0.686 108.046  1.00  0.00     0.039 C 
ENDBRANCH   5   9
TORSDOF 1
ENDMDL
MODEL 2
REMARK VINA RESULT:    -4.799      1.905      2.983
REMARK INTER + INTRA:          -5.179
REMARK INTER:                  -5.092
REMARK INTRA:                  -0.087
REMARK UNBOUND:                -0.099
REMARK SMILES C=C(C)[C@H]1CC=C(C)C(=O)C1
REMARK SMILES IDX 8 1 7 2 6 3 5 4 4 5 11 6 9 7 10 8 2 9 1 10 3 11
REMARK H PARENT
REMARK Flexibility Score: inf
ROOT
ATOM      1  C   UNL     1       1.976   5.484 106.029  1.00  0.00     0.048 C 
ATOM      2  C   UNL     1       2.837   4.754 107.023  1.00  0.00    -0.012 C 
ATOM      3  C   UNL     1       3.104   3.449 106.845  1.00  0.00    -0.019 C 
ATOM      4  C   UNL     1       3.945   2.666 107.819  1.00  0.00     0.036 C 
ATOM      5  C   UNL     1       5.029   3.558 108.455  1.00  0.00     0.025 C 
ATOM      6  C   UNL     1       4.387   4.797 109.104  1.00  0.00     0.089 C 
ATOM      7  C   UNL     1       3.491   5.504 108.125  1.00  0.00     0.158 C 
ATOM      8  O   UNL     1       3.271   6.735 108.272  1.00  0.00    -0.295 OA
ENDROOT
BRANCH   5   9
ATOM      9  C   UNL     1       5.873   2.779 109.456  1.00  0.00    -0.077 C 
ATOM     10  C   UNL     1       7.177   2.569 109.216  1.00  0.00     0.008 C 
ATOM     11  C   UNL     1       5.277   2.231 110.729  1.00  0.00     0.039 C 
ENDBRANCH   5   9
TORSDOF 1
ENDMDL
MODEL 3
REMARK VINA RESULT:    -4.711      2.429      4.472
REMARK INTER + INTRA:          -5.085
REMARK INTER:                  -4.987
REMARK INTRA:                  -0.099
REMARK UNBOUND:                -0.099
REMARK SMILES C=C(C)[C@H]1CC=C(C)C(=O)C1
REMARK SMILES IDX 8 1 7 2 6 3 5 4 4 5 11 6 9 7 10 8 2 9 1 10 3 11
REMARK H PARENT
REMARK Flexibility Score: inf
ROOT
ATOM      1  C   UNL     1       7.369   2.143 109.047  1.00  0.00     0.048 C 
ATOM      2  C   UNL     1       6.181   2.974 108.648  1.00  0.00    -0.012 C 
ATOM      3  C   UNL     1       5.664   3.861 109.515  1.00  0.00    -0.019 C 
ATOM      4  C   UNL     1       4.465   4.706 109.173  1.00  0.00     0.036 C 
ATOM      5  C   UNL     1       4.438   5.045 107.670  1.00  0.00     0.025 C 
ATOM      6  C   UNL     1       4.501   3.757 106.830  1.00  0.00     0.089 C 
ATOM      7  C   UNL     1       5.663   2.903 107.258  1.00  0.00     0.158 C 
ATOM      8  O   UNL     1       6.171   2.098 106.433  1.00  0.00    -0.295 OA
ENDROOT
BRANCH   5   9
ATOM      9  C   UNL     1       3.217   5.884 107.311  1.00  0.00    -0.077 C 
ATOM     10  C   UNL     1       2.232   5.354 106.569  1.00  0.00     0.008 C 
ATOM     11  C   UNL     1       3.082   7.313 107.774  1.00  0.00     0.039 C 
ENDBRANCH   5   9
TORSDOF 1
ENDMDL
MODEL 4
REMARK VINA RESULT:    -4.666      2.197      4.648
REMARK INTER + INTRA:          -5.037
REMARK INTER:                  -4.939
REMARK INTRA:                  -0.098
REMARK UNBOUND:                -0.099
REMARK SMILES C=C(C)[C@H]1CC=C(C)C(=O)C1
REMARK SMILES IDX 8 1 7 2 6 3 5 4 4 5 11 6 9 7 10 8 2 9 1 10 3 11
REMARK H PARENT
REMARK Flexibility Score: inf
ROOT
ATOM      1  C   UNL     1       5.481   0.743 108.876  1.00  0.00     0.048 C 
ATOM      2  C   UNL     1       4.914   2.014 108.308  1.00  0.00    -0.012 C 
ATOM      3  C   UNL     1       3.834   1.967 107.511  1.00  0.00    -0.019 C 
ATOM      4  C   UNL     1       3.236   3.209 106.902  1.00  0.00     0.036 C 
ATOM      5  C   UNL     1       3.409   4.422 107.836  1.00  0.00     0.025 C 
ATOM      6  C   UNL     1       4.892   4.608 108.201  1.00  0.00     0.089 C 
ATOM      7  C   UNL     1       5.472   3.324 108.729  1.00  0.00     0.158 C 
ATOM      8  O   UNL     1       6.463   3.372 109.505  1.00  0.00    -0.295 OA
ENDROOT
BRANCH   5   9
ATOM      9  C   UNL     1       2.825   5.686 107.219  1.00  0.00    -0.077 C 
ATOM     10  C   UNL     1       1.971   5.599 106.186  1.00  0.00     0.008 C 
ATOM     11  C   UNL     1       3.181   7.054 107.744  1.00  0.00     0.039 C 
ENDBRANCH   5   9
TORSDOF 1
ENDMDL
MODEL 5
REMARK VINA RESULT:    -4.434      2.126      3.004
REMARK INTER + INTRA:          -4.792
REMARK INTER:                  -4.694
REMARK INTRA:                  -0.098
REMARK UNBOUND:                -0.099
REMARK SMILES C=C(C)[C@H]1CC=C(C)C(=O)C1
REMARK SMILES IDX 8 1 7 2 6 3 5 4 4 5 11 6 9 7 10 8 2 9 1 10 3 11
REMARK H PARENT
REMARK Flexibility Score: inf
ROOT
ATOM      1  C   UNL     1       3.297   5.863 103.701  1.00  0.00     0.048 C 
ATOM      2  C   UNL     1       3.786   5.208 104.963  1.00  0.00    -0.012 C 
ATOM      3  C   UNL     1       5.044   4.742 105.031  1.00  0.00    -0.019 C 
ATOM      4  C   UNL     1       5.579   4.063 106.265  1.00  0.00     0.036 C 
ATOM      5  C   UNL     1       4.942   4.648 107.539  1.00  0.00     0.025 C 
ATOM      6  C   UNL     1       3.407   4.575 107.452  1.00  0.00     0.089 C 
ATOM      7  C   UNL     1       2.920   5.190 106.169  1.00  0.00     0.158 C 
ATOM      8  O   UNL     1       1.751   5.659 106.118  1.00  0.00    -0.295 OA
ENDROOT
BRANCH   5   9
ATOM      9  C   UNL     1       5.462   3.953 108.791  1.00  0.00    -0.077 C 
ATOM     10  C   UNL     1       6.407   3.005 108.691  1.00  0.00     0.008 C 
ATOM     11  C   UNL     1       4.940   4.307 110.161  1.00  0.00     0.039 C 
ENDBRANCH   5   9
TORSDOF 1
ENDMDL
MODEL 6
REMARK VINA RESULT:    -4.426      2.870      3.772
REMARK INTER + INTRA:          -4.784
REMARK INTER:                  -4.687
REMARK INTRA:                  -0.097
REMARK UNBOUND:                -0.099
REMARK SMILES C=C(C)[C@H]1CC=C(C)C(=O)C1
REMARK SMILES IDX 8 1 7 2 6 3 5 4 4 5 11 6 9 7 10 8 2 9 1 10 3 11
REMARK H PARENT
REMARK Flexibility Score: inf
ROOT
ATOM      1  C   UNL     1       3.675   5.385 108.530  1.00  0.00     0.048 C 
ATOM      2  C   UNL     1       4.833   4.432 108.644  1.00  0.00    -0.012 C 
ATOM      3  C   UNL     1       5.240   4.015 109.855  1.00  0.00    -0.019 C 
ATOM      4  C   UNL     1       6.404   3.076 110.027  1.00  0.00     0.036 C 
ATOM      5  C   UNL     1       6.506   2.098 108.841  1.00  0.00     0.025 C 
ATOM      6  C   UNL     1       6.574   2.874 107.513  1.00  0.00     0.089 C 
ATOM      7  C   UNL     1       5.441   3.859 107.417  1.00  0.00     0.158 C 
ATOM      8  O   UNL     1       5.038   4.221 106.280  1.00  0.00    -0.295 OA
ENDROOT
BRANCH   5   9
ATOM      9  C   UNL     1       7.693   1.156 108.996  1.00  0.00    -0.077 C 
ATOM     10  C   UNL     1       8.934   1.586 108.716  1.00  0.00     0.008 C 
ATOM     11  C   UNL     1       7.512  -0.266 109.464  1.00  0.00     0.039 C 
ENDBRANCH   5   9
TORSDOF 1
ENDMDL
MODEL 7
REMARK VINA RESULT:    -4.401      1.998      2.821
REMARK INTER + INTRA:          -4.758
REMARK INTER:                  -4.670
REMARK INTRA:                  -0.087
REMARK UNBOUND:                -0.099
REMARK SMILES C=C(C)[C@H]1CC=C(C)C(=O)C1
REMARK SMILES IDX 8 1 7 2 6 3 5 4 4 5 11 6 9 7 10 8 2 9 1 10 3 11
REMARK H PARENT
REMARK Flexibility Score: inf
ROOT
ATOM      1  C   UNL     1       2.011   5.630 106.350  1.00  0.00     0.048 C 
ATOM      2  C   UNL     1       3.110   4.906 107.079  1.00  0.00    -0.012 C 
ATOM      3  C   UNL     1       3.561   5.382 108.252  1.00  0.00    -0.019 C 
ATOM      4  C   UNL     1       4.670   4.706 109.014  1.00  0.00     0.036 C 
ATOM      5  C   UNL     1       4.636   3.180 108.805  1.00  0.00     0.025 C 
ATOM      6  C   UNL     1       4.673   2.846 107.303  1.00  0.00     0.089 C 
ATOM      7  C   UNL     1       3.603   3.603 106.565  1.00  0.00     0.158 C 
ATOM      8  O   UNL     1       3.155   3.137 105.484  1.00  0.00    -0.295 OA
ENDROOT
BRANCH   5   9
ATOM      9  C   UNL     1       5.767   2.490 109.557  1.00  0.00    -0.077 C 
ATOM     10  C   UNL     1       5.538   1.945 110.763  1.00  0.00     0.008 C 
ATOM     11  C   UNL     1       7.156   2.397 108.976  1.00  0.00     0.039 C 
ENDBRANCH   5   9
TORSDOF 1
ENDMDL
MODEL 8
REMARK VINA RESULT:    -4.237      0.980      1.436
REMARK INTER + INTRA:          -4.584
REMARK INTER:                  -4.496
REMARK INTRA:                  -0.088
REMARK UNBOUND:                -0.099
REMARK SMILES C=C(C)[C@H]1CC=C(C)C(=O)C1
REMARK SMILES IDX 8 1 7 2 6 3 5 4 4 5 11 6 9 7 10 8 2 9 1 10 3 11
REMARK H PARENT
REMARK Flexibility Score: inf
ROOT
ATOM      1  C   UNL     1       3.470   6.772 107.841  1.00  0.00     0.048 C 
ATOM      2  C   UNL     1       3.803   5.315 107.676  1.00  0.00    -0.012 C 
ATOM      3  C   UNL     1       4.918   4.817 108.238  1.00  0.00    -0.019 C 
ATOM      4  C   UNL     1       5.307   3.369 108.090  1.00  0.00     0.036 C 
ATOM      5  C   UNL     1       4.062   2.467 108.002  1.00  0.00     0.025 C 
ATOM      6  C   UNL     1       3.139   2.940 106.865  1.00  0.00     0.089 C 
ATOM      7  C   UNL     1       2.840   4.408 107.003  1.00  0.00     0.158 C 
ATOM      8  O   UNL     1       1.777   4.867 106.507  1.00  0.00    -0.295 OA
ENDROOT
BRANCH   5   9
ATOM      9  C   UNL     1       4.447   1.003 107.833  1.00  0.00    -0.077 C 
ATOM     10  C   UNL     1       4.519   0.198 108.905  1.00  0.00     0.008 C 
ATOM     11  C   UNL     1       4.751   0.421 106.474  1.00  0.00     0.039 C 
ENDBRANCH   5   9
TORSDOF 1
ENDMDL
MODEL 9
REMARK VINA RESULT:    -4.203      2.450      3.681
REMARK INTER + INTRA:          -4.548
REMARK INTER:                  -4.450
REMARK INTRA:                  -0.098
REMARK UNBOUND:                -0.099
REMARK SMILES C=C(C)[C@H]1CC=C(C)C(=O)C1
REMARK SMILES IDX 8 1 7 2 6 3 5 4 4 5 11 6 9 7 10 8 2 9 1 10 3 11
REMARK H PARENT
REMARK Flexibility Score: inf
ROOT
ATOM      1  C   UNL     1       5.197   4.006 109.704  1.00  0.00     0.048 C 
ATOM      2  C   UNL     1       5.070   4.392 108.256  1.00  0.00    -0.012 C 
ATOM      3  C   UNL     1       5.915   3.872 107.349  1.00  0.00    -0.019 C 
ATOM      4  C   UNL     1       5.843   4.238 105.890  1.00  0.00     0.036 C 
ATOM      5  C   UNL     1       4.391   4.526 105.462  1.00  0.00     0.025 C 
ATOM      6  C   UNL     1       3.773   5.608 106.365  1.00  0.00     0.089 C 
ATOM      7  C   UNL     1       3.938   5.245 107.815  1.00  0.00     0.158 C 
ATOM      8  O   UNL     1       3.123   5.703 108.660  1.00  0.00    -0.295 OA
ENDROOT
BRANCH   5   9
ATOM      9  C   UNL     1       4.311   4.915 103.992  1.00  0.00    -0.077 C 
ATOM     10  C   UNL     1       3.493   5.907 103.602  1.00  0.00     0.008 C 
ATOM     11  C   UNL     1       5.137   4.210 102.945  1.00  0.00     0.039 C 
ENDBRANCH   5   9
TORSDOF 1
ENDMDL
