MODEL 1
REMARK VINA RESULT:    -5.020      0.000      0.000
REMARK INTER + INTRA:          -5.381
REMARK INTER:                  -5.314
REMARK INTRA:                  -0.067
REMARK UNBOUND:                -0.067
REMARK SMILES CC(=O)c1cccc(C)c1
REMARK SMILES IDX 9 1 8 2 10 3 4 4 5 5 6 6 7 7 2 8 3 9 1 10
REMARK H PARENT
REMARK Flexibility Score: inf
ROOT
ATOM      1  C   UNL     1     -30.861  45.313  37.231  1.00  0.00     0.044 C 
ATOM      2  C   UNL     1     -32.324  45.479  37.517  1.00  0.00    -0.050 A 
ATOM      3  C   UNL     1     -32.865  45.014  38.727  1.00  0.00     0.015 A 
ATOM      4  C   UNL     1     -34.244  45.130  38.992  1.00  0.00     0.017 A 
ATOM      5  C   UNL     1     -35.075  45.710  38.014  1.00  0.00     0.012 A 
ATOM      6  C   UNL     1     -34.540  46.155  36.802  1.00  0.00     0.001 A 
ATOM      7  C   UNL     1     -33.173  46.036  36.550  1.00  0.00     0.003 A 
ENDROOT
BRANCH   4   8
ATOM      8  C   UNL     1     -34.797  44.642  40.285  1.00  0.00     0.159 C 
ATOM      9  O   UNL     1     -35.149  45.470  41.168  1.00  0.00    -0.295 OA
ATOM     10  C   UNL     1     -34.951  43.179  40.579  1.00  0.00     0.093 C 
ENDBRANCH   4   8
TORSDOF 1
ENDMDL
MODEL 2
REMARK VINA RESULT:    -4.945     11.224     14.495
REMARK INTER + INTRA:          -5.301
REMARK INTER:                  -5.235
REMARK INTRA:                  -0.066
REMARK UNBOUND:                -0.067
REMARK SMILES CC(=O)c1cccc(C)c1
REMARK SMILES IDX 9 1 8 2 10 3 4 4 5 5 6 6 7 7 2 8 3 9 1 10
REMARK H PARENT
REMARK Flexibility Score: inf
ROOT
ATOM      1  C   UNL     1     -41.855  37.992  51.058  1.00  0.00     0.044 C 
ATOM      2  C   UNL     1     -41.112  37.438  49.878  1.00  0.00    -0.050 A 
ATOM      3  C   UNL     1     -40.627  38.301  48.881  1.00  0.00     0.015 A 
ATOM      4  C   UNL     1     -39.959  37.791  47.750  1.00  0.00     0.017 A 
ATOM      5  C   UNL     1     -39.800  36.397  47.629  1.00  0.00     0.012 A 
ATOM      6  C   UNL     1     -40.300  35.538  48.611  1.00  0.00     0.001 A 
ATOM      7  C   UNL     1     -40.958  36.054  49.728  1.00  0.00     0.003 A 
ENDROOT
BRANCH   4   8
ATOM      8  C   UNL     1     -39.442  38.721  46.709  1.00  0.00     0.159 C 
ATOM      9  O   UNL     1     -40.192  39.076  45.759  1.00  0.00    -0.295 OA
ATOM     10  C   UNL     1     -38.042  39.257  46.749  1.00  0.00     0.093 C 
ENDBRANCH   4   8
TORSDOF 1
ENDMDL
MODEL 3
REMARK VINA RESULT:    -4.846      1.958      4.192
REMARK INTER + INTRA:          -5.197
REMARK INTER:                  -5.119
REMARK INTRA:                  -0.079
REMARK UNBOUND:                -0.067
REMARK SMILES CC(=O)c1cccc(C)c1
REMARK SMILES IDX 9 1 8 2 10 3 4 4 5 5 6 6 7 7 2 8 3 9 1 10
REMARK H PARENT
REMARK Flexibility Score: inf
ROOT
ATOM      1  C   UNL     1     -31.687  41.265  40.928  1.00  0.00     0.044 C 
ATOM      2  C   UNL     1     -32.894  42.152  40.844  1.00  0.00    -0.050 A 
ATOM      3  C   UNL     1     -32.938  43.198  39.908  1.00  0.00     0.015 A 
ATOM      4  C   UNL     1     -34.050  44.061  39.843  1.00  0.00     0.017 A 
ATOM      5  C   UNL     1     -35.113  43.864  40.746  1.00  0.00     0.012 A 
ATOM      6  C   UNL     1     -35.060  42.835  41.690  1.00  0.00     0.001 A 
ATOM      7  C   UNL     1     -33.955  41.986  41.744  1.00  0.00     0.003 A 
ENDROOT
BRANCH   4   8
ATOM      8  C   UNL     1     -34.085  45.158  38.837  1.00  0.00     0.159 C 
ATOM      9  O   UNL     1     -35.167  45.764  38.609  1.00  0.00    -0.295 OA
ATOM     10  C   UNL     1     -32.862  45.573  38.075  1.00  0.00     0.093 C 
ENDBRANCH   4   8
TORSDOF 1
ENDMDL
MODEL 4
REMARK VINA RESULT:    -4.844      1.759      4.067
REMARK INTER + INTRA:          -5.195
REMARK INTER:                  -5.127
REMARK INTRA:                  -0.068
REMARK UNBOUND:                -0.067
REMARK SMILES CC(=O)c1cccc(C)c1
REMARK SMILES IDX 9 1 8 2 10 3 4 4 5 5 6 6 7 7 2 8 3 9 1 10
REMARK H PARENT
REMARK Flexibility Score: inf
ROOT
ATOM      1  C   UNL     1     -34.237  41.220  39.887  1.00  0.00     0.044 C 
ATOM      2  C   UNL     1     -34.505  42.696  39.893  1.00  0.00    -0.050 A 
ATOM      3  C   UNL     1     -34.141  43.485  38.789  1.00  0.00     0.015 A 
ATOM      4  C   UNL     1     -34.353  44.878  38.797  1.00  0.00     0.017 A 
ATOM      5  C   UNL     1     -34.926  45.469  39.940  1.00  0.00     0.012 A 
ATOM      6  C   UNL     1     -35.270  44.686  41.045  1.00  0.00     0.001 A 
ATOM      7  C   UNL     1     -35.056  43.308  41.027  1.00  0.00     0.003 A 
ENDROOT
BRANCH   4   8
ATOM      8  C   UNL     1     -33.971  45.696  37.613  1.00  0.00     0.159 C 
ATOM      9  O   UNL     1     -34.869  46.200  36.885  1.00  0.00    -0.295 OA
ATOM     10  C   UNL     1     -32.537  45.944  37.250  1.00  0.00     0.093 C 
ENDBRANCH   4   8
TORSDOF 1
ENDMDL
MODEL 5
REMARK VINA RESULT:    -4.828      1.677      4.565
REMARK INTER + INTRA:          -5.178
REMARK INTER:                  -5.110
REMARK INTRA:                  -0.067
REMARK UNBOUND:                -0.067
REMARK SMILES CC(=O)c1cccc(C)c1
REMARK SMILES IDX 9 1 8 2 10 3 4 4 5 5 6 6 7 7 2 8 3 9 1 10
REMARK H PARENT
REMARK Flexibility Score: inf
ROOT
ATOM      1  C   UNL     1     -35.900  44.003  42.873  1.00  0.00     0.044 C 
ATOM      2  C   UNL     1     -35.249  43.642  41.570  1.00  0.00    -0.050 A 
ATOM      3  C   UNL     1     -35.029  44.627  40.594  1.00  0.00     0.015 A 
ATOM      4  C   UNL     1     -34.451  44.295  39.352  1.00  0.00     0.017 A 
ATOM      5  C   UNL     1     -34.111  42.952  39.102  1.00  0.00     0.012 A 
ATOM      6  C   UNL     1     -34.348  41.969  40.066  1.00  0.00     0.001 A 
ATOM      7  C   UNL     1     -34.919  42.309  41.292  1.00  0.00     0.003 A 
ENDROOT
BRANCH   4   8
ATOM      8  C   UNL     1     -34.216  45.355  38.333  1.00  0.00     0.159 C 
ATOM      9  O   UNL     1     -35.198  45.921  37.781  1.00  0.00    -0.295 OA
ATOM     10  C   UNL     1     -32.834  45.778  37.933  1.00  0.00     0.093 C 
ENDBRANCH   4   8
TORSDOF 1
ENDMDL
MODEL 6
REMARK VINA RESULT:    -4.792     10.967     12.841
REMARK INTER + INTRA:          -5.139
REMARK INTER:                  -5.073
REMARK INTRA:                  -0.066
REMARK UNBOUND:                -0.067
REMARK SMILES CC(=O)c1cccc(C)c1
REMARK SMILES IDX 9 1 8 2 10 3 4 4 5 5 6 6 7 7 2 8 3 9 1 10
REMARK H PARENT
REMARK Flexibility Score: inf
ROOT
ATOM      1  C   UNL     1     -40.188  39.660  44.468  1.00  0.00     0.044 C 
ATOM      2  C   UNL     1     -39.593  39.087  45.720  1.00  0.00    -0.050 A 
ATOM      3  C   UNL     1     -40.427  38.565  46.723  1.00  0.00     0.015 A 
ATOM      4  C   UNL     1     -39.884  38.057  47.920  1.00  0.00     0.017 A 
ATOM      5  C   UNL     1     -38.487  38.095  48.099  1.00  0.00     0.012 A 
ATOM      6  C   UNL     1     -37.660  38.632  47.109  1.00  0.00     0.001 A 
ATOM      7  C   UNL     1     -38.208  39.131  45.928  1.00  0.00     0.003 A 
ENDROOT
BRANCH   4   8
ATOM      8  C   UNL     1     -40.782  37.497  48.967  1.00  0.00     0.159 C 
ATOM      9  O   UNL     1     -41.333  38.271  49.797  1.00  0.00    -0.295 OA
ATOM     10  C   UNL     1     -41.059  36.027  49.071  1.00  0.00     0.093 C 
ENDBRANCH   4   8
TORSDOF 1
ENDMDL
MODEL 7
REMARK VINA RESULT:    -4.790     11.480     13.081
REMARK INTER + INTRA:          -5.137
REMARK INTER:                  -5.069
REMARK INTRA:                  -0.068
REMARK UNBOUND:                -0.067
REMARK SMILES CC(=O)c1cccc(C)c1
REMARK SMILES IDX 9 1 8 2 10 3 4 4 5 5 6 6 7 7 2 8 3 9 1 10
REMARK H PARENT
REMARK Flexibility Score: inf
ROOT
ATOM      1  C   UNL     1     -36.466  38.445  47.113  1.00  0.00     0.044 C 
ATOM      2  C   UNL     1     -37.966  38.468  47.101  1.00  0.00    -0.050 A 
ATOM      3  C   UNL     1     -38.689  37.905  48.166  1.00  0.00     0.015 A 
ATOM      4  C   UNL     1     -40.098  37.886  48.150  1.00  0.00     0.017 A 
ATOM      5  C   UNL     1     -40.770  38.430  47.038  1.00  0.00     0.012 A 
ATOM      6  C   UNL     1     -40.050  38.973  45.971  1.00  0.00     0.001 A 
ATOM      7  C   UNL     1     -38.655  38.987  45.997  1.00  0.00     0.003 A 
ENDROOT
BRANCH   4   8
ATOM      8  C   UNL     1     -40.848  37.296  49.293  1.00  0.00     0.159 C 
ATOM      9  O   UNL     1     -41.515  38.045  50.057  1.00  0.00    -0.295 OA
ATOM     10  C   UNL     1     -40.837  35.822  49.572  1.00  0.00     0.093 C 
ENDBRANCH   4   8
TORSDOF 1
ENDMDL
MODEL 8
REMARK VINA RESULT:    -4.754      9.797     11.971
REMARK INTER + INTRA:          -5.099
REMARK INTER:                  -5.033
REMARK INTRA:                  -0.066
REMARK UNBOUND:                -0.067
REMARK SMILES CC(=O)c1cccc(C)c1
REMARK SMILES IDX 9 1 8 2 10 3 4 4 5 5 6 6 7 7 2 8 3 9 1 10
REMARK H PARENT
REMARK Flexibility Score: inf
ROOT
ATOM      1  C   UNL     1     -38.901  40.168  44.142  1.00  0.00     0.044 C 
ATOM      2  C   UNL     1     -38.501  39.000  44.994  1.00  0.00    -0.050 A 
ATOM      3  C   UNL     1     -39.177  38.739  46.197  1.00  0.00     0.015 A 
ATOM      4  C   UNL     1     -38.788  37.667  47.025  1.00  0.00     0.017 A 
ATOM      5  C   UNL     1     -37.696  36.870  46.631  1.00  0.00     0.012 A 
ATOM      6  C   UNL     1     -37.011  37.142  45.444  1.00  0.00     0.001 A 
ATOM      7  C   UNL     1     -37.406  38.205  44.631  1.00  0.00     0.003 A 
ENDROOT
BRANCH   4   8
ATOM      8  C   UNL     1     -39.524  37.398  48.291  1.00  0.00     0.159 C 
ATOM      9  O   UNL     1     -39.284  38.095  49.314  1.00  0.00    -0.295 OA
ATOM     10  C   UNL     1     -40.554  36.313  48.395  1.00  0.00     0.093 C 
ENDBRANCH   4   8
TORSDOF 1
ENDMDL
MODEL 9
REMARK VINA RESULT:    -4.718      1.821      2.296
REMARK INTER + INTRA:          -5.061
REMARK INTER:                  -4.982
REMARK INTRA:                  -0.079
REMARK UNBOUND:                -0.067
REMARK SMILES CC(=O)c1cccc(C)c1
REMARK SMILES IDX 9 1 8 2 10 3 4 4 5 5 6 6 7 7 2 8 3 9 1 10
REMARK H PARENT
REMARK Flexibility Score: inf
ROOT
ATOM      1  C   UNL     1     -31.750  45.705  37.250  1.00  0.00     0.044 C 
ATOM      2  C   UNL     1     -32.793  45.245  38.225  1.00  0.00    -0.050 A 
ATOM      3  C   UNL     1     -32.548  44.135  39.051  1.00  0.00     0.015 A 
ATOM      4  C   UNL     1     -33.533  43.670  39.945  1.00  0.00     0.017 A 
ATOM      5  C   UNL     1     -34.776  44.331  39.985  1.00  0.00     0.012 A 
ATOM      6  C   UNL     1     -35.027  45.422  39.150  1.00  0.00     0.001 A 
ATOM      7  C   UNL     1     -34.044  45.875  38.269  1.00  0.00     0.003 A 
ENDROOT
BRANCH   4   8
ATOM      8  C   UNL     1     -33.251  42.500  40.821  1.00  0.00     0.159 C 
ATOM      9  O   UNL     1     -34.085  42.165  41.705  1.00  0.00    -0.295 OA
ATOM     10  C   UNL     1     -31.992  41.695  40.688  1.00  0.00     0.093 C 
ENDBRANCH   4   8
TORSDOF 1
ENDMDL
