MODEL 1
REMARK VINA RESULT:    -4.141      0.000      0.000
REMARK INTER + INTRA:          -6.510
REMARK INTER:                  -6.320
REMARK INTRA:                  -0.190
REMARK UNBOUND:                -0.190
REMARK SMILES CC1=CCC[C@@H](C)C(=O)C[C@H](C(C)C)C(=O)C1
REMARK SMILES IDX 8 1 9 2 6 3 7 4 5 5 4 6 3 7 2 8 1 9 10 11 11 12 15 13 16 14
REMARK SMILES IDX 17 15 12 17 13 18 14 19
REMARK H PARENT
REMARK Flexibility Score: 70.00
ROOT
ATOM      1  C   UNL     1     -15.391  14.417 -30.839  1.00  0.00     0.136 C 
ATOM      2  O   UNL     1     -15.759  14.189 -31.984  1.00  0.00    -0.299 OA
ENDROOT
BRANCH   1   3
ATOM      3  C   UNL     1     -14.039  15.061 -30.585  1.00  0.00     0.053 C 
ATOM      4  C   UNL     1     -14.049  16.573 -30.857  1.00  0.00     0.016 C 
BRANCH   3   5
ATOM      5  C   UNL     1     -12.920  14.349 -31.372  1.00  0.00     0.015 C 
BRANCH   5   6
ATOM      6  C   UNL     1     -12.580  12.945 -30.837  1.00  0.00     0.028 C 
BRANCH   6   7
ATOM      7  C   UNL     1     -12.293  12.989 -29.357  1.00  0.00    -0.028 C 
ATOM      8  C   UNL     1     -13.013  12.340 -28.413  1.00  0.00    -0.070 CG0
ATOM      9  C   UNL     1     -12.628  12.538 -26.968  1.00  0.00     0.039 C 
ATOM     10  G   UNL     1     -14.172  11.411 -28.746  1.00  0.00     0.000 G0
ENDBRANCH   6   7
ENDBRANCH   5   6
ENDBRANCH   3   5
ENDBRANCH   1   3
BRANCH   1  11
ATOM     11  C   UNL     1     -16.300  14.045 -29.692  1.00  0.00     0.087 C 
BRANCH  11  12
ATOM     12  C   UNL     1     -16.422  12.508 -29.517  1.00  0.00     0.066 C 
BRANCH  12  13
ATOM     13  C   UNL     1     -15.511  12.007 -28.405  1.00  0.00     0.140 C 
ATOM     14  O   UNL     1     -15.897  12.032 -27.245  1.00  0.00    -0.299 OA
BRANCH  13  15
ATOM     15  C   UNL     1     -14.167  11.397 -28.721  1.00  0.00     0.106 CG0
ATOM     16  G   UNL     1     -13.012  12.339 -28.412  1.00  0.00     0.000 G0
ENDBRANCH  13  15
ENDBRANCH  12  13
BRANCH  12  17
ATOM     17  C   UNL     1     -17.889  12.021 -29.292  1.00  0.00    -0.006 C 
ATOM     18  C   UNL     1     -18.048  10.532 -29.640  1.00  0.00     0.008 C 
ATOM     19  C   UNL     1     -18.947  12.849 -30.046  1.00  0.00     0.008 C 
ENDBRANCH  12  17
ENDBRANCH  11  12
ENDBRANCH   1  11
TORSDOF 1
ENDMDL
MODEL 2
REMARK VINA RESULT:    -4.073      1.741      4.221
REMARK INTER + INTRA:          -6.406
REMARK INTER:                  -6.210
REMARK INTRA:                  -0.195
REMARK UNBOUND:                -0.190
REMARK SMILES CC1=CCC[C@@H](C)C(=O)C[C@H](C(C)C)C(=O)C1
REMARK SMILES IDX 8 1 9 2 6 3 7 4 5 5 4 6 3 7 2 8 1 9 10 11 11 12 15 13 16 14
REMARK SMILES IDX 17 15 12 17 13 18 14 19
REMARK H PARENT
REMARK Flexibility Score: 70.00
ROOT
ATOM      1  C   UNL     1     -13.449  12.870 -31.587  1.00  0.00     0.136 C 
ATOM      2  O   UNL     1     -12.357  12.835 -32.139  1.00  0.00    -0.299 OA
ENDROOT
BRANCH   1   3
ATOM      3  C   UNL     1     -14.467  13.930 -31.973  1.00  0.00     0.053 C 
ATOM      4  C   UNL     1     -14.538  15.074 -30.950  1.00  0.00     0.016 C 
BRANCH   3   5
ATOM      5  C   UNL     1     -15.855  13.310 -32.230  1.00  0.00     0.015 C 
BRANCH   5   6
ATOM      6  C   UNL     1     -16.935  13.767 -31.231  1.00  0.00     0.028 C 
BRANCH   6   7
ATOM      7  C   UNL     1     -17.693  12.586 -30.682  1.00  0.00    -0.028 C 
ATOM      8  C   UNL     1     -17.492  12.041 -29.459  1.00  0.00    -0.070 CG0
ATOM      9  C   UNL     1     -18.295  10.821 -29.086  1.00  0.00     0.039 C 
ATOM     10  G   UNL     1     -16.510  12.616 -28.447  1.00  0.00     0.000 G0
ENDBRANCH   6   7
ENDBRANCH   5   6
ENDBRANCH   3   5
ENDBRANCH   1   3
BRANCH   1  11
ATOM     11  C   UNL     1     -13.760  11.850 -30.518  1.00  0.00     0.087 C 
BRANCH  11  12
ATOM     12  C   UNL     1     -13.967  12.503 -29.126  1.00  0.00     0.066 C 
BRANCH  12  13
ATOM     13  C   UNL     1     -15.172  11.909 -28.412  1.00  0.00     0.140 C 
ATOM     14  O   UNL     1     -15.046  10.881 -27.761  1.00  0.00    -0.299 OA
BRANCH  13  15
ATOM     15  C   UNL     1     -16.504  12.617 -28.420  1.00  0.00     0.106 CG0
ATOM     16  G   UNL     1     -17.470  12.028 -29.439  1.00  0.00     0.000 G0
ENDBRANCH  13  15
ENDBRANCH  12  13
BRANCH  12  17
ATOM     17  C   UNL     1     -12.698  12.444 -28.216  1.00  0.00    -0.006 C 
ATOM     18  C   UNL     1     -11.854  13.724 -28.343  1.00  0.00     0.008 C 
ATOM     19  C   UNL     1     -11.810  11.209 -28.456  1.00  0.00     0.008 C 
ENDBRANCH  12  17
ENDBRANCH  11  12
ENDBRANCH   1  11
TORSDOF 1
ENDMDL
MODEL 3
REMARK VINA RESULT:    -4.070      1.600      4.250
REMARK INTER + INTRA:          -6.400
REMARK INTER:                  -6.274
REMARK INTRA:                  -0.127
REMARK UNBOUND:                -0.190
REMARK SMILES CC1=CCC[C@@H](C)C(=O)C[C@H](C(C)C)C(=O)C1
REMARK SMILES IDX 8 1 9 2 6 3 7 4 5 5 4 6 3 7 2 8 1 9 10 11 11 12 15 13 16 14
REMARK SMILES IDX 17 15 12 17 13 18 14 19
REMARK H PARENT
REMARK Flexibility Score: 70.00
ROOT
ATOM      1  C   UNL     1     -14.470  14.351 -31.250  1.00  0.00     0.136 C 
ATOM      2  O   UNL     1     -14.246  15.507 -31.583  1.00  0.00    -0.299 OA
ENDROOT
BRANCH   1   3
ATOM      3  C   UNL     1     -15.899  13.875 -31.055  1.00  0.00     0.053 C 
ATOM      4  C   UNL     1     -16.739  14.005 -32.335  1.00  0.00     0.016 C 
BRANCH   3   5
ATOM      5  C   UNL     1     -16.570  14.582 -29.860  1.00  0.00     0.015 C 
BRANCH   5   6
ATOM      6  C   UNL     1     -16.701  13.694 -28.607  1.00  0.00     0.028 C 
BRANCH   6   7
ATOM      7  C   UNL     1     -17.111  12.293 -28.982  1.00  0.00    -0.028 C 
ATOM      8  C   UNL     1     -16.304  11.209 -28.911  1.00  0.00    -0.070 CG0
ATOM      9  C   UNL     1     -16.853   9.886 -29.382  1.00  0.00     0.039 C 
ATOM     10  G   UNL     1     -14.885  11.266 -28.363  1.00  0.00     0.000 G0
ENDBRANCH   6   7
ENDBRANCH   5   6
ENDBRANCH   3   5
ENDBRANCH   1   3
BRANCH   1  11
ATOM     11  C   UNL     1     -13.304  13.415 -31.033  1.00  0.00     0.087 C 
BRANCH  11  12
ATOM     12  C   UNL     1     -13.227  12.906 -29.570  1.00  0.00     0.066 C 
BRANCH  12  13
ATOM     13  C   UNL     1     -13.846  11.522 -29.434  1.00  0.00     0.140 C 
ATOM     14  O   UNL     1     -13.457  10.610 -30.148  1.00  0.00    -0.299 OA
BRANCH  13  15
ATOM     15  C   UNL     1     -14.876  11.236 -28.369  1.00  0.00     0.106 CG0
ATOM     16  G   UNL     1     -16.293  11.204 -28.923  1.00  0.00     0.000 G0
ENDBRANCH  13  15
ENDBRANCH  12  13
BRANCH  12  17
ATOM     17  C   UNL     1     -11.780  12.926 -28.980  1.00  0.00    -0.006 C 
ATOM     18  C   UNL     1     -11.794  13.162 -27.460  1.00  0.00     0.008 C 
ATOM     19  C   UNL     1     -10.840  13.940 -29.657  1.00  0.00     0.008 C 
ENDBRANCH  12  17
ENDBRANCH  11  12
ENDBRANCH   1  11
TORSDOF 1
ENDMDL
MODEL 4
REMARK VINA RESULT:    -3.924      2.438      5.483
REMARK INTER + INTRA:          -6.178
REMARK INTER:                  -6.346
REMARK INTRA:                   0.169
REMARK UNBOUND:                -0.190
REMARK SMILES CC1=CCC[C@@H](C)C(=O)C[C@H](C(C)C)C(=O)C1
REMARK SMILES IDX 8 1 9 2 6 3 7 4 5 5 4 6 3 7 2 8 1 9 10 11 11 12 15 13 16 14
REMARK SMILES IDX 17 15 12 17 13 18 14 19
REMARK H PARENT
REMARK Flexibility Score: 70.00
ROOT
ATOM      1  C   UNL     1     -12.419  13.806 -29.518  1.00  0.00     0.136 C 
ATOM      2  O   UNL     1     -13.121  14.773 -29.253  1.00  0.00    -0.299 OA
ENDROOT
BRANCH   1   3
ATOM      3  C   UNL     1     -12.546  12.526 -28.711  1.00  0.00     0.053 C 
ATOM      4  C   UNL     1     -11.660  11.396 -29.260  1.00  0.00     0.016 C 
BRANCH   3   5
ATOM      5  C   UNL     1     -14.018  12.083 -28.584  1.00  0.00     0.015 C 
BRANCH   5   6
ATOM      6  C   UNL     1     -14.602  11.490 -29.881  1.00  0.00     0.028 C 
BRANCH   6   7
ATOM      7  C   UNL     1     -15.708  12.361 -30.419  1.00  0.00    -0.028 C 
ATOM      8  C   UNL     1     -15.665  13.020 -31.601  1.00  0.00    -0.070 CG0
ATOM      9  C   UNL     1     -16.834  13.899 -31.965  1.00  0.00     0.039 C 
ATOM     10  G   UNL     1     -14.503  12.896 -32.577  1.00  0.00     0.000 G0
ENDBRANCH   6   7
ENDBRANCH   5   6
ENDBRANCH   3   5
ENDBRANCH   1   3
BRANCH   1  11
ATOM     11  C   UNL     1     -11.429  13.912 -30.654  1.00  0.00     0.087 C 
BRANCH  11  12
ATOM     12  C   UNL     1     -11.981  13.306 -31.970  1.00  0.00     0.066 C 
BRANCH  12  13
ATOM     13  C   UNL     1     -13.370  13.843 -32.284  1.00  0.00     0.140 C 
ATOM     14  O   UNL     1     -13.555  15.049 -32.350  1.00  0.00    -0.299 OA
BRANCH  13  15
ATOM     15  C   UNL     1     -14.509  12.904 -32.602  1.00  0.00     0.106 CG0
ATOM     16  G   UNL     1     -15.658  13.027 -31.612  1.00  0.00     0.000 G0
ENDBRANCH  13  15
ENDBRANCH  12  13
BRANCH  12  17
ATOM     17  C   UNL     1     -11.025  13.496 -33.192  1.00  0.00    -0.006 C 
ATOM     18  C   UNL     1     -10.067  12.303 -33.349  1.00  0.00     0.008 C 
ATOM     19  C   UNL     1     -10.220  14.809 -33.161  1.00  0.00     0.008 C 
ENDBRANCH  12  17
ENDBRANCH  11  12
ENDBRANCH   1  11
TORSDOF 1
ENDMDL
MODEL 5
REMARK VINA RESULT:    -3.903      1.775      4.001
REMARK INTER + INTRA:          -6.147
REMARK INTER:                  -5.851
REMARK INTRA:                  -0.296
REMARK UNBOUND:                -0.190
REMARK SMILES CC1=CCC[C@@H](C)C(=O)C[C@H](C(C)C)C(=O)C1
REMARK SMILES IDX 8 1 9 2 6 3 7 4 5 5 4 6 3 7 2 8 1 9 10 11 11 12 15 13 16 14
REMARK SMILES IDX 17 15 12 17 13 18 14 19
REMARK H PARENT
REMARK Flexibility Score: 70.00
ROOT
ATOM      1  C   UNL     1     -13.824  11.655 -27.676  1.00  0.00     0.136 C 
ATOM      2  O   UNL     1     -14.508  12.078 -26.754  1.00  0.00    -0.299 OA
ENDROOT
BRANCH   1   3
ATOM      3  C   UNL     1     -12.315  11.560 -27.528  1.00  0.00     0.053 C 
ATOM      4  C   UNL     1     -11.890  10.441 -26.565  1.00  0.00     0.016 C 
BRANCH   3   5
ATOM      5  C   UNL     1     -11.702  12.917 -27.129  1.00  0.00     0.015 C 
BRANCH   5   6
ATOM      6  C   UNL     1     -11.770  13.982 -28.241  1.00  0.00     0.028 C 
BRANCH   6   7
ATOM      7  C   UNL     1     -11.107  13.485 -29.501  1.00  0.00    -0.028 C 
ATOM      8  C   UNL     1     -11.715  13.393 -30.707  1.00  0.00    -0.070 CG0
ATOM      9  C   UNL     1     -10.925  12.818 -31.855  1.00  0.00     0.039 C 
ATOM     10  G   UNL     1     -13.142  13.858 -30.954  1.00  0.00     0.000 G0
ENDBRANCH   6   7
ENDBRANCH   5   6
ENDBRANCH   3   5
ENDBRANCH   1   3
BRANCH   1  11
ATOM     11  C   UNL     1     -14.505  11.238 -28.958  1.00  0.00     0.087 C 
BRANCH  11  12
ATOM     12  C   UNL     1     -15.024  12.454 -29.769  1.00  0.00     0.066 C 
BRANCH  12  13
ATOM     13  C   UNL     1     -14.143  12.725 -30.980  1.00  0.00     0.140 C 
ATOM     14  O   UNL     1     -14.288  12.061 -31.997  1.00  0.00    -0.299 OA
BRANCH  13  15
ATOM     15  C   UNL     1     -13.150  13.861 -30.978  1.00  0.00     0.106 CG0
ATOM     16  G   UNL     1     -11.730  13.392 -30.695  1.00  0.00     0.000 G0
ENDBRANCH  13  15
ENDBRANCH  12  13
BRANCH  12  17
ATOM     17  C   UNL     1     -16.523  12.328 -30.190  1.00  0.00    -0.006 C 
ATOM     18  C   UNL     1     -17.060  13.650 -30.766  1.00  0.00     0.008 C 
ATOM     19  C   UNL     1     -17.452  11.834 -29.065  1.00  0.00     0.008 C 
ENDBRANCH  12  17
ENDBRANCH  11  12
ENDBRANCH   1  11
TORSDOF 1
ENDMDL
MODEL 6
REMARK VINA RESULT:    -3.832      1.812      3.213
REMARK INTER + INTRA:          -6.038
REMARK INTER:                  -6.363
REMARK INTRA:                   0.325
REMARK UNBOUND:                -0.190
REMARK SMILES CC1=CCC[C@@H](C)C(=O)C[C@H](C(C)C)C(=O)C1
REMARK SMILES IDX 8 1 9 2 6 3 7 4 5 5 4 6 3 7 2 8 1 9 10 11 11 12 15 13 16 14
REMARK SMILES IDX 17 15 12 17 13 18 14 19
REMARK H PARENT
REMARK Flexibility Score: 70.00
ROOT
ATOM      1  C   UNL     1     -16.472  13.939 -29.512  1.00  0.00     0.136 C 
ATOM      2  O   UNL     1     -15.975  15.049 -29.375  1.00  0.00    -0.299 OA
ENDROOT
BRANCH   1   3
ATOM      3  C   UNL     1     -17.254  13.601 -30.770  1.00  0.00     0.053 C 
ATOM      4  C   UNL     1     -17.995  12.260 -30.658  1.00  0.00     0.016 C 
BRANCH   3   5
ATOM      5  C   UNL     1     -16.354  13.649 -32.022  1.00  0.00     0.015 C 
BRANCH   5   6
ATOM      6  C   UNL     1     -15.221  12.604 -32.014  1.00  0.00     0.028 C 
BRANCH   6   7
ATOM      7  C   UNL     1     -13.872  13.276 -32.002  1.00  0.00    -0.028 C 
ATOM      8  C   UNL     1     -12.885  13.008 -31.114  1.00  0.00    -0.070 CG0
ATOM      9  C   UNL     1     -11.614  13.814 -31.203  1.00  0.00     0.039 C 
ATOM     10  G   UNL     1     -12.999  11.925 -30.050  1.00  0.00     0.000 G0
ENDBRANCH   6   7
ENDBRANCH   5   6
ENDBRANCH   3   5
ENDBRANCH   1   3
BRANCH   1  11
ATOM     11  C   UNL     1     -16.297  12.920 -28.411  1.00  0.00     0.087 C 
BRANCH  11  12
ATOM     12  C   UNL     1     -15.307  11.793 -28.809  1.00  0.00     0.066 C 
BRANCH  12  13
ATOM     13  C   UNL     1     -13.881  12.316 -28.892  1.00  0.00     0.140 C 
ATOM     14  O   UNL     1     -13.432  13.006 -27.988  1.00  0.00    -0.299 OA
BRANCH  13  15
ATOM     15  C   UNL     1     -12.978  11.925 -30.037  1.00  0.00     0.106 CG0
ATOM     16  G   UNL     1     -12.881  13.009 -31.100  1.00  0.00     0.000 G0
ENDBRANCH  13  15
ENDBRANCH  12  13
BRANCH  12  17
ATOM     17  C   UNL     1     -15.384  10.540 -27.878  1.00  0.00    -0.006 C 
ATOM     18  C   UNL     1     -16.809   9.962 -27.828  1.00  0.00     0.008 C 
ATOM     19  C   UNL     1     -14.872  10.789 -26.447  1.00  0.00     0.008 C 
ENDBRANCH  12  17
ENDBRANCH  11  12
ENDBRANCH   1  11
TORSDOF 1
ENDMDL
MODEL 7
REMARK VINA RESULT:    -3.773      1.371      4.164
REMARK INTER + INTRA:          -5.948
REMARK INTER:                  -6.358
REMARK INTRA:                   0.410
REMARK UNBOUND:                -0.190
REMARK SMILES CC1=CCC[C@@H](C)C(=O)C[C@H](C(C)C)C(=O)C1
REMARK SMILES IDX 8 1 9 2 6 3 7 4 5 5 4 6 3 7 2 8 1 9 10 11 11 12 15 13 16 14
REMARK SMILES IDX 17 15 12 17 13 18 14 19
REMARK H PARENT
REMARK Flexibility Score: 70.00
ROOT
ATOM      1  C   UNL     1     -16.937  13.119 -29.356  1.00  0.00     0.136 C 
ATOM      2  O   UNL     1     -16.973  13.631 -28.246  1.00  0.00    -0.299 OA
ENDROOT
BRANCH   1   3
ATOM      3  C   UNL     1     -17.773  11.886 -29.657  1.00  0.00     0.053 C 
ATOM      4  C   UNL     1     -19.269  12.211 -29.788  1.00  0.00     0.016 C 
BRANCH   3   5
ATOM      5  C   UNL     1     -17.523  10.770 -28.623  1.00  0.00     0.015 C 
BRANCH   5   6
ATOM      6  C   UNL     1     -16.143  10.097 -28.757  1.00  0.00     0.028 C 
BRANCH   6   7
ATOM      7  C   UNL     1     -15.138  10.746 -27.839  1.00  0.00    -0.028 C 
ATOM      8  C   UNL     1     -13.906  11.163 -28.217  1.00  0.00    -0.070 CG0
ATOM      9  C   UNL     1     -12.999  11.739 -27.159  1.00  0.00     0.039 C 
ATOM     10  G   UNL     1     -13.412  11.093 -29.654  1.00  0.00     0.000 G0
ENDBRANCH   6   7
ENDBRANCH   5   6
ENDBRANCH   3   5
ENDBRANCH   1   3
BRANCH   1  11
ATOM     11  C   UNL     1     -16.048  13.729 -30.413  1.00  0.00     0.087 C 
BRANCH  11  12
ATOM     12  C   UNL     1     -14.547  13.432 -30.158  1.00  0.00     0.066 C 
BRANCH  12  13
ATOM     13  C   UNL     1     -14.185  12.016 -30.583  1.00  0.00     0.140 C 
ATOM     14  O   UNL     1     -14.449  11.635 -31.715  1.00  0.00    -0.299 OA
BRANCH  13  15
ATOM     15  C   UNL     1     -13.425  11.099 -29.656  1.00  0.00     0.106 CG0
ATOM     16  G   UNL     1     -13.918  11.185 -28.219  1.00  0.00     0.000 G0
ENDBRANCH  13  15
ENDBRANCH  12  13
BRANCH  12  17
ATOM     17  C   UNL     1     -13.585  14.471 -30.819  1.00  0.00    -0.006 C 
ATOM     18  C   UNL     1     -12.135  14.278 -30.344  1.00  0.00     0.008 C 
ATOM     19  C   UNL     1     -14.010  15.937 -30.615  1.00  0.00     0.008 C 
ENDBRANCH  12  17
ENDBRANCH  11  12
ENDBRANCH   1  11
TORSDOF 1
ENDMDL
MODEL 8
REMARK VINA RESULT:    -3.608      2.199      4.677
REMARK INTER + INTRA:          -5.697
REMARK INTER:                  -5.596
REMARK INTRA:                  -0.101
REMARK UNBOUND:                -0.190
REMARK SMILES CC1=CCC[C@@H](C)C(=O)C[C@H](C(C)C)C(=O)C1
REMARK SMILES IDX 8 1 9 2 6 3 7 4 5 5 4 6 3 7 2 8 1 9 10 11 11 12 15 13 16 14
REMARK SMILES IDX 17 15 12 17 13 18 14 19
REMARK H PARENT
REMARK Flexibility Score: 70.00
ROOT
ATOM      1  C   UNL     1     -14.165  13.770 -31.675  1.00  0.00     0.136 C 
ATOM      2  O   UNL     1     -14.048  14.983 -31.782  1.00  0.00    -0.299 OA
ENDROOT
BRANCH   1   3
ATOM      3  C   UNL     1     -15.499  13.164 -31.273  1.00  0.00     0.053 C 
ATOM      4  C   UNL     1     -16.682  13.812 -32.007  1.00  0.00     0.016 C 
BRANCH   3   5
ATOM      5  C   UNL     1     -15.692  13.194 -29.744  1.00  0.00     0.015 C 
BRANCH   5   6
ATOM      6  C   UNL     1     -15.006  12.027 -29.007  1.00  0.00     0.028 C 
BRANCH   6   7
ATOM      7  C   UNL     1     -13.959  12.538 -28.050  1.00  0.00    -0.028 C 
ATOM      8  C   UNL     1     -12.624  12.402 -28.225  1.00  0.00    -0.070 CG0
ATOM      9  C   UNL     1     -11.712  12.918 -27.141  1.00  0.00     0.039 C 
ATOM     10  G   UNL     1     -12.010  11.772 -29.467  1.00  0.00     0.000 G0
ENDBRANCH   6   7
ENDBRANCH   5   6
ENDBRANCH   3   5
ENDBRANCH   1   3
BRANCH   1  11
ATOM     11  C   UNL     1     -12.965  12.894 -31.944  1.00  0.00     0.087 C 
BRANCH  11  12
ATOM     12  C   UNL     1     -11.653  13.514 -31.397  1.00  0.00     0.066 C 
BRANCH  12  13
ATOM     13  C   UNL     1     -11.103  12.702 -30.233  1.00  0.00     0.140 C 
ATOM     14  O   UNL     1      -9.949  12.870 -29.867  1.00  0.00    -0.299 OA
BRANCH  13  15
ATOM     15  C   UNL     1     -11.988  11.752 -29.465  1.00  0.00     0.106 CG0
ATOM     16  G   UNL     1     -12.621  12.404 -28.244  1.00  0.00     0.000 G0
ENDBRANCH  13  15
ENDBRANCH  12  13
BRANCH  12  17
ATOM     17  C   UNL     1     -10.559  13.723 -32.493  1.00  0.00    -0.006 C 
ATOM     18  C   UNL     1     -10.658  15.120 -33.129  1.00  0.00     0.008 C 
ATOM     19  C   UNL     1     -10.559  12.647 -33.594  1.00  0.00     0.008 C 
ENDBRANCH  12  17
ENDBRANCH  11  12
ENDBRANCH   1  11
TORSDOF 1
ENDMDL
MODEL 9
REMARK VINA RESULT:    -3.594      2.224      4.971
REMARK INTER + INTRA:          -5.675
REMARK INTER:                  -5.776
REMARK INTRA:                   0.101
REMARK UNBOUND:                -0.190
REMARK SMILES CC1=CCC[C@@H](C)C(=O)C[C@H](C(C)C)C(=O)C1
REMARK SMILES IDX 8 1 9 2 6 3 7 4 5 5 4 6 3 7 2 8 1 9 10 11 11 12 15 13 16 14
REMARK SMILES IDX 17 15 12 17 13 18 14 19
REMARK H PARENT
REMARK Flexibility Score: 70.00
ROOT
ATOM      1  C   UNL     1     -11.591  13.189 -27.673  1.00  0.00     0.136 C 
ATOM      2  O   UNL     1     -12.081  14.020 -26.920  1.00  0.00    -0.299 OA
ENDROOT
BRANCH   1   3
ATOM      3  C   UNL     1     -11.207  11.815 -27.149  1.00  0.00     0.053 C 
ATOM      4  C   UNL     1     -10.594  10.923 -28.239  1.00  0.00     0.016 C 
BRANCH   3   5
ATOM      5  C   UNL     1     -12.398  11.125 -26.453  1.00  0.00     0.015 C 
BRANCH   5   6
ATOM      6  C   UNL     1     -13.477  10.616 -27.427  1.00  0.00     0.028 C 
BRANCH   6   7
ATOM      7  C   UNL     1     -14.764  11.381 -27.250  1.00  0.00    -0.028 C 
ATOM      8  C   UNL     1     -15.370  12.104 -28.221  1.00  0.00    -0.070 CG0
ATOM      9  C   UNL     1     -16.624  12.860 -27.862  1.00  0.00     0.039 C 
ATOM     10  G   UNL     1     -14.854  12.169 -29.651  1.00  0.00     0.000 G0
ENDBRANCH   6   7
ENDBRANCH   5   6
ENDBRANCH   3   5
ENDBRANCH   1   3
BRANCH   1  11
ATOM     11  C   UNL     1     -11.374  13.555 -29.122  1.00  0.00     0.087 C 
BRANCH  11  12
ATOM     12  C   UNL     1     -12.333  12.788 -30.070  1.00  0.00     0.066 C 
BRANCH  12  13
ATOM     13  C   UNL     1     -13.779  13.205 -29.845  1.00  0.00     0.140 C 
ATOM     14  O   UNL     1     -14.083  14.388 -29.879  1.00  0.00    -0.299 OA
BRANCH  13  15
ATOM     15  C   UNL     1     -14.864  12.171 -29.666  1.00  0.00     0.106 CG0
ATOM     16  G   UNL     1     -15.368  12.098 -28.232  1.00  0.00     0.000 G0
ENDBRANCH  13  15
ENDBRANCH  12  13
BRANCH  12  17
ATOM     17  C   UNL     1     -11.948  12.914 -31.579  1.00  0.00    -0.006 C 
ATOM     18  C   UNL     1     -10.742  12.026 -31.929  1.00  0.00     0.008 C 
ATOM     19  C   UNL     1     -11.683  14.359 -32.041  1.00  0.00     0.008 C 
ENDBRANCH  12  17
ENDBRANCH  11  12
ENDBRANCH   1  11
TORSDOF 1
ENDMDL
