MODEL 1
REMARK VINA RESULT:    -3.827      0.000      0.000
REMARK INTER + INTRA:         -10.082
REMARK INTER:                  -7.407
REMARK INTRA:                  -2.674
REMARK UNBOUND:                -2.674
REMARK SMILES CCCCCCCCCCCCCCCCCC(=O)[O-]
REMARK SMILES IDX 10 1 11 2 12 3 13 4 14 5 15 6 16 7 17 8 18 9 19 10 20 11
REMARK SMILES IDX 9 12 8 13 7 14 6 15 5 16 4 17 3 18 2 19 1 20
REMARK H PARENT
REMARK Flexibility Score: inf
ROOT
ATOM      1  C   UNL     1      30.062  -3.059  -3.830  1.00  0.00     0.000 C 
ENDROOT
BRANCH   1   2
ATOM      2  C   UNL     1      29.729  -3.366  -2.359  1.00  0.00     0.000 C 
BRANCH   2   3
ATOM      3  C   UNL     1      29.087  -2.198  -1.584  1.00  0.00     0.000 C 
BRANCH   3   4
ATOM      4  C   UNL     1      27.655  -1.827  -2.019  1.00  0.00     0.000 C 
BRANCH   4   5
ATOM      5  C   UNL     1      27.450  -0.353  -2.408  1.00  0.00     0.000 C 
BRANCH   5   6
ATOM      6  C   UNL     1      28.565   0.184  -3.320  1.00  0.00     0.000 C 
BRANCH   6   7
ATOM      7  C   UNL     1      28.190   0.132  -4.813  1.00  0.00     0.006 C 
BRANCH   7   8
ATOM      8  C   UNL     1      29.379  -0.097  -5.760  1.00  0.00     0.053 C 
BRANCH   8   9
ATOM      9  C   UNL     1      28.938  -0.276  -7.180  1.00  0.00     0.041 C 
ATOM     10  O   UNL     1      27.729  -0.514  -7.443  1.00  0.00    -0.550 OA
ATOM     11  O   UNL     1      29.856  -0.149  -8.215  1.00  0.00    -0.550 OA
ENDBRANCH   8   9
ENDBRANCH   7   8
ENDBRANCH   6   7
ENDBRANCH   5   6
ENDBRANCH   4   5
ENDBRANCH   3   4
ENDBRANCH   2   3
ENDBRANCH   1   2
BRANCH   1  12
ATOM     12  C   UNL     1      29.647  -4.193  -4.783  1.00  0.00     0.000 C 
BRANCH  12  13
ATOM     13  C   UNL     1      28.573  -3.752  -5.789  1.00  0.00    -0.000 C 
BRANCH  13  14
ATOM     14  C   UNL     1      27.215  -3.479  -5.119  1.00  0.00    -0.000 C 
BRANCH  14  15
ATOM     15  C   UNL     1      26.345  -4.742  -5.016  1.00  0.00    -0.000 C 
BRANCH  15  16
ATOM     16  C   UNL     1      26.504  -5.668  -6.234  1.00  0.00    -0.000 C 
BRANCH  16  17
ATOM     17  C   UNL     1      26.808  -7.121  -5.836  1.00  0.00    -0.000 C 
BRANCH  17  18
ATOM     18  C   UNL     1      28.155  -7.616  -6.384  1.00  0.00    -0.000 C 
BRANCH  18  19
ATOM     19  C   UNL     1      29.095  -8.023  -5.242  1.00  0.00    -0.003 C 
ATOM     20  C   UNL     1      28.582  -7.514  -3.898  1.00  0.00     0.004 C 
ENDBRANCH  18  19
ENDBRANCH  17  18
ENDBRANCH  16  17
ENDBRANCH  15  16
ENDBRANCH  14  15
ENDBRANCH  13  14
ENDBRANCH  12  13
ENDBRANCH   1  12
TORSDOF 16
ENDMDL
MODEL 2
REMARK VINA RESULT:    -3.735      2.720      4.190
REMARK INTER + INTRA:          -9.904
REMARK INTER:                  -7.350
REMARK INTRA:                  -2.553
REMARK UNBOUND:                -2.674
REMARK SMILES CCCCCCCCCCCCCCCCCC(=O)[O-]
REMARK SMILES IDX 10 1 11 2 12 3 13 4 14 5 15 6 16 7 17 8 18 9 19 10 20 11
REMARK SMILES IDX 9 12 8 13 7 14 6 15 5 16 4 17 3 18 2 19 1 20
REMARK H PARENT
REMARK Flexibility Score: inf
ROOT
ATOM      1  C   UNL     1      26.973  -3.884  -4.472  1.00  0.00     0.000 C 
ENDROOT
BRANCH   1   2
ATOM      2  C   UNL     1      27.517  -3.219  -5.749  1.00  0.00     0.000 C 
BRANCH   2   3
ATOM      3  C   UNL     1      27.877  -1.727  -5.599  1.00  0.00     0.000 C 
BRANCH   3   4
ATOM      4  C   UNL     1      27.464  -1.083  -4.259  1.00  0.00     0.000 C 
BRANCH   4   5
ATOM      5  C   UNL     1      28.248   0.184  -3.874  1.00  0.00     0.000 C 
BRANCH   5   6
ATOM      6  C   UNL     1      29.215  -0.047  -2.701  1.00  0.00     0.000 C 
BRANCH   6   7
ATOM      7  C   UNL     1      29.334  -1.532  -2.310  1.00  0.00     0.006 C 
BRANCH   7   8
ATOM      8  C   UNL     1      28.867  -1.853  -0.881  1.00  0.00     0.053 C 
BRANCH   8   9
ATOM      9  C   UNL     1      27.374  -1.824  -0.760  1.00  0.00     0.041 C 
ATOM     10  O   UNL     1      26.696  -2.852  -1.030  1.00  0.00    -0.550 OA
ATOM     11  O   UNL     1      26.733  -0.674  -0.319  1.00  0.00    -0.550 OA
ENDBRANCH   8   9
ENDBRANCH   7   8
ENDBRANCH   6   7
ENDBRANCH   5   6
ENDBRANCH   4   5
ENDBRANCH   3   4
ENDBRANCH   2   3
ENDBRANCH   1   2
BRANCH   1  12
ATOM     12  C   UNL     1      28.057  -4.652  -3.694  1.00  0.00     0.000 C 
BRANCH  12  13
ATOM     13  C   UNL     1      29.349  -4.828  -4.506  1.00  0.00    -0.000 C 
BRANCH  13  14
ATOM     14  C   UNL     1      30.125  -6.096  -4.110  1.00  0.00    -0.000 C 
BRANCH  14  15
ATOM     15  C   UNL     1      29.220  -7.334  -4.013  1.00  0.00    -0.000 C 
BRANCH  15  16
ATOM     16  C   UNL     1      29.424  -8.308  -5.186  1.00  0.00    -0.000 C 
BRANCH  16  17
ATOM     17  C   UNL     1      28.417  -8.083  -6.324  1.00  0.00    -0.000 C 
BRANCH  17  18
ATOM     18  C   UNL     1      27.095  -7.475  -5.832  1.00  0.00    -0.000 C 
BRANCH  18  19
ATOM     19  C   UNL     1      26.460  -6.595  -6.916  1.00  0.00    -0.003 C 
ATOM     20  C   UNL     1      27.442  -6.327  -8.053  1.00  0.00     0.004 C 
ENDBRANCH  18  19
ENDBRANCH  17  18
ENDBRANCH  16  17
ENDBRANCH  15  16
ENDBRANCH  14  15
ENDBRANCH  13  14
ENDBRANCH  12  13
ENDBRANCH   1  12
TORSDOF 16
ENDMDL
MODEL 3
REMARK VINA RESULT:    -3.714      2.958      6.452
REMARK INTER + INTRA:          -9.862
REMARK INTER:                  -8.175
REMARK INTRA:                  -1.687
REMARK UNBOUND:                -2.674
REMARK SMILES CCCCCCCCCCCCCCCCCC(=O)[O-]
REMARK SMILES IDX 10 1 11 2 12 3 13 4 14 5 15 6 16 7 17 8 18 9 19 10 20 11
REMARK SMILES IDX 9 12 8 13 7 14 6 15 5 16 4 17 3 18 2 19 1 20
REMARK H PARENT
REMARK Flexibility Score: inf
ROOT
ATOM      1  C   UNL     1      28.086  -2.008  -5.506  1.00  0.00     0.000 C 
ENDROOT
BRANCH   1   2
ATOM      2  C   UNL     1      28.011  -3.545  -5.542  1.00  0.00     0.000 C 
BRANCH   2   3
ATOM      3  C   UNL     1      26.704  -4.142  -4.983  1.00  0.00     0.000 C 
BRANCH   3   4
ATOM      4  C   UNL     1      26.854  -4.937  -3.670  1.00  0.00     0.000 C 
BRANCH   4   5
ATOM      5  C   UNL     1      26.956  -6.463  -3.837  1.00  0.00     0.000 C 
BRANCH   5   6
ATOM      6  C   UNL     1      28.399  -6.981  -3.721  1.00  0.00     0.000 C 
BRANCH   6   7
ATOM      7  C   UNL     1      29.093  -7.120  -5.089  1.00  0.00     0.006 C 
BRANCH   7   8
ATOM      8  C   UNL     1      28.534  -8.245  -5.974  1.00  0.00     0.053 C 
BRANCH   8   9
ATOM      9  C   UNL     1      27.940  -7.715  -7.244  1.00  0.00     0.041 C 
ATOM     10  O   UNL     1      28.482  -7.971  -8.352  1.00  0.00    -0.550 OA
ATOM     11  O   UNL     1      26.771  -6.967  -7.206  1.00  0.00    -0.550 OA
ENDBRANCH   8   9
ENDBRANCH   7   8
ENDBRANCH   6   7
ENDBRANCH   5   6
ENDBRANCH   4   5
ENDBRANCH   3   4
ENDBRANCH   2   3
ENDBRANCH   1   2
BRANCH   1  12
ATOM     12  C   UNL     1      27.036  -1.383  -4.570  1.00  0.00     0.000 C 
BRANCH  12  13
ATOM     13  C   UNL     1      27.574  -1.166  -3.147  1.00  0.00    -0.000 C 
BRANCH  13  14
ATOM     14  C   UNL     1      29.049  -1.581  -3.005  1.00  0.00    -0.000 C 
BRANCH  14  15
ATOM     15  C   UNL     1      29.270  -2.585  -1.864  1.00  0.00    -0.000 C 
BRANCH  15  16
ATOM     16  C   UNL     1      28.169  -2.511  -0.791  1.00  0.00    -0.000 C 
BRANCH  16  17
ATOM     17  C   UNL     1      28.522  -1.547   0.352  1.00  0.00    -0.000 C 
BRANCH  17  18
ATOM     18  C   UNL     1      28.370  -2.191   1.738  1.00  0.00    -0.000 C 
BRANCH  18  19
ATOM     19  C   UNL     1      29.000  -3.589   1.764  1.00  0.00    -0.003 C 
ATOM     20  C   UNL     1      28.234  -4.521   2.699  1.00  0.00     0.004 C 
ENDBRANCH  18  19
ENDBRANCH  17  18
ENDBRANCH  16  17
ENDBRANCH  15  16
ENDBRANCH  14  15
ENDBRANCH  13  14
ENDBRANCH  12  13
ENDBRANCH   1  12
TORSDOF 16
ENDMDL
MODEL 4
REMARK VINA RESULT:    -3.679      3.848      7.276
REMARK INTER + INTRA:          -9.793
REMARK INTER:                  -8.505
REMARK INTRA:                  -1.288
REMARK UNBOUND:                -2.674
REMARK SMILES CCCCCCCCCCCCCCCCCC(=O)[O-]
REMARK SMILES IDX 10 1 11 2 12 3 13 4 14 5 15 6 16 7 17 8 18 9 19 10 20 11
REMARK SMILES IDX 9 12 8 13 7 14 6 15 5 16 4 17 3 18 2 19 1 20
REMARK H PARENT
REMARK Flexibility Score: inf
ROOT
ATOM      1  C   UNL     1      27.219  -2.019  -0.896  1.00  0.00     0.000 C 
ENDROOT
BRANCH   1   2
ATOM      2  C   UNL     1      27.999  -2.718  -2.024  1.00  0.00     0.000 C 
BRANCH   2   3
ATOM      3  C   UNL     1      27.405  -2.528  -3.434  1.00  0.00     0.000 C 
BRANCH   3   4
ATOM      4  C   UNL     1      27.212  -3.826  -4.246  1.00  0.00     0.000 C 
BRANCH   4   5
ATOM      5  C   UNL     1      26.661  -5.021  -3.447  1.00  0.00     0.000 C 
BRANCH   5   6
ATOM      6  C   UNL     1      26.427  -6.265  -4.320  1.00  0.00     0.000 C 
BRANCH   6   7
ATOM      7  C   UNL     1      26.656  -5.992  -5.819  1.00  0.00     0.006 C 
BRANCH   7   8
ATOM      8  C   UNL     1      26.656  -7.250  -6.702  1.00  0.00     0.053 C 
BRANCH   8   9
ATOM      9  C   UNL     1      28.037  -7.797  -6.897  1.00  0.00     0.041 C 
ATOM     10  O   UNL     1      28.448  -8.081  -8.054  1.00  0.00    -0.550 OA
ATOM     11  O   UNL     1      28.880  -7.964  -5.807  1.00  0.00    -0.550 OA
ENDBRANCH   8   9
ENDBRANCH   7   8
ENDBRANCH   6   7
ENDBRANCH   5   6
ENDBRANCH   4   5
ENDBRANCH   3   4
ENDBRANCH   2   3
ENDBRANCH   1   2
BRANCH   1  12
ATOM     12  C   UNL     1      27.275  -0.485  -0.996  1.00  0.00     0.000 C 
BRANCH  12  13
ATOM     13  C   UNL     1      27.899   0.164   0.249  1.00  0.00    -0.000 C 
BRANCH  13  14
ATOM     14  C   UNL     1      29.350  -0.289   0.483  1.00  0.00    -0.000 C 
BRANCH  14  15
ATOM     15  C   UNL     1      29.613  -0.691   1.943  1.00  0.00    -0.000 C 
BRANCH  15  16
ATOM     16  C   UNL     1      28.314  -0.934   2.731  1.00  0.00    -0.000 C 
BRANCH  16  17
ATOM     17  C   UNL     1      28.237  -2.350   3.323  1.00  0.00    -0.000 C 
BRANCH  17  18
ATOM     18  C   UNL     1      28.245  -3.443   2.244  1.00  0.00    -0.000 C 
BRANCH  18  19
ATOM     19  C   UNL     1      28.184  -4.839   2.878  1.00  0.00    -0.003 C 
ATOM     20  C   UNL     1      28.250  -4.755   4.400  1.00  0.00     0.004 C 
ENDBRANCH  18  19
ENDBRANCH  17  18
ENDBRANCH  16  17
ENDBRANCH  15  16
ENDBRANCH  14  15
ENDBRANCH  13  14
ENDBRANCH  12  13
ENDBRANCH   1  12
TORSDOF 16
ENDMDL
MODEL 5
REMARK VINA RESULT:    -3.665      3.577      5.067
REMARK INTER + INTRA:          -9.768
REMARK INTER:                  -7.591
REMARK INTRA:                  -2.177
REMARK UNBOUND:                -2.674
REMARK SMILES CCCCCCCCCCCCCCCCCC(=O)[O-]
REMARK SMILES IDX 10 1 11 2 12 3 13 4 14 5 15 6 16 7 17 8 18 9 19 10 20 11
REMARK SMILES IDX 9 12 8 13 7 14 6 15 5 16 4 17 3 18 2 19 1 20
REMARK H PARENT
REMARK Flexibility Score: inf
ROOT
ATOM      1  C   UNL     1      27.170  -2.974  -4.682  1.00  0.00     0.000 C 
ENDROOT
BRANCH   1   2
ATOM      2  C   UNL     1      27.079  -1.442  -4.561  1.00  0.00     0.000 C 
BRANCH   2   3
ATOM      3  C   UNL     1      28.435  -0.723  -4.423  1.00  0.00     0.000 C 
BRANCH   3   4
ATOM      4  C   UNL     1      28.638   0.050  -3.104  1.00  0.00     0.000 C 
BRANCH   4   5
ATOM      5  C   UNL     1      29.558  -0.636  -2.078  1.00  0.00     0.000 C 
BRANCH   5   6
ATOM      6  C   UNL     1      29.095  -0.425  -0.627  1.00  0.00     0.000 C 
BRANCH   6   7
ATOM      7  C   UNL     1      27.897  -1.317  -0.248  1.00  0.00     0.006 C 
BRANCH   7   8
ATOM      8  C   UNL     1      28.280  -2.722   0.242  1.00  0.00     0.053 C 
BRANCH   8   9
ATOM      9  C   UNL     1      28.182  -2.842   1.732  1.00  0.00     0.041 C 
ATOM     10  O   UNL     1      28.152  -3.978   2.276  1.00  0.00    -0.550 OA
ATOM     11  O   UNL     1      28.157  -1.700   2.522  1.00  0.00    -0.550 OA
ENDBRANCH   8   9
ENDBRANCH   7   8
ENDBRANCH   6   7
ENDBRANCH   5   6
ENDBRANCH   4   5
ENDBRANCH   3   4
ENDBRANCH   2   3
ENDBRANCH   1   2
BRANCH   1  12
ATOM     12  C   UNL     1      27.467  -3.660  -3.337  1.00  0.00     0.000 C 
BRANCH  12  13
ATOM     13  C   UNL     1      28.942  -4.066  -3.198  1.00  0.00    -0.000 C 
BRANCH  13  14
ATOM     14  C   UNL     1      29.496  -4.720  -4.476  1.00  0.00    -0.000 C 
BRANCH  14  15
ATOM     15  C   UNL     1      30.125  -6.096  -4.209  1.00  0.00    -0.000 C 
BRANCH  15  16
ATOM     16  C   UNL     1      29.071  -7.211  -4.081  1.00  0.00    -0.000 C 
BRANCH  16  17
ATOM     17  C   UNL     1      29.174  -8.253  -5.205  1.00  0.00    -0.000 C 
BRANCH  17  18
ATOM     18  C   UNL     1      28.306  -7.898  -6.422  1.00  0.00    -0.000 C 
BRANCH  18  19
ATOM     19  C   UNL     1      26.978  -7.268  -5.983  1.00  0.00    -0.003 C 
ATOM     20  C   UNL     1      26.649  -6.037  -6.823  1.00  0.00     0.004 C 
ENDBRANCH  18  19
ENDBRANCH  17  18
ENDBRANCH  16  17
ENDBRANCH  15  16
ENDBRANCH  14  15
ENDBRANCH  13  14
ENDBRANCH  12  13
ENDBRANCH   1  12
TORSDOF 16
ENDMDL
MODEL 6
REMARK VINA RESULT:    -3.657      3.834      5.184
REMARK INTER + INTRA:          -9.751
REMARK INTER:                  -7.833
REMARK INTRA:                  -1.919
REMARK UNBOUND:                -2.674
REMARK SMILES CCCCCCCCCCCCCCCCCC(=O)[O-]
REMARK SMILES IDX 10 1 11 2 12 3 13 4 14 5 15 6 16 7 17 8 18 9 19 10 20 11
REMARK SMILES IDX 9 12 8 13 7 14 6 15 5 16 4 17 3 18 2 19 1 20
REMARK H PARENT
REMARK Flexibility Score: inf
ROOT
ATOM      1  C   UNL     1      29.336  -1.930  -4.977  1.00  0.00     0.000 C 
ENDROOT
BRANCH   1   2
ATOM      2  C   UNL     1      29.256  -1.297  -3.576  1.00  0.00     0.000 C 
BRANCH   2   3
ATOM      3  C   UNL     1      27.828  -0.972  -3.094  1.00  0.00     0.000 C 
BRANCH   3   4
ATOM      4  C   UNL     1      27.591  -1.143  -1.579  1.00  0.00     0.000 C 
BRANCH   4   5
ATOM      5  C   UNL     1      27.917  -2.539  -1.019  1.00  0.00     0.000 C 
BRANCH   5   6
ATOM      6  C   UNL     1      28.923  -2.496   0.143  1.00  0.00     0.000 C 
BRANCH   6   7
ATOM      7  C   UNL     1      28.261  -2.741   1.512  1.00  0.00     0.006 C 
BRANCH   7   8
ATOM      8  C   UNL     1      28.655  -1.728   2.599  1.00  0.00     0.053 C 
BRANCH   8   9
ATOM      9  C   UNL     1      27.576  -0.719   2.842  1.00  0.00     0.041 C 
ATOM     10  O   UNL     1      27.090  -0.576   3.996  1.00  0.00    -0.550 OA
ATOM     11  O   UNL     1      27.129   0.087   1.803  1.00  0.00    -0.550 OA
ENDBRANCH   8   9
ENDBRANCH   7   8
ENDBRANCH   6   7
ENDBRANCH   5   6
ENDBRANCH   4   5
ENDBRANCH   3   4
ENDBRANCH   2   3
ENDBRANCH   1   2
BRANCH   1  12
ATOM     12  C   UNL     1      29.025  -3.437  -4.967  1.00  0.00     0.000 C 
BRANCH  12  13
ATOM     13  C   UNL     1      27.716  -3.771  -5.698  1.00  0.00    -0.000 C 
BRANCH  13  14
ATOM     14  C   UNL     1      26.545  -4.012  -4.730  1.00  0.00    -0.000 C 
BRANCH  14  15
ATOM     15  C   UNL     1      26.926  -4.938  -3.564  1.00  0.00    -0.000 C 
BRANCH  15  16
ATOM     16  C   UNL     1      26.754  -6.427  -3.914  1.00  0.00    -0.000 C 
BRANCH  16  17
ATOM     17  C   UNL     1      28.079  -7.203  -3.862  1.00  0.00    -0.000 C 
BRANCH  17  18
ATOM     18  C   UNL     1      28.878  -7.101  -5.170  1.00  0.00    -0.000 C 
BRANCH  18  19
ATOM     19  C   UNL     1      28.269  -7.997  -6.255  1.00  0.00    -0.003 C 
ATOM     20  C   UNL     1      27.409  -7.186  -7.220  1.00  0.00     0.004 C 
ENDBRANCH  18  19
ENDBRANCH  17  18
ENDBRANCH  16  17
ENDBRANCH  15  16
ENDBRANCH  14  15
ENDBRANCH  13  14
ENDBRANCH  12  13
ENDBRANCH   1  12
TORSDOF 16
ENDMDL
MODEL 7
REMARK VINA RESULT:    -3.578      2.706      6.317
REMARK INTER + INTRA:          -9.600
REMARK INTER:                  -7.336
REMARK INTRA:                  -2.264
REMARK UNBOUND:                -2.674
REMARK SMILES CCCCCCCCCCCCCCCCCC(=O)[O-]
REMARK SMILES IDX 10 1 11 2 12 3 13 4 14 5 15 6 16 7 17 8 18 9 19 10 20 11
REMARK SMILES IDX 9 12 8 13 7 14 6 15 5 16 4 17 3 18 2 19 1 20
REMARK H PARENT
REMARK Flexibility Score: inf
ROOT
ATOM      1  C   UNL     1      29.327  -3.371  -2.445  1.00  0.00     0.000 C 
ENDROOT
BRANCH   1   2
ATOM      2  C   UNL     1      29.763  -2.778  -3.797  1.00  0.00     0.000 C 
BRANCH   2   3
ATOM      3  C   UNL     1      29.212  -3.513  -5.035  1.00  0.00     0.000 C 
BRANCH   3   4
ATOM      4  C   UNL     1      27.741  -3.205  -5.382  1.00  0.00     0.000 C 
BRANCH   4   5
ATOM      5  C   UNL     1      26.712  -4.199  -4.813  1.00  0.00     0.000 C 
BRANCH   5   6
ATOM      6  C   UNL     1      26.373  -5.333  -5.794  1.00  0.00     0.000 C 
BRANCH   6   7
ATOM      7  C   UNL     1      26.702  -6.727  -5.228  1.00  0.00     0.006 C 
BRANCH   7   8
ATOM      8  C   UNL     1      28.205  -7.035  -5.132  1.00  0.00     0.053 C 
BRANCH   8   9
ATOM      9  C   UNL     1      28.633  -8.061  -6.136  1.00  0.00     0.041 C 
ATOM     10  O   UNL     1      29.331  -9.047  -5.778  1.00  0.00    -0.550 OA
ATOM     11  O   UNL     1      28.234  -7.946  -7.461  1.00  0.00    -0.550 OA
ENDBRANCH   8   9
ENDBRANCH   7   8
ENDBRANCH   6   7
ENDBRANCH   5   6
ENDBRANCH   4   5
ENDBRANCH   3   4
ENDBRANCH   2   3
ENDBRANCH   1   2
BRANCH   1  12
ATOM     12  C   UNL     1      28.913  -2.293  -1.429  1.00  0.00     0.000 C 
BRANCH  12  13
ATOM     13  C   UNL     1      27.428  -1.915  -1.545  1.00  0.00    -0.000 C 
BRANCH  13  14
ATOM     14  C   UNL     1      27.133  -0.508  -0.995  1.00  0.00    -0.000 C 
BRANCH  14  15
ATOM     15  C   UNL     1      27.376   0.595  -2.037  1.00  0.00    -0.000 C 
BRANCH  15  16
ATOM     16  C   UNL     1      27.211   0.089  -3.480  1.00  0.00    -0.000 C 
BRANCH  16  17
ATOM     17  C   UNL     1      28.381   0.499  -4.388  1.00  0.00    -0.000 C 
BRANCH  17  18
ATOM     18  C   UNL     1      28.030   0.412  -5.881  1.00  0.00    -0.000 C 
BRANCH  18  19
ATOM     19  C   UNL     1      29.249  -0.021  -6.706  1.00  0.00    -0.003 C 
ATOM     20  C   UNL     1      28.821  -0.704  -8.002  1.00  0.00     0.004 C 
ENDBRANCH  18  19
ENDBRANCH  17  18
ENDBRANCH  16  17
ENDBRANCH  15  16
ENDBRANCH  14  15
ENDBRANCH  13  14
ENDBRANCH  12  13
ENDBRANCH   1  12
TORSDOF 16
ENDMDL
MODEL 8
REMARK VINA RESULT:    -3.552      1.194      2.396
REMARK INTER + INTRA:          -9.549
REMARK INTER:                  -6.983
REMARK INTRA:                  -2.567
REMARK UNBOUND:                -2.674
REMARK SMILES CCCCCCCCCCCCCCCCCC(=O)[O-]
REMARK SMILES IDX 10 1 11 2 12 3 13 4 14 5 15 6 16 7 17 8 18 9 19 10 20 11
REMARK SMILES IDX 9 12 8 13 7 14 6 15 5 16 4 17 3 18 2 19 1 20
REMARK H PARENT
REMARK Flexibility Score: inf
ROOT
ATOM      1  C   UNL     1      27.188  -3.697  -2.804  1.00  0.00     0.000 C 
ENDROOT
BRANCH   1   2
ATOM      2  C   UNL     1      27.945  -2.943  -1.696  1.00  0.00     0.000 C 
BRANCH   2   3
ATOM      3  C   UNL     1      27.322  -1.593  -1.289  1.00  0.00     0.000 C 
BRANCH   3   4
ATOM      4  C   UNL     1      28.196  -0.354  -1.571  1.00  0.00     0.000 C 
BRANCH   4   5
ATOM      5  C   UNL     1      29.540  -0.645  -2.261  1.00  0.00     0.000 C 
BRANCH   5   6
ATOM      6  C   UNL     1      29.555  -0.225  -3.740  1.00  0.00     0.000 C 
BRANCH   6   7
ATOM      7  C   UNL     1      28.213   0.373  -4.203  1.00  0.00     0.006 C 
BRANCH   7   8
ATOM      8  C   UNL     1      27.442  -0.497  -5.208  1.00  0.00     0.053 C 
BRANCH   8   9
ATOM      9  C   UNL     1      28.141  -0.579  -6.530  1.00  0.00     0.041 C 
ATOM     10  O   UNL     1      28.575  -1.684  -6.950  1.00  0.00    -0.550 OA
ATOM     11  O   UNL     1      28.283   0.559  -7.314  1.00  0.00    -0.550 OA
ENDBRANCH   8   9
ENDBRANCH   7   8
ENDBRANCH   6   7
ENDBRANCH   5   6
ENDBRANCH   4   5
ENDBRANCH   3   4
ENDBRANCH   2   3
ENDBRANCH   1   2
BRANCH   1  12
ATOM     12  C   UNL     1      28.010  -3.836  -4.097  1.00  0.00     0.000 C 
BRANCH  12  13
ATOM     13  C   UNL     1      29.511  -4.017  -3.821  1.00  0.00    -0.000 C 
BRANCH  13  14
ATOM     14  C   UNL     1      30.037  -5.381  -4.300  1.00  0.00    -0.000 C 
BRANCH  14  15
ATOM     15  C   UNL     1      29.659  -6.525  -3.346  1.00  0.00    -0.000 C 
BRANCH  15  16
ATOM     16  C   UNL     1      28.690  -7.533  -3.988  1.00  0.00    -0.000 C 
BRANCH  16  17
ATOM     17  C   UNL     1      29.200  -8.067  -5.336  1.00  0.00    -0.000 C 
BRANCH  17  18
ATOM     18  C   UNL     1      28.141  -7.981  -6.446  1.00  0.00    -0.000 C 
BRANCH  18  19
ATOM     19  C   UNL     1      26.886  -7.251  -5.950  1.00  0.00    -0.003 C 
ATOM     20  C   UNL     1      26.703  -5.919  -6.672  1.00  0.00     0.004 C 
ENDBRANCH  18  19
ENDBRANCH  17  18
ENDBRANCH  16  17
ENDBRANCH  15  16
ENDBRANCH  14  15
ENDBRANCH  13  14
ENDBRANCH  12  13
ENDBRANCH   1  12
TORSDOF 16
ENDMDL
MODEL 9
REMARK VINA RESULT:    -3.540      3.316      4.697
REMARK INTER + INTRA:          -9.526
REMARK INTER:                  -7.225
REMARK INTRA:                  -2.300
REMARK UNBOUND:                -2.674
REMARK SMILES CCCCCCCCCCCCCCCCCC(=O)[O-]
REMARK SMILES IDX 10 1 11 2 12 3 13 4 14 5 15 6 16 7 17 8 18 9 19 10 20 11
REMARK SMILES IDX 9 12 8 13 7 14 6 15 5 16 4 17 3 18 2 19 1 20
REMARK H PARENT
REMARK Flexibility Score: inf
ROOT
ATOM      1  C   UNL     1      28.903  -2.262  -6.136  1.00  0.00     0.000 C 
ENDROOT
BRANCH   1   2
ATOM      2  C   UNL     1      29.062  -0.734  -6.032  1.00  0.00     0.000 C 
BRANCH   2   3
ATOM      3  C   UNL     1      27.831   0.009  -5.476  1.00  0.00     0.000 C 
BRANCH   3   4
ATOM      4  C   UNL     1      27.167  -0.647  -4.248  1.00  0.00     0.000 C 
BRANCH   4   5
ATOM      5  C   UNL     1      27.780  -0.263  -2.890  1.00  0.00     0.000 C 
BRANCH   5   6
ATOM      6  C   UNL     1      27.452  -1.275  -1.779  1.00  0.00     0.000 C 
BRANCH   6   7
ATOM      7  C   UNL     1      28.646  -1.538  -0.842  1.00  0.00     0.006 C 
BRANCH   7   8
ATOM      8  C   UNL     1      28.469  -2.748   0.089  1.00  0.00     0.053 C 
BRANCH   8   9
ATOM      9  C   UNL     1      28.191  -2.332   1.501  1.00  0.00     0.041 C 
ATOM     10  O   UNL     1      28.177  -3.190   2.423  1.00  0.00    -0.550 OA
ATOM     11  O   UNL     1      27.978  -0.993   1.803  1.00  0.00    -0.550 OA
ENDBRANCH   8   9
ENDBRANCH   7   8
ENDBRANCH   6   7
ENDBRANCH   5   6
ENDBRANCH   4   5
ENDBRANCH   3   4
ENDBRANCH   2   3
ENDBRANCH   1   2
BRANCH   1  12
ATOM     12  C   UNL     1      30.007  -3.026  -5.385  1.00  0.00     0.000 C 
BRANCH  12  13
ATOM     13  C   UNL     1      29.579  -3.435  -3.967  1.00  0.00    -0.000 C 
BRANCH  13  14
ATOM     14  C   UNL     1      28.709  -4.704  -3.958  1.00  0.00    -0.000 C 
BRANCH  14  15
ATOM     15  C   UNL     1      27.221  -4.396  -3.730  1.00  0.00    -0.000 C 
BRANCH  15  16
ATOM     16  C   UNL     1      26.304  -5.176  -4.689  1.00  0.00    -0.000 C 
BRANCH  16  17
ATOM     17  C   UNL     1      27.000  -5.534  -6.012  1.00  0.00    -0.000 C 
BRANCH  17  18
ATOM     18  C   UNL     1      26.704  -6.971  -6.466  1.00  0.00    -0.000 C 
BRANCH  18  19
ATOM     19  C   UNL     1      27.999  -7.712  -6.819  1.00  0.00    -0.003 C 
ATOM     20  C   UNL     1      28.841  -7.973  -5.573  1.00  0.00     0.004 C 
ENDBRANCH  18  19
ENDBRANCH  17  18
ENDBRANCH  16  17
ENDBRANCH  15  16
ENDBRANCH  14  15
ENDBRANCH  13  14
ENDBRANCH  12  13
ENDBRANCH   1  12
TORSDOF 16
ENDMDL
