MODEL 1
REMARK VINA RESULT:    -4.867      0.000      0.000
REMARK INTER + INTRA:         -13.916
REMARK INTER:                 -10.558
REMARK INTRA:                  -3.358
REMARK UNBOUND:                -3.358
REMARK SMILES CCCCCCCCCCCCCCCCCCCCCC(=O)[O-]
REMARK SMILES IDX 12 1 11 2 10 3 9 4 8 5 7 6 6 7 5 8 4 9 3 10 2 11 1 12 13 13
REMARK SMILES IDX 14 14 15 15 16 16 17 17 18 18 19 19 20 20 21 21 22 22 23 23
REMARK SMILES IDX 24 24
REMARK H PARENT
REMARK Flexibility Score: inf
ROOT
ATOM      1  C   UNL     1      18.458  21.145  46.607  1.00  0.00     0.000 C 
ENDROOT
BRANCH   1   2
ATOM      2  C   UNL     1      18.511  20.499  48.003  1.00  0.00     0.000 C 
BRANCH   2   3
ATOM      3  C   UNL     1      19.879  20.676  48.682  1.00  0.00     0.000 C 
BRANCH   3   4
ATOM      4  C   UNL     1      20.493  19.340  49.135  1.00  0.00    -0.000 C 
BRANCH   4   5
ATOM      5  C   UNL     1      19.897  18.129  48.395  1.00  0.00    -0.000 C 
BRANCH   5   6
ATOM      6  C   UNL     1      20.860  17.426  47.422  1.00  0.00    -0.000 C 
BRANCH   6   7
ATOM      7  C   UNL     1      20.533  15.938  47.229  1.00  0.00    -0.000 C 
BRANCH   7   8
ATOM      8  C   UNL     1      21.594  15.049  47.891  1.00  0.00    -0.000 C 
BRANCH   8   9
ATOM      9  C   UNL     1      22.798  15.884  48.347  1.00  0.00    -0.000 C 
BRANCH   9  10
ATOM     10  C   UNL     1      23.173  15.562  49.801  1.00  0.00    -0.000 C 
BRANCH  10  11
ATOM     11  C   UNL     1      21.942  15.268  50.675  1.00  0.00    -0.003 C 
ATOM     12  C   UNL     1      21.430  16.506  51.411  1.00  0.00     0.004 C 
ENDBRANCH  10  11
ENDBRANCH   9  10
ENDBRANCH   8   9
ENDBRANCH   7   8
ENDBRANCH   6   7
ENDBRANCH   5   6
ENDBRANCH   4   5
ENDBRANCH   3   4
ENDBRANCH   2   3
ENDBRANCH   1   2
BRANCH   1  13
ATOM     13  C   UNL     1      19.705  20.832  45.763  1.00  0.00     0.000 C 
BRANCH  13  14
ATOM     14  C   UNL     1      19.404  19.875  44.596  1.00  0.00     0.000 C 
BRANCH  14  15
ATOM     15  C   UNL     1      17.909  19.834  44.235  1.00  0.00     0.000 C 
BRANCH  15  16
ATOM     16  C   UNL     1      17.388  18.400  44.038  1.00  0.00     0.000 C 
BRANCH  16  17
ATOM     17  C   UNL     1      17.778  17.465  45.194  1.00  0.00     0.000 C 
BRANCH  17  18
ATOM     18  C   UNL     1      16.918  17.686  46.452  1.00  0.00     0.000 C 
BRANCH  18  19
ATOM     19  C   UNL     1      16.524  16.369  47.138  1.00  0.00     0.000 C 
BRANCH  19  20
ATOM     20  C   UNL     1      15.751  15.423  46.205  1.00  0.00     0.006 C 
BRANCH  20  21
ATOM     21  C   UNL     1      16.235  13.978  46.373  1.00  0.00     0.053 C 
BRANCH  21  22
ATOM     22  C   UNL     1      15.153  13.010  46.010  1.00  0.00     0.041 C 
ATOM     23  O   UNL     1      14.478  13.182  44.959  1.00  0.00    -0.550 OA
ATOM     24  O   UNL     1      14.885  11.920  46.833  1.00  0.00    -0.550 OA
ENDBRANCH  21  22
ENDBRANCH  20  21
ENDBRANCH  19  20
ENDBRANCH  18  19
ENDBRANCH  17  18
ENDBRANCH  16  17
ENDBRANCH  15  16
ENDBRANCH  14  15
ENDBRANCH  13  14
ENDBRANCH   1  13
TORSDOF 20
ENDMDL
MODEL 2
REMARK VINA RESULT:    -4.865      2.003      4.901
REMARK INTER + INTRA:         -13.912
REMARK INTER:                 -10.748
REMARK INTRA:                  -3.164
REMARK UNBOUND:                -3.358
REMARK SMILES CCCCCCCCCCCCCCCCCCCCCC(=O)[O-]
REMARK SMILES IDX 12 1 11 2 10 3 9 4 8 5 7 6 6 7 5 8 4 9 3 10 2 11 1 12 13 13
REMARK SMILES IDX 14 14 15 15 16 16 17 17 18 18 19 19 20 20 21 21 22 22 23 23
REMARK SMILES IDX 24 24
REMARK H PARENT
REMARK Flexibility Score: inf
ROOT
ATOM      1  C   UNL     1      20.718  18.702  49.256  1.00  0.00     0.000 C 
ENDROOT
BRANCH   1   2
ATOM      2  C   UNL     1      21.212  18.210  47.884  1.00  0.00     0.000 C 
BRANCH   2   3
ATOM      3  C   UNL     1      21.233  16.676  47.782  1.00  0.00     0.000 C 
BRANCH   3   4
ATOM      4  C   UNL     1      20.098  16.125  46.901  1.00  0.00    -0.000 C 
BRANCH   4   5
ATOM      5  C   UNL     1      19.097  17.213  46.470  1.00  0.00    -0.000 C 
BRANCH   5   6
ATOM      6  C   UNL     1      17.811  17.280  47.313  1.00  0.00    -0.000 C 
BRANCH   6   7
ATOM      7  C   UNL     1      16.537  17.099  46.474  1.00  0.00    -0.000 C 
BRANCH   7   8
ATOM      8  C   UNL     1      15.875  15.747  46.761  1.00  0.00    -0.000 C 
BRANCH   8   9
ATOM      9  C   UNL     1      16.460  14.650  45.862  1.00  0.00    -0.000 C 
BRANCH   9  10
ATOM     10  C   UNL     1      16.132  13.254  46.411  1.00  0.00    -0.000 C 
BRANCH  10  11
ATOM     11  C   UNL     1      17.313  12.278  46.281  1.00  0.00    -0.003 C 
ATOM     12  C   UNL     1      18.646  12.990  46.046  1.00  0.00     0.004 C 
ENDBRANCH  10  11
ENDBRANCH   9  10
ENDBRANCH   8   9
ENDBRANCH   7   8
ENDBRANCH   6   7
ENDBRANCH   5   6
ENDBRANCH   4   5
ENDBRANCH   3   4
ENDBRANCH   2   3
ENDBRANCH   1   2
BRANCH   1  13
ATOM     13  C   UNL     1      20.095  20.107  49.191  1.00  0.00     0.000 C 
BRANCH  13  14
ATOM     14  C   UNL     1      19.847  20.578  47.748  1.00  0.00     0.000 C 
BRANCH  14  15
ATOM     15  C   UNL     1      18.392  21.015  47.509  1.00  0.00     0.000 C 
BRANCH  15  16
ATOM     16  C   UNL     1      18.019  21.037  46.016  1.00  0.00     0.000 C 
BRANCH  16  17
ATOM     17  C   UNL     1      19.158  20.535  45.114  1.00  0.00     0.000 C 
BRANCH  17  18
ATOM     18  C   UNL     1      18.794  20.578  43.619  1.00  0.00     0.000 C 
BRANCH  18  19
ATOM     19  C   UNL     1      17.388  20.026  43.336  1.00  0.00     0.000 C 
BRANCH  19  20
ATOM     20  C   UNL     1      17.363  18.492  43.238  1.00  0.00     0.006 C 
BRANCH  20  21
ATOM     21  C   UNL     1      16.186  18.021  42.376  1.00  0.00     0.053 C 
BRANCH  21  22
ATOM     22  C   UNL     1      15.761  16.641  42.766  1.00  0.00     0.041 C 
ATOM     23  O   UNL     1      16.474  15.649  42.459  1.00  0.00    -0.550 OA
ATOM     24  O   UNL     1      14.572  16.447  43.465  1.00  0.00    -0.550 OA
ENDBRANCH  21  22
ENDBRANCH  20  21
ENDBRANCH  19  20
ENDBRANCH  18  19
ENDBRANCH  17  18
ENDBRANCH  16  17
ENDBRANCH  15  16
ENDBRANCH  14  15
ENDBRANCH  13  14
ENDBRANCH   1  13
TORSDOF 20
ENDMDL
MODEL 3
REMARK VINA RESULT:    -4.860      3.301      6.804
REMARK INTER + INTRA:         -13.900
REMARK INTER:                 -10.346
REMARK INTRA:                  -3.554
REMARK UNBOUND:                -3.358
REMARK SMILES CCCCCCCCCCCCCCCCCCCCCC(=O)[O-]
REMARK SMILES IDX 12 1 11 2 10 3 9 4 8 5 7 6 6 7 5 8 4 9 3 10 2 11 1 12 13 13
REMARK SMILES IDX 14 14 15 15 16 16 17 17 18 18 19 19 20 20 21 21 22 22 23 23
REMARK SMILES IDX 24 24
REMARK H PARENT
REMARK Flexibility Score: inf
ROOT
ATOM      1  C   UNL     1      21.108  16.248  47.630  1.00  0.00     0.000 C 
ENDROOT
BRANCH   1   2
ATOM      2  C   UNL     1      19.888  15.720  46.855  1.00  0.00     0.000 C 
BRANCH   2   3
ATOM      3  C   UNL     1      18.987  16.852  46.335  1.00  0.00     0.000 C 
BRANCH   3   4
ATOM      4  C   UNL     1      17.694  17.005  47.155  1.00  0.00    -0.000 C 
BRANCH   4   5
ATOM      5  C   UNL     1      16.529  17.581  46.329  1.00  0.00    -0.000 C 
BRANCH   5   6
ATOM      6  C   UNL     1      15.369  16.602  46.076  1.00  0.00    -0.000 C 
BRANCH   6   7
ATOM      7  C   UNL     1      15.721  15.152  46.442  1.00  0.00    -0.000 C 
BRANCH   7   8
ATOM      8  C   UNL     1      15.474  14.209  45.259  1.00  0.00    -0.000 C 
BRANCH   8   9
ATOM      9  C   UNL     1      16.768  13.973  44.469  1.00  0.00    -0.000 C 
BRANCH   9  10
ATOM     10  C   UNL     1      16.540  14.175  42.964  1.00  0.00    -0.000 C 
BRANCH  10  11
ATOM     11  C   UNL     1      15.927  15.548  42.640  1.00  0.00    -0.003 C 
ATOM     12  C   UNL     1      16.957  16.677  42.678  1.00  0.00     0.004 C 
ENDBRANCH  10  11
ENDBRANCH   9  10
ENDBRANCH   8   9
ENDBRANCH   7   8
ENDBRANCH   6   7
ENDBRANCH   5   6
ENDBRANCH   4   5
ENDBRANCH   3   4
ENDBRANCH   2   3
ENDBRANCH   1   2
BRANCH   1  13
ATOM     13  C   UNL     1      21.150  17.784  47.693  1.00  0.00     0.000 C 
BRANCH  13  14
ATOM     14  C   UNL     1      20.928  18.324  49.116  1.00  0.00     0.000 C 
BRANCH  14  15
ATOM     15  C   UNL     1      20.078  19.606  49.138  1.00  0.00     0.000 C 
BRANCH  15  16
ATOM     16  C   UNL     1      20.102  20.354  47.793  1.00  0.00     0.000 C 
BRANCH  16  17
ATOM     17  C   UNL     1      18.737  20.957  47.428  1.00  0.00     0.000 C 
BRANCH  17  18
ATOM     18  C   UNL     1      18.265  20.549  46.020  1.00  0.00     0.000 C 
BRANCH  18  19
ATOM     19  C   UNL     1      19.429  20.149  45.100  1.00  0.00     0.000 C 
BRANCH  19  20
ATOM     20  C   UNL     1      18.971  19.838  43.666  1.00  0.00     0.006 C 
BRANCH  20  21
ATOM     21  C   UNL     1      17.526  20.298  43.444  1.00  0.00     0.053 C 
BRANCH  21  22
ATOM     22  C   UNL     1      17.476  21.455  42.497  1.00  0.00     0.041 C 
ATOM     23  O   UNL     1      16.586  21.505  41.607  1.00  0.00    -0.550 OA
ATOM     24  O   UNL     1      18.416  22.478  42.593  1.00  0.00    -0.550 OA
ENDBRANCH  21  22
ENDBRANCH  20  21
ENDBRANCH  19  20
ENDBRANCH  18  19
ENDBRANCH  17  18
ENDBRANCH  16  17
ENDBRANCH  15  16
ENDBRANCH  14  15
ENDBRANCH  13  14
ENDBRANCH   1  13
TORSDOF 20
ENDMDL
MODEL 4
REMARK VINA RESULT:    -4.722      2.856      6.347
REMARK INTER + INTRA:         -13.601
REMARK INTER:                 -10.013
REMARK INTRA:                  -3.588
REMARK UNBOUND:                -3.358
REMARK SMILES CCCCCCCCCCCCCCCCCCCCCC(=O)[O-]
REMARK SMILES IDX 12 1 11 2 10 3 9 4 8 5 7 6 6 7 5 8 4 9 3 10 2 11 1 12 13 13
REMARK SMILES IDX 14 14 15 15 16 16 17 17 18 18 19 19 20 20 21 21 22 22 23 23
REMARK SMILES IDX 24 24
REMARK H PARENT
REMARK Flexibility Score: inf
ROOT
ATOM      1  C   UNL     1      20.600  16.772  47.226  1.00  0.00     0.000 C 
ENDROOT
BRANCH   1   2
ATOM      2  C   UNL     1      19.265  17.133  46.552  1.00  0.00     0.000 C 
BRANCH   2   3
ATOM      3  C   UNL     1      18.057  16.897  47.475  1.00  0.00     0.000 C 
BRANCH   3   4
ATOM      4  C   UNL     1      16.729  17.336  46.835  1.00  0.00    -0.000 C 
BRANCH   4   5
ATOM      5  C   UNL     1      16.901  17.842  45.391  1.00  0.00    -0.000 C 
BRANCH   5   6
ATOM      6  C   UNL     1      16.648  16.786  44.301  1.00  0.00    -0.000 C 
BRANCH   6   7
ATOM      7  C   UNL     1      15.168  16.678  43.906  1.00  0.00    -0.000 C 
BRANCH   7   8
ATOM      8  C   UNL     1      14.461  15.580  44.709  1.00  0.00    -0.000 C 
BRANCH   8   9
ATOM      9  C   UNL     1      15.312  14.304  44.757  1.00  0.00    -0.000 C 
BRANCH   9  10
ATOM     10  C   UNL     1      15.544  13.850  46.206  1.00  0.00    -0.000 C 
BRANCH  10  11
ATOM     11  C   UNL     1      16.868  13.089  46.380  1.00  0.00    -0.003 C 
ATOM     12  C   UNL     1      18.025  13.734  45.617  1.00  0.00     0.004 C 
ENDBRANCH  10  11
ENDBRANCH   9  10
ENDBRANCH   8   9
ENDBRANCH   7   8
ENDBRANCH   6   7
ENDBRANCH   5   6
ENDBRANCH   4   5
ENDBRANCH   3   4
ENDBRANCH   2   3
ENDBRANCH   1   2
BRANCH   1  13
ATOM     13  C   UNL     1      21.319  18.000  47.809  1.00  0.00     0.000 C 
BRANCH  13  14
ATOM     14  C   UNL     1      20.934  18.271  49.273  1.00  0.00     0.000 C 
BRANCH  14  15
ATOM     15  C   UNL     1      20.344  19.677  49.479  1.00  0.00     0.000 C 
BRANCH  15  16
ATOM     16  C   UNL     1      20.054  20.398  48.150  1.00  0.00     0.000 C 
BRANCH  16  17
ATOM     17  C   UNL     1      18.552  20.623  47.917  1.00  0.00     0.000 C 
BRANCH  17  18
ATOM     18  C   UNL     1      18.234  21.049  46.472  1.00  0.00     0.000 C 
BRANCH  18  19
ATOM     19  C   UNL     1      19.420  20.838  45.518  1.00  0.00     0.000 C 
BRANCH  19  20
ATOM     20  C   UNL     1      19.047  19.999  44.285  1.00  0.00     0.006 C 
BRANCH  20  21
ATOM     21  C   UNL     1      18.467  20.885  43.179  1.00  0.00     0.053 C 
BRANCH  21  22
ATOM     22  C   UNL     1      16.986  20.701  43.073  1.00  0.00     0.041 C 
ATOM     23  O   UNL     1      16.208  21.448  43.724  1.00  0.00    -0.550 OA
ATOM     24  O   UNL     1      16.462  19.701  42.259  1.00  0.00    -0.550 OA
ENDBRANCH  21  22
ENDBRANCH  20  21
ENDBRANCH  19  20
ENDBRANCH  18  19
ENDBRANCH  17  18
ENDBRANCH  16  17
ENDBRANCH  15  16
ENDBRANCH  14  15
ENDBRANCH  13  14
ENDBRANCH   1  13
TORSDOF 20
ENDMDL
MODEL 5
REMARK VINA RESULT:    -4.717      3.229      6.209
REMARK INTER + INTRA:         -13.590
REMARK INTER:                  -9.983
REMARK INTRA:                  -3.607
REMARK UNBOUND:                -3.358
REMARK SMILES CCCCCCCCCCCCCCCCCCCCCC(=O)[O-]
REMARK SMILES IDX 12 1 11 2 10 3 9 4 8 5 7 6 6 7 5 8 4 9 3 10 2 11 1 12 13 13
REMARK SMILES IDX 14 14 15 15 16 16 17 17 18 18 19 19 20 20 21 21 22 22 23 23
REMARK SMILES IDX 24 24
REMARK H PARENT
REMARK Flexibility Score: inf
ROOT
ATOM      1  C   UNL     1      17.677  17.241  47.279  1.00  0.00     0.000 C 
ENDROOT
BRANCH   1   2
ATOM      2  C   UNL     1      18.864  17.025  46.325  1.00  0.00     0.000 C 
BRANCH   2   3
ATOM      3  C   UNL     1      19.804  15.905  46.799  1.00  0.00     0.000 C 
BRANCH   3   4
ATOM      4  C   UNL     1      20.981  16.434  47.637  1.00  0.00    -0.000 C 
BRANCH   4   5
ATOM      5  C   UNL     1      21.086  17.970  47.612  1.00  0.00    -0.000 C 
BRANCH   5   6
ATOM      6  C   UNL     1      20.918  18.652  48.982  1.00  0.00    -0.000 C 
BRANCH   6   7
ATOM      7  C   UNL     1      19.943  19.838  48.943  1.00  0.00    -0.000 C 
BRANCH   7   8
ATOM      8  C   UNL     1      19.833  20.416  47.527  1.00  0.00    -0.000 C 
BRANCH   8   9
ATOM      9  C   UNL     1      18.416  20.942  47.260  1.00  0.00    -0.000 C 
BRANCH   9  10
ATOM     10  C   UNL     1      18.005  20.701  45.800  1.00  0.00    -0.000 C 
BRANCH  10  11
ATOM     11  C   UNL     1      19.206  20.377  44.896  1.00  0.00    -0.003 C 
ATOM     12  C   UNL     1      18.809  19.589  43.647  1.00  0.00     0.004 C 
ENDBRANCH  10  11
ENDBRANCH   9  10
ENDBRANCH   8   9
ENDBRANCH   7   8
ENDBRANCH   6   7
ENDBRANCH   5   6
ENDBRANCH   4   5
ENDBRANCH   3   4
ENDBRANCH   2   3
ENDBRANCH   1   2
BRANCH   1  13
ATOM     13  C   UNL     1      16.317  17.107  46.572  1.00  0.00     0.000 C 
BRANCH  13  14
ATOM     14  C   UNL     1      15.803  15.657  46.550  1.00  0.00     0.000 C 
BRANCH  14  15
ATOM     15  C   UNL     1      15.396  15.196  45.140  1.00  0.00     0.000 C 
BRANCH  15  16
ATOM     16  C   UNL     1      16.610  14.926  44.232  1.00  0.00     0.000 C 
BRANCH  16  17
ATOM     17  C   UNL     1      16.733  15.949  43.092  1.00  0.00     0.000 C 
BRANCH  17  18
ATOM     18  C   UNL     1      15.454  16.786  42.905  1.00  0.00     0.000 C 
BRANCH  18  19
ATOM     19  C   UNL     1      15.686  18.036  42.041  1.00  0.00     0.000 C 
BRANCH  19  20
ATOM     20  C   UNL     1      15.149  19.318  42.698  1.00  0.00     0.006 C 
BRANCH  20  21
ATOM     21  C   UNL     1      15.704  20.562  41.996  1.00  0.00     0.053 C 
BRANCH  21  22
ATOM     22  C   UNL     1      15.802  21.710  42.950  1.00  0.00     0.041 C 
ATOM     23  O   UNL     1      14.893  21.905  43.800  1.00  0.00    -0.550 OA
ATOM     24  O   UNL     1      16.894  22.571  42.898  1.00  0.00    -0.550 OA
ENDBRANCH  21  22
ENDBRANCH  20  21
ENDBRANCH  19  20
ENDBRANCH  18  19
ENDBRANCH  17  18
ENDBRANCH  16  17
ENDBRANCH  15  16
ENDBRANCH  14  15
ENDBRANCH  13  14
ENDBRANCH   1  13
TORSDOF 20
ENDMDL
MODEL 6
REMARK VINA RESULT:    -4.707      2.772      5.143
REMARK INTER + INTRA:         -13.568
REMARK INTER:                 -10.334
REMARK INTRA:                  -3.233
REMARK UNBOUND:                -3.358
REMARK SMILES CCCCCCCCCCCCCCCCCCCCCC(=O)[O-]
REMARK SMILES IDX 12 1 11 2 10 3 9 4 8 5 7 6 6 7 5 8 4 9 3 10 2 11 1 12 13 13
REMARK SMILES IDX 14 14 15 15 16 16 17 17 18 18 19 19 20 20 21 21 22 22 23 23
REMARK SMILES IDX 24 24
REMARK H PARENT
REMARK Flexibility Score: inf
ROOT
ATOM      1  C   UNL     1      19.969  20.281  49.152  1.00  0.00     0.000 C 
ENDROOT
BRANCH   1   2
ATOM      2  C   UNL     1      20.660  18.931  49.414  1.00  0.00     0.000 C 
BRANCH   2   3
ATOM      3  C   UNL     1      21.226  18.301  48.131  1.00  0.00     0.000 C 
BRANCH   3   4
ATOM      4  C   UNL     1      21.173  16.763  48.154  1.00  0.00    -0.000 C 
BRANCH   4   5
ATOM      5  C   UNL     1      20.303  16.181  47.025  1.00  0.00    -0.000 C 
BRANCH   5   6
ATOM      6  C   UNL     1      19.176  17.106  46.533  1.00  0.00    -0.000 C 
BRANCH   6   7
ATOM      7  C   UNL     1      17.977  17.149  47.493  1.00  0.00    -0.000 C 
BRANCH   7   8
ATOM      8  C   UNL     1      16.652  17.152  46.721  1.00  0.00    -0.000 C 
BRANCH   8   9
ATOM      9  C   UNL     1      16.576  15.956  45.762  1.00  0.00    -0.000 C 
BRANCH   9  10
ATOM     10  C   UNL     1      15.757  14.810  46.374  1.00  0.00    -0.000 C 
BRANCH  10  11
ATOM     11  C   UNL     1      16.478  13.455  46.279  1.00  0.00    -0.003 C 
ATOM     12  C   UNL     1      17.945  13.594  45.869  1.00  0.00     0.004 C 
ENDBRANCH  10  11
ENDBRANCH   9  10
ENDBRANCH   8   9
ENDBRANCH   7   8
ENDBRANCH   6   7
ENDBRANCH   5   6
ENDBRANCH   4   5
ENDBRANCH   3   4
ENDBRANCH   2   3
ENDBRANCH   1   2
BRANCH   1  13
ATOM     13  C   UNL     1      19.806  20.580  47.652  1.00  0.00     0.000 C 
BRANCH  13  14
ATOM     14  C   UNL     1      18.357  20.932  47.273  1.00  0.00     0.000 C 
BRANCH  14  15
ATOM     15  C   UNL     1      18.163  21.087  45.755  1.00  0.00     0.000 C 
BRANCH  15  16
ATOM     16  C   UNL     1      19.207  20.301  44.942  1.00  0.00     0.000 C 
BRANCH  16  17
ATOM     17  C   UNL     1      18.715  19.955  43.528  1.00  0.00     0.000 C 
BRANCH  17  18
ATOM     18  C   UNL     1      17.785  18.728  43.507  1.00  0.00     0.000 C 
BRANCH  18  19
ATOM     19  C   UNL     1      16.505  18.970  42.691  1.00  0.00     0.000 C 
BRANCH  19  20
ATOM     20  C   UNL     1      15.244  18.449  43.399  1.00  0.00     0.006 C 
BRANCH  20  21
ATOM     21  C   UNL     1      13.999  18.683  42.536  1.00  0.00     0.053 C 
BRANCH  21  22
ATOM     22  C   UNL     1      13.143  19.763  43.119  1.00  0.00     0.041 C 
ATOM     23  O   UNL     1      13.520  20.380  44.151  1.00  0.00    -0.550 OA
ATOM     24  O   UNL     1      11.925  20.086  42.528  1.00  0.00    -0.550 OA
ENDBRANCH  21  22
ENDBRANCH  20  21
ENDBRANCH  19  20
ENDBRANCH  18  19
ENDBRANCH  17  18
ENDBRANCH  16  17
ENDBRANCH  15  16
ENDBRANCH  14  15
ENDBRANCH  13  14
ENDBRANCH   1  13
TORSDOF 20
ENDMDL
MODEL 7
REMARK VINA RESULT:    -4.670      1.553      3.284
REMARK INTER + INTRA:         -13.489
REMARK INTER:                 -10.305
REMARK INTRA:                  -3.184
REMARK UNBOUND:                -3.358
REMARK SMILES CCCCCCCCCCCCCCCCCCCCCC(=O)[O-]
REMARK SMILES IDX 12 1 11 2 10 3 9 4 8 5 7 6 6 7 5 8 4 9 3 10 2 11 1 12 13 13
REMARK SMILES IDX 14 14 15 15 16 16 17 17 18 18 19 19 20 20 21 21 22 22 23 23
REMARK SMILES IDX 24 24
REMARK H PARENT
REMARK Flexibility Score: inf
ROOT
ATOM      1  C   UNL     1      20.950  19.336  46.707  1.00  0.00     0.000 C 
ENDROOT
BRANCH   1   2
ATOM      2  C   UNL     1      21.731  18.312  47.548  1.00  0.00     0.000 C 
BRANCH   2   3
ATOM      3  C   UNL     1      20.996  16.968  47.672  1.00  0.00     0.000 C 
BRANCH   3   4
ATOM      4  C   UNL     1      20.437  16.726  49.084  1.00  0.00    -0.000 C 
BRANCH   4   5
ATOM      5  C   UNL     1      20.960  17.744  50.115  1.00  0.00    -0.000 C 
BRANCH   5   6
ATOM      6  C   UNL     1      21.404  17.136  51.457  1.00  0.00    -0.000 C 
BRANCH   6   7
ATOM      7  C   UNL     1      22.008  15.732  51.305  1.00  0.00    -0.000 C 
BRANCH   7   8
ATOM      8  C   UNL     1      23.529  15.762  51.495  1.00  0.00    -0.000 C 
BRANCH   8   9
ATOM      9  C   UNL     1      24.228  14.883  50.449  1.00  0.00    -0.000 C 
BRANCH   9  10
ATOM     10  C   UNL     1      24.047  15.456  49.036  1.00  0.00    -0.000 C 
BRANCH  10  11
ATOM     11  C   UNL     1      23.891  14.359  47.970  1.00  0.00    -0.003 C 
ATOM     12  C   UNL     1      22.535  13.656  48.040  1.00  0.00     0.004 C 
ENDBRANCH  10  11
ENDBRANCH   9  10
ENDBRANCH   8   9
ENDBRANCH   7   8
ENDBRANCH   6   7
ENDBRANCH   5   6
ENDBRANCH   4   5
ENDBRANCH   3   4
ENDBRANCH   2   3
ENDBRANCH   1   2
BRANCH   1  13
ATOM     13  C   UNL     1      20.161  20.334  47.572  1.00  0.00     0.000 C 
BRANCH  13  14
ATOM     14  C   UNL     1      18.655  20.328  47.256  1.00  0.00     0.000 C 
BRANCH  14  15
ATOM     15  C   UNL     1      18.209  21.576  46.476  1.00  0.00     0.000 C 
BRANCH  15  16
ATOM     16  C   UNL     1      17.730  21.243  45.052  1.00  0.00     0.000 C 
BRANCH  16  17
ATOM     17  C   UNL     1      18.560  20.129  44.395  1.00  0.00     0.000 C 
BRANCH  17  18
ATOM     18  C   UNL     1      17.708  19.191  43.519  1.00  0.00     0.000 C 
BRANCH  18  19
ATOM     19  C   UNL     1      17.094  18.031  44.319  1.00  0.00     0.000 C 
BRANCH  19  20
ATOM     20  C   UNL     1      18.077  17.426  45.335  1.00  0.00     0.006 C 
BRANCH  20  21
ATOM     21  C   UNL     1      17.331  16.885  46.558  1.00  0.00     0.053 C 
BRANCH  21  22
ATOM     22  C   UNL     1      16.719  15.552  46.261  1.00  0.00     0.041 C 
ATOM     23  O   UNL     1      15.567  15.276  46.690  1.00  0.00    -0.550 OA
ATOM     24  O   UNL     1      17.422  14.611  45.514  1.00  0.00    -0.550 OA
ENDBRANCH  21  22
ENDBRANCH  20  21
ENDBRANCH  19  20
ENDBRANCH  18  19
ENDBRANCH  17  18
ENDBRANCH  16  17
ENDBRANCH  15  16
ENDBRANCH  14  15
ENDBRANCH  13  14
ENDBRANCH   1  13
TORSDOF 20
ENDMDL
MODEL 8
REMARK VINA RESULT:    -4.655      1.556      5.147
REMARK INTER + INTRA:         -13.456
REMARK INTER:                 -10.258
REMARK INTRA:                  -3.198
REMARK UNBOUND:                -3.358
REMARK SMILES CCCCCCCCCCCCCCCCCCCCCC(=O)[O-]
REMARK SMILES IDX 12 1 11 2 10 3 9 4 8 5 7 6 6 7 5 8 4 9 3 10 2 11 1 12 13 13
REMARK SMILES IDX 14 14 15 15 16 16 17 17 18 18 19 19 20 20 21 21 22 22 23 23
REMARK SMILES IDX 24 24
REMARK H PARENT
REMARK Flexibility Score: inf
ROOT
ATOM      1  C   UNL     1      21.002  18.389  49.083  1.00  0.00     0.000 C 
ENDROOT
BRANCH   1   2
ATOM      2  C   UNL     1      20.181  19.690  49.062  1.00  0.00     0.000 C 
BRANCH   2   3
ATOM      3  C   UNL     1      20.064  20.290  47.651  1.00  0.00     0.000 C 
BRANCH   3   4
ATOM      4  C   UNL     1      18.609  20.591  47.254  1.00  0.00    -0.000 C 
BRANCH   4   5
ATOM      5  C   UNL     1      18.459  20.940  45.761  1.00  0.00    -0.000 C 
BRANCH   5   6
ATOM      6  C   UNL     1      19.263  20.042  44.803  1.00  0.00    -0.000 C 
BRANCH   6   7
ATOM      7  C   UNL     1      18.460  19.623  43.563  1.00  0.00    -0.000 C 
BRANCH   7   8
ATOM      8  C   UNL     1      16.952  19.724  43.821  1.00  0.00    -0.000 C 
BRANCH   8   9
ATOM      9  C   UNL     1      16.309  18.331  43.855  1.00  0.00    -0.000 C 
BRANCH   9  10
ATOM     10  C   UNL     1      17.287  17.260  43.352  1.00  0.00    -0.000 C 
BRANCH  10  11
ATOM     11  C   UNL     1      16.595  16.182  42.502  1.00  0.00    -0.003 C 
ATOM     12  C   UNL     1      15.163  16.560  42.122  1.00  0.00     0.004 C 
ENDBRANCH  10  11
ENDBRANCH   9  10
ENDBRANCH   8   9
ENDBRANCH   7   8
ENDBRANCH   6   7
ENDBRANCH   5   6
ENDBRANCH   4   5
ENDBRANCH   3   4
ENDBRANCH   2   3
ENDBRANCH   1   2
BRANCH   1  13
ATOM     13  C   UNL     1      21.252  17.825  47.674  1.00  0.00     0.000 C 
BRANCH  13  14
ATOM     14  C   UNL     1      21.218  16.287  47.638  1.00  0.00     0.000 C 
BRANCH  14  15
ATOM     15  C   UNL     1      19.992  15.740  46.888  1.00  0.00     0.000 C 
BRANCH  15  16
ATOM     16  C   UNL     1      19.000  16.847  46.489  1.00  0.00     0.000 C 
BRANCH  16  17
ATOM     17  C   UNL     1      17.851  17.002  47.498  1.00  0.00     0.000 C 
BRANCH  17  18
ATOM     18  C   UNL     1      16.506  16.494  46.949  1.00  0.00     0.000 C 
BRANCH  18  19
ATOM     19  C   UNL     1      16.634  15.143  46.228  1.00  0.00     0.000 C 
BRANCH  19  20
ATOM     20  C   UNL     1      15.289  14.627  45.692  1.00  0.00     0.006 C 
BRANCH  20  21
ATOM     21  C   UNL     1      14.600  13.730  46.726  1.00  0.00     0.053 C 
BRANCH  21  22
ATOM     22  C   UNL     1      13.565  12.867  46.076  1.00  0.00     0.041 C 
ATOM     23  O   UNL     1      12.395  12.823  46.543  1.00  0.00    -0.550 OA
ATOM     24  O   UNL     1      13.891  12.108  44.956  1.00  0.00    -0.550 OA
ENDBRANCH  21  22
ENDBRANCH  20  21
ENDBRANCH  19  20
ENDBRANCH  18  19
ENDBRANCH  17  18
ENDBRANCH  16  17
ENDBRANCH  15  16
ENDBRANCH  14  15
ENDBRANCH  13  14
ENDBRANCH   1  13
TORSDOF 20
ENDMDL
MODEL 9
REMARK VINA RESULT:    -4.651      3.348      6.136
REMARK INTER + INTRA:         -13.447
REMARK INTER:                  -9.541
REMARK INTRA:                  -3.906
REMARK UNBOUND:                -3.358
REMARK SMILES CCCCCCCCCCCCCCCCCCCCCC(=O)[O-]
REMARK SMILES IDX 12 1 11 2 10 3 9 4 8 5 7 6 6 7 5 8 4 9 3 10 2 11 1 12 13 13
REMARK SMILES IDX 14 14 15 15 16 16 17 17 18 18 19 19 20 20 21 21 22 22 23 23
REMARK SMILES IDX 24 24
REMARK H PARENT
REMARK Flexibility Score: inf
ROOT
ATOM      1  C   UNL     1      21.271  18.188  48.832  1.00  0.00     0.000 C 
ENDROOT
BRANCH   1   2
ATOM      2  C   UNL     1      20.352  16.964  48.676  1.00  0.00     0.000 C 
BRANCH   2   3
ATOM      3  C   UNL     1      20.403  16.366  47.260  1.00  0.00     0.000 C 
BRANCH   3   4
ATOM      4  C   UNL     1      19.170  16.735  46.416  1.00  0.00    -0.000 C 
BRANCH   4   5
ATOM      5  C   UNL     1      17.944  17.091  47.277  1.00  0.00    -0.000 C 
BRANCH   5   6
ATOM      6  C   UNL     1      16.908  17.995  46.585  1.00  0.00    -0.000 C 
BRANCH   6   7
ATOM      7  C   UNL     1      15.834  17.201  45.828  1.00  0.00    -0.000 C 
BRANCH   7   8
ATOM      8  C   UNL     1      16.300  16.856  44.408  1.00  0.00    -0.000 C 
BRANCH   8   9
ATOM      9  C   UNL     1      16.488  15.342  44.248  1.00  0.00    -0.000 C 
BRANCH   9  10
ATOM     10  C   UNL     1      15.831  14.578  45.407  1.00  0.00    -0.000 C 
BRANCH  10  11
ATOM     11  C   UNL     1      16.846  13.770  46.231  1.00  0.00    -0.003 C 
ATOM     12  C   UNL     1      18.106  13.420  45.438  1.00  0.00     0.004 C 
ENDBRANCH  10  11
ENDBRANCH   9  10
ENDBRANCH   8   9
ENDBRANCH   7   8
ENDBRANCH   6   7
ENDBRANCH   5   6
ENDBRANCH   4   5
ENDBRANCH   3   4
ENDBRANCH   2   3
ENDBRANCH   1   2
BRANCH   1  13
ATOM     13  C   UNL     1      20.544  19.400  49.441  1.00  0.00     0.000 C 
BRANCH  13  14
ATOM     14  C   UNL     1      19.634  20.114  48.426  1.00  0.00     0.000 C 
BRANCH  14  15
ATOM     15  C   UNL     1      20.333  20.366  47.079  1.00  0.00     0.000 C 
BRANCH  15  16
ATOM     16  C   UNL     1      19.344  20.747  45.963  1.00  0.00     0.000 C 
BRANCH  16  17
ATOM     17  C   UNL     1      19.482  19.851  44.721  1.00  0.00     0.000 C 
BRANCH  17  18
ATOM     18  C   UNL     1      18.296  19.997  43.750  1.00  0.00     0.000 C 
BRANCH  18  19
ATOM     19  C   UNL     1      17.194  20.919  44.296  1.00  0.00     0.000 C 
BRANCH  19  20
ATOM     20  C   UNL     1      15.791  20.516  43.814  1.00  0.00     0.006 C 
BRANCH  20  21
ATOM     21  C   UNL     1      15.840  19.992  42.375  1.00  0.00     0.053 C 
BRANCH  21  22
ATOM     22  C   UNL     1      15.658  21.109  41.397  1.00  0.00     0.041 C 
ATOM     23  O   UNL     1      14.512  21.376  40.948  1.00  0.00    -0.550 OA
ATOM     24  O   UNL     1      16.756  21.854  40.974  1.00  0.00    -0.550 OA
ENDBRANCH  21  22
ENDBRANCH  20  21
ENDBRANCH  19  20
ENDBRANCH  18  19
ENDBRANCH  17  18
ENDBRANCH  16  17
ENDBRANCH  15  16
ENDBRANCH  14  15
ENDBRANCH  13  14
ENDBRANCH   1  13
TORSDOF 20
ENDMDL
