MODEL 1
REMARK VINA RESULT:    -8.769      0.000      0.000
REMARK INTER + INTRA:          -9.777
REMARK INTER:                  -9.538
REMARK INTRA:                  -0.238
REMARK UNBOUND:                -0.238
REMARK SMILES CC1(C)CC[C@]2(C(=O)[O-])CC[C@]3(C)C(=CC[C@@H]4[C@@]5(C)CC[C@@H](O)C(C)(C)[C@H]5CC[C@]43C)[C@@H]2C1
REMARK SMILES IDX 6 1 5 2 10 3 32 4 4 5 11 6 14 7 33 8 2 9 12 10 15 11 1 12
REMARK SMILES IDX 3 13 13 14 30 15 16 16 17 17 29 18 31 19 18 20 28 21 27 22
REMARK SMILES IDX 20 23 19 24 24 25 21 26 22 27 25 28 26 29 7 30 8 31 9 32
REMARK SMILES IDX 23 33
REMARK H PARENT 23 34
REMARK Flexibility Score: inf
ROOT
ATOM      1  C   UNL     1      10.397  12.256   5.740  1.00  0.00     0.017 C 
ATOM      2  C   UNL     1       9.773  11.245   6.751  1.00  0.00     0.014 C 
ATOM      3  C   UNL     1      11.806  12.752   6.237  1.00  0.00     0.014 C 
ATOM      4  C   UNL     1       9.416  13.449   5.483  1.00  0.00     0.028 C 
ATOM      5  C   UNL     1       9.185  11.891   8.012  1.00  0.00     0.007 C 
ATOM      6  C   UNL     1      12.053  14.281   6.280  1.00  0.00     0.013 C 
ATOM      7  C   UNL     1      10.121  14.518   4.641  1.00  0.00    -0.064 C 
ATOM      8  C   UNL     1       8.786  14.039   6.771  1.00  0.00     0.015 C 
ATOM      9  C   UNL     1       8.136  12.981   7.691  1.00  0.00    -0.035 C 
ATOM     10  C   UNL     1      11.423  15.169   5.133  1.00  0.00    -0.006 C 
ATOM     11  C   UNL     1       9.633  14.785   3.411  1.00  0.00    -0.027 C 
ATOM     12  C   UNL     1       6.862  12.375   7.051  1.00  0.00     0.011 C 
ATOM     13  C   UNL     1       7.717  13.662   9.014  1.00  0.00     0.011 C 
ATOM     14  C   UNL     1      11.017  16.525   5.806  1.00  0.00     0.017 C 
ATOM     15  C   UNL     1      12.443  15.404   3.899  1.00  0.00    -0.020 C 
ATOM     16  C   UNL     1      10.455  15.349   2.285  1.00  0.00     0.032 C 
ATOM     17  C   UNL     1      11.716  16.139   2.720  1.00  0.00     0.006 C 
ATOM     18  C   UNL     1      13.601  16.346   4.317  1.00  0.00     0.008 C 
ATOM     19  C   UNL     1      12.996  14.027   3.429  1.00  0.00     0.012 C 
ATOM     20  C   UNL     1      12.653  16.722   1.522  1.00  0.00    -0.025 C 
ATOM     21  C   UNL     1      14.653  16.620   3.241  1.00  0.00     0.005 C 
ATOM     22  C   UNL     1      14.220  16.508   1.746  1.00  0.00     0.003 C 
ATOM     23  C   UNL     1      12.384  18.258   1.422  1.00  0.00     0.010 C 
ATOM     24  C   UNL     1      12.231  16.056   0.175  1.00  0.00     0.012 C 
ATOM     25  C   UNL     1      15.196  17.353   0.788  1.00  0.00    -0.006 C 
ATOM     26  C   UNL     1      13.257  19.006   0.408  1.00  0.00     0.033 C 
ATOM     27  C   UNL     1      14.756  18.851   0.713  1.00  0.00     0.120 C 
ATOM     28  C   UNL     1      15.256  16.758  -0.659  1.00  0.00     0.014 C 
ATOM     29  C   UNL     1      16.675  17.287   1.288  1.00  0.00     0.014 C 
ENDROOT
BRANCH   1  30
ATOM     30  C   UNL     1      10.604  11.447   4.457  1.00  0.00     0.048 C 
ATOM     31  O   UNL     1       9.661  11.232   3.650  1.00  0.00    -0.550 OA
ATOM     32  O   UNL     1      11.848  10.883   4.190  1.00  0.00    -0.550 OA
ENDBRANCH   1  30
BRANCH  27  33
ATOM     33  O   UNL     1      15.058  19.522   1.913  1.00  0.00    -0.393 OA
ATOM     34  H   UNL     1      16.026  19.744   1.888  1.00  0.00     0.210 HD
ENDBRANCH  27  33
TORSDOF 2
ENDMDL
MODEL 2
REMARK VINA RESULT:    -8.710      2.116      3.573
REMARK INTER + INTRA:          -9.713
REMARK INTER:                  -9.477
REMARK INTRA:                  -0.235
REMARK UNBOUND:                -0.238
REMARK SMILES CC1(C)CC[C@]2(C(=O)[O-])CC[C@]3(C)C(=CC[C@@H]4[C@@]5(C)CC[C@@H](O)C(C)(C)[C@H]5CC[C@]43C)[C@@H]2C1
REMARK SMILES IDX 6 1 5 2 10 3 32 4 4 5 11 6 14 7 33 8 2 9 12 10 15 11 1 12
REMARK SMILES IDX 3 13 13 14 30 15 16 16 17 17 29 18 31 19 18 20 28 21 27 22
REMARK SMILES IDX 20 23 19 24 24 25 21 26 22 27 25 28 26 29 7 30 8 31 9 32
REMARK SMILES IDX 23 33
REMARK H PARENT 23 34
REMARK Flexibility Score: inf
ROOT
ATOM      1  C   UNL     1       9.128  14.807   5.495  1.00  0.00     0.017 C 
ATOM      2  C   UNL     1       7.969  14.123   6.282  1.00  0.00     0.014 C 
ATOM      3  C   UNL     1       8.891  14.706   3.941  1.00  0.00     0.014 C 
ATOM      4  C   UNL     1      10.509  14.198   5.913  1.00  0.00     0.028 C 
ATOM      5  C   UNL     1       8.030  12.590   6.297  1.00  0.00     0.007 C 
ATOM      6  C   UNL     1      10.052  14.159   3.073  1.00  0.00     0.013 C 
ATOM      7  C   UNL     1      11.609  14.747   4.997  1.00  0.00    -0.064 C 
ATOM      8  C   UNL     1      10.523  12.649   5.983  1.00  0.00     0.015 C 
ATOM      9  C   UNL     1       9.377  12.051   6.831  1.00  0.00    -0.035 C 
ATOM     10  C   UNL     1      11.530  14.549   3.476  1.00  0.00    -0.006 C 
ATOM     11  C   UNL     1      12.581  15.502   5.551  1.00  0.00    -0.027 C 
ATOM     12  C   UNL     1       9.559  12.366   8.337  1.00  0.00     0.011 C 
ATOM     13  C   UNL     1       9.388  10.514   6.670  1.00  0.00     0.011 C 
ATOM     14  C   UNL     1      12.417  13.301   3.142  1.00  0.00     0.017 C 
ATOM     15  C   UNL     1      12.056  15.871   2.704  1.00  0.00    -0.020 C 
ATOM     16  C   UNL     1      13.377  16.531   4.796  1.00  0.00     0.032 C 
ATOM     17  C   UNL     1      13.453  16.313   3.263  1.00  0.00     0.006 C 
ATOM     18  C   UNL     1      12.292  15.569   1.202  1.00  0.00     0.008 C 
ATOM     19  C   UNL     1      11.009  17.010   2.879  1.00  0.00     0.012 C 
ATOM     20  C   UNL     1      14.268  17.437   2.411  1.00  0.00    -0.025 C 
ATOM     21  C   UNL     1      12.762  16.753   0.355  1.00  0.00     0.005 C 
ATOM     22  C   UNL     1      13.541  17.903   1.068  1.00  0.00     0.003 C 
ATOM     23  C   UNL     1      15.650  16.820   2.026  1.00  0.00     0.010 C 
ATOM     24  C   UNL     1      14.516  18.682   3.320  1.00  0.00     0.012 C 
ATOM     25  C   UNL     1      14.440  18.735   0.027  1.00  0.00    -0.006 C 
ATOM     26  C   UNL     1      16.527  17.700   1.127  1.00  0.00     0.033 C 
ATOM     27  C   UNL     1      15.826  18.050  -0.197  1.00  0.00     0.120 C 
ATOM     28  C   UNL     1      14.661  20.213   0.496  1.00  0.00     0.014 C 
ATOM     29  C   UNL     1      13.720  18.878  -1.353  1.00  0.00     0.014 C 
ENDROOT
BRANCH   1  30
ATOM     30  C   UNL     1       9.052  16.284   5.891  1.00  0.00     0.048 C 
ATOM     31  O   UNL     1       9.591  16.715   6.945  1.00  0.00    -0.550 OA
ATOM     32  O   UNL     1       8.326  17.172   5.104  1.00  0.00    -0.550 OA
ENDBRANCH   1  30
BRANCH  27  33
ATOM     33  O   UNL     1      15.689  16.883  -0.972  1.00  0.00    -0.393 OA
ATOM     34  H   UNL     1      16.420  16.267  -0.704  1.00  0.00     0.210 HD
ENDBRANCH  27  33
TORSDOF 2
ENDMDL
MODEL 3
REMARK VINA RESULT:    -8.635      1.836      7.972
REMARK INTER + INTRA:          -9.630
REMARK INTER:                  -9.402
REMARK INTRA:                  -0.228
REMARK UNBOUND:                -0.238
REMARK SMILES CC1(C)CC[C@]2(C(=O)[O-])CC[C@]3(C)C(=CC[C@@H]4[C@@]5(C)CC[C@@H](O)C(C)(C)[C@H]5CC[C@]43C)[C@@H]2C1
REMARK SMILES IDX 6 1 5 2 10 3 32 4 4 5 11 6 14 7 33 8 2 9 12 10 15 11 1 12
REMARK SMILES IDX 3 13 13 14 30 15 16 16 17 17 29 18 31 19 18 20 28 21 27 22
REMARK SMILES IDX 20 23 19 24 24 25 21 26 22 27 25 28 26 29 7 30 8 31 9 32
REMARK SMILES IDX 23 33
REMARK H PARENT 23 34
REMARK Flexibility Score: inf
ROOT
ATOM      1  C   UNL     1      13.905  15.825   0.735  1.00  0.00     0.017 C 
ATOM      2  C   UNL     1      14.764  16.279  -0.485  1.00  0.00     0.014 C 
ATOM      3  C   UNL     1      12.545  15.187   0.261  1.00  0.00     0.014 C 
ATOM      4  C   UNL     1      13.675  17.022   1.718  1.00  0.00     0.028 C 
ATOM      5  C   UNL     1      14.293  17.584  -1.142  1.00  0.00     0.007 C 
ATOM      6  C   UNL     1      11.240  15.726   0.899  1.00  0.00     0.013 C 
ATOM      7  C   UNL     1      12.678  16.606   2.805  1.00  0.00    -0.064 C 
ATOM      8  C   UNL     1      13.265  18.344   1.021  1.00  0.00     0.015 C 
ATOM      9  C   UNL     1      14.200  18.757  -0.139  1.00  0.00    -0.035 C 
ATOM     10  C   UNL     1      11.270  16.121   2.430  1.00  0.00    -0.006 C 
ATOM     11  C   UNL     1      13.108  16.569   4.085  1.00  0.00    -0.027 C 
ATOM     12  C   UNL     1      15.598  19.177   0.379  1.00  0.00     0.011 C 
ATOM     13  C   UNL     1      13.584  19.974  -0.866  1.00  0.00     0.011 C 
ATOM     14  C   UNL     1      10.317  17.357   2.578  1.00  0.00     0.017 C 
ATOM     15  C   UNL     1      10.812  14.904   3.394  1.00  0.00    -0.020 C 
ATOM     16  C   UNL     1      12.495  15.704   5.151  1.00  0.00     0.032 C 
ATOM     17  C   UNL     1      11.022  15.290   4.900  1.00  0.00     0.006 C 
ATOM     18  C   UNL     1       9.293  14.633   3.250  1.00  0.00     0.008 C 
ATOM     19  C   UNL     1      11.636  13.634   3.033  1.00  0.00     0.012 C 
ATOM     20  C   UNL     1      10.345  14.314   6.015  1.00  0.00    -0.025 C 
ATOM     21  C   UNL     1       8.744  13.479   4.091  1.00  0.00     0.005 C 
ATOM     22  C   UNL     1       9.497  13.106   5.406  1.00  0.00     0.003 C 
ATOM     23  C   UNL     1       9.386  15.191   6.883  1.00  0.00     0.010 C 
ATOM     24  C   UNL     1      11.466  13.741   6.938  1.00  0.00     0.012 C 
ATOM     25  C   UNL     1       8.534  12.327   6.432  1.00  0.00    -0.006 C 
ATOM     26  C   UNL     1       8.573  14.422   7.931  1.00  0.00     0.033 C 
ATOM     27  C   UNL     1       7.700  13.328   7.294  1.00  0.00     0.120 C 
ATOM     28  C   UNL     1       9.337  11.372   7.378  1.00  0.00     0.014 C 
ATOM     29  C   UNL     1       7.553  11.376   5.674  1.00  0.00     0.014 C 
ENDROOT
BRANCH   1  30
ATOM     30  C   UNL     1      14.734  14.730   1.410  1.00  0.00     0.048 C 
ATOM     31  O   UNL     1      14.466  13.508   1.259  1.00  0.00    -0.550 OA
ATOM     32  O   UNL     1      15.778  15.080   2.260  1.00  0.00    -0.550 OA
ENDBRANCH   1  30
BRANCH  27  33
ATOM     33  O   UNL     1       6.689  13.932   6.524  1.00  0.00    -0.393 OA
ATOM     34  H   UNL     1       6.626  14.879   6.814  1.00  0.00     0.210 HD
ENDBRANCH  27  33
TORSDOF 2
ENDMDL
MODEL 4
REMARK VINA RESULT:    -8.567      1.681      8.033
REMARK INTER + INTRA:          -9.556
REMARK INTER:                  -9.317
REMARK INTRA:                  -0.239
REMARK UNBOUND:                -0.238
REMARK SMILES CC1(C)CC[C@]2(C(=O)[O-])CC[C@]3(C)C(=CC[C@@H]4[C@@]5(C)CC[C@@H](O)C(C)(C)[C@H]5CC[C@]43C)[C@@H]2C1
REMARK SMILES IDX 6 1 5 2 10 3 32 4 4 5 11 6 14 7 33 8 2 9 12 10 15 11 1 12
REMARK SMILES IDX 3 13 13 14 30 15 16 16 17 17 29 18 31 19 18 20 28 21 27 22
REMARK SMILES IDX 20 23 19 24 24 25 21 26 22 27 25 28 26 29 7 30 8 31 9 32
REMARK SMILES IDX 23 33
REMARK H PARENT 23 34
REMARK Flexibility Score: inf
ROOT
ATOM      1  C   UNL     1      14.842  16.435   1.749  1.00  0.00     0.017 C 
ATOM      2  C   UNL     1      15.978  16.917   0.796  1.00  0.00     0.014 C 
ATOM      3  C   UNL     1      14.415  14.956   1.416  1.00  0.00     0.014 C 
ATOM      4  C   UNL     1      13.625  17.419   1.692  1.00  0.00     0.028 C 
ATOM      5  C   UNL     1      15.505  17.291  -0.615  1.00  0.00     0.007 C 
ATOM      6  C   UNL     1      12.905  14.675   1.210  1.00  0.00     0.013 C 
ATOM      7  C   UNL     1      12.453  16.830   2.485  1.00  0.00    -0.064 C 
ATOM      8  C   UNL     1      13.212  17.832   0.256  1.00  0.00     0.015 C 
ATOM      9  C   UNL     1      14.383  18.354  -0.607  1.00  0.00    -0.035 C 
ATOM     10  C   UNL     1      11.874  15.456   2.119  1.00  0.00    -0.006 C 
ATOM     11  C   UNL     1      12.025  17.496   3.579  1.00  0.00    -0.027 C 
ATOM     12  C   UNL     1      14.898  19.723  -0.097  1.00  0.00     0.011 C 
ATOM     13  C   UNL     1      13.884  18.552  -2.056  1.00  0.00     0.011 C 
ATOM     14  C   UNL     1      10.619  15.726   1.219  1.00  0.00     0.017 C 
ATOM     15  C   UNL     1      11.476  14.632   3.455  1.00  0.00    -0.020 C 
ATOM     16  C   UNL     1      11.316  16.845   4.735  1.00  0.00     0.032 C 
ATOM     17  C   UNL     1      10.590  15.516   4.400  1.00  0.00     0.006 C 
ATOM     18  C   UNL     1      10.597  13.405   3.100  1.00  0.00     0.008 C 
ATOM     19  C   UNL     1      12.778  14.186   4.182  1.00  0.00     0.012 C 
ATOM     20  C   UNL     1       9.853  14.763   5.642  1.00  0.00    -0.025 C 
ATOM     21  C   UNL     1      10.182  12.525   4.281  1.00  0.00     0.005 C 
ATOM     22  C   UNL     1      10.095  13.185   5.693  1.00  0.00     0.003 C 
ATOM     23  C   UNL     1       8.318  15.013   5.495  1.00  0.00     0.010 C 
ATOM     24  C   UNL     1      10.334  15.400   6.983  1.00  0.00     0.012 C 
ATOM     25  C   UNL     1       9.129  12.350   6.670  1.00  0.00    -0.006 C 
ATOM     26  C   UNL     1       7.441  14.290   6.525  1.00  0.00     0.033 C 
ATOM     27  C   UNL     1       7.635  12.766   6.479  1.00  0.00     0.120 C 
ATOM     28  C   UNL     1       9.527  12.525   8.175  1.00  0.00     0.014 C 
ATOM     29  C   UNL     1       9.261  10.814   6.419  1.00  0.00     0.014 C 
ENDROOT
BRANCH   1  30
ATOM     30  C   UNL     1      15.472  16.444   3.144  1.00  0.00     0.048 C 
ATOM     31  O   UNL     1      15.576  17.503   3.818  1.00  0.00    -0.550 OA
ATOM     32  O   UNL     1      15.999  15.268   3.670  1.00  0.00    -0.550 OA
ENDBRANCH   1  30
BRANCH  27  33
ATOM     33  O   UNL     1       7.129  12.270   5.263  1.00  0.00    -0.393 OA
ATOM     34  H   UNL     1       7.576  11.399   5.094  1.00  0.00     0.210 HD
ENDBRANCH  27  33
TORSDOF 2
ENDMDL
MODEL 5
REMARK VINA RESULT:    -8.478      1.891      3.046
REMARK INTER + INTRA:          -9.460
REMARK INTER:                  -9.277
REMARK INTRA:                  -0.183
REMARK UNBOUND:                -0.238
REMARK SMILES CC1(C)CC[C@]2(C(=O)[O-])CC[C@]3(C)C(=CC[C@@H]4[C@@]5(C)CC[C@@H](O)C(C)(C)[C@H]5CC[C@]43C)[C@@H]2C1
REMARK SMILES IDX 6 1 5 2 10 3 32 4 4 5 11 6 14 7 33 8 2 9 12 10 15 11 1 12
REMARK SMILES IDX 3 13 13 14 30 15 16 16 17 17 29 18 31 19 18 20 28 21 27 22
REMARK SMILES IDX 20 23 19 24 24 25 21 26 22 27 25 28 26 29 7 30 8 31 9 32
REMARK SMILES IDX 23 33
REMARK H PARENT 23 34
REMARK Flexibility Score: inf
ROOT
ATOM      1  C   UNL     1       8.717  13.901   5.391  1.00  0.00     0.017 C 
ATOM      2  C   UNL     1       7.500  13.060   5.883  1.00  0.00     0.014 C 
ATOM      3  C   UNL     1       9.511  13.139   4.265  1.00  0.00     0.014 C 
ATOM      4  C   UNL     1       9.641  14.285   6.596  1.00  0.00     0.028 C 
ATOM      5  C   UNL     1       7.866  11.902   6.821  1.00  0.00     0.007 C 
ATOM      6  C   UNL     1      11.043  12.992   4.442  1.00  0.00     0.013 C 
ATOM      7  C   UNL     1      10.921  14.944   6.071  1.00  0.00    -0.064 C 
ATOM      8  C   UNL     1       9.941  13.110   7.563  1.00  0.00     0.015 C 
ATOM      9  C   UNL     1       8.678  12.365   8.053  1.00  0.00    -0.035 C 
ATOM     10  C   UNL     1      11.836  14.199   5.087  1.00  0.00    -0.006 C 
ATOM     11  C   UNL     1      11.159  16.230   6.403  1.00  0.00    -0.027 C 
ATOM     12  C   UNL     1       7.826  13.248   8.998  1.00  0.00     0.011 C 
ATOM     13  C   UNL     1       9.116  11.114   8.849  1.00  0.00     0.011 C 
ATOM     14  C   UNL     1      12.983  13.559   5.942  1.00  0.00     0.017 C 
ATOM     15  C   UNL     1      12.426  15.218   3.977  1.00  0.00    -0.020 C 
ATOM     16  C   UNL     1      12.006  17.166   5.585  1.00  0.00     0.032 C 
ATOM     17  C   UNL     1      13.051  16.480   4.668  1.00  0.00     0.006 C 
ATOM     18  C   UNL     1      13.592  14.561   3.195  1.00  0.00     0.008 C 
ATOM     19  C   UNL     1      11.279  15.633   3.010  1.00  0.00     0.012 C 
ATOM     20  C   UNL     1      13.951  17.465   3.735  1.00  0.00    -0.025 C 
ATOM     21  C   UNL     1      14.214  15.417   2.090  1.00  0.00     0.005 C 
ATOM     22  C   UNL     1      14.122  16.969   2.226  1.00  0.00     0.003 C 
ATOM     23  C   UNL     1      15.371  17.552   4.380  1.00  0.00     0.010 C 
ATOM     24  C   UNL     1      13.316  18.891   3.738  1.00  0.00     0.012 C 
ATOM     25  C   UNL     1      15.266  17.701   1.364  1.00  0.00    -0.006 C 
ATOM     26  C   UNL     1      16.400  18.361   3.582  1.00  0.00     0.033 C 
ATOM     27  C   UNL     1      16.604  17.796   2.166  1.00  0.00     0.120 C 
ATOM     28  C   UNL     1      14.830  19.136   0.912  1.00  0.00     0.014 C 
ATOM     29  C   UNL     1      15.535  16.945   0.024  1.00  0.00     0.014 C 
ENDROOT
BRANCH   1  30
ATOM     30  C   UNL     1       8.100  15.156   4.770  1.00  0.00     0.048 C 
ATOM     31  O   UNL     1       8.098  15.347   3.525  1.00  0.00    -0.550 OA
ATOM     32  O   UNL     1       7.573  16.146   5.594  1.00  0.00    -0.550 OA
ENDBRANCH   1  30
BRANCH  27  33
ATOM     33  O   UNL     1      17.226  16.536   2.254  1.00  0.00    -0.393 OA
ATOM     34  H   UNL     1      16.629  15.884   1.802  1.00  0.00     0.210 HD
ENDBRANCH  27  33
TORSDOF 2
ENDMDL
MODEL 6
REMARK VINA RESULT:    -8.433      1.629      8.067
REMARK INTER + INTRA:          -9.411
REMARK INTER:                  -9.180
REMARK INTRA:                  -0.231
REMARK UNBOUND:                -0.238
REMARK SMILES CC1(C)CC[C@]2(C(=O)[O-])CC[C@]3(C)C(=CC[C@@H]4[C@@]5(C)CC[C@@H](O)C(C)(C)[C@H]5CC[C@]43C)[C@@H]2C1
REMARK SMILES IDX 6 1 5 2 10 3 32 4 4 5 11 6 14 7 33 8 2 9 12 10 15 11 1 12
REMARK SMILES IDX 3 13 13 14 30 15 16 16 17 17 29 18 31 19 18 20 28 21 27 22
REMARK SMILES IDX 20 23 19 24 24 25 21 26 22 27 25 28 26 29 7 30 8 31 9 32
REMARK SMILES IDX 23 33
REMARK H PARENT 23 34
REMARK Flexibility Score: inf
ROOT
ATOM      1  C   UNL     1      13.307  18.593   3.108  1.00  0.00     0.017 C 
ATOM      2  C   UNL     1      14.206  19.788   2.666  1.00  0.00     0.014 C 
ATOM      3  C   UNL     1      13.766  18.028   4.505  1.00  0.00     0.014 C 
ATOM      4  C   UNL     1      13.296  17.480   2.006  1.00  0.00     0.028 C 
ATOM      5  C   UNL     1      15.586  19.382   2.134  1.00  0.00     0.007 C 
ATOM      6  C   UNL     1      14.009  16.502   4.616  1.00  0.00     0.013 C 
ATOM      7  C   UNL     1      12.566  16.241   2.537  1.00  0.00    -0.064 C 
ATOM      8  C   UNL     1      14.698  17.136   1.439  1.00  0.00     0.015 C 
ATOM      9  C   UNL     1      15.502  18.370   0.968  1.00  0.00    -0.035 C 
ATOM     10  C   UNL     1      13.050  15.536   3.812  1.00  0.00    -0.006 C 
ATOM     11  C   UNL     1      11.426  15.860   1.922  1.00  0.00    -0.027 C 
ATOM     12  C   UNL     1      14.876  19.008  -0.297  1.00  0.00     0.011 C 
ATOM     13  C   UNL     1      16.936  17.920   0.605  1.00  0.00     0.011 C 
ATOM     14  C   UNL     1      13.938  14.331   3.346  1.00  0.00     0.017 C 
ATOM     15  C   UNL     1      11.791  15.033   4.697  1.00  0.00    -0.020 C 
ATOM     16  C   UNL     1      10.336  15.070   2.590  1.00  0.00     0.032 C 
ATOM     17  C   UNL     1      10.786  14.222   3.808  1.00  0.00     0.006 C 
ATOM     18  C   UNL     1      12.255  14.045   5.797  1.00  0.00     0.008 C 
ATOM     19  C   UNL     1      11.090  16.272   5.328  1.00  0.00     0.012 C 
ATOM     20  C   UNL     1       9.618  13.391   4.582  1.00  0.00    -0.025 C 
ATOM     21  C   UNL     1      11.155  13.523   6.724  1.00  0.00     0.005 C 
ATOM     22  C   UNL     1       9.695  13.475   6.175  1.00  0.00     0.003 C 
ATOM     23  C   UNL     1       9.760  11.891   4.169  1.00  0.00     0.010 C 
ATOM     24  C   UNL     1       8.225  13.908   4.106  1.00  0.00     0.012 C 
ATOM     25  C   UNL     1       8.799  12.413   6.985  1.00  0.00    -0.006 C 
ATOM     26  C   UNL     1       8.802  10.928   4.880  1.00  0.00     0.033 C 
ATOM     27  C   UNL     1       8.972  10.972   6.408  1.00  0.00     0.120 C 
ATOM     28  C   UNL     1       7.281  12.798   6.972  1.00  0.00     0.014 C 
ATOM     29  C   UNL     1       9.175  12.398   8.502  1.00  0.00     0.014 C 
ENDROOT
BRANCH   1  30
ATOM     30  C   UNL     1      11.910  19.194   3.274  1.00  0.00     0.048 C 
ATOM     31  O   UNL     1      11.451  19.503   4.406  1.00  0.00    -0.550 OA
ATOM     32  O   UNL     1      11.092  19.358   2.160  1.00  0.00    -0.550 OA
ENDBRANCH   1  30
BRANCH  27  33
ATOM     33  O   UNL     1      10.230  10.442   6.751  1.00  0.00    -0.393 OA
ATOM     34  H   UNL     1      10.158   9.454   6.687  1.00  0.00     0.210 HD
ENDBRANCH  27  33
TORSDOF 2
ENDMDL
MODEL 7
REMARK VINA RESULT:    -8.388      1.444      2.008
REMARK INTER + INTRA:          -9.362
REMARK INTER:                  -9.131
REMARK INTRA:                  -0.231
REMARK UNBOUND:                -0.238
REMARK SMILES CC1(C)CC[C@]2(C(=O)[O-])CC[C@]3(C)C(=CC[C@@H]4[C@@]5(C)CC[C@@H](O)C(C)(C)[C@H]5CC[C@]43C)[C@@H]2C1
REMARK SMILES IDX 6 1 5 2 10 3 32 4 4 5 11 6 14 7 33 8 2 9 12 10 15 11 1 12
REMARK SMILES IDX 3 13 13 14 30 15 16 16 17 17 29 18 31 19 18 20 28 21 27 22
REMARK SMILES IDX 20 23 19 24 24 25 21 26 22 27 25 28 26 29 7 30 8 31 9 32
REMARK SMILES IDX 23 33
REMARK H PARENT 23 34
REMARK Flexibility Score: inf
ROOT
ATOM      1  C   UNL     1      11.535  12.943   5.403  1.00  0.00     0.017 C 
ATOM      2  C   UNL     1      10.771  11.846   6.206  1.00  0.00     0.014 C 
ATOM      3  C   UNL     1      12.412  13.833   6.361  1.00  0.00     0.014 C 
ATOM      4  C   UNL     1      10.533  13.804   4.563  1.00  0.00     0.028 C 
ATOM      5  C   UNL     1       9.546  12.359   6.973  1.00  0.00     0.007 C 
ATOM      6  C   UNL     1      12.256  15.371   6.253  1.00  0.00     0.013 C 
ATOM      7  C   UNL     1      11.278  14.988   3.935  1.00  0.00    -0.064 C 
ATOM      8  C   UNL     1       9.273  14.254   5.346  1.00  0.00     0.015 C 
ATOM      9  C   UNL     1       8.538  13.099   6.064  1.00  0.00    -0.035 C 
ATOM     10  C   UNL     1      12.029  15.996   4.818  1.00  0.00    -0.006 C 
ATOM     11  C   UNL     1      11.352  15.053   2.589  1.00  0.00    -0.027 C 
ATOM     12  C   UNL     1       7.867  12.135   5.054  1.00  0.00     0.011 C 
ATOM     13  C   UNL     1       7.423  13.695   6.953  1.00  0.00     0.011 C 
ATOM     14  C   UNL     1      11.065  17.215   5.022  1.00  0.00     0.017 C 
ATOM     15  C   UNL     1      13.413  16.450   4.112  1.00  0.00    -0.020 C 
ATOM     16  C   UNL     1      12.442  15.772   1.842  1.00  0.00     0.032 C 
ATOM     17  C   UNL     1      13.152  16.900   2.633  1.00  0.00     0.006 C 
ATOM     18  C   UNL     1      14.007  17.694   4.821  1.00  0.00     0.008 C 
ATOM     19  C   UNL     1      14.417  15.260   4.154  1.00  0.00     0.012 C 
ATOM     20  C   UNL     1      14.368  17.666   1.867  1.00  0.00    -0.025 C 
ATOM     21  C   UNL     1      15.338  18.201   4.263  1.00  0.00     0.005 C 
ATOM     22  C   UNL     1      15.667  17.905   2.766  1.00  0.00     0.003 C 
ATOM     23  C   UNL     1      13.830  19.060   1.412  1.00  0.00     0.010 C 
ATOM     24  C   UNL     1      14.765  16.848   0.598  1.00  0.00     0.012 C 
ATOM     25  C   UNL     1      16.748  18.944   2.187  1.00  0.00    -0.006 C 
ATOM     26  C   UNL     1      14.871  19.975   0.755  1.00  0.00     0.033 C 
ATOM     27  C   UNL     1      16.061  20.256   1.688  1.00  0.00     0.120 C 
ATOM     28  C   UNL     1      17.590  18.324   1.021  1.00  0.00     0.014 C 
ATOM     29  C   UNL     1      17.812  19.314   3.270  1.00  0.00     0.014 C 
ENDROOT
BRANCH   1  30
ATOM     30  C   UNL     1      12.478  12.167   4.481  1.00  0.00     0.048 C 
ATOM     31  O   UNL     1      13.699  12.018   4.754  1.00  0.00    -0.550 OA
ATOM     32  O   UNL     1      12.000  11.655   3.278  1.00  0.00    -0.550 OA
ENDBRANCH   1  30
BRANCH  27  33
ATOM     33  O   UNL     1      15.626  21.038   2.774  1.00  0.00    -0.393 OA
ATOM     34  H   UNL     1      16.420  21.521   3.123  1.00  0.00     0.210 HD
ENDBRANCH  27  33
TORSDOF 2
ENDMDL
MODEL 8
REMARK VINA RESULT:    -8.325      2.470      8.873
REMARK INTER + INTRA:          -9.293
REMARK INTER:                  -9.057
REMARK INTRA:                  -0.237
REMARK UNBOUND:                -0.238
REMARK SMILES CC1(C)CC[C@]2(C(=O)[O-])CC[C@]3(C)C(=CC[C@@H]4[C@@]5(C)CC[C@@H](O)C(C)(C)[C@H]5CC[C@]43C)[C@@H]2C1
REMARK SMILES IDX 6 1 5 2 10 3 32 4 4 5 11 6 14 7 33 8 2 9 12 10 15 11 1 12
REMARK SMILES IDX 3 13 13 14 30 15 16 16 17 17 29 18 31 19 18 20 28 21 27 22
REMARK SMILES IDX 20 23 19 24 24 25 21 26 22 27 25 28 26 29 7 30 8 31 9 32
REMARK SMILES IDX 23 33
REMARK H PARENT 23 34
REMARK Flexibility Score: inf
ROOT
ATOM      1  C   UNL     1      14.596  20.275   0.083  1.00  0.00     0.017 C 
ATOM      2  C   UNL     1      14.814  21.637  -0.644  1.00  0.00     0.014 C 
ATOM      3  C   UNL     1      13.578  20.429   1.275  1.00  0.00     0.014 C 
ATOM      4  C   UNL     1      15.964  19.682   0.559  1.00  0.00     0.028 C 
ATOM      5  C   UNL     1      15.726  22.617   0.106  1.00  0.00     0.007 C 
ATOM      6  C   UNL     1      14.009  19.884   2.660  1.00  0.00     0.013 C 
ATOM      7  C   UNL     1      15.712  18.447   1.431  1.00  0.00    -0.064 C 
ATOM      8  C   UNL     1      16.892  20.711   1.255  1.00  0.00     0.015 C 
ATOM      9  C   UNL     1      17.106  22.010   0.444  1.00  0.00    -0.035 C 
ATOM     10  C   UNL     1      14.856  18.550   2.703  1.00  0.00    -0.006 C 
ATOM     11  C   UNL     1      16.162  17.253   0.991  1.00  0.00    -0.027 C 
ATOM     12  C   UNL     1      17.943  21.751  -0.833  1.00  0.00     0.011 C 
ATOM     13  C   UNL     1      17.885  23.019   1.317  1.00  0.00     0.011 C 
ATOM     14  C   UNL     1      15.855  18.708   3.901  1.00  0.00     0.017 C 
ATOM     15  C   UNL     1      13.933  17.232   2.875  1.00  0.00    -0.020 C 
ATOM     16  C   UNL     1      15.564  15.932   1.390  1.00  0.00     0.032 C 
ATOM     17  C   UNL     1      14.800  15.933   2.739  1.00  0.00     0.006 C 
ATOM     18  C   UNL     1      13.324  17.172   4.299  1.00  0.00     0.008 C 
ATOM     19  C   UNL     1      12.810  17.257   1.796  1.00  0.00     0.012 C 
ATOM     20  C   UNL     1      14.102  14.528   3.177  1.00  0.00    -0.025 C 
ATOM     21  C   UNL     1      12.401  15.983   4.575  1.00  0.00     0.005 C 
ATOM     22  C   UNL     1      12.617  14.679   3.746  1.00  0.00     0.003 C 
ATOM     23  C   UNL     1      14.988  13.893   4.295  1.00  0.00     0.010 C 
ATOM     24  C   UNL     1      14.086  13.564   1.949  1.00  0.00     0.012 C 
ATOM     25  C   UNL     1      12.016  13.396   4.506  1.00  0.00    -0.006 C 
ATOM     26  C   UNL     1      14.433  12.603   4.911  1.00  0.00     0.033 C 
ATOM     27  C   UNL     1      13.041  12.813   5.530  1.00  0.00     0.120 C 
ATOM     28  C   UNL     1      11.587  12.270   3.505  1.00  0.00     0.014 C 
ATOM     29  C   UNL     1      10.696  13.754   5.263  1.00  0.00     0.014 C 
ENDROOT
BRANCH   1  30
ATOM     30  C   UNL     1      13.958  19.367  -0.972  1.00  0.00     0.048 C 
ATOM     31  O   UNL     1      14.643  18.812  -1.871  1.00  0.00    -0.550 OA
ATOM     32  O   UNL     1      12.578  19.185  -0.981  1.00  0.00    -0.550 OA
ENDBRANCH   1  30
BRANCH  27  33
ATOM     33  O   UNL     1      13.156  13.649   6.656  1.00  0.00    -0.393 OA
ATOM     34  H   UNL     1      12.491  14.379   6.547  1.00  0.00     0.210 HD
ENDBRANCH  27  33
TORSDOF 2
ENDMDL
MODEL 9
REMARK VINA RESULT:    -8.286      4.738      6.888
REMARK INTER + INTRA:          -9.251
REMARK INTER:                  -9.011
REMARK INTRA:                  -0.240
REMARK UNBOUND:                -0.238
REMARK SMILES CC1(C)CC[C@]2(C(=O)[O-])CC[C@]3(C)C(=CC[C@@H]4[C@@]5(C)CC[C@@H](O)C(C)(C)[C@H]5CC[C@]43C)[C@@H]2C1
REMARK SMILES IDX 6 1 5 2 10 3 32 4 4 5 11 6 14 7 33 8 2 9 12 10 15 11 1 12
REMARK SMILES IDX 3 13 13 14 30 15 16 16 17 17 29 18 31 19 18 20 28 21 27 22
REMARK SMILES IDX 20 23 19 24 24 25 21 26 22 27 25 28 26 29 7 30 8 31 9 32
REMARK SMILES IDX 23 33
REMARK H PARENT 23 34
REMARK Flexibility Score: inf
ROOT
ATOM      1  C   UNL     1      13.102  16.842   3.497  1.00  0.00     0.017 C 
ATOM      2  C   UNL     1      13.987  15.577   3.277  1.00  0.00     0.014 C 
ATOM      3  C   UNL     1      13.736  17.791   4.582  1.00  0.00     0.014 C 
ATOM      4  C   UNL     1      11.638  16.429   3.869  1.00  0.00     0.028 C 
ATOM      5  C   UNL     1      13.867  14.519   4.382  1.00  0.00     0.007 C 
ATOM      6  C   UNL     1      12.825  18.260   5.744  1.00  0.00     0.013 C 
ATOM      7  C   UNL     1      10.839  17.676   4.264  1.00  0.00    -0.064 C 
ATOM      8  C   UNL     1      11.549  15.311   4.940  1.00  0.00     0.015 C 
ATOM      9  C   UNL     1      12.408  14.067   4.619  1.00  0.00    -0.035 C 
ATOM     10  C   UNL     1      11.308  18.570   5.421  1.00  0.00    -0.006 C 
ATOM     11  C   UNL     1       9.784  18.026   3.498  1.00  0.00    -0.027 C 
ATOM     12  C   UNL     1      11.848  13.286   3.405  1.00  0.00     0.011 C 
ATOM     13  C   UNL     1      12.382  13.117   5.839  1.00  0.00     0.011 C 
ATOM     14  C   UNL     1      10.494  18.127   6.686  1.00  0.00     0.017 C 
ATOM     15  C   UNL     1      11.054  20.130   5.072  1.00  0.00    -0.020 C 
ATOM     16  C   UNL     1       9.255  19.430   3.390  1.00  0.00     0.032 C 
ATOM     17  C   UNL     1       9.576  20.351   4.594  1.00  0.00     0.006 C 
ATOM     18  C   UNL     1      11.209  21.007   6.341  1.00  0.00     0.008 C 
ATOM     19  C   UNL     1      12.059  20.573   3.969  1.00  0.00     0.012 C 
ATOM     20  C   UNL     1       9.056  21.891   4.486  1.00  0.00    -0.025 C 
ATOM     21  C   UNL     1      11.024  22.511   6.133  1.00  0.00     0.005 C 
ATOM     22  C   UNL     1      10.128  22.983   4.944  1.00  0.00     0.003 C 
ATOM     23  C   UNL     1       7.802  22.027   5.408  1.00  0.00     0.010 C 
ATOM     24  C   UNL     1       8.625  22.180   3.014  1.00  0.00     0.012 C 
ATOM     25  C   UNL     1       9.566  24.469   5.188  1.00  0.00    -0.006 C 
ATOM     26  C   UNL     1       7.226  23.444   5.517  1.00  0.00     0.033 C 
ATOM     27  C   UNL     1       8.263  24.447   6.049  1.00  0.00     0.120 C 
ATOM     28  C   UNL     1       9.285  25.217   3.841  1.00  0.00     0.014 C 
ATOM     29  C   UNL     1      10.628  25.365   5.905  1.00  0.00     0.014 C 
ENDROOT
BRANCH   1  30
ATOM     30  C   UNL     1      13.126  17.574   2.153  1.00  0.00     0.048 C 
ATOM     31  O   UNL     1      12.373  17.238   1.201  1.00  0.00    -0.550 OA
ATOM     32  O   UNL     1      14.038  18.605   1.946  1.00  0.00    -0.550 OA
ENDBRANCH   1  30
BRANCH  27  33
ATOM     33  O   UNL     1       8.555  24.144   7.392  1.00  0.00    -0.393 OA
ATOM     34  H   UNL     1       7.866  24.593   7.949  1.00  0.00     0.210 HD
ENDBRANCH  27  33
TORSDOF 2
ENDMDL
