MODEL 1
REMARK VINA RESULT:    -5.535      0.000      0.000
REMARK INTER + INTRA:          -7.454
REMARK INTER:                  -6.991
REMARK INTRA:                  -0.462
REMARK UNBOUND:                -0.462
REMARK SMILES Oc1ccc(CCc2cc(O)cc(O)c2)cc1
REMARK SMILES IDX 6 1 5 2 4 3 3 4 2 5 16 6 17 7 1 8 7 10 8 11 15 12 9 13 13 14
REMARK SMILES IDX 10 15 12 16 14 17 11 19
REMARK H PARENT 1 9 14 18 11 20
REMARK Flexibility Score: inf
ROOT
ATOM      1  C   UNL     1      29.507  26.373  10.680  1.00  0.00     0.040 C 
ENDROOT
BRANCH   1   2
ATOM      2  C   UNL     1      30.100  27.756  10.666  1.00  0.00    -0.047 A 
ATOM      3  C   UNL     1      31.196  28.049   9.838  1.00  0.00     0.007 A 
ATOM      4  C   UNL     1      31.726  29.343   9.802  1.00  0.00     0.046 A 
ATOM      5  C   UNL     1      31.162  30.357  10.581  1.00  0.00     0.115 A 
ATOM      6  C   UNL     1      29.528  28.780  11.439  1.00  0.00     0.007 A 
ATOM      7  C   UNL     1      30.059  30.073  11.400  1.00  0.00     0.046 A 
BRANCH   5   8
ATOM      8  O   UNL     1      31.700  31.641  10.536  1.00  0.00    -0.508 OA
ATOM      9  H   UNL     1      32.585  31.860  10.976  1.00  0.00     0.293 HD
ENDBRANCH   5   8
ENDBRANCH   1   2
BRANCH   1  10
ATOM     10  C   UNL     1      30.612  25.313  10.662  1.00  0.00     0.040 C 
BRANCH  10  11
ATOM     11  C   UNL     1      30.314  24.219  11.652  1.00  0.00    -0.040 A 
ATOM     12  C   UNL     1      29.235  24.347  12.543  1.00  0.00     0.050 A 
ATOM     13  C   UNL     1      31.145  23.091  11.734  1.00  0.00     0.050 A 
ATOM     14  C   UNL     1      28.975  23.348  13.486  1.00  0.00     0.119 A 
ATOM     15  C   UNL     1      30.886  22.089  12.678  1.00  0.00     0.119 A 
ATOM     16  C   UNL     1      29.801  22.217  13.550  1.00  0.00     0.092 A 
BRANCH  14  17
ATOM     17  O   UNL     1      27.896  23.489  14.356  1.00  0.00    -0.508 OA
ATOM     18  H   UNL     1      28.029  23.556  15.359  1.00  0.00     0.293 HD
ENDBRANCH  14  17
BRANCH  15  19
ATOM     19  O   UNL     1      31.703  20.963  12.760  1.00  0.00    -0.508 OA
ATOM     20  H   UNL     1      31.542  20.148  12.179  1.00  0.00     0.293 HD
ENDBRANCH  15  19
ENDBRANCH  10  11
ENDBRANCH   1  10
TORSDOF 6
ENDMDL
MODEL 2
REMARK VINA RESULT:    -5.497      1.742      6.719
REMARK INTER + INTRA:          -7.406
REMARK INTER:                  -6.859
REMARK INTRA:                  -0.547
REMARK UNBOUND:                -0.462
REMARK SMILES Oc1ccc(CCc2cc(O)cc(O)c2)cc1
REMARK SMILES IDX 6 1 5 2 4 3 3 4 2 5 16 6 17 7 1 8 7 10 8 11 15 12 9 13 13 14
REMARK SMILES IDX 10 15 12 16 14 17 11 19
REMARK H PARENT 1 9 14 18 11 20
REMARK Flexibility Score: inf
ROOT
ATOM      1  C   UNL     1      29.256  24.649  11.949  1.00  0.00     0.040 C 
ENDROOT
BRANCH   1   2
ATOM      2  C   UNL     1      30.021  23.656  12.779  1.00  0.00    -0.047 A 
ATOM      3  C   UNL     1      31.268  24.000  13.327  1.00  0.00     0.007 A 
ATOM      4  C   UNL     1      31.964  23.087  14.126  1.00  0.00     0.046 A 
ATOM      5  C   UNL     1      31.418  21.829  14.395  1.00  0.00     0.115 A 
ATOM      6  C   UNL     1      29.470  22.395  13.063  1.00  0.00     0.007 A 
ATOM      7  C   UNL     1      30.167  21.484  13.862  1.00  0.00     0.046 A 
BRANCH   5   8
ATOM      8  O   UNL     1      32.122  20.929  15.192  1.00  0.00    -0.508 OA
ATOM      9  H   UNL     1      32.049  20.947  16.202  1.00  0.00     0.293 HD
ENDBRANCH   5   8
ENDBRANCH   1   2
BRANCH   1  10
ATOM     10  C   UNL     1      30.155  25.252  10.865  1.00  0.00     0.040 C 
BRANCH  10  11
ATOM     11  C   UNL     1      30.260  26.745  11.034  1.00  0.00    -0.040 A 
ATOM     12  C   UNL     1      29.664  27.375  12.140  1.00  0.00     0.050 A 
ATOM     13  C   UNL     1      30.902  27.524  10.059  1.00  0.00     0.050 A 
ATOM     14  C   UNL     1      29.732  28.765  12.281  1.00  0.00     0.119 A 
ATOM     15  C   UNL     1      30.970  28.917  10.199  1.00  0.00     0.119 A 
ATOM     16  C   UNL     1      30.388  29.534  11.311  1.00  0.00     0.092 A 
BRANCH  14  17
ATOM     17  O   UNL     1      29.142  29.371  13.388  1.00  0.00    -0.508 OA
ATOM     18  H   UNL     1      28.397  30.051  13.286  1.00  0.00     0.293 HD
ENDBRANCH  14  17
BRANCH  15  19
ATOM     19  O   UNL     1      31.611  29.696   9.239  1.00  0.00    -0.508 OA
ATOM     20  H   UNL     1      31.162  30.505   8.825  1.00  0.00     0.293 HD
ENDBRANCH  15  19
ENDBRANCH  10  11
ENDBRANCH   1  10
TORSDOF 6
ENDMDL
MODEL 3
REMARK VINA RESULT:    -5.496      1.713      6.892
REMARK INTER + INTRA:          -7.404
REMARK INTER:                  -6.862
REMARK INTRA:                  -0.542
REMARK UNBOUND:                -0.462
REMARK SMILES Oc1ccc(CCc2cc(O)cc(O)c2)cc1
REMARK SMILES IDX 6 1 5 2 4 3 3 4 2 5 16 6 17 7 1 8 7 10 8 11 15 12 9 13 13 14
REMARK SMILES IDX 10 15 12 16 14 17 11 19
REMARK H PARENT 1 9 14 18 11 20
REMARK Flexibility Score: inf
ROOT
ATOM      1  C   UNL     1      29.297  24.670  11.746  1.00  0.00     0.040 C 
ENDROOT
BRANCH   1   2
ATOM      2  C   UNL     1      30.030  23.734  12.668  1.00  0.00    -0.047 A 
ATOM      3  C   UNL     1      29.506  22.463  12.952  1.00  0.00     0.007 A 
ATOM      4  C   UNL     1      30.205  21.582  13.784  1.00  0.00     0.046 A 
ATOM      5  C   UNL     1      31.437  21.956  14.329  1.00  0.00     0.115 A 
ATOM      6  C   UNL     1      31.275  24.102  13.207  1.00  0.00     0.007 A 
ATOM      7  C   UNL     1      31.972  23.219  14.037  1.00  0.00     0.046 A 
BRANCH   5   8
ATOM      8  O   UNL     1      32.122  21.068  15.155  1.00  0.00    -0.508 OA
ATOM      9  H   UNL     1      33.087  20.817  14.978  1.00  0.00     0.293 HD
ENDBRANCH   5   8
ENDBRANCH   1   2
BRANCH   1  10
ATOM     10  C   UNL     1      30.269  25.331  10.765  1.00  0.00     0.040 C 
BRANCH  10  11
ATOM     11  C   UNL     1      30.298  26.822  10.971  1.00  0.00    -0.040 A 
ATOM     12  C   UNL     1      30.953  27.652  10.046  1.00  0.00     0.050 A 
ATOM     13  C   UNL     1      29.721  27.389  12.119  1.00  0.00     0.050 A 
ATOM     14  C   UNL     1      31.010  29.034  10.254  1.00  0.00     0.119 A 
ATOM     15  C   UNL     1      29.777  28.774  12.328  1.00  0.00     0.119 A 
ATOM     16  C   UNL     1      30.418  29.594  11.394  1.00  0.00     0.092 A 
BRANCH  14  17
ATOM     17  O   UNL     1      31.658  29.842   9.322  1.00  0.00    -0.508 OA
ATOM     18  H   UNL     1      32.345  29.464   8.679  1.00  0.00     0.293 HD
ENDBRANCH  14  17
BRANCH  15  19
ATOM     19  O   UNL     1      29.201  29.344  13.461  1.00  0.00    -0.508 OA
ATOM     20  H   UNL     1      29.670  30.075  13.985  1.00  0.00     0.293 HD
ENDBRANCH  15  19
ENDBRANCH  10  11
ENDBRANCH   1  10
TORSDOF 6
ENDMDL
MODEL 4
REMARK VINA RESULT:    -5.445      0.400      2.072
REMARK INTER + INTRA:          -7.340
REMARK INTER:                  -6.895
REMARK INTRA:                  -0.445
REMARK UNBOUND:                -0.462
REMARK SMILES Oc1ccc(CCc2cc(O)cc(O)c2)cc1
REMARK SMILES IDX 6 1 5 2 4 3 3 4 2 5 16 6 17 7 1 8 7 10 8 11 15 12 9 13 13 14
REMARK SMILES IDX 10 15 12 16 14 17 11 19
REMARK H PARENT 1 9 14 18 11 20
REMARK Flexibility Score: inf
ROOT
ATOM      1  C   UNL     1      29.609  26.766  10.737  1.00  0.00     0.040 C 
ENDROOT
BRANCH   1   2
ATOM      2  C   UNL     1      30.282  28.109  10.656  1.00  0.00    -0.047 A 
ATOM      3  C   UNL     1      31.443  28.275   9.884  1.00  0.00     0.007 A 
ATOM      4  C   UNL     1      32.050  29.531   9.783  1.00  0.00     0.046 A 
ATOM      5  C   UNL     1      31.498  30.634  10.441  1.00  0.00     0.115 A 
ATOM      6  C   UNL     1      29.723  29.223  11.306  1.00  0.00     0.007 A 
ATOM      7  C   UNL     1      30.330  30.477  11.203  1.00  0.00     0.046 A 
BRANCH   5   8
ATOM      8  O   UNL     1      32.112  31.880  10.333  1.00  0.00    -0.508 OA
ATOM      9  H   UNL     1      31.939  32.616  11.006  1.00  0.00     0.293 HD
ENDBRANCH   5   8
ENDBRANCH   1   2
BRANCH   1  10
ATOM     10  C   UNL     1      30.647  25.640  10.698  1.00  0.00     0.040 C 
BRANCH  10  11
ATOM     11  C   UNL     1      30.283  24.550  11.669  1.00  0.00    -0.040 A 
ATOM     12  C   UNL     1      31.077  23.395  11.766  1.00  0.00     0.050 A 
ATOM     13  C   UNL     1      29.116  24.652  12.443  1.00  0.00     0.050 A 
ATOM     14  C   UNL     1      30.722  22.366  12.645  1.00  0.00     0.119 A 
ATOM     15  C   UNL     1      28.759  23.621  13.324  1.00  0.00     0.119 A 
ATOM     16  C   UNL     1      29.564  22.482  13.425  1.00  0.00     0.092 A 
BRANCH  14  17
ATOM     17  O   UNL     1      31.526  21.231  12.733  1.00  0.00    -0.508 OA
ATOM     18  H   UNL     1      32.339  21.111  12.140  1.00  0.00     0.293 HD
ENDBRANCH  14  17
BRANCH  15  19
ATOM     19  O   UNL     1      27.606  23.719  14.100  1.00  0.00    -0.508 OA
ATOM     20  H   UNL     1      27.508  23.209  14.971  1.00  0.00     0.293 HD
ENDBRANCH  15  19
ENDBRANCH  10  11
ENDBRANCH   1  10
TORSDOF 6
ENDMDL
MODEL 5
REMARK VINA RESULT:    -5.414      1.054      2.516
REMARK INTER + INTRA:          -7.301
REMARK INTER:                  -6.732
REMARK INTRA:                  -0.569
REMARK UNBOUND:                -0.462
REMARK SMILES Oc1ccc(CCc2cc(O)cc(O)c2)cc1
REMARK SMILES IDX 6 1 5 2 4 3 3 4 2 5 16 6 17 7 1 8 7 10 8 11 15 12 9 13 13 14
REMARK SMILES IDX 10 15 12 16 14 17 11 19
REMARK H PARENT 1 9 14 18 11 20
REMARK Flexibility Score: inf
ROOT
ATOM      1  C   UNL     1      32.112  25.783  10.813  1.00  0.00     0.040 C 
ENDROOT
BRANCH   1   2
ATOM      2  C   UNL     1      31.600  27.197  10.824  1.00  0.00    -0.047 A 
ATOM      3  C   UNL     1      30.822  27.662  11.897  1.00  0.00     0.007 A 
ATOM      4  C   UNL     1      30.374  28.987  11.921  1.00  0.00     0.046 A 
ATOM      5  C   UNL     1      30.706  29.862  10.882  1.00  0.00     0.115 A 
ATOM      6  C   UNL     1      31.943  28.083   9.788  1.00  0.00     0.007 A 
ATOM      7  C   UNL     1      31.494  29.406   9.814  1.00  0.00     0.046 A 
BRANCH   5   8
ATOM      8  O   UNL     1      30.252  31.178  10.918  1.00  0.00    -0.508 OA
ATOM      9  H   UNL     1      29.556  31.479  11.589  1.00  0.00     0.293 HD
ENDBRANCH   5   8
ENDBRANCH   1   2
BRANCH   1  10
ATOM     10  C   UNL     1      31.016  24.816  10.355  1.00  0.00     0.040 C 
BRANCH  10  11
ATOM     11  C   UNL     1      30.396  24.120  11.538  1.00  0.00    -0.040 A 
ATOM     12  C   UNL     1      31.113  23.132  12.232  1.00  0.00     0.050 A 
ATOM     13  C   UNL     1      29.076  24.411  11.919  1.00  0.00     0.050 A 
ATOM     14  C   UNL     1      30.527  22.460  13.310  1.00  0.00     0.119 A 
ATOM     15  C   UNL     1      28.488  23.739  12.999  1.00  0.00     0.119 A 
ATOM     16  C   UNL     1      29.215  22.768  13.694  1.00  0.00     0.092 A 
BRANCH  14  17
ATOM     17  O   UNL     1      31.256  21.488  13.992  1.00  0.00    -0.508 OA
ATOM     18  H   UNL     1      31.346  21.503  15.001  1.00  0.00     0.293 HD
ENDBRANCH  14  17
BRANCH  15  19
ATOM     19  O   UNL     1      27.181  24.028  13.387  1.00  0.00    -0.508 OA
ATOM     20  H   UNL     1      26.669  24.806  12.987  1.00  0.00     0.293 HD
ENDBRANCH  15  19
ENDBRANCH  10  11
ENDBRANCH   1  10
TORSDOF 6
ENDMDL
MODEL 6
REMARK VINA RESULT:    -5.396      1.837      6.206
REMARK INTER + INTRA:          -7.278
REMARK INTER:                  -6.677
REMARK INTRA:                  -0.601
REMARK UNBOUND:                -0.462
REMARK SMILES Oc1ccc(CCc2cc(O)cc(O)c2)cc1
REMARK SMILES IDX 6 1 5 2 4 3 3 4 2 5 16 6 17 7 1 8 7 10 8 11 15 12 9 13 13 14
REMARK SMILES IDX 10 15 12 16 14 17 11 19
REMARK H PARENT 1 9 14 18 11 20
REMARK Flexibility Score: inf
ROOT
ATOM      1  C   UNL     1      31.115  24.482  10.511  1.00  0.00     0.040 C 
ENDROOT
BRANCH   1   2
ATOM      2  C   UNL     1      30.019  24.149  11.487  1.00  0.00    -0.047 A 
ATOM      3  C   UNL     1      30.323  23.541  12.716  1.00  0.00     0.007 A 
ATOM      4  C   UNL     1      29.307  23.262  13.635  1.00  0.00     0.046 A 
ATOM      5  C   UNL     1      27.982  23.597  13.343  1.00  0.00     0.115 A 
ATOM      6  C   UNL     1      28.687  24.496  11.202  1.00  0.00     0.007 A 
ATOM      7  C   UNL     1      27.674  24.216  12.123  1.00  0.00     0.046 A 
BRANCH   5   8
ATOM      8  O   UNL     1      26.980  23.312  14.268  1.00  0.00    -0.508 OA
ATOM      9  H   UNL     1      26.385  24.041  14.645  1.00  0.00     0.293 HD
ENDBRANCH   5   8
ENDBRANCH   1   2
BRANCH   1  10
ATOM     10  C   UNL     1      32.119  25.453  11.140  1.00  0.00     0.040 C 
BRANCH  10  11
ATOM     11  C   UNL     1      31.570  26.854  11.142  1.00  0.00    -0.040 A 
ATOM     12  C   UNL     1      30.797  27.310  12.223  1.00  0.00     0.050 A 
ATOM     13  C   UNL     1      31.777  27.697  10.038  1.00  0.00     0.050 A 
ATOM     14  C   UNL     1      30.259  28.601  12.212  1.00  0.00     0.119 A 
ATOM     15  C   UNL     1      31.238  28.991  10.026  1.00  0.00     0.119 A 
ATOM     16  C   UNL     1      30.483  29.441  11.113  1.00  0.00     0.092 A 
BRANCH  14  17
ATOM     17  O   UNL     1      29.501  29.037  13.296  1.00  0.00    -0.508 OA
ATOM     18  H   UNL     1      29.936  29.337  14.161  1.00  0.00     0.293 HD
ENDBRANCH  14  17
BRANCH  15  19
ATOM     19  O   UNL     1      31.446  29.835   8.937  1.00  0.00    -0.508 OA
ATOM     20  H   UNL     1      31.031  30.760   8.896  1.00  0.00     0.293 HD
ENDBRANCH  15  19
ENDBRANCH  10  11
ENDBRANCH   1  10
TORSDOF 6
ENDMDL
MODEL 7
REMARK VINA RESULT:    -5.390      1.690      6.809
REMARK INTER + INTRA:          -7.270
REMARK INTER:                  -6.766
REMARK INTRA:                  -0.504
REMARK UNBOUND:                -0.462
REMARK SMILES Oc1ccc(CCc2cc(O)cc(O)c2)cc1
REMARK SMILES IDX 6 1 5 2 4 3 3 4 2 5 16 6 17 7 1 8 7 10 8 11 15 12 9 13 13 14
REMARK SMILES IDX 10 15 12 16 14 17 11 19
REMARK H PARENT 1 9 14 18 11 20
REMARK Flexibility Score: inf
ROOT
ATOM      1  C   UNL     1      30.908  24.400  10.712  1.00  0.00     0.040 C 
ENDROOT
BRANCH   1   2
ATOM      2  C   UNL     1      30.722  23.299  11.720  1.00  0.00    -0.047 A 
ATOM      3  C   UNL     1      31.546  22.162  11.689  1.00  0.00     0.007 A 
ATOM      4  C   UNL     1      31.392  21.154  12.646  1.00  0.00     0.046 A 
ATOM      5  C   UNL     1      30.425  21.275  13.648  1.00  0.00     0.115 A 
ATOM      6  C   UNL     1      29.759  23.423  12.736  1.00  0.00     0.007 A 
ATOM      7  C   UNL     1      29.608  22.414  13.691  1.00  0.00     0.046 A 
BRANCH   5   8
ATOM      8  O   UNL     1      30.283  20.263  14.594  1.00  0.00    -0.508 OA
ATOM      9  H   UNL     1      29.898  20.447  15.513  1.00  0.00     0.293 HD
ENDBRANCH   5   8
ENDBRANCH   1   2
BRANCH   1  10
ATOM     10  C   UNL     1      31.987  25.381  11.181  1.00  0.00     0.040 C 
BRANCH  10  11
ATOM     11  C   UNL     1      31.462  26.792  11.169  1.00  0.00    -0.040 A 
ATOM     12  C   UNL     1      30.679  27.264  12.235  1.00  0.00     0.050 A 
ATOM     13  C   UNL     1      31.701  27.627  10.066  1.00  0.00     0.050 A 
ATOM     14  C   UNL     1      30.162  28.563  12.211  1.00  0.00     0.119 A 
ATOM     15  C   UNL     1      31.184  28.930  10.040  1.00  0.00     0.119 A 
ATOM     16  C   UNL     1      30.418  29.396  11.113  1.00  0.00     0.092 A 
BRANCH  14  17
ATOM     17  O   UNL     1      29.393  29.016  13.281  1.00  0.00    -0.508 OA
ATOM     18  H   UNL     1      28.917  28.372  13.902  1.00  0.00     0.293 HD
ENDBRANCH  14  17
BRANCH  15  19
ATOM     19  O   UNL     1      31.423  29.766   8.952  1.00  0.00    -0.508 OA
ATOM     20  H   UNL     1      32.299  30.266   8.850  1.00  0.00     0.293 HD
ENDBRANCH  15  19
ENDBRANCH  10  11
ENDBRANCH   1  10
TORSDOF 6
ENDMDL
MODEL 8
REMARK VINA RESULT:    -5.225      1.880      2.786
REMARK INTER + INTRA:          -7.062
REMARK INTER:                  -6.523
REMARK INTRA:                  -0.538
REMARK UNBOUND:                -0.462
REMARK SMILES Oc1ccc(CCc2cc(O)cc(O)c2)cc1
REMARK SMILES IDX 6 1 5 2 4 3 3 4 2 5 16 6 17 7 1 8 7 10 8 11 15 12 9 13 13 14
REMARK SMILES IDX 10 15 12 16 14 17 11 19
REMARK H PARENT 1 9 14 18 11 20
REMARK Flexibility Score: inf
ROOT
ATOM      1  C   UNL     1      28.500  24.662  11.720  1.00  0.00     0.040 C 
ENDROOT
BRANCH   1   2
ATOM      2  C   UNL     1      28.920  26.101  11.594  1.00  0.00    -0.047 A 
ATOM      3  C   UNL     1      30.253  26.427  11.296  1.00  0.00     0.007 A 
ATOM      4  C   UNL     1      30.635  27.764  11.148  1.00  0.00     0.046 A 
ATOM      5  C   UNL     1      29.691  28.786  11.284  1.00  0.00     0.115 A 
ATOM      6  C   UNL     1      27.971  27.130  11.718  1.00  0.00     0.007 A 
ATOM      7  C   UNL     1      28.356  28.465  11.569  1.00  0.00     0.046 A 
BRANCH   5   8
ATOM      8  O   UNL     1      30.086  30.114  11.134  1.00  0.00    -0.508 OA
ATOM      9  H   UNL     1      29.415  30.872  11.162  1.00  0.00     0.293 HD
ENDBRANCH   5   8
ENDBRANCH   1   2
BRANCH   1  10
ATOM     10  C   UNL     1      28.882  24.107  13.095  1.00  0.00     0.040 C 
BRANCH  10  11
ATOM     11  C   UNL     1      30.024  23.134  12.975  1.00  0.00    -0.040 A 
ATOM     12  C   UNL     1      30.532  22.793  11.711  1.00  0.00     0.050 A 
ATOM     13  C   UNL     1      30.551  22.516  14.120  1.00  0.00     0.050 A 
ATOM     14  C   UNL     1      31.571  21.864  11.595  1.00  0.00     0.119 A 
ATOM     15  C   UNL     1      31.593  21.585  14.005  1.00  0.00     0.119 A 
ATOM     16  C   UNL     1      32.103  21.263  12.744  1.00  0.00     0.092 A 
BRANCH  14  17
ATOM     17  O   UNL     1      32.067  21.543  10.333  1.00  0.00    -0.508 OA
ATOM     18  H   UNL     1      32.720  22.150   9.850  1.00  0.00     0.293 HD
ENDBRANCH  14  17
BRANCH  15  19
ATOM     19  O   UNL     1      32.125  20.973  15.138  1.00  0.00    -0.508 OA
ATOM     20  H   UNL     1      32.005  19.981  15.311  1.00  0.00     0.293 HD
ENDBRANCH  15  19
ENDBRANCH  10  11
ENDBRANCH   1  10
TORSDOF 6
ENDMDL
MODEL 9
REMARK VINA RESULT:    -2.804      1.078      1.244
REMARK INTER + INTRA:          -4.005
REMARK INTER:                  -3.408
REMARK INTRA:                  -0.597
REMARK UNBOUND:                -0.462
REMARK SMILES Oc1ccc(CCc2cc(O)cc(O)c2)cc1
REMARK SMILES IDX 6 1 5 2 4 3 3 4 2 5 16 6 17 7 1 8 7 10 8 11 15 12 9 13 13 14
REMARK SMILES IDX 10 15 12 16 14 17 11 19
REMARK H PARENT 1 9 14 18 11 20
REMARK Flexibility Score: inf
ROOT
ATOM      1  C   UNL     1      32.125  25.709  10.880  1.00  0.00     0.040 C 
ENDROOT
BRANCH   1   2
ATOM      2  C   UNL     1      31.638  27.132  10.917  1.00  0.00    -0.047 A 
ATOM      3  C   UNL     1      31.909  28.003   9.849  1.00  0.00     0.007 A 
ATOM      4  C   UNL     1      31.429  29.316   9.871  1.00  0.00     0.046 A 
ATOM      5  C   UNL     1      30.665  29.769  10.951  1.00  0.00     0.115 A 
ATOM      6  C   UNL     1      30.859  27.587  11.995  1.00  0.00     0.007 A 
ATOM      7  C   UNL     1      30.380  28.899  12.014  1.00  0.00     0.046 A 
BRANCH   5   8
ATOM      8  O   UNL     1      30.193  31.079  10.959  1.00  0.00    -0.508 OA
ATOM      9  H   UNL     1      29.798  31.494  11.794  1.00  0.00     0.293 HD
ENDBRANCH   5   8
ENDBRANCH   1   2
BRANCH   1  10
ATOM     10  C   UNL     1      31.021  24.776  10.372  1.00  0.00     0.040 C 
BRANCH  10  11
ATOM     11  C   UNL     1      30.383  24.038  11.519  1.00  0.00    -0.040 A 
ATOM     12  C   UNL     1      29.081  24.366  11.933  1.00  0.00     0.050 A 
ATOM     13  C   UNL     1      31.104  23.059  12.220  1.00  0.00     0.050 A 
ATOM     14  C   UNL     1      28.498  23.705  13.019  1.00  0.00     0.119 A 
ATOM     15  C   UNL     1      30.521  22.396  13.309  1.00  0.00     0.119 A 
ATOM     16  C   UNL     1      29.219  22.718  13.704  1.00  0.00     0.092 A 
BRANCH  14  17
ATOM     17  O   UNL     1      27.203  24.039  13.411  1.00  0.00    -0.508 OA
ATOM     18  H   UNL     1      26.558  24.493  12.775  1.00  0.00     0.293 HD
ENDBRANCH  14  17
BRANCH  15  19
ATOM     19  O   UNL     1      31.228  21.417  14.004  1.00  0.00    -0.508 OA
ATOM     20  H   UNL     1      31.981  20.897  13.569  1.00  0.00     0.293 HD
ENDBRANCH  15  19
ENDBRANCH  10  11
ENDBRANCH   1  10
TORSDOF 6
ENDMDL
