MODEL 1
REMARK VINA RESULT:    -6.177      0.000      0.000
REMARK INTER + INTRA:         -12.402
REMARK INTER:                 -11.594
REMARK INTRA:                  -0.808
REMARK UNBOUND:                -0.808
REMARK SMILES O=C([O-])CCCCCCCCCCCCCCC(=O)[O-]
REMARK SMILES IDX 10 1 9 2 8 3 7 4 6 5 5 6 4 7 2 8 1 9 3 10 11 11 12 12 13 13
REMARK SMILES IDX 14 14 15 15 16 16 17 17 18 18 19 19 20 20
REMARK H PARENT
REMARK Flexibility Score: inf
ROOT
ATOM      1  C   UNL     1      95.826 124.007 124.060  1.00  0.00     0.000 C 
ENDROOT
BRANCH   1   2
ATOM      2  C   UNL     1      96.856 124.818 124.857  1.00  0.00     0.000 C 
BRANCH   2   3
ATOM      3  C   UNL     1      97.287 124.068 126.123  1.00  0.00     0.000 C 
BRANCH   3   4
ATOM      4  C   UNL     1      98.355 124.855 126.892  1.00  0.00     0.000 C 
BRANCH   4   5
ATOM      5  C   UNL     1      98.120 126.368 126.769  1.00  0.00     0.000 C 
BRANCH   5   6
ATOM      6  C   UNL     1      99.406 127.185 126.974  1.00  0.00     0.006 C 
BRANCH   6   7
ATOM      7  C   UNL     1      99.652 128.192 125.843  1.00  0.00     0.053 C 
BRANCH   7   8
ATOM      8  C   UNL     1     100.709 127.684 124.914  1.00  0.00     0.041 C 
ATOM      9  O   UNL     1     101.044 128.360 123.905  1.00  0.00    -0.550 OA
ATOM     10  O   UNL     1     101.360 126.489 125.189  1.00  0.00    -0.550 OA
ENDBRANCH   7   8
ENDBRANCH   6   7
ENDBRANCH   5   6
ENDBRANCH   4   5
ENDBRANCH   3   4
ENDBRANCH   2   3
ENDBRANCH   1   2
BRANCH   1  11
ATOM     11  C   UNL     1      96.439 122.695 123.548  1.00  0.00     0.000 C 
BRANCH  11  12
ATOM     12  C   UNL     1      95.832 122.241 122.211  1.00  0.00     0.000 C 
BRANCH  12  13
ATOM     13  C   UNL     1      94.393 121.719 122.360  1.00  0.00     0.000 C 
BRANCH  13  14
ATOM     14  C   UNL     1      93.806 121.212 121.034  1.00  0.00     0.000 C 
BRANCH  14  15
ATOM     15  C   UNL     1      94.878 121.023 119.947  1.00  0.00     0.000 C 
BRANCH  15  16
ATOM     16  C   UNL     1      94.288 121.023 118.528  1.00  0.00     0.006 C 
BRANCH  16  17
ATOM     17  C   UNL     1      92.873 121.613 118.475  1.00  0.00     0.053 C 
BRANCH  17  18
ATOM     18  C   UNL     1      92.604 122.201 117.126  1.00  0.00     0.041 C 
ATOM     19  O   UNL     1      92.362 121.450 116.144  1.00  0.00    -0.550 OA
ATOM     20  O   UNL     1      92.571 123.580 116.962  1.00  0.00    -0.550 OA
ENDBRANCH  17  18
ENDBRANCH  16  17
ENDBRANCH  15  16
ENDBRANCH  14  15
ENDBRANCH  13  14
ENDBRANCH  12  13
ENDBRANCH  11  12
ENDBRANCH   1  11
TORSDOF 15
ENDMDL
MODEL 2
REMARK VINA RESULT:    -6.003      2.071      2.282
REMARK INTER + INTRA:         -12.074
REMARK INTER:                 -11.247
REMARK INTRA:                  -0.827
REMARK UNBOUND:                -0.808
REMARK SMILES O=C([O-])CCCCCCCCCCCCCCC(=O)[O-]
REMARK SMILES IDX 10 1 9 2 8 3 7 4 6 5 5 6 4 7 2 8 1 9 3 10 11 11 12 12 13 13
REMARK SMILES IDX 14 14 15 15 16 16 17 17 18 18 19 19 20 20
REMARK H PARENT
REMARK Flexibility Score: inf
ROOT
ATOM      1  C   UNL     1      95.847 124.183 124.036  1.00  0.00     0.000 C 
ENDROOT
BRANCH   1   2
ATOM      2  C   UNL     1      96.835 125.036 124.842  1.00  0.00     0.000 C 
BRANCH   2   3
ATOM      3  C   UNL     1      97.290 124.301 126.108  1.00  0.00     0.000 C 
BRANCH   3   4
ATOM      4  C   UNL     1      98.045 125.245 127.052  1.00  0.00     0.000 C 
BRANCH   4   5
ATOM      5  C   UNL     1      98.953 126.201 126.263  1.00  0.00     0.000 C 
BRANCH   5   6
ATOM      6  C   UNL     1      98.604 127.679 126.502  1.00  0.00     0.006 C 
BRANCH   6   7
ATOM      7  C   UNL     1      97.628 127.875 127.669  1.00  0.00     0.053 C 
BRANCH   7   8
ATOM      8  C   UNL     1      97.797 129.236 128.267  1.00  0.00     0.041 C 
ATOM      9  O   UNL     1      98.874 129.869 128.108  1.00  0.00    -0.550 OA
ATOM     10  O   UNL     1      96.747 129.826 128.959  1.00  0.00    -0.550 OA
ENDBRANCH   7   8
ENDBRANCH   6   7
ENDBRANCH   5   6
ENDBRANCH   4   5
ENDBRANCH   3   4
ENDBRANCH   2   3
ENDBRANCH   1   2
BRANCH   1  11
ATOM     11  C   UNL     1      96.421 122.782 123.773  1.00  0.00     0.000 C 
BRANCH  11  12
ATOM     12  C   UNL     1      95.845 122.137 122.501  1.00  0.00     0.000 C 
BRANCH  12  13
ATOM     13  C   UNL     1      94.313 122.011 122.543  1.00  0.00     0.000 C 
BRANCH  13  14
ATOM     14  C   UNL     1      93.727 121.459 121.233  1.00  0.00     0.000 C 
BRANCH  14  15
ATOM     15  C   UNL     1      94.814 121.108 120.203  1.00  0.00     0.000 C 
BRANCH  15  16
ATOM     16  C   UNL     1      94.298 121.167 118.757  1.00  0.00     0.006 C 
BRANCH  16  17
ATOM     17  C   UNL     1      92.860 121.692 118.662  1.00  0.00     0.053 C 
BRANCH  17  18
ATOM     18  C   UNL     1      92.610 122.283 117.310  1.00  0.00     0.041 C 
ATOM     19  O   UNL     1      92.332 121.538 116.334  1.00  0.00    -0.550 OA
ATOM     20  O   UNL     1      92.634 123.662 117.139  1.00  0.00    -0.550 OA
ENDBRANCH  17  18
ENDBRANCH  16  17
ENDBRANCH  15  16
ENDBRANCH  14  15
ENDBRANCH  13  14
ENDBRANCH  12  13
ENDBRANCH  11  12
ENDBRANCH   1  11
TORSDOF 15
ENDMDL
MODEL 3
REMARK VINA RESULT:    -5.991      0.621      9.817
REMARK INTER + INTRA:         -12.053
REMARK INTER:                 -11.310
REMARK INTRA:                  -0.743
REMARK UNBOUND:                -0.808
REMARK SMILES O=C([O-])CCCCCCCCCCCCCCC(=O)[O-]
REMARK SMILES IDX 10 1 9 2 8 3 7 4 6 5 5 6 4 7 2 8 1 9 3 10 11 11 12 12 13 13
REMARK SMILES IDX 14 14 15 15 16 16 17 17 18 18 19 19 20 20
REMARK H PARENT
REMARK Flexibility Score: inf
ROOT
ATOM      1  C   UNL     1      96.406 123.265 122.867  1.00  0.00     0.000 C 
ENDROOT
BRANCH   1   2
ATOM      2  C   UNL     1      95.871 121.973 122.238  1.00  0.00     0.000 C 
BRANCH   2   3
ATOM      3  C   UNL     1      94.338 121.935 122.281  1.00  0.00     0.000 C 
BRANCH   3   4
ATOM      4  C   UNL     1      93.770 121.228 121.044  1.00  0.00     0.000 C 
BRANCH   4   5
ATOM      5  C   UNL     1      94.837 121.096 119.947  1.00  0.00     0.000 C 
BRANCH   5   6
ATOM      6  C   UNL     1      94.227 120.955 118.543  1.00  0.00     0.006 C 
BRANCH   6   7
ATOM      7  C   UNL     1      92.797 121.504 118.462  1.00  0.00     0.053 C 
BRANCH   7   8
ATOM      8  C   UNL     1      92.580 122.202 117.156  1.00  0.00     0.041 C 
ATOM      9  O   UNL     1      92.620 123.459 117.096  1.00  0.00    -0.550 OA
ATOM     10  O   UNL     1      92.384 121.463 115.998  1.00  0.00    -0.550 OA
ENDBRANCH   7   8
ENDBRANCH   6   7
ENDBRANCH   5   6
ENDBRANCH   4   5
ENDBRANCH   3   4
ENDBRANCH   2   3
ENDBRANCH   1   2
BRANCH   1  11
ATOM     11  C   UNL     1      95.491 123.742 124.006  1.00  0.00     0.000 C 
BRANCH  11  12
ATOM     12  C   UNL     1      96.240 123.903 125.339  1.00  0.00     0.000 C 
BRANCH  12  13
ATOM     13  C   UNL     1      97.237 125.074 125.319  1.00  0.00     0.000 C 
BRANCH  13  14
ATOM     14  C   UNL     1      98.104 125.135 126.587  1.00  0.00     0.000 C 
BRANCH  14  15
ATOM     15  C   UNL     1      98.605 126.557 126.893  1.00  0.00     0.000 C 
BRANCH  15  16
ATOM     16  C   UNL     1      99.975 126.849 126.260  1.00  0.00     0.006 C 
BRANCH  16  17
ATOM     17  C   UNL     1      99.953 128.074 125.338  1.00  0.00     0.053 C 
BRANCH  17  18
ATOM     18  C   UNL     1     101.072 128.001 124.348  1.00  0.00     0.041 C 
ATOM     19  O   UNL     1     101.732 126.937 124.216  1.00  0.00    -0.550 OA
ATOM     20  O   UNL     1     101.353 129.091 123.534  1.00  0.00    -0.550 OA
ENDBRANCH  17  18
ENDBRANCH  16  17
ENDBRANCH  15  16
ENDBRANCH  14  15
ENDBRANCH  13  14
ENDBRANCH  12  13
ENDBRANCH  11  12
ENDBRANCH   1  11
TORSDOF 15
ENDMDL
MODEL 4
REMARK VINA RESULT:    -5.868      1.261      9.800
REMARK INTER + INTRA:         -11.821
REMARK INTER:                 -10.991
REMARK INTRA:                  -0.830
REMARK UNBOUND:                -0.808
REMARK SMILES O=C([O-])CCCCCCCCCCCCCCC(=O)[O-]
REMARK SMILES IDX 10 1 9 2 8 3 7 4 6 5 5 6 4 7 2 8 1 9 3 10 11 11 12 12 13 13
REMARK SMILES IDX 14 14 15 15 16 16 17 17 18 18 19 19 20 20
REMARK H PARENT
REMARK Flexibility Score: inf
ROOT
ATOM      1  C   UNL     1      96.165 124.483 124.545  1.00  0.00     0.000 C 
ENDROOT
BRANCH   1   2
ATOM      2  C   UNL     1      95.635 123.428 123.566  1.00  0.00     0.000 C 
BRANCH   2   3
ATOM      3  C   UNL     1      94.134 123.191 123.774  1.00  0.00     0.000 C 
BRANCH   3   4
ATOM      4  C   UNL     1      93.572 122.250 122.700  1.00  0.00     0.000 C 
BRANCH   4   5
ATOM      5  C   UNL     1      94.705 121.579 121.909  1.00  0.00     0.000 C 
BRANCH   5   6
ATOM      6  C   UNL     1      94.225 120.995 120.570  1.00  0.00     0.006 C 
BRANCH   6   7
ATOM      7  C   UNL     1      92.960 121.685 120.044  1.00  0.00     0.053 C 
BRANCH   7   8
ATOM      8  C   UNL     1      92.915 121.623 118.550  1.00  0.00     0.041 C 
ATOM      9  O   UNL     1      93.913 121.210 117.903  1.00  0.00    -0.550 OA
ATOM     10  O   UNL     1      91.754 121.976 117.875  1.00  0.00    -0.550 OA
ENDBRANCH   7   8
ENDBRANCH   6   7
ENDBRANCH   5   6
ENDBRANCH   4   5
ENDBRANCH   3   4
ENDBRANCH   2   3
ENDBRANCH   1   2
BRANCH   1  11
ATOM     11  C   UNL     1      97.146 123.858 125.548  1.00  0.00     0.000 C 
BRANCH  11  12
ATOM     12  C   UNL     1      97.584 124.845 126.641  1.00  0.00     0.000 C 
BRANCH  12  13
ATOM     13  C   UNL     1      98.686 125.807 126.164  1.00  0.00     0.000 C 
BRANCH  13  14
ATOM     14  C   UNL     1      98.183 127.251 126.004  1.00  0.00     0.000 C 
BRANCH  14  15
ATOM     15  C   UNL     1      98.948 128.244 126.896  1.00  0.00     0.000 C 
BRANCH  15  16
ATOM     16  C   UNL     1     100.440 128.330 126.539  1.00  0.00     0.006 C 
BRANCH  16  17
ATOM     17  C   UNL     1     100.725 129.339 125.420  1.00  0.00     0.053 C 
BRANCH  17  18
ATOM     18  C   UNL     1     101.427 128.670 124.281  1.00  0.00     0.041 C 
ATOM     19  O   UNL     1     101.396 127.416 124.166  1.00  0.00    -0.550 OA
ATOM     20  O   UNL     1     102.073 129.433 123.317  1.00  0.00    -0.550 OA
ENDBRANCH  17  18
ENDBRANCH  16  17
ENDBRANCH  15  16
ENDBRANCH  14  15
ENDBRANCH  13  14
ENDBRANCH  12  13
ENDBRANCH  11  12
ENDBRANCH   1  11
TORSDOF 15
ENDMDL
MODEL 5
REMARK VINA RESULT:    -5.820      1.506     10.075
REMARK INTER + INTRA:         -11.732
REMARK INTER:                 -10.928
REMARK INTRA:                  -0.804
REMARK UNBOUND:                -0.808
REMARK SMILES O=C([O-])CCCCCCCCCCCCCCC(=O)[O-]
REMARK SMILES IDX 10 1 9 2 8 3 7 4 6 5 5 6 4 7 2 8 1 9 3 10 11 11 12 12 13 13
REMARK SMILES IDX 14 14 15 15 16 16 17 17 18 18 19 19 20 20
REMARK H PARENT
REMARK Flexibility Score: inf
ROOT
ATOM      1  C   UNL     1      95.572 123.366 123.471  1.00  0.00     0.000 C 
ENDROOT
BRANCH   1   2
ATOM      2  C   UNL     1      94.047 123.226 123.552  1.00  0.00     0.000 C 
BRANCH   2   3
ATOM      3  C   UNL     1      93.511 122.363 122.403  1.00  0.00     0.000 C 
BRANCH   3   4
ATOM      4  C   UNL     1      94.498 121.244 122.049  1.00  0.00     0.000 C 
BRANCH   4   5
ATOM      5  C   UNL     1      94.851 121.274 120.554  1.00  0.00     0.000 C 
BRANCH   5   6
ATOM      6  C   UNL     1      93.606 121.338 119.654  1.00  0.00     0.006 C 
BRANCH   6   7
ATOM      7  C   UNL     1      93.912 120.974 118.196  1.00  0.00     0.053 C 
BRANCH   7   8
ATOM      8  C   UNL     1      92.714 121.224 117.334  1.00  0.00     0.041 C 
ATOM      9  O   UNL     1      91.629 121.600 117.851  1.00  0.00    -0.550 OA
ATOM     10  O   UNL     1      92.811 121.090 115.955  1.00  0.00    -0.550 OA
ENDBRANCH   7   8
ENDBRANCH   6   7
ENDBRANCH   5   6
ENDBRANCH   4   5
ENDBRANCH   3   4
ENDBRANCH   2   3
ENDBRANCH   1   2
BRANCH   1  11
ATOM     11  C   UNL     1      96.104 124.250 124.609  1.00  0.00     0.000 C 
BRANCH  11  12
ATOM     12  C   UNL     1      97.083 123.505 125.529  1.00  0.00     0.000 C 
BRANCH  12  13
ATOM     13  C   UNL     1      97.638 124.398 126.652  1.00  0.00     0.000 C 
BRANCH  13  14
ATOM     14  C   UNL     1      99.174 124.400 126.703  1.00  0.00     0.000 C 
BRANCH  14  15
ATOM     15  C   UNL     1      99.765 125.820 126.676  1.00  0.00     0.000 C 
BRANCH  15  16
ATOM     16  C   UNL     1      99.022 126.750 125.703  1.00  0.00     0.006 C 
BRANCH  16  17
ATOM     17  C   UNL     1      98.565 128.056 126.363  1.00  0.00     0.053 C 
BRANCH  17  18
ATOM     18  C   UNL     1      99.739 128.946 126.626  1.00  0.00     0.041 C 
ATOM     19  O   UNL     1     100.643 129.074 125.760  1.00  0.00    -0.550 OA
ATOM     20  O   UNL     1      99.808 129.674 127.807  1.00  0.00    -0.550 OA
ENDBRANCH  17  18
ENDBRANCH  16  17
ENDBRANCH  15  16
ENDBRANCH  14  15
ENDBRANCH  13  14
ENDBRANCH  12  13
ENDBRANCH  11  12
ENDBRANCH   1  11
TORSDOF 15
ENDMDL
MODEL 6
REMARK VINA RESULT:    -5.745      2.813     10.184
REMARK INTER + INTRA:         -11.591
REMARK INTER:                 -10.820
REMARK INTRA:                  -0.771
REMARK UNBOUND:                -0.808
REMARK SMILES O=C([O-])CCCCCCCCCCCCCCC(=O)[O-]
REMARK SMILES IDX 10 1 9 2 8 3 7 4 6 5 5 6 4 7 2 8 1 9 3 10 11 11 12 12 13 13
REMARK SMILES IDX 14 14 15 15 16 16 17 17 18 18 19 19 20 20
REMARK H PARENT
REMARK Flexibility Score: inf
ROOT
ATOM      1  C   UNL     1      96.163 124.446 124.317  1.00  0.00     0.000 C 
ENDROOT
BRANCH   1   2
ATOM      2  C   UNL     1      95.585 123.294 123.486  1.00  0.00     0.000 C 
BRANCH   2   3
ATOM      3  C   UNL     1      94.076 123.152 123.716  1.00  0.00     0.000 C 
BRANCH   3   4
ATOM      4  C   UNL     1      93.461 122.145 122.736  1.00  0.00     0.000 C 
BRANCH   4   5
ATOM      5  C   UNL     1      94.516 121.625 121.748  1.00  0.00     0.000 C 
BRANCH   5   6
ATOM      6  C   UNL     1      93.891 120.961 120.511  1.00  0.00     0.006 C 
BRANCH   6   7
ATOM      7  C   UNL     1      92.835 121.845 119.835  1.00  0.00     0.053 C 
BRANCH   7   8
ATOM      8  C   UNL     1      92.771 121.553 118.369  1.00  0.00     0.041 C 
ATOM      9  O   UNL     1      91.746 121.860 117.706  1.00  0.00    -0.550 OA
ATOM     10  O   UNL     1      93.864 120.987 117.725  1.00  0.00    -0.550 OA
ENDBRANCH   7   8
ENDBRANCH   6   7
ENDBRANCH   5   6
ENDBRANCH   4   5
ENDBRANCH   3   4
ENDBRANCH   2   3
ENDBRANCH   1   2
BRANCH   1  11
ATOM     11  C   UNL     1      96.900 123.913 125.555  1.00  0.00     0.000 C 
BRANCH  11  12
ATOM     12  C   UNL     1      97.613 125.024 126.343  1.00  0.00     0.000 C 
BRANCH  12  13
ATOM     13  C   UNL     1      97.992 126.226 125.460  1.00  0.00     0.000 C 
BRANCH  13  14
ATOM     14  C   UNL     1      99.267 126.936 125.941  1.00  0.00     0.000 C 
BRANCH  14  15
ATOM     15  C   UNL     1      98.984 128.337 126.510  1.00  0.00     0.000 C 
BRANCH  15  16
ATOM     16  C   UNL     1      98.520 128.297 127.974  1.00  0.00     0.006 C 
BRANCH  16  17
ATOM     17  C   UNL     1      97.345 129.244 128.250  1.00  0.00     0.053 C 
BRANCH  17  18
ATOM     18  C   UNL     1      96.409 128.637 129.246  1.00  0.00     0.041 C 
ATOM     19  O   UNL     1      96.336 127.385 129.366  1.00  0.00    -0.550 OA
ATOM     20  O   UNL     1      95.655 129.454 130.079  1.00  0.00    -0.550 OA
ENDBRANCH  17  18
ENDBRANCH  16  17
ENDBRANCH  15  16
ENDBRANCH  14  15
ENDBRANCH  13  14
ENDBRANCH  12  13
ENDBRANCH  11  12
ENDBRANCH   1  11
TORSDOF 15
ENDMDL
MODEL 7
REMARK VINA RESULT:    -5.642      1.347      2.437
REMARK INTER + INTRA:         -11.397
REMARK INTER:                 -10.505
REMARK INTRA:                  -0.891
REMARK UNBOUND:                -0.808
REMARK SMILES O=C([O-])CCCCCCCCCCCCCCC(=O)[O-]
REMARK SMILES IDX 10 1 9 2 8 3 7 4 6 5 5 6 4 7 2 8 1 9 3 10 11 11 12 12 13 13
REMARK SMILES IDX 14 14 15 15 16 16 17 17 18 18 19 19 20 20
REMARK H PARENT
REMARK Flexibility Score: inf
ROOT
ATOM      1  C   UNL     1      97.490 123.710 126.084  1.00  0.00     0.000 C 
ENDROOT
BRANCH   1   2
ATOM      2  C   UNL     1      98.120 124.545 127.205  1.00  0.00     0.000 C 
BRANCH   2   3
ATOM      3  C   UNL     1      97.903 126.044 126.962  1.00  0.00     0.000 C 
BRANCH   3   4
ATOM      4  C   UNL     1      99.232 126.808 127.019  1.00  0.00     0.000 C 
BRANCH   4   5
ATOM      5  C   UNL     1     100.388 125.941 126.499  1.00  0.00     0.000 C 
BRANCH   5   6
ATOM      6  C   UNL     1     101.549 126.778 125.938  1.00  0.00     0.006 C 
BRANCH   6   7
ATOM      7  C   UNL     1     101.265 127.311 124.527  1.00  0.00     0.053 C 
BRANCH   7   8
ATOM      8  C   UNL     1     101.292 128.806 124.519  1.00  0.00     0.041 C 
ATOM      9  O   UNL     1     101.347 129.434 123.429  1.00  0.00    -0.550 OA
ATOM     10  O   UNL     1     101.206 129.509 125.714  1.00  0.00    -0.550 OA
ENDBRANCH   7   8
ENDBRANCH   6   7
ENDBRANCH   5   6
ENDBRANCH   4   5
ENDBRANCH   3   4
ENDBRANCH   2   3
ENDBRANCH   1   2
BRANCH   1  11
ATOM     11  C   UNL     1      96.785 124.611 125.058  1.00  0.00     0.000 C 
BRANCH  11  12
ATOM     12  C   UNL     1      96.075 123.809 123.955  1.00  0.00     0.000 C 
BRANCH  12  13
ATOM     13  C   UNL     1      94.619 123.468 124.314  1.00  0.00     0.000 C 
BRANCH  13  14
ATOM     14  C   UNL     1      93.844 122.861 123.134  1.00  0.00     0.000 C 
BRANCH  14  15
ATOM     15  C   UNL     1      94.727 121.968 122.245  1.00  0.00     0.000 C 
BRANCH  15  16
ATOM     16  C   UNL     1      93.905 121.113 121.266  1.00  0.00     0.006 C 
BRANCH  16  17
ATOM     17  C   UNL     1      94.523 121.060 119.863  1.00  0.00     0.053 C 
BRANCH  17  18
ATOM     18  C   UNL     1      93.490 121.376 118.828  1.00  0.00     0.041 C 
ATOM     19  O   UNL     1      92.421 121.954 119.155  1.00  0.00    -0.550 OA
ATOM     20  O   UNL     1      93.732 121.079 117.492  1.00  0.00    -0.550 OA
ENDBRANCH  17  18
ENDBRANCH  16  17
ENDBRANCH  15  16
ENDBRANCH  14  15
ENDBRANCH  13  14
ENDBRANCH  12  13
ENDBRANCH  11  12
ENDBRANCH   1  11
TORSDOF 15
ENDMDL
MODEL 8
REMARK VINA RESULT:    -5.623      2.128      3.806
REMARK INTER + INTRA:         -11.362
REMARK INTER:                 -10.206
REMARK INTRA:                  -1.156
REMARK UNBOUND:                -0.808
REMARK SMILES O=C([O-])CCCCCCCCCCCCCCC(=O)[O-]
REMARK SMILES IDX 10 1 9 2 8 3 7 4 6 5 5 6 4 7 2 8 1 9 3 10 11 11 12 12 13 13
REMARK SMILES IDX 14 14 15 15 16 16 17 17 18 18 19 19 20 20
REMARK H PARENT
REMARK Flexibility Score: inf
ROOT
ATOM      1  C   UNL     1      98.274 126.381 125.731  1.00  0.00     0.000 C 
ENDROOT
BRANCH   1   2
ATOM      2  C   UNL     1      98.028 127.730 126.417  1.00  0.00     0.000 C 
BRANCH   2   3
ATOM      3  C   UNL     1      98.179 127.609 127.938  1.00  0.00     0.000 C 
BRANCH   3   4
ATOM      4  C   UNL     1      99.106 128.700 128.488  1.00  0.00     0.000 C 
BRANCH   4   5
ATOM      5  C   UNL     1      99.590 129.629 127.364  1.00  0.00     0.000 C 
BRANCH   5   6
ATOM      6  C   UNL     1     101.123 129.686 127.264  1.00  0.00     0.006 C 
BRANCH   6   7
ATOM      7  C   UNL     1     101.708 128.508 126.475  1.00  0.00     0.053 C 
BRANCH   7   8
ATOM      8  C   UNL     1     101.430 128.669 125.013  1.00  0.00     0.041 C 
ATOM      9  O   UNL     1     101.451 129.813 124.487  1.00  0.00    -0.550 OA
ATOM     10  O   UNL     1     101.197 127.552 124.223  1.00  0.00    -0.550 OA
ENDBRANCH   7   8
ENDBRANCH   6   7
ENDBRANCH   5   6
ENDBRANCH   4   5
ENDBRANCH   3   4
ENDBRANCH   2   3
ENDBRANCH   1   2
BRANCH   1  11
ATOM     11  C   UNL     1      97.738 125.224 126.588  1.00  0.00     0.000 C 
BRANCH  11  12
ATOM     12  C   UNL     1      97.131 124.093 125.742  1.00  0.00     0.000 C 
BRANCH  12  13
ATOM     13  C   UNL     1      96.442 124.612 124.468  1.00  0.00     0.000 C 
BRANCH  13  14
ATOM     14  C   UNL     1      95.684 123.509 123.713  1.00  0.00     0.000 C 
BRANCH  14  15
ATOM     15  C   UNL     1      94.168 123.551 123.971  1.00  0.00     0.000 C 
BRANCH  15  16
ATOM     16  C   UNL     1      93.419 122.397 123.285  1.00  0.00     0.006 C 
BRANCH  16  17
ATOM     17  C   UNL     1      94.355 121.462 122.510  1.00  0.00     0.053 C 
BRANCH  17  18
ATOM     18  C   UNL     1      93.982 121.434 121.062  1.00  0.00     0.041 C 
ATOM     19  O   UNL     1      92.801 121.689 120.707  1.00  0.00    -0.550 OA
ATOM     20  O   UNL     1      94.950 121.178 120.099  1.00  0.00    -0.550 OA
ENDBRANCH  17  18
ENDBRANCH  16  17
ENDBRANCH  15  16
ENDBRANCH  14  15
ENDBRANCH  13  14
ENDBRANCH  12  13
ENDBRANCH  11  12
ENDBRANCH   1  11
TORSDOF 15
ENDMDL
MODEL 9
REMARK VINA RESULT:    -5.582      2.557      3.218
REMARK INTER + INTRA:         -11.285
REMARK INTER:                 -10.302
REMARK INTRA:                  -0.983
REMARK UNBOUND:                -0.808
REMARK SMILES O=C([O-])CCCCCCCCCCCCCCC(=O)[O-]
REMARK SMILES IDX 10 1 9 2 8 3 7 4 6 5 5 6 4 7 2 8 1 9 3 10 11 11 12 12 13 13
REMARK SMILES IDX 14 14 15 15 16 16 17 17 18 18 19 19 20 20
REMARK H PARENT
REMARK Flexibility Score: inf
ROOT
ATOM      1  C   UNL     1      97.138 124.865 125.332  1.00  0.00     0.000 C 
ENDROOT
BRANCH   1   2
ATOM      2  C   UNL     1      97.988 124.655 126.591  1.00  0.00     0.000 C 
BRANCH   2   3
ATOM      3  C   UNL     1      99.132 125.673 126.659  1.00  0.00     0.000 C 
BRANCH   3   4
ATOM      4  C   UNL     1      98.976 126.750 125.578  1.00  0.00     0.000 C 
BRANCH   4   5
ATOM      5  C   UNL     1      99.360 128.135 126.122  1.00  0.00     0.000 C 
BRANCH   5   6
ATOM      6  C   UNL     1      98.912 128.343 127.578  1.00  0.00     0.006 C 
BRANCH   6   7
ATOM      7  C   UNL     1      97.415 128.653 127.697  1.00  0.00     0.053 C 
BRANCH   7   8
ATOM      8  C   UNL     1      96.875 128.130 128.991  1.00  0.00     0.041 C 
ATOM      9  O   UNL     1      96.419 128.925 129.854  1.00  0.00    -0.550 OA
ATOM     10  O   UNL     1      96.831 126.762 129.223  1.00  0.00    -0.550 OA
ENDBRANCH   7   8
ENDBRANCH   6   7
ENDBRANCH   5   6
ENDBRANCH   4   5
ENDBRANCH   3   4
ENDBRANCH   2   3
ENDBRANCH   1   2
BRANCH   1  11
ATOM     11  C   UNL     1      96.513 123.542 124.863  1.00  0.00     0.000 C 
BRANCH  11  12
ATOM     12  C   UNL     1      95.568 123.725 123.666  1.00  0.00     0.000 C 
BRANCH  12  13
ATOM     13  C   UNL     1      94.127 123.285 123.976  1.00  0.00     0.000 C 
BRANCH  13  14
ATOM     14  C   UNL     1      93.467 122.545 122.802  1.00  0.00     0.000 C 
BRANCH  14  15
ATOM     15  C   UNL     1      94.323 121.376 122.285  1.00  0.00     0.000 C 
BRANCH  15  16
ATOM     16  C   UNL     1      94.248 121.219 120.758  1.00  0.00     0.006 C 
BRANCH  16  17
ATOM     17  C   UNL     1      92.948 121.778 120.168  1.00  0.00     0.053 C 
BRANCH  17  18
ATOM     18  C   UNL     1      92.917 121.571 118.687  1.00  0.00     0.041 C 
ATOM     19  O   UNL     1      93.974 121.283 118.065  1.00  0.00    -0.550 OA
ATOM     20  O   UNL     1      91.712 121.644 118.000  1.00  0.00    -0.550 OA
ENDBRANCH  17  18
ENDBRANCH  16  17
ENDBRANCH  15  16
ENDBRANCH  14  15
ENDBRANCH  13  14
ENDBRANCH  12  13
ENDBRANCH  11  12
ENDBRANCH   1  11
TORSDOF 15
ENDMDL
