MODEL 1
REMARK VINA RESULT:    -4.382      0.000      0.000
REMARK INTER + INTRA:          -6.122
REMARK INTER:                  -5.663
REMARK INTRA:                  -0.458
REMARK UNBOUND:                -0.458
REMARK SMILES CCO[C@@H]1O[C@H](CO)[C@H](O)[C@H](O)[C@H]1O
REMARK SMILES IDX 4 1 13 2 11 3 9 4 6 5 5 6 3 7 2 8 1 9 14 10 12 12 7 14 8 15
REMARK SMILES IDX 10 17
REMARK H PARENT 14 11 12 13 8 16 10 18
REMARK Flexibility Score: inf
ROOT
ATOM      1  C   UNL     1      -2.283   5.108  22.678  1.00  0.00     0.281 C 
ATOM      2  C   UNL     1      -1.877   5.180  24.164  1.00  0.00     0.202 C 
ATOM      3  C   UNL     1      -2.177   3.858  24.881  1.00  0.00     0.179 C 
ATOM      4  C   UNL     1      -1.548   2.692  24.097  1.00  0.00     0.177 C 
ATOM      5  C   UNL     1      -1.902   2.743  22.589  1.00  0.00     0.178 C 
ATOM      6  O   UNL     1      -1.663   4.020  22.003  1.00  0.00    -0.341 OA
ENDROOT
BRANCH   1   7
ATOM      7  O   UNL     1      -3.694   5.035  22.540  1.00  0.00    -0.350 OA
BRANCH   7   8
ATOM      8  C   UNL     1      -4.201   6.155  21.845  1.00  0.00     0.160 C 
ATOM      9  C   UNL     1      -4.355   5.798  20.375  1.00  0.00     0.035 C 
ENDBRANCH   7   8
ENDBRANCH   1   7
BRANCH   2  10
ATOM     10  O   UNL     1      -0.505   5.477  24.251  1.00  0.00    -0.385 OA
ATOM     11  H   UNL     1      -0.378   6.018  25.074  1.00  0.00     0.211 HD
ENDBRANCH   2  10
BRANCH   3  12
ATOM     12  O   UNL     1      -3.566   3.692  25.014  1.00  0.00    -0.387 OA
ATOM     13  H   UNL     1      -3.756   2.726  24.885  1.00  0.00     0.211 HD
ENDBRANCH   3  12
BRANCH   5  14
ATOM     14  C   UNL     1      -3.291   2.165  22.231  1.00  0.00     0.191 C 
BRANCH  14  15
ATOM     15  O   UNL     1      -3.566   2.360  20.870  1.00  0.00    -0.394 OA
ATOM     16  H   UNL     1      -4.461   2.785  20.815  1.00  0.00     0.210 HD
ENDBRANCH  14  15
ENDBRANCH   5  14
BRANCH   4  17
ATOM     17  O   UNL     1      -1.924   1.457  24.650  1.00  0.00    -0.387 OA
ATOM     18  H   UNL     1      -2.893   1.342  24.466  1.00  0.00     0.211 HD
ENDBRANCH   4  17
TORSDOF 7
ENDMDL
MODEL 2
REMARK VINA RESULT:    -4.332     13.607     15.482
REMARK INTER + INTRA:          -6.057
REMARK INTER:                  -5.605
REMARK INTRA:                  -0.452
REMARK UNBOUND:                -0.458
REMARK SMILES CCO[C@@H]1O[C@H](CO)[C@H](O)[C@H](O)[C@H]1O
REMARK SMILES IDX 4 1 13 2 11 3 9 4 6 5 5 6 3 7 2 8 1 9 14 10 12 12 7 14 8 15
REMARK SMILES IDX 10 17
REMARK H PARENT 14 11 12 13 8 16 10 18
REMARK Flexibility Score: inf
ROOT
ATOM      1  C   UNL     1      -0.367  -1.970   8.414  1.00  0.00     0.281 C 
ATOM      2  C   UNL     1      -1.339  -0.889   8.927  1.00  0.00     0.202 C 
ATOM      3  C   UNL     1      -0.719  -0.096  10.084  1.00  0.00     0.179 C 
ATOM      4  C   UNL     1       0.667   0.427   9.667  1.00  0.00     0.177 C 
ATOM      5  C   UNL     1       1.554  -0.686   9.055  1.00  0.00     0.178 C 
ATOM      6  O   UNL     1       0.892  -1.427   8.033  1.00  0.00    -0.341 OA
ENDROOT
BRANCH   1   7
ATOM      7  O   UNL     1      -0.190  -2.994   9.383  1.00  0.00    -0.350 OA
BRANCH   7   8
ATOM      8  C   UNL     1      -0.672  -4.235   8.913  1.00  0.00     0.160 C 
ATOM      9  C   UNL     1       0.483  -5.021   8.313  1.00  0.00     0.035 C 
ENDBRANCH   7   8
ENDBRANCH   1   7
BRANCH   2  10
ATOM     10  O   UNL     1      -1.662  -0.023   7.866  1.00  0.00    -0.385 OA
ATOM     11  H   UNL     1      -2.649   0.079   7.866  1.00  0.00     0.211 HD
ENDBRANCH   2  10
BRANCH   3  12
ATOM     12  O   UNL     1      -0.634  -0.909  11.227  1.00  0.00    -0.387 OA
ATOM     13  H   UNL     1      -1.112  -1.754  11.018  1.00  0.00     0.211 HD
ENDBRANCH   3  12
BRANCH   5  14
ATOM     14  C   UNL     1       2.264  -1.589  10.090  1.00  0.00     0.191 C 
BRANCH  14  15
ATOM     15  O   UNL     1       2.789  -2.730   9.466  1.00  0.00    -0.394 OA
ATOM     16  H   UNL     1       3.609  -2.444   8.986  1.00  0.00     0.210 HD
ENDBRANCH  14  15
ENDBRANCH   5  14
BRANCH   4  17
ATOM     17  O   UNL     1       1.320   1.036  10.752  1.00  0.00    -0.387 OA
ATOM     18  H   UNL     1       2.243   1.243  10.453  1.00  0.00     0.211 HD
ENDBRANCH   4  17
TORSDOF 7
ENDMDL
MODEL 3
REMARK VINA RESULT:    -4.183     14.922     16.774
REMARK INTER + INTRA:          -5.864
REMARK INTER:                  -5.419
REMARK INTRA:                  -0.445
REMARK UNBOUND:                -0.458
REMARK SMILES CCO[C@@H]1O[C@H](CO)[C@H](O)[C@H](O)[C@H]1O
REMARK SMILES IDX 4 1 13 2 11 3 9 4 6 5 5 6 3 7 2 8 1 9 14 10 12 12 7 14 8 15
REMARK SMILES IDX 10 17
REMARK H PARENT 14 11 12 13 8 16 10 18
REMARK Flexibility Score: inf
ROOT
ATOM      1  C   UNL     1       0.734  -1.556   9.076  1.00  0.00     0.281 C 
ATOM      2  C   UNL     1       0.088  -1.304   7.698  1.00  0.00     0.202 C 
ATOM      3  C   UNL     1       0.292  -2.506   6.767  1.00  0.00     0.179 C 
ATOM      4  C   UNL     1      -0.175  -3.791   7.474  1.00  0.00     0.177 C 
ATOM      5  C   UNL     1       0.421  -3.926   8.898  1.00  0.00     0.178 C 
ATOM      6  O   UNL     1       0.256  -2.749   9.685  1.00  0.00    -0.341 OA
ENDROOT
BRANCH   1   7
ATOM      7  O   UNL     1       2.150  -1.586   8.974  1.00  0.00    -0.350 OA
BRANCH   7   8
ATOM      8  C   UNL     1       2.760  -1.081  10.143  1.00  0.00     0.160 C 
ATOM      9  C   UNL     1       2.070   0.214  10.543  1.00  0.00     0.035 C 
ENDBRANCH   7   8
ENDBRANCH   1   7
BRANCH   2  10
ATOM     10  O   UNL     1      -1.285  -1.057   7.875  1.00  0.00    -0.385 OA
ATOM     11  H   UNL     1      -1.381  -0.544   8.720  1.00  0.00     0.211 HD
ENDBRANCH   2  10
BRANCH   3  12
ATOM     12  O   UNL     1       1.643  -2.593   6.392  1.00  0.00    -0.387 OA
ATOM     13  H   UNL     1       1.995  -3.441   6.771  1.00  0.00     0.211 HD
ENDBRANCH   3  12
BRANCH   5  14
ATOM     14  C   UNL     1       1.862  -4.486   8.945  1.00  0.00     0.191 C 
BRANCH  14  15
ATOM     15  O   UNL     1       1.848  -5.884   8.831  1.00  0.00    -0.394 OA
ATOM     16  H   UNL     1       2.582  -6.129   8.211  1.00  0.00     0.210 HD
ENDBRANCH  14  15
ENDBRANCH   5  14
BRANCH   4  17
ATOM     17  O   UNL     1       0.129  -4.925   6.703  1.00  0.00    -0.387 OA
ATOM     18  H   UNL     1       0.135  -5.701   7.323  1.00  0.00     0.211 HD
ENDBRANCH   4  17
TORSDOF 7
ENDMDL
MODEL 4
REMARK VINA RESULT:    -4.101     13.632     15.603
REMARK INTER + INTRA:          -5.758
REMARK INTER:                  -5.346
REMARK INTRA:                  -0.412
REMARK UNBOUND:                -0.458
REMARK SMILES CCO[C@@H]1O[C@H](CO)[C@H](O)[C@H](O)[C@H]1O
REMARK SMILES IDX 4 1 13 2 11 3 9 4 6 5 5 6 3 7 2 8 1 9 14 10 12 12 7 14 8 15
REMARK SMILES IDX 10 17
REMARK H PARENT 14 11 12 13 8 16 10 18
REMARK Flexibility Score: inf
ROOT
ATOM      1  C   UNL     1       1.133  -2.107   8.341  1.00  0.00     0.281 C 
ATOM      2  C   UNL     1      -0.361  -2.040   7.965  1.00  0.00     0.202 C 
ATOM      3  C   UNL     1      -1.196  -1.486   9.127  1.00  0.00     0.179 C 
ATOM      4  C   UNL     1      -0.591  -0.155   9.609  1.00  0.00     0.177 C 
ATOM      5  C   UNL     1       0.935  -0.262   9.859  1.00  0.00     0.178 C 
ATOM      6  O   UNL     1       1.639  -0.847   8.767  1.00  0.00    -0.341 OA
ENDROOT
BRANCH   1   7
ATOM      7  O   UNL     1       1.362  -3.093   9.337  1.00  0.00    -0.350 OA
BRANCH   7   8
ATOM      8  C   UNL     1       2.117  -4.172   8.828  1.00  0.00     0.160 C 
ATOM      9  C   UNL     1       1.194  -5.359   8.600  1.00  0.00     0.035 C 
ENDBRANCH   7   8
ENDBRANCH   1   7
BRANCH   2  10
ATOM     10  O   UNL     1      -0.511  -1.224   6.830  1.00  0.00    -0.385 OA
ATOM     11  H   UNL     1       0.360  -0.772   6.680  1.00  0.00     0.211 HD
ENDBRANCH   2  10
BRANCH   3  12
ATOM     12  O   UNL     1      -1.247  -2.428  10.168  1.00  0.00    -0.387 OA
ATOM     13  H   UNL     1      -0.391  -2.357  10.666  1.00  0.00     0.211 HD
ENDBRANCH   3  12
BRANCH   5  14
ATOM     14  C   UNL     1       1.325  -0.873  11.225  1.00  0.00     0.191 C 
BRANCH  14  15
ATOM     15  O   UNL     1       1.224   0.091  12.239  1.00  0.00    -0.394 OA
ATOM     16  H   UNL     1       1.055  -0.399  13.086  1.00  0.00     0.210 HD
ENDBRANCH  14  15
ENDBRANCH   5  14
BRANCH   4  17
ATOM     17  O   UNL     1      -1.248   0.306  10.762  1.00  0.00    -0.387 OA
ATOM     18  H   UNL     1      -2.003   0.872  10.455  1.00  0.00     0.211 HD
ENDBRANCH   4  17
TORSDOF 7
ENDMDL
MODEL 5
REMARK VINA RESULT:    -4.085      9.233     10.466
REMARK INTER + INTRA:          -5.738
REMARK INTER:                  -5.351
REMARK INTRA:                  -0.387
REMARK UNBOUND:                -0.458
REMARK SMILES CCO[C@@H]1O[C@H](CO)[C@H](O)[C@H](O)[C@H]1O
REMARK SMILES IDX 4 1 13 2 11 3 9 4 6 5 5 6 3 7 2 8 1 9 14 10 12 12 7 14 8 15
REMARK SMILES IDX 10 17
REMARK H PARENT 14 11 12 13 8 16 10 18
REMARK Flexibility Score: inf
ROOT
ATOM      1  C   UNL     1       3.991   1.023  14.684  1.00  0.00     0.281 C 
ATOM      2  C   UNL     1       3.981   2.551  14.889  1.00  0.00     0.202 C 
ATOM      3  C   UNL     1       3.959   2.906  16.382  1.00  0.00     0.179 C 
ATOM      4  C   UNL     1       5.098   2.164  17.105  1.00  0.00     0.177 C 
ATOM      5  C   UNL     1       5.121   0.652  16.766  1.00  0.00     0.178 C 
ATOM      6  O   UNL     1       5.071   0.394  15.365  1.00  0.00    -0.341 OA
ENDROOT
BRANCH   1   7
ATOM      7  O   UNL     1       2.755   0.449  15.083  1.00  0.00    -0.350 OA
BRANCH   7   8
ATOM      8  C   UNL     1       1.892   0.269  13.980  1.00  0.00     0.160 C 
ATOM      9  C   UNL     1       2.696  -0.264  12.804  1.00  0.00     0.035 C 
ENDBRANCH   7   8
ENDBRANCH   1   7
BRANCH   2  10
ATOM     10  O   UNL     1       5.122   3.103  14.279  1.00  0.00    -0.385 OA
ATOM     11  H   UNL     1       4.911   4.052  14.077  1.00  0.00     0.211 HD
ENDBRANCH   2  10
BRANCH   3  12
ATOM     12  O   UNL     1       2.708   2.577  16.931  1.00  0.00    -0.387 OA
ATOM     13  H   UNL     1       2.786   1.659  17.301  1.00  0.00     0.211 HD
ENDBRANCH   3  12
BRANCH   5  14
ATOM     14  C   UNL     1       4.120  -0.206  17.573  1.00  0.00     0.191 C 
BRANCH  14  15
ATOM     15  O   UNL     1       4.764  -0.817  18.659  1.00  0.00    -0.394 OA
ATOM     16  H   UNL     1       5.211  -1.631  18.308  1.00  0.00     0.210 HD
ENDBRANCH  14  15
ENDBRANCH   5  14
BRANCH   4  17
ATOM     17  O   UNL     1       5.017   2.357  18.494  1.00  0.00    -0.387 OA
ATOM     18  H   UNL     1       4.344   1.711  18.835  1.00  0.00     0.211 HD
ENDBRANCH   4  17
TORSDOF 7
ENDMDL
MODEL 6
REMARK VINA RESULT:    -4.027      8.116      9.670
REMARK INTER + INTRA:          -5.662
REMARK INTER:                  -5.275
REMARK INTRA:                  -0.387
REMARK UNBOUND:                -0.458
REMARK SMILES CCO[C@@H]1O[C@H](CO)[C@H](O)[C@H](O)[C@H]1O
REMARK SMILES IDX 4 1 13 2 11 3 9 4 6 5 5 6 3 7 2 8 1 9 14 10 12 12 7 14 8 15
REMARK SMILES IDX 10 17
REMARK H PARENT 14 11 12 13 8 16 10 18
REMARK Flexibility Score: inf
ROOT
ATOM      1  C   UNL     1       4.328   3.902  15.851  1.00  0.00     0.281 C 
ATOM      2  C   UNL     1       3.498   4.909  15.029  1.00  0.00     0.202 C 
ATOM      3  C   UNL     1       2.594   5.750  15.939  1.00  0.00     0.179 C 
ATOM      4  C   UNL     1       3.436   6.376  17.065  1.00  0.00     0.177 C 
ATOM      5  C   UNL     1       4.332   5.330  17.776  1.00  0.00     0.178 C 
ATOM      6  O   UNL     1       5.093   4.538  16.868  1.00  0.00    -0.341 OA
ENDROOT
BRANCH   1   7
ATOM      7  O   UNL     1       3.495   2.899  16.414  1.00  0.00    -0.350 OA
BRANCH   7   8
ATOM      8  C   UNL     1       4.053   1.612  16.240  1.00  0.00     0.160 C 
ATOM      9  C   UNL     1       4.516   1.087  17.590  1.00  0.00     0.035 C 
ENDBRANCH   7   8
ENDBRANCH   1   7
BRANCH   2  10
ATOM     10  O   UNL     1       4.371   5.744  14.309  1.00  0.00    -0.385 OA
ATOM     11  H   UNL     1       5.276   5.622  14.701  1.00  0.00     0.211 HD
ENDBRANCH   2  10
BRANCH   3  12
ATOM     12  O   UNL     1       1.563   4.949  16.458  1.00  0.00    -0.387 OA
ATOM     13  H   UNL     1       1.882   4.596  17.330  1.00  0.00     0.211 HD
ENDBRANCH   3  12
BRANCH   5  14
ATOM     14  C   UNL     1       3.612   4.488  18.854  1.00  0.00     0.191 C 
BRANCH  14  15
ATOM     15  O   UNL     1       3.876   5.000  20.133  1.00  0.00    -0.394 OA
ATOM     16  H   UNL     1       3.165   5.664  20.330  1.00  0.00     0.210 HD
ENDBRANCH  14  15
ENDBRANCH   5  14
BRANCH   4  17
ATOM     17  O   UNL     1       2.616   7.036  17.996  1.00  0.00    -0.387 OA
ATOM     18  H   UNL     1       1.691   6.709  17.846  1.00  0.00     0.211 HD
ENDBRANCH   4  17
TORSDOF 7
ENDMDL
MODEL 7
REMARK VINA RESULT:    -3.996      8.201      9.689
REMARK INTER + INTRA:          -5.622
REMARK INTER:                  -5.191
REMARK INTRA:                  -0.431
REMARK UNBOUND:                -0.458
REMARK SMILES CCO[C@@H]1O[C@H](CO)[C@H](O)[C@H](O)[C@H]1O
REMARK SMILES IDX 4 1 13 2 11 3 9 4 6 5 5 6 3 7 2 8 1 9 14 10 12 12 7 14 8 15
REMARK SMILES IDX 10 17
REMARK H PARENT 14 11 12 13 8 16 10 18
REMARK Flexibility Score: inf
ROOT
ATOM      1  C   UNL     1       2.763   2.878  17.458  1.00  0.00     0.281 C 
ATOM      2  C   UNL     1       2.761   4.150  18.329  1.00  0.00     0.202 C 
ATOM      3  C   UNL     1       3.738   5.196  17.778  1.00  0.00     0.179 C 
ATOM      4  C   UNL     1       3.449   5.435  16.286  1.00  0.00     0.177 C 
ATOM      5  C   UNL     1       3.351   4.110  15.488  1.00  0.00     0.178 C 
ATOM      6  O   UNL     1       2.479   3.159  16.092  1.00  0.00    -0.341 OA
ENDROOT
BRANCH   1   7
ATOM      7  O   UNL     1       3.998   2.186  17.573  1.00  0.00    -0.350 OA
BRANCH   7   8
ATOM      8  C   UNL     1       3.807   0.787  17.552  1.00  0.00     0.160 C 
ATOM      9  C   UNL     1       4.893   0.151  16.698  1.00  0.00     0.035 C 
ENDBRANCH   7   8
ENDBRANCH   1   7
BRANCH   2  10
ATOM     10  O   UNL     1       1.458   4.678  18.366  1.00  0.00    -0.385 OA
ATOM     11  H   UNL     1       1.536   5.621  18.664  1.00  0.00     0.211 HD
ENDBRANCH   2  10
BRANCH   3  12
ATOM     12  O   UNL     1       5.060   4.764  17.978  1.00  0.00    -0.387 OA
ATOM     13  H   UNL     1       5.167   4.597  18.951  1.00  0.00     0.211 HD
ENDBRANCH   3  12
BRANCH   5  14
ATOM     14  C   UNL     1       4.712   3.504  15.073  1.00  0.00     0.191 C 
BRANCH  14  15
ATOM     15  O   UNL     1       5.121   4.020  13.835  1.00  0.00    -0.394 OA
ATOM     16  H   UNL     1       5.611   3.294  13.368  1.00  0.00     0.210 HD
ENDBRANCH  14  15
ENDBRANCH   5  14
BRANCH   4  17
ATOM     17  O   UNL     1       4.417   6.282  15.718  1.00  0.00    -0.387 OA
ATOM     18  H   UNL     1       4.019   7.191  15.685  1.00  0.00     0.211 HD
ENDBRANCH   4  17
TORSDOF 7
ENDMDL
MODEL 8
REMARK VINA RESULT:    -3.954      8.707     10.116
REMARK INTER + INTRA:          -5.568
REMARK INTER:                  -5.107
REMARK INTRA:                  -0.461
REMARK UNBOUND:                -0.458
REMARK SMILES CCO[C@@H]1O[C@H](CO)[C@H](O)[C@H](O)[C@H]1O
REMARK SMILES IDX 4 1 13 2 11 3 9 4 6 5 5 6 3 7 2 8 1 9 14 10 12 12 7 14 8 15
REMARK SMILES IDX 10 17
REMARK H PARENT 14 11 12 13 8 16 10 18
REMARK Flexibility Score: inf
ROOT
ATOM      1  C   UNL     1       2.847   2.972  16.114  1.00  0.00     0.281 C 
ATOM      2  C   UNL     1       2.775   2.329  14.714  1.00  0.00     0.202 C 
ATOM      3  C   UNL     1       3.859   1.256  14.546  1.00  0.00     0.179 C 
ATOM      4  C   UNL     1       3.785   0.261  15.717  1.00  0.00     0.177 C 
ATOM      5  C   UNL     1       3.745   0.976  17.092  1.00  0.00     0.178 C 
ATOM      6  O   UNL     1       2.762   2.006  17.155  1.00  0.00    -0.341 OA
ENDROOT
BRANCH   1   7
ATOM      7  O   UNL     1       4.026   3.750  16.256  1.00  0.00    -0.350 OA
BRANCH   7   8
ATOM      8  C   UNL     1       3.723   5.122  16.398  1.00  0.00     0.160 C 
ATOM      9  C   UNL     1       3.931   5.527  17.849  1.00  0.00     0.035 C 
ENDBRANCH   7   8
ENDBRANCH   1   7
BRANCH   2  10
ATOM     10  O   UNL     1       1.501   1.761  14.535  1.00  0.00    -0.385 OA
ATOM     11  H   UNL     1       1.019   1.854  15.397  1.00  0.00     0.211 HD
ENDBRANCH   2  10
BRANCH   3  12
ATOM     12  O   UNL     1       5.123   1.864  14.472  1.00  0.00    -0.387 OA
ATOM     13  H   UNL     1       5.719   1.370  15.094  1.00  0.00     0.211 HD
ENDBRANCH   3  12
BRANCH   5  14
ATOM     14  C   UNL     1       5.124   1.425  17.627  1.00  0.00     0.191 C 
BRANCH  14  15
ATOM     15  O   UNL     1       4.967   2.283  18.725  1.00  0.00    -0.394 OA
ATOM     16  H   UNL     1       3.997   2.477  18.803  1.00  0.00     0.210 HD
ENDBRANCH  14  15
ENDBRANCH   5  14
BRANCH   4  17
ATOM     17  O   UNL     1       4.853  -0.651  15.668  1.00  0.00    -0.387 OA
ATOM     18  H   UNL     1       4.502  -1.522  15.989  1.00  0.00     0.211 HD
ENDBRANCH   4  17
TORSDOF 7
ENDMDL
MODEL 9
REMARK VINA RESULT:    -3.940      8.776     10.016
REMARK INTER + INTRA:          -5.550
REMARK INTER:                  -5.113
REMARK INTRA:                  -0.437
REMARK UNBOUND:                -0.458
REMARK SMILES CCO[C@@H]1O[C@H](CO)[C@H](O)[C@H](O)[C@H]1O
REMARK SMILES IDX 4 1 13 2 11 3 9 4 6 5 5 6 3 7 2 8 1 9 14 10 12 12 7 14 8 15
REMARK SMILES IDX 10 17
REMARK H PARENT 14 11 12 13 8 16 10 18
REMARK Flexibility Score: inf
ROOT
ATOM      1  C   UNL     1       3.995   2.549  17.662  1.00  0.00     0.281 C 
ATOM      2  C   UNL     1       3.792   1.028  17.508  1.00  0.00     0.202 C 
ATOM      3  C   UNL     1       3.685   0.635  16.029  1.00  0.00     0.179 C 
ATOM      4  C   UNL     1       4.885   1.207  15.255  1.00  0.00     0.177 C 
ATOM      5  C   UNL     1       5.104   2.714  15.543  1.00  0.00     0.178 C 
ATOM      6  O   UNL     1       5.125   3.018  16.936  1.00  0.00    -0.341 OA
ENDROOT
BRANCH   1   7
ATOM      7  O   UNL     1       2.828   3.259  17.274  1.00  0.00    -0.350 OA
BRANCH   7   8
ATOM      8  C   UNL     1       2.538   4.304  18.179  1.00  0.00     0.160 C 
ATOM      9  C   UNL     1       2.763   5.638  17.485  1.00  0.00     0.035 C 
ENDBRANCH   7   8
ENDBRANCH   1   7
BRANCH   2  10
ATOM     10  O   UNL     1       4.872   0.357  18.109  1.00  0.00    -0.385 OA
ATOM     11  H   UNL     1       4.486  -0.340  18.701  1.00  0.00     0.211 HD
ENDBRANCH   2  10
BRANCH   3  12
ATOM     12  O   UNL     1       2.469   1.100  15.500  1.00  0.00    -0.387 OA
ATOM     13  H   UNL     1       1.764   0.895  16.168  1.00  0.00     0.211 HD
ENDBRANCH   3  12
BRANCH   5  14
ATOM     14  C   UNL     1       4.195   3.665  14.732  1.00  0.00     0.191 C 
BRANCH  14  15
ATOM     15  O   UNL     1       4.794   3.988  13.506  1.00  0.00    -0.394 OA
ATOM     16  H   UNL     1       4.878   3.141  12.995  1.00  0.00     0.210 HD
ENDBRANCH  14  15
ENDBRANCH   5  14
BRANCH   4  17
ATOM     17  O   UNL     1       4.744   0.985  13.875  1.00  0.00    -0.387 OA
ATOM     18  H   UNL     1       3.774   1.047  13.672  1.00  0.00     0.211 HD
ENDBRANCH   4  17
TORSDOF 7
ENDMDL
