MODEL 1
REMARK VINA RESULT:    -6.041      0.000      0.000
REMARK INTER + INTRA:          -6.041
REMARK INTER:                  -6.041
REMARK INTRA:                   0.000
REMARK UNBOUND:                 0.000
REMARK SMILES C=C1CCC[C@]2(C)CC(=O)C(=C(C)C)C[C@H]12
REMARK SMILES IDX 13 1 12 2 11 3 15 4 16 5 2 6 1 7 3 8 4 9 5 10 6 11 8 12 9 13
REMARK SMILES IDX 10 14 7 15 14 16
REMARK H PARENT
REMARK Flexibility Score: inf
ROOT
ATOM      1  C   UNL     1      56.106  12.835  -3.015  1.00  0.00     0.039 C 
ATOM      2  C   UNL     1      55.689  13.653  -1.816  1.00  0.00    -0.070 C 
ATOM      3  C   UNL     1      55.304  14.956  -1.945  1.00  0.00    -0.006 C 
ATOM      4  C   UNL     1      55.277  15.659  -3.287  1.00  0.00     0.047 C 
ATOM      5  C   UNL     1      54.133  16.696  -3.416  1.00  0.00     0.025 C 
ATOM      6  C   UNL     1      54.346  17.501  -4.687  1.00  0.00    -0.073 C 
ATOM      7  C   UNL     1      53.685  17.189  -5.812  1.00  0.00     0.008 C 
ATOM      8  C   UNL     1      55.431  18.557  -4.707  1.00  0.00     0.031 C 
ATOM      9  C   UNL     1      55.377  19.448  -3.457  1.00  0.00     0.005 C 
ATOM     10  C   UNL     1      55.223  18.638  -2.156  1.00  0.00     0.008 C 
ATOM     11  C   UNL     1      54.010  17.660  -2.192  1.00  0.00    -0.018 C 
ATOM     12  C   UNL     1      53.941  16.847  -0.872  1.00  0.00     0.088 C 
ATOM     13  C   UNL     1      55.019  15.816  -0.774  1.00  0.00     0.159 C 
ATOM     14  O   UNL     1      55.666  15.697   0.301  1.00  0.00    -0.295 OA
ATOM     15  C   UNL     1      52.687  18.466  -2.293  1.00  0.00     0.012 C 
ATOM     16  C   UNL     1      55.676  12.958  -0.474  1.00  0.00     0.039 C 
ENDROOT
TORSDOF 0
ENDMDL
MODEL 2
REMARK VINA RESULT:    -5.669      2.809      5.346
REMARK INTER + INTRA:          -5.669
REMARK INTER:                  -5.669
REMARK INTRA:                   0.000
REMARK UNBOUND:                 0.000
REMARK SMILES C=C1CCC[C@]2(C)CC(=O)C(=C(C)C)C[C@H]12
REMARK SMILES IDX 13 1 12 2 11 3 15 4 16 5 2 6 1 7 3 8 4 9 5 10 6 11 8 12 9 13
REMARK SMILES IDX 10 14 7 15 14 16
REMARK H PARENT
REMARK Flexibility Score: inf
ROOT
ATOM      1  C   UNL     1      50.514  16.147  -6.185  1.00  0.00     0.039 C 
ATOM      2  C   UNL     1      51.054  17.552  -6.311  1.00  0.00    -0.070 C 
ATOM      3  C   UNL     1      52.114  17.973  -5.562  1.00  0.00    -0.006 C 
ATOM      4  C   UNL     1      52.806  17.069  -4.562  1.00  0.00     0.047 C 
ATOM      5  C   UNL     1      54.330  17.327  -4.450  1.00  0.00     0.025 C 
ATOM      6  C   UNL     1      54.870  16.545  -3.263  1.00  0.00    -0.073 C 
ATOM      7  C   UNL     1      55.463  15.355  -3.443  1.00  0.00     0.008 C 
ATOM      8  C   UNL     1      54.586  17.055  -1.866  1.00  0.00     0.031 C 
ATOM      9  C   UNL     1      54.864  18.561  -1.746  1.00  0.00     0.005 C 
ATOM     10  C   UNL     1      54.268  19.371  -2.913  1.00  0.00     0.008 C 
ATOM     11  C   UNL     1      54.709  18.835  -4.309  1.00  0.00    -0.018 C 
ATOM     12  C   UNL     1      54.039  19.667  -5.435  1.00  0.00     0.088 C 
ATOM     13  C   UNL     1      52.578  19.379  -5.570  1.00  0.00     0.159 C 
ATOM     14  O   UNL     1      51.767  20.337  -5.687  1.00  0.00    -0.295 OA
ATOM     15  C   UNL     1      56.243  19.006  -4.477  1.00  0.00     0.012 C 
ATOM     16  C   UNL     1      50.400  18.456  -7.329  1.00  0.00     0.039 C 
ENDROOT
TORSDOF 0
ENDMDL
MODEL 3
REMARK VINA RESULT:    -5.624      3.537      6.525
REMARK INTER + INTRA:          -5.624
REMARK INTER:                  -5.624
REMARK INTRA:                   0.000
REMARK UNBOUND:                 0.000
REMARK SMILES C=C1CCC[C@]2(C)CC(=O)C(=C(C)C)C[C@H]12
REMARK SMILES IDX 13 1 12 2 11 3 15 4 16 5 2 6 1 7 3 8 4 9 5 10 6 11 8 12 9 13
REMARK SMILES IDX 10 14 7 15 14 16
REMARK H PARENT
REMARK Flexibility Score: inf
ROOT
ATOM      1  C   UNL     1      50.240  21.868  -2.313  1.00  0.00     0.039 C 
ATOM      2  C   UNL     1      50.447  21.521  -3.768  1.00  0.00    -0.070 C 
ATOM      3  C   UNL     1      51.482  20.728  -4.168  1.00  0.00    -0.006 C 
ATOM      4  C   UNL     1      52.485  20.156  -3.187  1.00  0.00     0.047 C 
ATOM      5  C   UNL     1      53.001  18.749  -3.583  1.00  0.00     0.025 C 
ATOM      6  C   UNL     1      54.163  18.383  -2.674  1.00  0.00    -0.073 C 
ATOM      7  C   UNL     1      53.971  17.599  -1.602  1.00  0.00     0.008 C 
ATOM      8  C   UNL     1      55.506  19.043  -2.908  1.00  0.00     0.031 C 
ATOM      9  C   UNL     1      55.898  19.018  -4.392  1.00  0.00     0.005 C 
ATOM     10  C   UNL     1      54.745  19.447  -5.320  1.00  0.00     0.008 C 
ATOM     11  C   UNL     1      53.439  18.632  -5.078  1.00  0.00    -0.018 C 
ATOM     12  C   UNL     1      52.310  19.145  -6.011  1.00  0.00     0.088 C 
ATOM     13  C   UNL     1      51.784  20.481  -5.597  1.00  0.00     0.159 C 
ATOM     14  O   UNL     1      51.606  21.374  -6.468  1.00  0.00    -0.295 OA
ATOM     15  C   UNL     1      53.675  17.141  -5.438  1.00  0.00     0.012 C 
ATOM     16  C   UNL     1      49.435  22.054  -4.757  1.00  0.00     0.039 C 
ENDROOT
TORSDOF 0
ENDMDL
MODEL 4
REMARK VINA RESULT:    -5.528      2.182      2.914
REMARK INTER + INTRA:          -5.528
REMARK INTER:                  -5.528
REMARK INTRA:                   0.000
REMARK UNBOUND:                 0.000
REMARK SMILES C=C1CCC[C@]2(C)CC(=O)C(=C(C)C)C[C@H]12
REMARK SMILES IDX 13 1 12 2 11 3 15 4 16 5 2 6 1 7 3 8 4 9 5 10 6 11 8 12 9 13
REMARK SMILES IDX 10 14 7 15 14 16
REMARK H PARENT
REMARK Flexibility Score: inf
ROOT
ATOM      1  C   UNL     1      51.447  14.013  -4.982  1.00  0.00     0.039 C 
ATOM      2  C   UNL     1      52.734  14.027  -4.192  1.00  0.00    -0.070 C 
ATOM      3  C   UNL     1      53.419  15.187  -3.973  1.00  0.00    -0.006 C 
ATOM      4  C   UNL     1      52.940  16.520  -4.510  1.00  0.00     0.047 C 
ATOM      5  C   UNL     1      53.262  17.712  -3.573  1.00  0.00     0.025 C 
ATOM      6  C   UNL     1      52.959  19.006  -4.311  1.00  0.00    -0.073 C 
ATOM      7  C   UNL     1      51.797  19.649  -4.113  1.00  0.00     0.008 C 
ATOM      8  C   UNL     1      53.916  19.472  -5.388  1.00  0.00     0.031 C 
ATOM      9  C   UNL     1      55.376  19.399  -4.918  1.00  0.00     0.005 C 
ATOM     10  C   UNL     1      55.711  18.067  -4.222  1.00  0.00     0.008 C 
ATOM     11  C   UNL     1      54.735  17.731  -3.055  1.00  0.00    -0.018 C 
ATOM     12  C   UNL     1      55.103  16.358  -2.431  1.00  0.00     0.088 C 
ATOM     13  C   UNL     1      54.747  15.209  -3.318  1.00  0.00     0.159 C 
ATOM     14  O   UNL     1      55.581  14.280  -3.494  1.00  0.00    -0.295 OA
ATOM     15  C   UNL     1      54.879  18.788  -1.928  1.00  0.00     0.012 C 
ATOM     16  C   UNL     1      53.209  12.711  -3.619  1.00  0.00     0.039 C 
ENDROOT
TORSDOF 0
ENDMDL
MODEL 5
REMARK VINA RESULT:    -5.369      2.035      2.897
REMARK INTER + INTRA:          -5.369
REMARK INTER:                  -5.369
REMARK INTRA:                   0.000
REMARK UNBOUND:                 0.000
REMARK SMILES C=C1CCC[C@]2(C)CC(=O)C(=C(C)C)C[C@H]12
REMARK SMILES IDX 13 1 12 2 11 3 15 4 16 5 2 6 1 7 3 8 4 9 5 10 6 11 8 12 9 13
REMARK SMILES IDX 10 14 7 15 14 16
REMARK H PARENT
REMARK Flexibility Score: inf
ROOT
ATOM      1  C   UNL     1      56.245  13.536  -2.907  1.00  0.00     0.039 C 
ATOM      2  C   UNL     1      54.798  13.668  -3.321  1.00  0.00    -0.070 C 
ATOM      3  C   UNL     1      54.227  14.890  -3.524  1.00  0.00    -0.006 C 
ATOM      4  C   UNL     1      54.999  16.181  -3.343  1.00  0.00     0.047 C 
ATOM      5  C   UNL     1      54.572  17.297  -4.331  1.00  0.00     0.025 C 
ATOM      6  C   UNL     1      55.229  18.600  -3.906  1.00  0.00    -0.073 C 
ATOM      7  C   UNL     1      56.356  19.022  -4.501  1.00  0.00     0.008 C 
ATOM      8  C   UNL     1      54.682  19.331  -2.698  1.00  0.00     0.031 C 
ATOM      9  C   UNL     1      53.152  19.441  -2.748  1.00  0.00     0.005 C 
ATOM     10  C   UNL     1      52.471  18.109  -3.118  1.00  0.00     0.008 C 
ATOM     11  C   UNL     1      53.026  17.492  -4.437  1.00  0.00    -0.018 C 
ATOM     12  C   UNL     1      52.331  16.135  -4.725  1.00  0.00     0.088 C 
ATOM     13  C   UNL     1      52.781  15.051  -3.799  1.00  0.00     0.159 C 
ATOM     14  O   UNL     1      51.924  14.293  -3.270  1.00  0.00    -0.295 OA
ATOM     15  C   UNL     1      52.699  18.426  -5.633  1.00  0.00     0.012 C 
ATOM     16  C   UNL     1      54.023  12.389  -3.540  1.00  0.00     0.039 C 
ENDROOT
TORSDOF 0
ENDMDL
MODEL 6
REMARK VINA RESULT:    -5.336      2.173      3.008
REMARK INTER + INTRA:          -5.336
REMARK INTER:                  -5.336
REMARK INTRA:                   0.000
REMARK UNBOUND:                 0.000
REMARK SMILES C=C1CCC[C@]2(C)CC(=O)C(=C(C)C)C[C@H]12
REMARK SMILES IDX 13 1 12 2 11 3 15 4 16 5 2 6 1 7 3 8 4 9 5 10 6 11 8 12 9 13
REMARK SMILES IDX 10 14 7 15 14 16
REMARK H PARENT
REMARK Flexibility Score: inf
ROOT
ATOM      1  C   UNL     1      50.297  15.028  -2.657  1.00  0.00     0.039 C 
ATOM      2  C   UNL     1      51.695  14.920  -2.093  1.00  0.00    -0.070 C 
ATOM      3  C   UNL     1      52.649  15.851  -2.381  1.00  0.00    -0.006 C 
ATOM      4  C   UNL     1      52.373  17.038  -3.281  1.00  0.00     0.047 C 
ATOM      5  C   UNL     1      53.144  18.317  -2.866  1.00  0.00     0.025 C 
ATOM      6  C   UNL     1      52.983  19.359  -3.961  1.00  0.00    -0.073 C 
ATOM      7  C   UNL     1      52.063  20.330  -3.850  1.00  0.00     0.008 C 
ATOM      8  C   UNL     1      53.765  19.191  -5.247  1.00  0.00     0.031 C 
ATOM      9  C   UNL     1      55.239  18.858  -4.973  1.00  0.00     0.005 C 
ATOM     10  C   UNL     1      55.413  17.759  -3.908  1.00  0.00     0.008 C 
ATOM     11  C   UNL     1      54.661  18.078  -2.581  1.00  0.00    -0.018 C 
ATOM     12  C   UNL     1      54.841  16.913  -1.572  1.00  0.00     0.088 C 
ATOM     13  C   UNL     1      54.058  15.697  -1.951  1.00  0.00     0.159 C 
ATOM     14  O   UNL     1      54.609  14.565  -1.900  1.00  0.00    -0.295 OA
ATOM     15  C   UNL     1      55.273  19.342  -1.920  1.00  0.00     0.012 C 
ATOM     16  C   UNL     1      51.978  13.761  -1.166  1.00  0.00     0.039 C 
ENDROOT
TORSDOF 0
ENDMDL
MODEL 7
REMARK VINA RESULT:    -5.239      1.784      3.198
REMARK INTER + INTRA:          -5.239
REMARK INTER:                  -5.239
REMARK INTRA:                   0.000
REMARK UNBOUND:                 0.000
REMARK SMILES C=C1CCC[C@]2(C)CC(=O)C(=C(C)C)C[C@H]12
REMARK SMILES IDX 13 1 12 2 11 3 15 4 16 5 2 6 1 7 3 8 4 9 5 10 6 11 8 12 9 13
REMARK SMILES IDX 10 14 7 15 14 16
REMARK H PARENT
REMARK Flexibility Score: inf
ROOT
ATOM      1  C   UNL     1      56.493  13.750  -1.115  1.00  0.00     0.039 C 
ATOM      2  C   UNL     1      55.721  13.618  -2.406  1.00  0.00    -0.070 C 
ATOM      3  C   UNL     1      54.989  14.657  -2.903  1.00  0.00    -0.006 C 
ATOM      4  C   UNL     1      54.903  15.994  -2.196  1.00  0.00     0.047 C 
ATOM      5  C   UNL     1      54.802  17.198  -3.166  1.00  0.00     0.025 C 
ATOM      6  C   UNL     1      54.479  18.446  -2.360  1.00  0.00    -0.073 C 
ATOM      7  C   UNL     1      55.452  19.297  -2.000  1.00  0.00     0.008 C 
ATOM      8  C   UNL     1      53.070  18.631  -1.836  1.00  0.00     0.031 C 
ATOM      9  C   UNL     1      52.021  18.352  -2.922  1.00  0.00     0.005 C 
ATOM     10  C   UNL     1      52.305  17.057  -3.705  1.00  0.00     0.008 C 
ATOM     11  C   UNL     1      53.744  17.012  -4.301  1.00  0.00    -0.018 C 
ATOM     12  C   UNL     1      53.975  15.665  -5.035  1.00  0.00     0.088 C 
ATOM     13  C   UNL     1      54.119  14.513  -4.093  1.00  0.00     0.159 C 
ATOM     14  O   UNL     1      53.499  13.441  -4.326  1.00  0.00    -0.295 OA
ATOM     15  C   UNL     1      53.911  18.134  -5.359  1.00  0.00     0.012 C 
ATOM     16  C   UNL     1      55.825  12.303  -3.143  1.00  0.00     0.039 C 
ENDROOT
TORSDOF 0
ENDMDL
MODEL 8
REMARK VINA RESULT:    -5.133      2.375      5.204
REMARK INTER + INTRA:          -5.133
REMARK INTER:                  -5.133
REMARK INTRA:                   0.000
REMARK UNBOUND:                 0.000
REMARK SMILES C=C1CCC[C@]2(C)CC(=O)C(=C(C)C)C[C@H]12
REMARK SMILES IDX 13 1 12 2 11 3 15 4 16 5 2 6 1 7 3 8 4 9 5 10 6 11 8 12 9 13
REMARK SMILES IDX 10 14 7 15 14 16
REMARK H PARENT
REMARK Flexibility Score: inf
ROOT
ATOM      1  C   UNL     1      56.195  19.346  -4.236  1.00  0.00     0.039 C 
ATOM      2  C   UNL     1      54.848  18.849  -4.703  1.00  0.00    -0.070 C 
ATOM      3  C   UNL     1      54.375  17.625  -4.328  1.00  0.00    -0.006 C 
ATOM      4  C   UNL     1      55.168  16.694  -3.433  1.00  0.00     0.047 C 
ATOM      5  C   UNL     1      54.281  15.850  -2.483  1.00  0.00     0.025 C 
ATOM      6  C   UNL     1      55.149  14.795  -1.817  1.00  0.00    -0.073 C 
ATOM      7  C   UNL     1      55.634  14.991  -0.581  1.00  0.00     0.008 C 
ATOM      8  C   UNL     1      55.585  13.593  -2.628  1.00  0.00     0.031 C 
ATOM      9  C   UNL     1      54.412  12.976  -3.403  1.00  0.00     0.005 C 
ATOM     10  C   UNL     1      53.561  14.032  -4.133  1.00  0.00     0.008 C 
ATOM     11  C   UNL     1      53.065  15.168  -3.189  1.00  0.00    -0.018 C 
ATOM     12  C   UNL     1      52.255  16.217  -3.996  1.00  0.00     0.088 C 
ATOM     13  C   UNL     1      53.121  17.060  -4.876  1.00  0.00     0.159 C 
ATOM     14  O   UNL     1      52.770  17.275  -6.067  1.00  0.00    -0.295 OA
ATOM     15  C   UNL     1      52.103  14.583  -2.121  1.00  0.00     0.012 C 
ATOM     16  C   UNL     1      54.028  19.779  -5.567  1.00  0.00     0.039 C 
ENDROOT
TORSDOF 0
ENDMDL
MODEL 9
REMARK VINA RESULT:    -4.896      1.680      3.354
REMARK INTER + INTRA:          -4.896
REMARK INTER:                  -4.896
REMARK INTRA:                   0.000
REMARK UNBOUND:                 0.000
REMARK SMILES C=C1CCC[C@]2(C)CC(=O)C(=C(C)C)C[C@H]12
REMARK SMILES IDX 13 1 12 2 11 3 15 4 16 5 2 6 1 7 3 8 4 9 5 10 6 11 8 12 9 13
REMARK SMILES IDX 10 14 7 15 14 16
REMARK H PARENT
REMARK Flexibility Score: inf
ROOT
ATOM      1  C   UNL     1      56.524  15.516   2.128  1.00  0.00     0.039 C 
ATOM      2  C   UNL     1      56.181  14.530   1.036  1.00  0.00    -0.070 C 
ATOM      3  C   UNL     1      55.498  14.917  -0.080  1.00  0.00    -0.006 C 
ATOM      4  C   UNL     1      55.039  16.346  -0.289  1.00  0.00     0.047 C 
ATOM      5  C   UNL     1      55.070  16.791  -1.774  1.00  0.00     0.025 C 
ATOM      6  C   UNL     1      54.370  18.136  -1.893  1.00  0.00    -0.073 C 
ATOM      7  C   UNL     1      55.080  19.274  -1.926  1.00  0.00     0.008 C 
ATOM      8  C   UNL     1      52.859  18.179  -1.813  1.00  0.00     0.031 C 
ATOM      9  C   UNL     1      52.214  17.107  -2.703  1.00  0.00     0.005 C 
ATOM     10  C   UNL     1      52.876  15.725  -2.546  1.00  0.00     0.008 C 
ATOM     11  C   UNL     1      54.419  15.766  -2.757  1.00  0.00    -0.018 C 
ATOM     12  C   UNL     1      55.024  14.354  -2.539  1.00  0.00     0.088 C 
ATOM     13  C   UNL     1      55.036  13.948  -1.100  1.00  0.00     0.159 C 
ATOM     14  O   UNL     1      54.652  12.791  -0.779  1.00  0.00    -0.295 OA
ATOM     15  C   UNL     1      54.739  16.170  -4.220  1.00  0.00     0.012 C 
ATOM     16  C   UNL     1      56.662  13.108   1.211  1.00  0.00     0.039 C 
ENDROOT
TORSDOF 0
ENDMDL
