MODEL 1
REMARK VINA RESULT:    -4.394      0.000      0.000
REMARK INTER + INTRA:          -4.671
REMARK INTER:                  -4.650
REMARK INTRA:                  -0.020
REMARK UNBOUND:                -0.020
REMARK SMILES O=C([O-])c1cccnc1
REMARK SMILES IDX 4 1 5 2 9 3 6 4 8 5 7 6 2 7 1 8 3 9
REMARK H PARENT
REMARK Flexibility Score: inf
ROOT
ATOM      1  C   UNL     1      22.341  -6.445 -37.522  1.00  0.00     0.016 A 
ATOM      2  C   UNL     1      21.324  -5.486 -37.654  1.00  0.00     0.013 A 
ATOM      3  C   UNL     1      23.395  -6.183 -36.629  1.00  0.00     0.120 A 
ATOM      4  C   UNL     1      21.373  -4.306 -36.909  1.00  0.00     0.021 A 
ATOM      5  N   UNL     1      23.418  -5.026 -35.915  1.00  0.00    -0.264 NA
ATOM      6  C   UNL     1      22.438  -4.091 -36.036  1.00  0.00     0.111 A 
ENDROOT
BRANCH   1   7
ATOM      7  C   UNL     1      22.302  -7.698 -38.306  1.00  0.00     0.073 C 
ATOM      8  O   UNL     1      22.652  -8.791 -37.785  1.00  0.00    -0.545 OA
ATOM      9  O   UNL     1      21.876  -7.688 -39.629  1.00  0.00    -0.545 OA
ENDBRANCH   1   7
TORSDOF 1
ENDMDL
MODEL 2
REMARK VINA RESULT:    -4.277      2.826      3.880
REMARK INTER + INTRA:          -4.547
REMARK INTER:                  -4.527
REMARK INTRA:                  -0.021
REMARK UNBOUND:                -0.020
REMARK SMILES O=C([O-])c1cccnc1
REMARK SMILES IDX 4 1 5 2 9 3 6 4 8 5 7 6 2 7 1 8 3 9
REMARK H PARENT
REMARK Flexibility Score: inf
ROOT
ATOM      1  C   UNL     1      22.278  -5.853 -37.618  1.00  0.00     0.016 A 
ATOM      2  C   UNL     1      22.657  -7.141 -37.210  1.00  0.00     0.013 A 
ATOM      3  C   UNL     1      21.926  -5.655 -38.965  1.00  0.00     0.120 A 
ATOM      4  C   UNL     1      22.678  -8.191 -38.131  1.00  0.00     0.021 A 
ATOM      5  N   UNL     1      21.955  -6.694 -39.842  1.00  0.00    -0.264 NA
ATOM      6  C   UNL     1      22.319  -7.945 -39.456  1.00  0.00     0.111 A 
ENDROOT
BRANCH   1   7
ATOM      7  C   UNL     1      22.253  -4.733 -36.653  1.00  0.00     0.073 C 
ATOM      8  O   UNL     1      23.126  -4.647 -35.748  1.00  0.00    -0.545 OA
ATOM      9  O   UNL     1      21.265  -3.757 -36.732  1.00  0.00    -0.545 OA
ENDBRANCH   1   7
TORSDOF 1
ENDMDL
MODEL 3
REMARK VINA RESULT:    -4.276      0.935      1.610
REMARK INTER + INTRA:          -4.546
REMARK INTER:                  -4.525
REMARK INTRA:                  -0.021
REMARK UNBOUND:                -0.020
REMARK SMILES O=C([O-])c1cccnc1
REMARK SMILES IDX 4 1 5 2 9 3 6 4 8 5 7 6 2 7 1 8 3 9
REMARK H PARENT
REMARK Flexibility Score: inf
ROOT
ATOM      1  C   UNL     1      22.356  -6.394 -37.675  1.00  0.00     0.016 A 
ATOM      2  C   UNL     1      23.425  -6.159 -36.796  1.00  0.00     0.013 A 
ATOM      3  C   UNL     1      21.312  -5.453 -37.725  1.00  0.00     0.120 A 
ATOM      4  C   UNL     1      23.438  -5.013 -35.998  1.00  0.00     0.021 A 
ATOM      5  N   UNL     1      21.349  -4.346 -36.937  1.00  0.00    -0.264 NA
ATOM      6  C   UNL     1      22.380  -4.109 -36.083  1.00  0.00     0.111 A 
ENDROOT
BRANCH   1   7
ATOM      7  C   UNL     1      22.331  -7.604 -38.525  1.00  0.00     0.073 C 
ATOM      8  O   UNL     1      22.809  -8.692 -38.106  1.00  0.00    -0.545 OA
ATOM      9  O   UNL     1      21.778  -7.557 -39.800  1.00  0.00    -0.545 OA
ENDBRANCH   1   7
TORSDOF 1
ENDMDL
MODEL 4
REMARK VINA RESULT:    -4.236      3.058      3.937
REMARK INTER + INTRA:          -4.504
REMARK INTER:                  -4.482
REMARK INTRA:                  -0.022
REMARK UNBOUND:                -0.020
REMARK SMILES O=C([O-])c1cccnc1
REMARK SMILES IDX 4 1 5 2 9 3 6 4 8 5 7 6 2 7 1 8 3 9
REMARK H PARENT
REMARK Flexibility Score: inf
ROOT
ATOM      1  C   UNL     1      21.892  -5.428 -38.873  1.00  0.00     0.016 A 
ATOM      2  C   UNL     1      22.056  -5.787 -37.526  1.00  0.00     0.013 A 
ATOM      3  C   UNL     1      22.024  -6.429 -39.852  1.00  0.00     0.120 A 
ATOM      4  C   UNL     1      22.342  -7.111 -37.183  1.00  0.00     0.021 A 
ATOM      5  N   UNL     1      22.302  -7.709 -39.492  1.00  0.00    -0.264 NA
ATOM      6  C   UNL     1      22.462  -8.068 -38.190  1.00  0.00     0.111 A 
ENDROOT
BRANCH   1   7
ATOM      7  C   UNL     1      21.591  -4.030 -39.249  1.00  0.00     0.073 C 
ATOM      8  O   UNL     1      20.979  -3.772 -40.320  1.00  0.00    -0.545 OA
ATOM      9  O   UNL     1      21.977  -2.980 -38.423  1.00  0.00    -0.545 OA
ENDBRANCH   1   7
TORSDOF 1
ENDMDL
MODEL 5
REMARK VINA RESULT:    -4.208      1.899      2.423
REMARK INTER + INTRA:          -4.474
REMARK INTER:                  -4.451
REMARK INTRA:                  -0.024
REMARK UNBOUND:                -0.020
REMARK SMILES O=C([O-])c1cccnc1
REMARK SMILES IDX 4 1 5 2 9 3 6 4 8 5 7 6 2 7 1 8 3 9
REMARK H PARENT
REMARK Flexibility Score: inf
ROOT
ATOM      1  C   UNL     1      22.015  -6.267 -38.752  1.00  0.00     0.016 A 
ATOM      2  C   UNL     1      21.568  -5.658 -37.568  1.00  0.00     0.013 A 
ATOM      3  C   UNL     1      22.109  -5.481 -39.914  1.00  0.00     0.120 A 
ATOM      4  C   UNL     1      21.228  -4.304 -37.562  1.00  0.00     0.021 A 
ATOM      5  N   UNL     1      21.772  -4.164 -39.880  1.00  0.00    -0.264 NA
ATOM      6  C   UNL     1      21.339  -3.565 -38.740  1.00  0.00     0.111 A 
ENDROOT
BRANCH   1   7
ATOM      7  C   UNL     1      22.377  -7.701 -38.772  1.00  0.00     0.073 C 
ATOM      8  O   UNL     1      22.676  -8.271 -39.855  1.00  0.00    -0.545 OA
ATOM      9  O   UNL     1      22.392  -8.439 -37.594  1.00  0.00    -0.545 OA
ENDBRANCH   1   7
TORSDOF 1
ENDMDL
MODEL 6
REMARK VINA RESULT:    -4.139      2.778      3.845
REMARK INTER + INTRA:          -4.401
REMARK INTER:                  -4.378
REMARK INTRA:                  -0.023
REMARK UNBOUND:                -0.020
REMARK SMILES O=C([O-])c1cccnc1
REMARK SMILES IDX 4 1 5 2 9 3 6 4 8 5 7 6 2 7 1 8 3 9
REMARK H PARENT
REMARK Flexibility Score: inf
ROOT
ATOM      1  C   UNL     1      23.091  -6.497 -37.364  1.00  0.00     0.016 A 
ATOM      2  C   UNL     1      24.491  -6.449 -37.264  1.00  0.00     0.013 A 
ATOM      3  C   UNL     1      22.503  -7.628 -37.959  1.00  0.00     0.120 A 
ATOM      4  C   UNL     1      25.265  -7.506 -37.747  1.00  0.00     0.021 A 
ATOM      5  N   UNL     1      23.280  -8.643 -38.421  1.00  0.00    -0.264 NA
ATOM      6  C   UNL     1      24.635  -8.606 -38.327  1.00  0.00     0.111 A 
ENDROOT
BRANCH   1   7
ATOM      7  C   UNL     1      22.260  -5.384 -36.858  1.00  0.00     0.073 C 
ATOM      8  O   UNL     1      22.729  -4.562 -36.025  1.00  0.00    -0.545 OA
ATOM      9  O   UNL     1      20.950  -5.228 -37.295  1.00  0.00    -0.545 OA
ENDBRANCH   1   7
TORSDOF 1
ENDMDL
MODEL 7
REMARK VINA RESULT:    -4.118      3.079      3.520
REMARK INTER + INTRA:          -4.379
REMARK INTER:                  -4.357
REMARK INTRA:                  -0.022
REMARK UNBOUND:                -0.020
REMARK SMILES O=C([O-])c1cccnc1
REMARK SMILES IDX 4 1 5 2 9 3 6 4 8 5 7 6 2 7 1 8 3 9
REMARK H PARENT
REMARK Flexibility Score: inf
ROOT
ATOM      1  C   UNL     1      24.123  -7.011 -38.866  1.00  0.00     0.016 A 
ATOM      2  C   UNL     1      24.538  -5.719 -39.227  1.00  0.00     0.013 A 
ATOM      3  C   UNL     1      22.799  -7.390 -39.147  1.00  0.00     0.120 A 
ATOM      4  C   UNL     1      23.644  -4.844 -39.849  1.00  0.00     0.021 A 
ATOM      5  N   UNL     1      21.949  -6.520 -39.753  1.00  0.00    -0.264 NA
ATOM      6  C   UNL     1      22.341  -5.267 -40.107  1.00  0.00     0.111 A 
ENDROOT
BRANCH   1   7
ATOM      7  C   UNL     1      25.060  -7.946 -38.206  1.00  0.00     0.073 C 
ATOM      8  O   UNL     1      25.975  -7.514 -37.455  1.00  0.00    -0.545 OA
ATOM      9  O   UNL     1      24.942  -9.317 -38.404  1.00  0.00    -0.545 OA
ENDBRANCH   1   7
TORSDOF 1
ENDMDL
MODEL 8
REMARK VINA RESULT:    -4.114      1.977      2.542
REMARK INTER + INTRA:          -4.375
REMARK INTER:                  -4.357
REMARK INTRA:                  -0.018
REMARK UNBOUND:                -0.020
REMARK SMILES O=C([O-])c1cccnc1
REMARK SMILES IDX 4 1 5 2 9 3 6 4 8 5 7 6 2 7 1 8 3 9
REMARK H PARENT
REMARK Flexibility Score: inf
ROOT
ATOM      1  C   UNL     1      22.880  -6.945 -38.608  1.00  0.00     0.016 A 
ATOM      2  C   UNL     1      22.245  -6.754 -37.371  1.00  0.00     0.013 A 
ATOM      3  C   UNL     1      22.599  -6.042 -39.649  1.00  0.00     0.120 A 
ATOM      4  C   UNL     1      21.359  -5.689 -37.194  1.00  0.00     0.021 A 
ATOM      5  N   UNL     1      21.733  -5.014 -39.451  1.00  0.00    -0.264 NA
ATOM      6  C   UNL     1      21.113  -4.820 -38.257  1.00  0.00     0.111 A 
ENDROOT
BRANCH   1   7
ATOM      7  C   UNL     1      23.819  -8.069 -38.808  1.00  0.00     0.073 C 
ATOM      8  O   UNL     1      23.599  -8.938 -39.694  1.00  0.00    -0.545 OA
ATOM      9  O   UNL     1      24.959  -8.182 -38.021  1.00  0.00    -0.545 OA
ENDBRANCH   1   7
TORSDOF 1
ENDMDL
MODEL 9
REMARK VINA RESULT:    -4.096      2.936      3.891
REMARK INTER + INTRA:          -4.356
REMARK INTER:                  -4.337
REMARK INTRA:                  -0.018
REMARK UNBOUND:                -0.020
REMARK SMILES O=C([O-])c1cccnc1
REMARK SMILES IDX 4 1 5 2 9 3 6 4 8 5 7 6 2 7 1 8 3 9
REMARK H PARENT
REMARK Flexibility Score: inf
ROOT
ATOM      1  C   UNL     1      23.073  -6.648 -39.117  1.00  0.00     0.016 A 
ATOM      2  C   UNL     1      24.407  -6.360 -39.448  1.00  0.00     0.013 A 
ATOM      3  C   UNL     1      22.778  -7.907 -38.566  1.00  0.00     0.120 A 
ATOM      4  C   UNL     1      25.405  -7.312 -39.227  1.00  0.00     0.021 A 
ATOM      5  N   UNL     1      23.768  -8.816 -38.361  1.00  0.00    -0.264 NA
ATOM      6  C   UNL     1      25.063  -8.547 -38.677  1.00  0.00     0.111 A 
ENDROOT
BRANCH   1   7
ATOM      7  C   UNL     1      22.007  -5.649 -39.347  1.00  0.00     0.073 C 
ATOM      8  O   UNL     1      21.234  -5.309 -38.411  1.00  0.00    -0.545 OA
ATOM      9  O   UNL     1      21.844  -5.069 -40.600  1.00  0.00    -0.545 OA
ENDBRANCH   1   7
TORSDOF 1
ENDMDL
