MODEL 1
REMARK VINA RESULT:    -5.194      0.000      0.000
REMARK INTER + INTRA:          -5.697
REMARK INTER:                  -5.650
REMARK INTRA:                  -0.048
REMARK UNBOUND:                -0.048
REMARK SMILES CC1(C)[C@@H]2CC=C(CO)[C@H]1C2
REMARK SMILES IDX 8 1 7 2 1 3 2 4 4 5 3 6 10 7 5 8 11 9 6 10 9 11
REMARK H PARENT 9 12
REMARK Flexibility Score: inf
ROOT
ATOM      1  C   UNL     1     157.003 131.729 141.163  1.00  0.00     0.187 C 
ENDROOT
BRANCH   1   2
ATOM      2  C   UNL     1     155.958 132.717 140.733  1.00  0.00    -0.045 C 
ATOM      3  C   UNL     1     154.832 136.102 142.310  1.00  0.00     0.012 C 
ATOM      4  C   UNL     1     154.713 134.708 141.644  1.00  0.00    -0.026 C 
ATOM      5  C   UNL     1     154.259 134.803 140.161  1.00  0.00    -0.000 C 
ATOM      6  C   UNL     1     153.928 133.774 142.605  1.00  0.00     0.012 C 
ATOM      7  C   UNL     1     156.069 134.209 141.076  1.00  0.00     0.023 C 
ATOM      8  C   UNL     1     153.811 133.395 139.636  1.00  0.00     0.031 C 
ATOM      9  C   UNL     1     155.741 134.946 139.762  1.00  0.00     0.013 C 
ATOM     10  C   UNL     1     154.864 132.333 140.011  1.00  0.00    -0.025 C 
ENDBRANCH   1   2
BRANCH   1  11
ATOM     11  O   UNL     1     158.059 132.405 141.786  1.00  0.00    -0.392 OA
ATOM     12  H   UNL     1     158.687 131.703 142.101  1.00  0.00     0.211 HD
ENDBRANCH   1  11
TORSDOF 2
ENDMDL
MODEL 2
REMARK VINA RESULT:    -5.021      1.950      3.456
REMARK INTER + INTRA:          -5.509
REMARK INTER:                  -5.486
REMARK INTRA:                  -0.023
REMARK UNBOUND:                -0.048
REMARK SMILES CC1(C)[C@@H]2CC=C(CO)[C@H]1C2
REMARK SMILES IDX 8 1 7 2 1 3 2 4 4 5 3 6 10 7 5 8 11 9 6 10 9 11
REMARK H PARENT 9 12
REMARK Flexibility Score: inf
ROOT
ATOM      1  C   UNL     1     154.767 136.578 142.865  1.00  0.00     0.187 C 
ENDROOT
BRANCH   1   2
ATOM      2  C   UNL     1     155.293 135.361 142.160  1.00  0.00    -0.045 C 
ATOM      3  C   UNL     1     153.536 132.823 139.776  1.00  0.00     0.012 C 
ATOM      4  C   UNL     1     154.435 133.339 140.928  1.00  0.00    -0.026 C 
ATOM      5  C   UNL     1     155.948 133.189 140.605  1.00  0.00    -0.000 C 
ATOM      6  C   UNL     1     153.897 132.757 142.264  1.00  0.00     0.012 C 
ATOM      7  C   UNL     1     154.686 134.868 140.839  1.00  0.00     0.023 C 
ATOM      8  C   UNL     1     156.804 133.381 141.904  1.00  0.00     0.031 C 
ATOM      9  C   UNL     1     155.895 134.574 139.930  1.00  0.00     0.013 C 
ATOM     10  C   UNL     1     156.341 134.642 142.661  1.00  0.00    -0.025 C 
ENDBRANCH   1   2
BRANCH   1  11
ATOM     11  O   UNL     1     155.785 137.151 143.636  1.00  0.00    -0.392 OA
ATOM     12  H   UNL     1     155.677 136.783 144.551  1.00  0.00     0.211 HD
ENDBRANCH   1  11
TORSDOF 2
ENDMDL
MODEL 3
REMARK VINA RESULT:    -5.017      2.617      3.583
REMARK INTER + INTRA:          -5.504
REMARK INTER:                  -5.459
REMARK INTRA:                  -0.045
REMARK UNBOUND:                -0.048
REMARK SMILES CC1(C)[C@@H]2CC=C(CO)[C@H]1C2
REMARK SMILES IDX 8 1 7 2 1 3 2 4 4 5 3 6 10 7 5 8 11 9 6 10 9 11
REMARK H PARENT 9 12
REMARK Flexibility Score: inf
ROOT
ATOM      1  C   UNL     1     151.679 131.239 140.062  1.00  0.00     0.187 C 
ENDROOT
BRANCH   1   2
ATOM      2  C   UNL     1     153.111 131.668 140.190  1.00  0.00    -0.045 C 
ATOM      3  C   UNL     1     154.707 134.781 141.916  1.00  0.00     0.012 C 
ATOM      4  C   UNL     1     154.453 133.700 140.835  1.00  0.00    -0.026 C 
ATOM      5  C   UNL     1     155.612 132.667 140.754  1.00  0.00    -0.000 C 
ATOM      6  C   UNL     1     153.997 134.411 139.531  1.00  0.00     0.012 C 
ATOM      7  C   UNL     1     153.595 132.522 141.371  1.00  0.00     0.023 C 
ATOM      8  C   UNL     1     155.496 131.819 139.440  1.00  0.00     0.031 C 
ATOM      9  C   UNL     1     154.896 131.846 141.846  1.00  0.00     0.013 C 
ATOM     10  C   UNL     1     154.051 131.311 139.265  1.00  0.00    -0.025 C 
ENDBRANCH   1   2
BRANCH   1  11
ATOM     11  O   UNL     1     151.082 131.212 141.328  1.00  0.00    -0.392 OA
ATOM     12  H   UNL     1     150.577 130.359 141.377  1.00  0.00     0.211 HD
ENDBRANCH   1  11
TORSDOF 2
ENDMDL
MODEL 4
REMARK VINA RESULT:    -4.978      1.646      3.389
REMARK INTER + INTRA:          -5.462
REMARK INTER:                  -5.420
REMARK INTRA:                  -0.042
REMARK UNBOUND:                -0.048
REMARK SMILES CC1(C)[C@@H]2CC=C(CO)[C@H]1C2
REMARK SMILES IDX 8 1 7 2 1 3 2 4 4 5 3 6 10 7 5 8 11 9 6 10 9 11
REMARK H PARENT 9 12
REMARK Flexibility Score: inf
ROOT
ATOM      1  C   UNL     1     158.224 135.762 142.478  1.00  0.00     0.187 C 
ENDROOT
BRANCH   1   2
ATOM      2  C   UNL     1     156.797 135.298 142.494  1.00  0.00    -0.045 C 
ATOM      3  C   UNL     1     154.996 132.493 140.467  1.00  0.00     0.012 C 
ATOM      4  C   UNL     1     155.230 133.876 141.127  1.00  0.00    -0.026 C 
ATOM      5  C   UNL     1     154.328 134.091 142.374  1.00  0.00    -0.000 C 
ATOM      6  C   UNL     1     155.228 134.956 140.011  1.00  0.00     0.012 C 
ATOM      7  C   UNL     1     156.414 133.856 142.131  1.00  0.00     0.023 C 
ATOM      8  C   UNL     1     154.330 135.602 142.794  1.00  0.00     0.031 C 
ATOM      9  C   UNL     1     155.423 133.419 143.227  1.00  0.00     0.013 C 
ATOM     10  C   UNL     1     155.775 136.136 142.838  1.00  0.00    -0.025 C 
ENDBRANCH   1   2
BRANCH   1  11
ATOM     11  O   UNL     1     159.005 134.904 143.262  1.00  0.00    -0.392 OA
ATOM     12  H   UNL     1     158.773 133.982 142.977  1.00  0.00     0.211 HD
ENDBRANCH   1  11
TORSDOF 2
ENDMDL
MODEL 5
REMARK VINA RESULT:    -4.942      1.647      3.026
REMARK INTER + INTRA:          -5.423
REMARK INTER:                  -5.380
REMARK INTRA:                  -0.043
REMARK UNBOUND:                -0.048
REMARK SMILES CC1(C)[C@@H]2CC=C(CO)[C@H]1C2
REMARK SMILES IDX 8 1 7 2 1 3 2 4 4 5 3 6 10 7 5 8 11 9 6 10 9 11
REMARK H PARENT 9 12
REMARK Flexibility Score: inf
ROOT
ATOM      1  C   UNL     1     156.577 133.454 142.148  1.00  0.00     0.187 C 
ENDROOT
BRANCH   1   2
ATOM      2  C   UNL     1     155.559 132.833 141.237  1.00  0.00    -0.045 C 
ATOM      3  C   UNL     1     155.230 132.889 137.351  1.00  0.00     0.012 C 
ATOM      4  C   UNL     1     154.802 132.964 138.838  1.00  0.00    -0.026 C 
ATOM      5  C   UNL     1     153.983 131.718 139.277  1.00  0.00    -0.000 C 
ATOM      6  C   UNL     1     154.210 134.376 139.105  1.00  0.00     0.012 C 
ATOM      7  C   UNL     1     155.903 132.434 139.795  1.00  0.00     0.023 C 
ATOM      8  C   UNL     1     153.276 131.986 140.651  1.00  0.00     0.031 C 
ATOM      9  C   UNL     1     155.315 131.021 139.621  1.00  0.00     0.013 C 
ATOM     10  C   UNL     1     154.281 132.590 141.653  1.00  0.00    -0.025 C 
ENDBRANCH   1   2
BRANCH   1  11
ATOM     11  O   UNL     1     157.772 132.726 142.082  1.00  0.00    -0.392 OA
ATOM     12  H   UNL     1     158.419 133.206 142.660  1.00  0.00     0.211 HD
ENDBRANCH   1  11
TORSDOF 2
ENDMDL
MODEL 6
REMARK VINA RESULT:    -4.905      2.604      3.771
REMARK INTER + INTRA:          -5.383
REMARK INTER:                  -5.338
REMARK INTRA:                  -0.045
REMARK UNBOUND:                -0.048
REMARK SMILES CC1(C)[C@@H]2CC=C(CO)[C@H]1C2
REMARK SMILES IDX 8 1 7 2 1 3 2 4 4 5 3 6 10 7 5 8 11 9 6 10 9 11
REMARK H PARENT 9 12
REMARK Flexibility Score: inf
ROOT
ATOM      1  C   UNL     1     152.556 130.680 139.529  1.00  0.00     0.187 C 
ENDROOT
BRANCH   1   2
ATOM      2  C   UNL     1     153.747 131.554 139.796  1.00  0.00    -0.045 C 
ATOM      3  C   UNL     1     154.529 135.217 138.704  1.00  0.00     0.012 C 
ATOM      4  C   UNL     1     154.763 133.710 138.979  1.00  0.00    -0.026 C 
ATOM      5  C   UNL     1     155.674 133.472 140.215  1.00  0.00    -0.000 C 
ATOM      6  C   UNL     1     155.135 133.021 137.636  1.00  0.00     0.012 C 
ATOM      7  C   UNL     1     153.631 133.085 139.837  1.00  0.00     0.023 C 
ATOM      8  C   UNL     1     156.171 131.986 140.249  1.00  0.00     0.031 C 
ATOM      9  C   UNL     1     154.409 133.510 141.097  1.00  0.00     0.013 C 
ATOM     10  C   UNL     1     154.986 131.027 140.020  1.00  0.00    -0.025 C 
ENDBRANCH   1   2
BRANCH   1  11
ATOM     11  O   UNL     1     151.385 131.362 139.881  1.00  0.00    -0.392 OA
ATOM     12  H   UNL     1     151.576 131.810 140.746  1.00  0.00     0.211 HD
ENDBRANCH   1  11
TORSDOF 2
ENDMDL
MODEL 7
REMARK VINA RESULT:    -4.903      1.665      2.414
REMARK INTER + INTRA:          -5.381
REMARK INTER:                  -5.314
REMARK INTRA:                  -0.067
REMARK UNBOUND:                -0.048
REMARK SMILES CC1(C)[C@@H]2CC=C(CO)[C@H]1C2
REMARK SMILES IDX 8 1 7 2 1 3 2 4 4 5 3 6 10 7 5 8 11 9 6 10 9 11
REMARK H PARENT 9 12
REMARK Flexibility Score: inf
ROOT
ATOM      1  C   UNL     1     158.242 133.988 142.865  1.00  0.00     0.187 C 
ENDROOT
BRANCH   1   2
ATOM      2  C   UNL     1     156.815 133.759 142.461  1.00  0.00    -0.045 C 
ATOM      3  C   UNL     1     154.422 135.864 140.211  1.00  0.00     0.012 C 
ATOM      4  C   UNL     1     154.895 135.010 141.415  1.00  0.00    -0.026 C 
ATOM      5  C   UNL     1     154.284 133.582 141.399  1.00  0.00    -0.000 C 
ATOM      6  C   UNL     1     154.754 135.866 142.705  1.00  0.00     0.012 C 
ATOM      7  C   UNL     1     156.252 134.308 141.142  1.00  0.00     0.023 C 
ATOM      8  C   UNL     1     154.492 132.883 142.787  1.00  0.00     0.031 C 
ATOM      9  C   UNL     1     155.470 133.133 140.523  1.00  0.00     0.013 C 
ATOM     10  C   UNL     1     155.954 133.046 143.246  1.00  0.00    -0.025 C 
ENDBRANCH   1   2
BRANCH   1  11
ATOM     11  O   UNL     1     158.520 135.360 142.848  1.00  0.00    -0.392 OA
ATOM     12  H   UNL     1     157.902 135.758 142.182  1.00  0.00     0.211 HD
ENDBRANCH   1  11
TORSDOF 2
ENDMDL
MODEL 8
REMARK VINA RESULT:    -4.892      2.192      3.704
REMARK INTER + INTRA:          -5.369
REMARK INTER:                  -5.302
REMARK INTRA:                  -0.067
REMARK UNBOUND:                -0.048
REMARK SMILES CC1(C)[C@@H]2CC=C(CO)[C@H]1C2
REMARK SMILES IDX 8 1 7 2 1 3 2 4 4 5 3 6 10 7 5 8 11 9 6 10 9 11
REMARK H PARENT 9 12
REMARK Flexibility Score: inf
ROOT
ATOM      1  C   UNL     1     154.765 136.650 142.873  1.00  0.00     0.187 C 
ENDROOT
BRANCH   1   2
ATOM      2  C   UNL     1     154.755 135.231 142.384  1.00  0.00    -0.045 C 
ATOM      3  C   UNL     1     156.060 131.945 144.032  1.00  0.00     0.012 C 
ATOM      4  C   UNL     1     155.802 133.007 142.933  1.00  0.00    -0.026 C 
ATOM      5  C   UNL     1     154.761 132.526 141.885  1.00  0.00    -0.000 C 
ATOM      6  C   UNL     1     157.176 133.533 142.431  1.00  0.00     0.012 C 
ATOM      7  C   UNL     1     154.726 134.043 143.356  1.00  0.00     0.023 C 
ATOM      8  C   UNL     1     154.791 133.453 140.621  1.00  0.00     0.031 C 
ATOM      9  C   UNL     1     153.651 133.093 142.793  1.00  0.00     0.013 C 
ATOM     10  C   UNL     1     154.763 134.933 141.051  1.00  0.00    -0.025 C 
ENDBRANCH   1   2
BRANCH   1  11
ATOM     11  O   UNL     1     155.934 136.884 143.608  1.00  0.00    -0.392 OA
ATOM     12  H   UNL     1     155.882 137.826 143.915  1.00  0.00     0.211 HD
ENDBRANCH   1  11
TORSDOF 2
ENDMDL
MODEL 9
REMARK VINA RESULT:    -4.866      3.389      4.650
REMARK INTER + INTRA:          -5.341
REMARK INTER:                  -5.293
REMARK INTRA:                  -0.048
REMARK UNBOUND:                -0.048
REMARK SMILES CC1(C)[C@@H]2CC=C(CO)[C@H]1C2
REMARK SMILES IDX 8 1 7 2 1 3 2 4 4 5 3 6 10 7 5 8 11 9 6 10 9 11
REMARK H PARENT 9 12
REMARK Flexibility Score: inf
ROOT
ATOM      1  C   UNL     1     151.356 131.403 140.411  1.00  0.00     0.187 C 
ENDROOT
BRANCH   1   2
ATOM      2  C   UNL     1     152.711 131.239 141.034  1.00  0.00    -0.045 C 
ATOM      3  C   UNL     1     153.902 131.678 144.722  1.00  0.00     0.012 C 
ATOM      4  C   UNL     1     153.914 131.792 143.177  1.00  0.00    -0.026 C 
ATOM      5  C   UNL     1     154.992 130.878 142.529  1.00  0.00    -0.000 C 
ATOM      6  C   UNL     1     153.891 133.299 142.798  1.00  0.00     0.012 C 
ATOM      7  C   UNL     1     152.879 130.848 142.509  1.00  0.00     0.023 C 
ATOM      8  C   UNL     1     155.215 131.276 141.029  1.00  0.00     0.031 C 
ATOM      9  C   UNL     1     153.950 129.740 142.509  1.00  0.00     0.013 C 
ATOM     10  C   UNL     1     153.857 131.424 140.314  1.00  0.00    -0.025 C 
ENDBRANCH   1   2
BRANCH   1  11
ATOM     11  O   UNL     1     150.367 131.059 141.340  1.00  0.00    -0.392 OA
ATOM     12  H   UNL     1     150.042 131.914 141.726  1.00  0.00     0.211 HD
ENDBRANCH   1  11
TORSDOF 2
ENDMDL
