MODEL 1
REMARK VINA RESULT:    -5.527      0.000      0.000
REMARK INTER + INTRA:          -6.011
REMARK INTER:                  -6.011
REMARK INTRA:                   0.000
REMARK UNBOUND:                 0.000
REMARK SMILES Cc1cc(O)c2c(c1)C(=O)c1cc(O)cc(O)c1C2=O
REMARK SMILES IDX 1 1 2 2 8 3 7 4 6 5 4 6 3 7 19 8 20 9 18 10 11 11 9 12 10 13
REMARK SMILES IDX 12 14 13 15 15 16 16 17 5 18 17 20 14 22
REMARK H PARENT 5 19 17 21 14 23
REMARK Flexibility Score: inf
ROOT
ATOM      1  C   UNL     1      -0.033  -5.976 -15.741  1.00  0.00     0.044 C 
ATOM      2  C   UNL     1      -0.065  -6.455 -14.318  1.00  0.00    -0.047 A 
ATOM      3  C   UNL     1      -1.150  -6.141 -13.494  1.00  0.00     0.016 A 
ATOM      4  C   UNL     1      -1.177  -6.561 -12.154  1.00  0.00     0.038 A 
ATOM      5  C   UNL     1      -0.098  -7.307 -11.630  1.00  0.00     0.076 A 
ATOM      6  C   UNL     1       1.036  -7.550 -12.446  1.00  0.00     0.127 A 
ATOM      7  C   UNL     1       1.030  -7.139 -13.783  1.00  0.00     0.050 A 
ATOM      8  C   UNL     1      -0.228  -7.859 -10.256  1.00  0.00     0.201 C 
ATOM      9  O   UNL     1       0.358  -8.933  -9.954  1.00  0.00    -0.288 OA
ATOM     10  C   UNL     1      -1.193  -7.250  -9.304  1.00  0.00     0.076 A 
ATOM     11  C   UNL     1      -2.268  -6.502  -9.831  1.00  0.00     0.041 A 
ATOM     12  C   UNL     1      -2.327  -6.217 -11.284  1.00  0.00     0.194 C 
ATOM     13  O   UNL     1      -3.347  -5.659 -11.778  1.00  0.00    -0.289 OA
ATOM     14  C   UNL     1      -3.276  -6.026  -8.974  1.00  0.00     0.059 A 
ATOM     15  C   UNL     1      -3.214  -6.275  -7.601  1.00  0.00     0.120 A 
ATOM     16  C   UNL     1      -2.133  -6.979  -7.071  1.00  0.00     0.093 A 
ATOM     17  C   UNL     1      -1.107  -7.445  -7.900  1.00  0.00     0.131 A 
ENDROOT
BRANCH   6  18
ATOM     18  O   UNL     1       2.197  -8.158 -11.963  1.00  0.00    -0.507 OA
ATOM     19  H   UNL     1       2.261  -8.600 -11.057  1.00  0.00     0.293 HD
ENDBRANCH   6  18
BRANCH  17  20
ATOM     20  O   UNL     1      -0.014  -8.061  -7.288  1.00  0.00    -0.507 OA
ATOM     21  H   UNL     1       0.476  -7.672  -6.494  1.00  0.00     0.293 HD
ENDBRANCH  17  20
BRANCH  15  22
ATOM     22  O   UNL     1      -4.218  -5.817  -6.749  1.00  0.00    -0.508 OA
ATOM     23  H   UNL     1      -4.003  -5.270  -5.924  1.00  0.00     0.293 HD
ENDBRANCH  15  22
TORSDOF 3
ENDMDL
MODEL 2
REMARK VINA RESULT:    -5.208      1.417      3.225
REMARK INTER + INTRA:          -5.665
REMARK INTER:                  -5.665
REMARK INTRA:                   0.000
REMARK UNBOUND:                 0.000
REMARK SMILES Cc1cc(O)c2c(c1)C(=O)c1cc(O)cc(O)c1C2=O
REMARK SMILES IDX 1 1 2 2 8 3 7 4 6 5 4 6 3 7 19 8 20 9 18 10 11 11 9 12 10 13
REMARK SMILES IDX 12 14 13 15 15 16 16 17 5 18 17 20 14 22
REMARK H PARENT 5 19 17 21 14 23
REMARK Flexibility Score: inf
ROOT
ATOM      1  C   UNL     1       2.560  -9.339 -13.981  1.00  0.00     0.044 C 
ATOM      2  C   UNL     1       1.493  -8.546 -13.284  1.00  0.00    -0.047 A 
ATOM      3  C   UNL     1       1.252  -8.737 -11.920  1.00  0.00     0.016 A 
ATOM      4  C   UNL     1       0.238  -8.019 -11.265  1.00  0.00     0.038 A 
ATOM      5  C   UNL     1      -0.549  -7.096 -11.988  1.00  0.00     0.076 A 
ATOM      6  C   UNL     1      -0.356  -6.969 -13.387  1.00  0.00     0.127 A 
ATOM      7  C   UNL     1       0.674  -7.679 -14.013  1.00  0.00     0.050 A 
ATOM      8  C   UNL     1      -1.511  -6.250 -11.234  1.00  0.00     0.201 C 
ATOM      9  O   UNL     1      -1.793  -5.096 -11.654  1.00  0.00    -0.288 OA
ATOM     10  C   UNL     1      -1.988  -6.688  -9.897  1.00  0.00     0.076 A 
ATOM     11  C   UNL     1      -1.200  -7.614  -9.177  1.00  0.00     0.041 A 
ATOM     12  C   UNL     1      -0.017  -8.233  -9.820  1.00  0.00     0.194 C 
ATOM     13  O   UNL     1       0.761  -8.962  -9.143  1.00  0.00    -0.289 OA
ATOM     14  C   UNL     1      -1.545  -7.947  -7.856  1.00  0.00     0.059 A 
ATOM     15  C   UNL     1      -2.671  -7.382  -7.253  1.00  0.00     0.120 A 
ATOM     16  C   UNL     1      -3.474  -6.498  -7.974  1.00  0.00     0.093 A 
ATOM     17  C   UNL     1      -3.164  -6.166  -9.296  1.00  0.00     0.131 A 
ENDROOT
BRANCH   6  18
ATOM     18  O   UNL     1      -1.181  -6.183 -14.195  1.00  0.00    -0.507 OA
ATOM     19  H   UNL     1      -2.163  -6.033 -14.012  1.00  0.00     0.293 HD
ENDBRANCH   6  18
BRANCH  17  20
ATOM     20  O   UNL     1      -4.063  -5.348  -9.983  1.00  0.00    -0.507 OA
ATOM     21  H   UNL     1      -3.939  -4.351 -10.095  1.00  0.00     0.293 HD
ENDBRANCH  17  20
BRANCH  15  22
ATOM     22  O   UNL     1      -3.009  -7.700  -5.939  1.00  0.00    -0.508 OA
ATOM     23  H   UNL     1      -2.312  -8.019  -5.275  1.00  0.00     0.293 HD
ENDBRANCH  15  22
TORSDOF 3
ENDMDL
MODEL 3
REMARK VINA RESULT:    -4.946      2.695      7.045
REMARK INTER + INTRA:          -5.379
REMARK INTER:                  -5.379
REMARK INTRA:                   0.000
REMARK UNBOUND:                 0.000
REMARK SMILES Cc1cc(O)c2c(c1)C(=O)c1cc(O)cc(O)c1C2=O
REMARK SMILES IDX 1 1 2 2 8 3 7 4 6 5 4 6 3 7 19 8 20 9 18 10 11 11 9 12 10 13
REMARK SMILES IDX 12 14 13 15 15 16 16 17 5 18 17 20 14 22
REMARK H PARENT 5 19 17 21 14 23
REMARK Flexibility Score: inf
ROOT
ATOM      1  C   UNL     1       0.593  -4.925  -2.711  1.00  0.00     0.044 C 
ATOM      2  C   UNL     1      -0.419  -5.143  -3.798  1.00  0.00    -0.047 A 
ATOM      3  C   UNL     1      -0.003  -5.384  -5.110  1.00  0.00     0.016 A 
ATOM      4  C   UNL     1      -0.943  -5.563  -6.139  1.00  0.00     0.038 A 
ATOM      5  C   UNL     1      -2.324  -5.496  -5.849  1.00  0.00     0.076 A 
ATOM      6  C   UNL     1      -2.738  -5.168  -4.533  1.00  0.00     0.127 A 
ATOM      7  C   UNL     1      -1.784  -5.016  -3.521  1.00  0.00     0.050 A 
ATOM      8  C   UNL     1      -3.286  -5.835  -6.930  1.00  0.00     0.201 C 
ATOM      9  O   UNL     1      -4.402  -6.343  -6.638  1.00  0.00    -0.288 OA
ATOM     10  C   UNL     1      -2.859  -5.752  -8.350  1.00  0.00     0.076 A 
ATOM     11  C   UNL     1      -1.477  -5.815  -8.637  1.00  0.00     0.041 A 
ATOM     12  C   UNL     1      -0.493  -5.810  -7.530  1.00  0.00     0.194 C 
ATOM     13  O   UNL     1       0.733  -5.993  -7.773  1.00  0.00    -0.289 OA
ATOM     14  C   UNL     1      -1.042  -5.877  -9.973  1.00  0.00     0.059 A 
ATOM     15  C   UNL     1      -1.966  -5.860 -11.020  1.00  0.00     0.120 A 
ATOM     16  C   UNL     1      -3.330  -5.758 -10.742  1.00  0.00     0.093 A 
ATOM     17  C   UNL     1      -3.786  -5.674  -9.423  1.00  0.00     0.131 A 
ENDROOT
BRANCH   6  18
ATOM     18  O   UNL     1      -4.076  -4.949  -4.196  1.00  0.00    -0.507 OA
ATOM     19  H   UNL     1      -4.499  -5.284  -3.343  1.00  0.00     0.293 HD
ENDBRANCH   6  18
BRANCH  17  20
ATOM     20  O   UNL     1      -5.155  -5.481  -9.226  1.00  0.00    -0.507 OA
ATOM     21  H   UNL     1      -5.711  -6.031  -8.585  1.00  0.00     0.293 HD
ENDBRANCH  17  20
BRANCH  15  22
ATOM     22  O   UNL     1      -1.540  -5.935 -12.345  1.00  0.00    -0.508 OA
ATOM     23  H   UNL     1      -2.020  -6.515 -13.023  1.00  0.00     0.293 HD
ENDBRANCH  15  22
TORSDOF 3
ENDMDL
MODEL 4
REMARK VINA RESULT:    -4.897      1.364      6.242
REMARK INTER + INTRA:          -5.327
REMARK INTER:                  -5.327
REMARK INTRA:                   0.000
REMARK UNBOUND:                 0.000
REMARK SMILES Cc1cc(O)c2c(c1)C(=O)c1cc(O)cc(O)c1C2=O
REMARK SMILES IDX 1 1 2 2 8 3 7 4 6 5 4 6 3 7 19 8 20 9 18 10 11 11 9 12 10 13
REMARK SMILES IDX 12 14 13 15 15 16 16 17 5 18 17 20 14 22
REMARK H PARENT 5 19 17 21 14 23
REMARK Flexibility Score: inf
ROOT
ATOM      1  C   UNL     1      -2.997  -7.277  -5.801  1.00  0.00     0.044 C 
ATOM      2  C   UNL     1      -2.710  -7.005  -7.249  1.00  0.00    -0.047 A 
ATOM      3  C   UNL     1      -1.821  -7.821  -7.955  1.00  0.00     0.016 A 
ATOM      4  C   UNL     1      -1.524  -7.558  -9.303  1.00  0.00     0.038 A 
ATOM      5  C   UNL     1      -2.127  -6.459  -9.954  1.00  0.00     0.076 A 
ATOM      6  C   UNL     1      -2.961  -5.587  -9.209  1.00  0.00     0.127 A 
ATOM      7  C   UNL     1      -3.258  -5.881  -7.874  1.00  0.00     0.050 A 
ATOM      8  C   UNL     1      -1.905  -6.299 -11.415  1.00  0.00     0.201 C 
ATOM      9  O   UNL     1      -2.794  -5.761 -12.128  1.00  0.00    -0.288 OA
ATOM     10  C   UNL     1      -0.729  -6.941 -12.057  1.00  0.00     0.076 A 
ATOM     11  C   UNL     1      -0.126  -8.038 -11.402  1.00  0.00     0.041 A 
ATOM     12  C   UNL     1      -0.575  -8.424 -10.044  1.00  0.00     0.194 C 
ATOM     13  O   UNL     1      -0.130  -9.476  -9.506  1.00  0.00    -0.289 OA
ATOM     14  C   UNL     1       0.900  -8.756 -12.041  1.00  0.00     0.059 A 
ATOM     15  C   UNL     1       1.340  -8.383 -13.313  1.00  0.00     0.120 A 
ATOM     16  C   UNL     1       0.775  -7.276 -13.946  1.00  0.00     0.093 A 
ATOM     17  C   UNL     1      -0.233  -6.533 -13.324  1.00  0.00     0.131 A 
ENDROOT
BRANCH   6  18
ATOM     18  O   UNL     1      -3.484  -4.405  -9.741  1.00  0.00    -0.507 OA
ATOM     19  H   UNL     1      -2.952  -3.770 -10.319  1.00  0.00     0.293 HD
ENDBRANCH   6  18
BRANCH  17  20
ATOM     20  O   UNL     1      -0.685  -5.386 -13.978  1.00  0.00    -0.507 OA
ATOM     21  H   UNL     1      -1.584  -4.958 -13.801  1.00  0.00     0.293 HD
ENDBRANCH  17  20
BRANCH  15  22
ATOM     22  O   UNL     1       2.347  -9.101 -13.955  1.00  0.00    -0.508 OA
ATOM     23  H   UNL     1       2.977  -8.656 -14.613  1.00  0.00     0.293 HD
ENDBRANCH  15  22
TORSDOF 3
ENDMDL
MODEL 5
REMARK VINA RESULT:    -4.864      1.343      5.507
REMARK INTER + INTRA:          -5.290
REMARK INTER:                  -5.290
REMARK INTRA:                   0.000
REMARK UNBOUND:                 0.000
REMARK SMILES Cc1cc(O)c2c(c1)C(=O)c1cc(O)cc(O)c1C2=O
REMARK SMILES IDX 1 1 2 2 8 3 7 4 6 5 4 6 3 7 19 8 20 9 18 10 11 11 9 12 10 13
REMARK SMILES IDX 12 14 13 15 15 16 16 17 5 18 17 20 14 22
REMARK H PARENT 5 19 17 21 14 23
REMARK Flexibility Score: inf
ROOT
ATOM      1  C   UNL     1      -3.752  -6.129  -5.817  1.00  0.00     0.044 C 
ATOM      2  C   UNL     1      -2.696  -6.385  -6.853  1.00  0.00    -0.047 A 
ATOM      3  C   UNL     1      -2.905  -5.999  -8.181  1.00  0.00     0.016 A 
ATOM      4  C   UNL     1      -1.934  -6.258  -9.163  1.00  0.00     0.038 A 
ATOM      5  C   UNL     1      -0.735  -6.916  -8.810  1.00  0.00     0.076 A 
ATOM      6  C   UNL     1      -0.567  -7.380  -7.481  1.00  0.00     0.127 A 
ATOM      7  C   UNL     1      -1.538  -7.091  -6.516  1.00  0.00     0.050 A 
ATOM      8  C   UNL     1       0.328  -7.041  -9.842  1.00  0.00     0.201 C 
ATOM      9  O   UNL     1       1.538  -7.066  -9.493  1.00  0.00    -0.288 OA
ATOM     10  C   UNL     1      -0.027  -6.943 -11.281  1.00  0.00     0.076 A 
ATOM     11  C   UNL     1      -1.228  -6.288 -11.631  1.00  0.00     0.041 A 
ATOM     12  C   UNL     1      -2.167  -5.852 -10.570  1.00  0.00     0.194 C 
ATOM     13  O   UNL     1      -3.177  -5.156 -10.867  1.00  0.00    -0.289 OA
ATOM     14  C   UNL     1      -1.530  -6.055 -12.984  1.00  0.00     0.059 A 
ATOM     15  C   UNL     1      -0.658  -6.482 -13.988  1.00  0.00     0.120 A 
ATOM     16  C   UNL     1       0.510  -7.166 -13.648  1.00  0.00     0.093 A 
ATOM     17  C   UNL     1       0.823  -7.427 -12.311  1.00  0.00     0.131 A 
ENDROOT
BRANCH   6  18
ATOM     18  O   UNL     1       0.525  -8.156  -7.085  1.00  0.00    -0.507 OA
ATOM     19  H   UNL     1       0.487  -9.160  -6.979  1.00  0.00     0.293 HD
ENDBRANCH   6  18
BRANCH  17  20
ATOM     20  O   UNL     1       1.960  -8.195 -12.054  1.00  0.00    -0.507 OA
ATOM     21  H   UNL     1       2.443  -8.735 -12.759  1.00  0.00     0.293 HD
ENDBRANCH  17  20
BRANCH  15  22
ATOM     22  O   UNL     1      -0.947  -6.242 -15.330  1.00  0.00    -0.508 OA
ATOM     23  H   UNL     1      -1.806  -6.572 -15.753  1.00  0.00     0.293 HD
ENDBRANCH  15  22
TORSDOF 3
ENDMDL
MODEL 6
REMARK VINA RESULT:    -4.859      2.177      4.530
REMARK INTER + INTRA:          -5.285
REMARK INTER:                  -5.285
REMARK INTRA:                   0.000
REMARK UNBOUND:                 0.000
REMARK SMILES Cc1cc(O)c2c(c1)C(=O)c1cc(O)cc(O)c1C2=O
REMARK SMILES IDX 1 1 2 2 8 3 7 4 6 5 4 6 3 7 19 8 20 9 18 10 11 11 9 12 10 13
REMARK SMILES IDX 12 14 13 15 15 16 16 17 5 18 17 20 14 22
REMARK H PARENT 5 19 17 21 14 23
REMARK Flexibility Score: inf
ROOT
ATOM      1  C   UNL     1       3.176 -10.110  -6.913  1.00  0.00     0.044 C 
ATOM      2  C   UNL     1       2.377  -9.267  -7.864  1.00  0.00    -0.047 A 
ATOM      3  C   UNL     1       1.157  -8.715  -7.462  1.00  0.00     0.016 A 
ATOM      4  C   UNL     1       0.389  -7.948  -8.353  1.00  0.00     0.038 A 
ATOM      5  C   UNL     1       0.850  -7.730  -9.671  1.00  0.00     0.076 A 
ATOM      6  C   UNL     1       2.046  -8.362 -10.098  1.00  0.00     0.127 A 
ATOM      7  C   UNL     1       2.803  -9.105  -9.186  1.00  0.00     0.050 A 
ATOM      8  C   UNL     1       0.087  -6.794 -10.537  1.00  0.00     0.201 C 
ATOM      9  O   UNL     1       0.687  -6.133 -11.426  1.00  0.00    -0.288 OA
ATOM     10  C   UNL     1      -1.337  -6.500 -10.230  1.00  0.00     0.076 A 
ATOM     11  C   UNL     1      -1.796  -6.722  -8.913  1.00  0.00     0.041 A 
ATOM     12  C   UNL     1      -0.907  -7.372  -7.921  1.00  0.00     0.194 C 
ATOM     13  O   UNL     1      -1.264  -7.459  -6.713  1.00  0.00    -0.289 OA
ATOM     14  C   UNL     1      -3.095  -6.328  -8.549  1.00  0.00     0.059 A 
ATOM     15  C   UNL     1      -3.944  -5.733  -9.486  1.00  0.00     0.120 A 
ATOM     16  C   UNL     1      -3.508  -5.549 -10.799  1.00  0.00     0.093 A 
ATOM     17  C   UNL     1      -2.228  -5.951 -11.190  1.00  0.00     0.131 A 
ENDROOT
BRANCH   6  18
ATOM     18  O   UNL     1       2.496  -8.310 -11.419  1.00  0.00    -0.507 OA
ATOM     19  H   UNL     1       2.384  -7.503 -12.016  1.00  0.00     0.293 HD
ENDBRANCH   6  18
BRANCH  17  20
ATOM     20  O   UNL     1      -1.895  -5.819 -12.540  1.00  0.00    -0.507 OA
ATOM     21  H   UNL     1      -2.555  -5.952 -13.294  1.00  0.00     0.293 HD
ENDBRANCH  17  20
BRANCH  15  22
ATOM     22  O   UNL     1      -5.228  -5.330  -9.127  1.00  0.00    -0.508 OA
ATOM     23  H   UNL     1      -5.694  -5.711  -8.312  1.00  0.00     0.293 HD
ENDBRANCH  15  22
TORSDOF 3
ENDMDL
MODEL 7
REMARK VINA RESULT:    -4.853      2.272      6.241
REMARK INTER + INTRA:          -5.278
REMARK INTER:                  -5.278
REMARK INTRA:                   0.000
REMARK UNBOUND:                 0.000
REMARK SMILES Cc1cc(O)c2c(c1)C(=O)c1cc(O)cc(O)c1C2=O
REMARK SMILES IDX 1 1 2 2 8 3 7 4 6 5 4 6 3 7 19 8 20 9 18 10 11 11 9 12 10 13
REMARK SMILES IDX 12 14 13 15 15 16 16 17 5 18 17 20 14 22
REMARK H PARENT 5 19 17 21 14 23
REMARK Flexibility Score: inf
ROOT
ATOM      1  C   UNL     1      -3.364  -5.262 -10.615  1.00  0.00     0.044 C 
ATOM      2  C   UNL     1      -2.183  -6.081 -11.046  1.00  0.00    -0.047 A 
ATOM      3  C   UNL     1      -1.609  -5.880 -12.305  1.00  0.00     0.016 A 
ATOM      4  C   UNL     1      -0.519  -6.660 -12.728  1.00  0.00     0.038 A 
ATOM      5  C   UNL     1       0.003  -7.659 -11.877  1.00  0.00     0.076 A 
ATOM      6  C   UNL     1      -0.637  -7.914 -10.637  1.00  0.00     0.127 A 
ATOM      7  C   UNL     1      -1.706  -7.110 -10.229  1.00  0.00     0.050 A 
ATOM      8  C   UNL     1       1.244  -8.362 -12.296  1.00  0.00     0.201 C 
ATOM      9  O   UNL     1       2.044  -8.793 -11.424  1.00  0.00    -0.288 OA
ATOM     10  C   UNL     1       1.628  -8.386 -13.731  1.00  0.00     0.076 A 
ATOM     11  C   UNL     1       1.102  -7.388 -14.580  1.00  0.00     0.041 A 
ATOM     12  C   UNL     1       0.079  -6.447 -14.068  1.00  0.00     0.194 C 
ATOM     13  O   UNL     1      -0.302  -5.477 -14.781  1.00  0.00    -0.289 OA
ATOM     14  C   UNL     1       1.548  -7.295 -15.911  1.00  0.00     0.059 A 
ATOM     15  C   UNL     1       2.498  -8.193 -16.404  1.00  0.00     0.120 A 
ATOM     16  C   UNL     1       2.990  -9.205 -15.579  1.00  0.00     0.093 A 
ATOM     17  C   UNL     1       2.547  -9.331 -14.259  1.00  0.00     0.131 A 
ENDROOT
BRANCH   6  18
ATOM     18  O   UNL     1      -0.269  -8.971  -9.801  1.00  0.00    -0.507 OA
ATOM     19  H   UNL     1      -0.539  -9.931  -9.963  1.00  0.00     0.293 HD
ENDBRANCH   6  18
BRANCH  17  20
ATOM     20  O   UNL     1       3.015 -10.422 -13.524  1.00  0.00    -0.507 OA
ATOM     21  H   UNL     1       3.459 -11.229 -13.941  1.00  0.00     0.293 HD
ENDBRANCH  17  20
BRANCH  15  22
ATOM     22  O   UNL     1       2.952  -8.096 -17.718  1.00  0.00    -0.508 OA
ATOM     23  H   UNL     1       2.654  -8.752 -18.431  1.00  0.00     0.293 HD
ENDBRANCH  15  22
TORSDOF 3
ENDMDL
MODEL 8
REMARK VINA RESULT:    -4.680      2.147      5.141
REMARK INTER + INTRA:          -5.091
REMARK INTER:                  -5.091
REMARK INTRA:                   0.000
REMARK UNBOUND:                 0.000
REMARK SMILES Cc1cc(O)c2c(c1)C(=O)c1cc(O)cc(O)c1C2=O
REMARK SMILES IDX 1 1 2 2 8 3 7 4 6 5 4 6 3 7 19 8 20 9 18 10 11 11 9 12 10 13
REMARK SMILES IDX 12 14 13 15 15 16 16 17 5 18 17 20 14 22
REMARK H PARENT 5 19 17 21 14 23
REMARK Flexibility Score: inf
ROOT
ATOM      1  C   UNL     1      -4.505  -4.934  -9.130  1.00  0.00     0.044 C 
ATOM      2  C   UNL     1      -3.291  -5.637  -9.664  1.00  0.00    -0.047 A 
ATOM      3  C   UNL     1      -2.415  -6.291  -8.792  1.00  0.00     0.016 A 
ATOM      4  C   UNL     1      -1.262  -6.929  -9.280  1.00  0.00     0.038 A 
ATOM      5  C   UNL     1      -0.981  -6.910 -10.664  1.00  0.00     0.076 A 
ATOM      6  C   UNL     1      -1.828  -6.175 -11.532  1.00  0.00     0.127 A 
ATOM      7  C   UNL     1      -2.981  -5.565 -11.026  1.00  0.00     0.050 A 
ATOM      8  C   UNL     1       0.164  -7.718 -11.160  1.00  0.00     0.201 C 
ATOM      9  O   UNL     1       0.132  -8.203 -12.323  1.00  0.00    -0.288 OA
ATOM     10  C   UNL     1       1.250  -8.110 -10.224  1.00  0.00     0.076 A 
ATOM     11  C   UNL     1       0.966  -8.124  -8.841  1.00  0.00     0.041 A 
ATOM     12  C   UNL     1      -0.335  -7.614  -8.348  1.00  0.00     0.194 C 
ATOM     13  O   UNL     1      -0.643  -7.740  -7.130  1.00  0.00    -0.289 OA
ATOM     14  C   UNL     1       1.922  -8.619  -7.936  1.00  0.00     0.059 A 
ATOM     15  C   UNL     1       3.158  -9.082  -8.394  1.00  0.00     0.120 A 
ATOM     16  C   UNL     1       3.457  -9.032  -9.756  1.00  0.00     0.093 A 
ATOM     17  C   UNL     1       2.531  -8.526 -10.673  1.00  0.00     0.131 A 
ENDROOT
BRANCH   6  18
ATOM     18  O   UNL     1      -1.544  -5.993 -12.888  1.00  0.00    -0.507 OA
ATOM     19  H   UNL     1      -0.682  -6.287 -13.322  1.00  0.00     0.293 HD
ENDBRANCH   6  18
BRANCH  17  20
ATOM     20  O   UNL     1       2.935  -8.422 -12.005  1.00  0.00    -0.507 OA
ATOM     21  H   UNL     1       2.412  -8.807 -12.781  1.00  0.00     0.293 HD
ENDBRANCH  17  20
BRANCH  15  22
ATOM     22  O   UNL     1       4.103  -9.585  -7.502  1.00  0.00    -0.508 OA
ATOM     23  H   UNL     1       4.287 -10.579  -7.430  1.00  0.00     0.293 HD
ENDBRANCH  15  22
TORSDOF 3
ENDMDL
MODEL 9
REMARK VINA RESULT:    -4.501      1.804      2.486
REMARK INTER + INTRA:          -4.896
REMARK INTER:                  -4.896
REMARK INTRA:                   0.000
REMARK UNBOUND:                 0.000
REMARK SMILES Cc1cc(O)c2c(c1)C(=O)c1cc(O)cc(O)c1C2=O
REMARK SMILES IDX 1 1 2 2 8 3 7 4 6 5 4 6 3 7 19 8 20 9 18 10 11 11 9 12 10 13
REMARK SMILES IDX 12 14 13 15 15 16 16 17 5 18 17 20 14 22
REMARK H PARENT 5 19 17 21 14 23
REMARK Flexibility Score: inf
ROOT
ATOM      1  C   UNL     1      -1.112  -6.136 -13.771  1.00  0.00     0.044 C 
ATOM      2  C   UNL     1      -0.799  -6.202 -12.304  1.00  0.00    -0.047 A 
ATOM      3  C   UNL     1      -1.829  -6.140 -11.361  1.00  0.00     0.016 A 
ATOM      4  C   UNL     1      -1.544  -6.174  -9.986  1.00  0.00     0.038 A 
ATOM      5  C   UNL     1      -0.204  -6.269  -9.548  1.00  0.00     0.076 A 
ATOM      6  C   UNL     1       0.840  -6.246 -10.507  1.00  0.00     0.127 A 
ATOM      7  C   UNL     1       0.530  -6.233 -11.871  1.00  0.00     0.050 A 
ATOM      8  C   UNL     1       0.049  -6.450  -8.094  1.00  0.00     0.201 C 
ATOM      9  O   UNL     1       1.066  -7.088  -7.711  1.00  0.00    -0.288 OA
ATOM     10  C   UNL     1      -0.988  -6.049  -7.110  1.00  0.00     0.076 A 
ATOM     11  C   UNL     1      -2.326  -5.951  -7.551  1.00  0.00     0.041 A 
ATOM     12  C   UNL     1      -2.641  -6.100  -8.991  1.00  0.00     0.194 C 
ATOM     13  O   UNL     1      -3.843  -6.139  -9.375  1.00  0.00    -0.289 OA
ATOM     14  C   UNL     1      -3.353  -5.708  -6.622  1.00  0.00     0.059 A 
ATOM     15  C   UNL     1      -3.059  -5.547  -5.266  1.00  0.00     0.120 A 
ATOM     16  C   UNL     1      -1.734  -5.603  -4.832  1.00  0.00     0.093 A 
ATOM     17  C   UNL     1      -0.693  -5.823  -5.739  1.00  0.00     0.131 A 
ENDROOT
BRANCH   6  18
ATOM     18  O   UNL     1       2.191  -6.199 -10.152  1.00  0.00    -0.507 OA
ATOM     19  H   UNL     1       2.661  -5.355  -9.857  1.00  0.00     0.293 HD
ENDBRANCH   6  18
BRANCH  17  20
ATOM     20  O   UNL     1       0.612  -5.775  -5.245  1.00  0.00    -0.507 OA
ATOM     21  H   UNL     1       1.231  -6.574  -5.219  1.00  0.00     0.293 HD
ENDBRANCH  17  20
BRANCH  15  22
ATOM     22  O   UNL     1      -4.075  -5.319  -4.340  1.00  0.00    -0.508 OA
ATOM     23  H   UNL     1      -4.057  -5.741  -3.419  1.00  0.00     0.293 HD
ENDBRANCH  15  22
TORSDOF 3
ENDMDL
