MODEL 1
REMARK VINA RESULT:    -6.183      0.000      0.000
REMARK INTER + INTRA:         -17.372
REMARK INTER:                 -14.136
REMARK INTRA:                  -3.236
REMARK UNBOUND:                -3.236
REMARK SMILES CCCCCCCCCCCCCCCCCCCCCCCC(=O)[O-]
REMARK SMILES IDX 13 1 14 2 15 3 16 4 17 5 18 6 19 7 20 8 21 9 22 10 23 11
REMARK SMILES IDX 24 12 25 13 26 14 12 15 11 16 10 17 9 18 8 19 7 20 6 21 5 22
REMARK SMILES IDX 4 23 3 24 2 25 1 26
REMARK H PARENT
REMARK Flexibility Score: inf
ROOT
ATOM      1  C   UNL     1     -17.754  -0.348 -19.095  1.00  0.00     0.000 C 
ENDROOT
BRANCH   1   2
ATOM      2  C   UNL     1     -17.378  -1.820 -18.873  1.00  0.00     0.000 C 
BRANCH   2   3
ATOM      3  C   UNL     1     -17.416  -2.234 -17.390  1.00  0.00     0.000 C 
BRANCH   3   4
ATOM      4  C   UNL     1     -16.255  -1.701 -16.531  1.00  0.00     0.000 C 
BRANCH   4   5
ATOM      5  C   UNL     1     -16.632  -0.449 -15.722  1.00  0.00     0.000 C 
BRANCH   5   6
ATOM      6  C   UNL     1     -16.995  -0.766 -14.260  1.00  0.00     0.000 C 
BRANCH   6   7
ATOM      7  C   UNL     1     -18.443  -0.424 -13.849  1.00  0.00     0.000 C 
BRANCH   7   8
ATOM      8  C   UNL     1     -19.534  -0.980 -14.782  1.00  0.00     0.000 C 
BRANCH   8   9
ATOM      9  C   UNL     1     -20.102   0.089 -15.732  1.00  0.00     0.000 C 
BRANCH   9  10
ATOM     10  C   UNL     1     -21.633  -0.004 -15.890  1.00  0.00     0.006 C 
BRANCH  10  11
ATOM     11  C   UNL     1     -22.169  -1.446 -15.893  1.00  0.00     0.053 C 
BRANCH  11  12
ATOM     12  C   UNL     1     -23.665  -1.507 -15.911  1.00  0.00     0.041 C 
ATOM     13  O   UNL     1     -24.329  -0.648 -16.551  1.00  0.00    -0.550 OA
ATOM     14  O   UNL     1     -24.329  -2.525 -15.236  1.00  0.00    -0.550 OA
ENDBRANCH  11  12
ENDBRANCH  10  11
ENDBRANCH   9  10
ENDBRANCH   8   9
ENDBRANCH   7   8
ENDBRANCH   6   7
ENDBRANCH   5   6
ENDBRANCH   4   5
ENDBRANCH   3   4
ENDBRANCH   2   3
ENDBRANCH   1   2
BRANCH   1  15
ATOM     15  C   UNL     1     -16.510   0.494 -19.419  1.00  0.00     0.000 C 
BRANCH  15  16
ATOM     16  C   UNL     1     -15.326  -0.352 -19.925  1.00  0.00     0.000 C 
BRANCH  16  17
ATOM     17  C   UNL     1     -13.935   0.140 -19.485  1.00  0.00     0.000 C 
BRANCH  17  18
ATOM     18  C   UNL     1     -13.955   0.852 -18.122  1.00  0.00    -0.000 C 
BRANCH  18  19
ATOM     19  C   UNL     1     -13.416   2.289 -18.198  1.00  0.00    -0.000 C 
BRANCH  19  20
ATOM     20  C   UNL     1     -14.383   3.322 -17.601  1.00  0.00    -0.000 C 
BRANCH  20  21
ATOM     21  C   UNL     1     -15.054   2.774 -16.332  1.00  0.00    -0.000 C 
BRANCH  21  22
ATOM     22  C   UNL     1     -14.186   2.952 -15.074  1.00  0.00    -0.000 C 
BRANCH  22  23
ATOM     23  C   UNL     1     -14.465   1.937 -13.948  1.00  0.00    -0.000 C 
BRANCH  23  24
ATOM     24  C   UNL     1     -15.455   2.451 -12.882  1.00  0.00    -0.000 C 
BRANCH  24  25
ATOM     25  C   UNL     1     -15.577   1.490 -11.689  1.00  0.00    -0.003 C 
ATOM     26  C   UNL     1     -16.929   1.641 -10.998  1.00  0.00     0.004 C 
ENDBRANCH  24  25
ENDBRANCH  23  24
ENDBRANCH  22  23
ENDBRANCH  21  22
ENDBRANCH  20  21
ENDBRANCH  19  20
ENDBRANCH  18  19
ENDBRANCH  17  18
ENDBRANCH  16  17
ENDBRANCH  15  16
ENDBRANCH   1  15
TORSDOF 22
ENDMDL
MODEL 2
REMARK VINA RESULT:    -6.160      3.152      5.472
REMARK INTER + INTRA:         -17.318
REMARK INTER:                 -13.437
REMARK INTRA:                  -3.881
REMARK UNBOUND:                -3.236
REMARK SMILES CCCCCCCCCCCCCCCCCCCCCCCC(=O)[O-]
REMARK SMILES IDX 13 1 14 2 15 3 16 4 17 5 18 6 19 7 20 8 21 9 22 10 23 11
REMARK SMILES IDX 24 12 25 13 26 14 12 15 11 16 10 17 9 18 8 19 7 20 6 21 5 22
REMARK SMILES IDX 4 23 3 24 2 25 1 26
REMARK H PARENT
REMARK Flexibility Score: inf
ROOT
ATOM      1  C   UNL     1     -16.789   1.725 -17.021  1.00  0.00     0.000 C 
ENDROOT
BRANCH   1   2
ATOM      2  C   UNL     1     -18.015   1.126 -17.724  1.00  0.00     0.000 C 
BRANCH   2   3
ATOM      3  C   UNL     1     -17.643   0.151 -18.857  1.00  0.00     0.000 C 
BRANCH   3   4
ATOM      4  C   UNL     1     -18.138  -1.294 -18.666  1.00  0.00     0.000 C 
BRANCH   4   5
ATOM      5  C   UNL     1     -17.167  -2.157 -17.843  1.00  0.00     0.000 C 
BRANCH   5   6
ATOM      6  C   UNL     1     -17.814  -2.745 -16.576  1.00  0.00     0.000 C 
BRANCH   6   7
ATOM      7  C   UNL     1     -19.066  -2.001 -16.065  1.00  0.00     0.000 C 
BRANCH   7   8
ATOM      8  C   UNL     1     -19.089  -1.726 -14.551  1.00  0.00     0.000 C 
BRANCH   8   9
ATOM      9  C   UNL     1     -18.515  -0.345 -14.190  1.00  0.00     0.000 C 
BRANCH   9  10
ATOM     10  C   UNL     1     -18.085  -0.245 -12.713  1.00  0.00     0.006 C 
BRANCH  10  11
ATOM     11  C   UNL     1     -17.634   1.165 -12.294  1.00  0.00     0.053 C 
BRANCH  11  12
ATOM     12  C   UNL     1     -16.862   1.168 -11.010  1.00  0.00     0.041 C 
ATOM     13  O   UNL     1     -17.416   0.810  -9.936  1.00  0.00    -0.550 OA
ATOM     14  O   UNL     1     -15.525   1.545 -11.002  1.00  0.00    -0.550 OA
ENDBRANCH  11  12
ENDBRANCH  10  11
ENDBRANCH   9  10
ENDBRANCH   8   9
ENDBRANCH   7   8
ENDBRANCH   6   7
ENDBRANCH   5   6
ENDBRANCH   4   5
ENDBRANCH   3   4
ENDBRANCH   2   3
ENDBRANCH   1   2
BRANCH   1  15
ATOM     15  C   UNL     1     -15.993   0.637 -16.283  1.00  0.00     0.000 C 
BRANCH  15  16
ATOM     16  C   UNL     1     -15.235   1.174 -15.055  1.00  0.00     0.000 C 
BRANCH  16  17
ATOM     17  C   UNL     1     -14.933   2.684 -15.082  1.00  0.00     0.000 C 
BRANCH  17  18
ATOM     18  C   UNL     1     -13.442   2.993 -15.306  1.00  0.00    -0.000 C 
BRANCH  18  19
ATOM     19  C   UNL     1     -13.053   2.976 -16.793  1.00  0.00    -0.000 C 
BRANCH  19  20
ATOM     20  C   UNL     1     -13.768   4.062 -17.611  1.00  0.00    -0.000 C 
BRANCH  20  21
ATOM     21  C   UNL     1     -14.116   3.548 -19.016  1.00  0.00    -0.000 C 
BRANCH  21  22
ATOM     22  C   UNL     1     -13.929   2.028 -19.159  1.00  0.00    -0.000 C 
BRANCH  22  23
ATOM     23  C   UNL     1     -14.717   1.386 -20.317  1.00  0.00    -0.000 C 
BRANCH  23  24
ATOM     24  C   UNL     1     -14.281  -0.060 -20.636  1.00  0.00    -0.000 C 
BRANCH  24  25
ATOM     25  C   UNL     1     -13.200  -0.569 -19.671  1.00  0.00    -0.003 C 
ATOM     26  C   UNL     1     -13.804  -1.462 -18.590  1.00  0.00     0.004 C 
ENDBRANCH  24  25
ENDBRANCH  23  24
ENDBRANCH  22  23
ENDBRANCH  21  22
ENDBRANCH  20  21
ENDBRANCH  19  20
ENDBRANCH  18  19
ENDBRANCH  17  18
ENDBRANCH  16  17
ENDBRANCH  15  16
ENDBRANCH   1  15
TORSDOF 22
ENDMDL
MODEL 3
REMARK VINA RESULT:    -6.045      1.645      2.291
REMARK INTER + INTRA:         -17.056
REMARK INTER:                 -13.499
REMARK INTRA:                  -3.557
REMARK UNBOUND:                -3.236
REMARK SMILES CCCCCCCCCCCCCCCCCCCCCCCC(=O)[O-]
REMARK SMILES IDX 13 1 14 2 15 3 16 4 17 5 18 6 19 7 20 8 21 9 22 10 23 11
REMARK SMILES IDX 24 12 25 13 26 14 12 15 11 16 10 17 9 18 8 19 7 20 6 21 5 22
REMARK SMILES IDX 4 23 3 24 2 25 1 26
REMARK H PARENT
REMARK Flexibility Score: inf
ROOT
ATOM      1  C   UNL     1     -17.088  -1.144 -18.236  1.00  0.00     0.000 C 
ENDROOT
BRANCH   1   2
ATOM      2  C   UNL     1     -17.725   0.216 -17.916  1.00  0.00     0.000 C 
BRANCH   2   3
ATOM      3  C   UNL     1     -17.318   0.761 -16.535  1.00  0.00     0.000 C 
BRANCH   3   4
ATOM      4  C   UNL     1     -16.435  -0.178 -15.694  1.00  0.00     0.000 C 
BRANCH   4   5
ATOM      5  C   UNL     1     -17.164  -0.748 -14.466  1.00  0.00     0.000 C 
BRANCH   5   6
ATOM      6  C   UNL     1     -18.646  -0.336 -14.404  1.00  0.00     0.000 C 
BRANCH   6   7
ATOM      7  C   UNL     1     -19.656  -1.436 -14.793  1.00  0.00     0.000 C 
BRANCH   7   8
ATOM      8  C   UNL     1     -20.698  -1.021 -15.848  1.00  0.00     0.000 C 
BRANCH   8   9
ATOM      9  C   UNL     1     -20.965   0.494 -15.855  1.00  0.00     0.000 C 
BRANCH   9  10
ATOM     10  C   UNL     1     -22.466   0.836 -15.922  1.00  0.00     0.006 C 
BRANCH  10  11
ATOM     11  C   UNL     1     -22.752   2.326 -16.175  1.00  0.00     0.053 C 
BRANCH  11  12
ATOM     12  C   UNL     1     -24.041   2.553 -16.902  1.00  0.00     0.041 C 
ATOM     13  O   UNL     1     -24.988   1.729 -16.789  1.00  0.00    -0.550 OA
ATOM     14  O   UNL     1     -24.207   3.687 -17.689  1.00  0.00    -0.550 OA
ENDBRANCH  11  12
ENDBRANCH  10  11
ENDBRANCH   9  10
ENDBRANCH   8   9
ENDBRANCH   7   8
ENDBRANCH   6   7
ENDBRANCH   5   6
ENDBRANCH   4   5
ENDBRANCH   3   4
ENDBRANCH   2   3
ENDBRANCH   1   2
BRANCH   1  15
ATOM     15  C   UNL     1     -15.949  -0.991 -19.256  1.00  0.00     0.000 C 
BRANCH  15  16
ATOM     16  C   UNL     1     -14.551  -1.087 -18.615  1.00  0.00     0.000 C 
BRANCH  16  17
ATOM     17  C   UNL     1     -13.690   0.184 -18.729  1.00  0.00     0.000 C 
BRANCH  17  18
ATOM     18  C   UNL     1     -14.365   1.293 -19.555  1.00  0.00    -0.000 C 
BRANCH  18  19
ATOM     19  C   UNL     1     -14.635   2.562 -18.731  1.00  0.00    -0.000 C 
BRANCH  19  20
ATOM     20  C   UNL     1     -13.353   3.336 -18.389  1.00  0.00    -0.000 C 
BRANCH  20  21
ATOM     21  C   UNL     1     -13.118   3.362 -16.871  1.00  0.00    -0.000 C 
BRANCH  21  22
ATOM     22  C   UNL     1     -14.311   2.807 -16.074  1.00  0.00    -0.000 C 
BRANCH  22  23
ATOM     23  C   UNL     1     -14.040   2.588 -14.573  1.00  0.00    -0.000 C 
BRANCH  23  24
ATOM     24  C   UNL     1     -15.300   2.713 -13.690  1.00  0.00    -0.000 C 
BRANCH  24  25
ATOM     25  C   UNL     1     -15.288   1.725 -12.514  1.00  0.00    -0.003 C 
ATOM     26  C   UNL     1     -16.447   1.994 -11.558  1.00  0.00     0.004 C 
ENDBRANCH  24  25
ENDBRANCH  23  24
ENDBRANCH  22  23
ENDBRANCH  21  22
ENDBRANCH  20  21
ENDBRANCH  19  20
ENDBRANCH  18  19
ENDBRANCH  17  18
ENDBRANCH  16  17
ENDBRANCH  15  16
ENDBRANCH   1  15
TORSDOF 22
ENDMDL
MODEL 4
REMARK VINA RESULT:    -6.004      3.180      5.677
REMARK INTER + INTRA:         -16.961
REMARK INTER:                 -13.381
REMARK INTRA:                  -3.580
REMARK UNBOUND:                -3.236
REMARK SMILES CCCCCCCCCCCCCCCCCCCCCCCC(=O)[O-]
REMARK SMILES IDX 13 1 14 2 15 3 16 4 17 5 18 6 19 7 20 8 21 9 22 10 23 11
REMARK SMILES IDX 24 12 25 13 26 14 12 15 11 16 10 17 9 18 8 19 7 20 6 21 5 22
REMARK SMILES IDX 4 23 3 24 2 25 1 26
REMARK H PARENT
REMARK Flexibility Score: inf
ROOT
ATOM      1  C   UNL     1     -17.582   1.482 -17.088  1.00  0.00     0.000 C 
ENDROOT
BRANCH   1   2
ATOM      2  C   UNL     1     -18.707   0.442 -17.188  1.00  0.00     0.000 C 
BRANCH   2   3
ATOM      3  C   UNL     1     -19.869   0.717 -16.216  1.00  0.00     0.000 C 
BRANCH   3   4
ATOM      4  C   UNL     1     -20.614  -0.534 -15.714  1.00  0.00     0.000 C 
BRANCH   4   5
ATOM      5  C   UNL     1     -19.673  -1.716 -15.424  1.00  0.00     0.000 C 
BRANCH   5   6
ATOM      6  C   UNL     1     -19.311  -1.843 -13.934  1.00  0.00     0.000 C 
BRANCH   6   7
ATOM      7  C   UNL     1     -18.030  -1.101 -13.498  1.00  0.00     0.000 C 
BRANCH   7   8
ATOM      8  C   UNL     1     -18.258   0.296 -12.894  1.00  0.00     0.000 C 
BRANCH   8   9
ATOM      9  C   UNL     1     -17.779   0.398 -11.436  1.00  0.00     0.000 C 
BRANCH   9  10
ATOM     10  C   UNL     1     -17.269   1.806 -11.071  1.00  0.00     0.006 C 
BRANCH  10  11
ATOM     11  C   UNL     1     -15.737   1.938 -11.102  1.00  0.00     0.053 C 
BRANCH  11  12
ATOM     12  C   UNL     1     -15.192   2.018 -12.495  1.00  0.00     0.041 C 
ATOM     13  O   UNL     1     -14.617   1.021 -13.010  1.00  0.00    -0.550 OA
ATOM     14  O   UNL     1     -15.336   3.185 -13.235  1.00  0.00    -0.550 OA
ENDBRANCH  11  12
ENDBRANCH  10  11
ENDBRANCH   9  10
ENDBRANCH   8   9
ENDBRANCH   7   8
ENDBRANCH   6   7
ENDBRANCH   5   6
ENDBRANCH   4   5
ENDBRANCH   3   4
ENDBRANCH   2   3
ENDBRANCH   1   2
BRANCH   1  15
ATOM     15  C   UNL     1     -16.596   1.119 -15.967  1.00  0.00     0.000 C 
BRANCH  15  16
ATOM     16  C   UNL     1     -15.153   1.566 -16.266  1.00  0.00     0.000 C 
BRANCH  16  17
ATOM     17  C   UNL     1     -15.012   3.000 -16.809  1.00  0.00     0.000 C 
BRANCH  17  18
ATOM     18  C   UNL     1     -13.801   3.172 -17.742  1.00  0.00    -0.000 C 
BRANCH  18  19
ATOM     19  C   UNL     1     -13.719   2.070 -18.811  1.00  0.00    -0.000 C 
BRANCH  19  20
ATOM     20  C   UNL     1     -14.605   2.356 -20.033  1.00  0.00    -0.000 C 
BRANCH  20  21
ATOM     21  C   UNL     1     -15.342   1.085 -20.484  1.00  0.00    -0.000 C 
BRANCH  21  22
ATOM     22  C   UNL     1     -14.768  -0.193 -19.850  1.00  0.00    -0.000 C 
BRANCH  22  23
ATOM     23  C   UNL     1     -15.787  -1.035 -19.058  1.00  0.00    -0.000 C 
BRANCH  23  24
ATOM     24  C   UNL     1     -15.145  -1.924 -17.972  1.00  0.00    -0.000 C 
BRANCH  24  25
ATOM     25  C   UNL     1     -16.059  -2.102 -16.750  1.00  0.00    -0.003 C 
ATOM     26  C   UNL     1     -17.370  -2.780 -17.137  1.00  0.00     0.004 C 
ENDBRANCH  24  25
ENDBRANCH  23  24
ENDBRANCH  22  23
ENDBRANCH  21  22
ENDBRANCH  20  21
ENDBRANCH  19  20
ENDBRANCH  18  19
ENDBRANCH  17  18
ENDBRANCH  16  17
ENDBRANCH  15  16
ENDBRANCH   1  15
TORSDOF 22
ENDMDL
MODEL 5
REMARK VINA RESULT:    -5.972      1.361      1.705
REMARK INTER + INTRA:         -16.888
REMARK INTER:                 -14.064
REMARK INTRA:                  -2.824
REMARK UNBOUND:                -3.236
REMARK SMILES CCCCCCCCCCCCCCCCCCCCCCCC(=O)[O-]
REMARK SMILES IDX 13 1 14 2 15 3 16 4 17 5 18 6 19 7 20 8 21 9 22 10 23 11
REMARK SMILES IDX 24 12 25 13 26 14 12 15 11 16 10 17 9 18 8 19 7 20 6 21 5 22
REMARK SMILES IDX 4 23 3 24 2 25 1 26
REMARK H PARENT
REMARK Flexibility Score: inf
ROOT
ATOM      1  C   UNL     1     -16.932  -1.187 -19.077  1.00  0.00     0.000 C 
ENDROOT
BRANCH   1   2
ATOM      2  C   UNL     1     -17.973  -0.109 -18.743  1.00  0.00     0.000 C 
BRANCH   2   3
ATOM      3  C   UNL     1     -17.464   0.924 -17.722  1.00  0.00     0.000 C 
BRANCH   3   4
ATOM      4  C   UNL     1     -17.871   0.658 -16.262  1.00  0.00     0.000 C 
BRANCH   4   5
ATOM      5  C   UNL     1     -16.985  -0.395 -15.575  1.00  0.00     0.000 C 
BRANCH   5   6
ATOM      6  C   UNL     1     -17.453  -0.734 -14.148  1.00  0.00     0.000 C 
BRANCH   6   7
ATOM      7  C   UNL     1     -18.918  -1.204 -14.026  1.00  0.00     0.000 C 
BRANCH   7   8
ATOM      8  C   UNL     1     -19.385  -2.174 -15.126  1.00  0.00     0.000 C 
BRANCH   8   9
ATOM      9  C   UNL     1     -20.897  -2.078 -15.398  1.00  0.00     0.000 C 
BRANCH   9  10
ATOM     10  C   UNL     1     -21.327  -0.685 -15.897  1.00  0.00     0.006 C 
BRANCH  10  11
ATOM     11  C   UNL     1     -22.852  -0.486 -15.940  1.00  0.00     0.053 C 
BRANCH  11  12
ATOM     12  C   UNL     1     -23.252   0.950 -15.801  1.00  0.00     0.041 C 
ATOM     13  O   UNL     1     -22.573   1.855 -16.356  1.00  0.00    -0.550 OA
ATOM     14  O   UNL     1     -24.389   1.290 -15.077  1.00  0.00    -0.550 OA
ENDBRANCH  11  12
ENDBRANCH  10  11
ENDBRANCH   9  10
ENDBRANCH   8   9
ENDBRANCH   7   8
ENDBRANCH   6   7
ENDBRANCH   5   6
ENDBRANCH   4   5
ENDBRANCH   3   4
ENDBRANCH   2   3
ENDBRANCH   1   2
BRANCH   1  15
ATOM     15  C   UNL     1     -15.531  -0.571 -19.221  1.00  0.00     0.000 C 
BRANCH  15  16
ATOM     16  C   UNL     1     -15.399   0.338 -20.458  1.00  0.00     0.000 C 
BRANCH  16  17
ATOM     17  C   UNL     1     -14.706   1.690 -20.205  1.00  0.00     0.000 C 
BRANCH  17  18
ATOM     18  C   UNL     1     -13.991   1.751 -18.844  1.00  0.00    -0.000 C 
BRANCH  18  19
ATOM     19  C   UNL     1     -13.482   3.162 -18.507  1.00  0.00    -0.000 C 
BRANCH  19  20
ATOM     20  C   UNL     1     -13.491   3.457 -17.000  1.00  0.00    -0.000 C 
BRANCH  20  21
ATOM     21  C   UNL     1     -14.828   3.038 -16.369  1.00  0.00    -0.000 C 
BRANCH  21  22
ATOM     22  C   UNL     1     -14.653   2.061 -15.194  1.00  0.00    -0.000 C 
BRANCH  22  23
ATOM     23  C   UNL     1     -14.694   2.714 -13.798  1.00  0.00    -0.000 C 
BRANCH  23  24
ATOM     24  C   UNL     1     -16.019   2.479 -13.043  1.00  0.00    -0.000 C 
BRANCH  24  25
ATOM     25  C   UNL     1     -15.799   1.827 -11.669  1.00  0.00    -0.003 C 
ATOM     26  C   UNL     1     -17.124   1.409 -11.039  1.00  0.00     0.004 C 
ENDBRANCH  24  25
ENDBRANCH  23  24
ENDBRANCH  22  23
ENDBRANCH  21  22
ENDBRANCH  20  21
ENDBRANCH  19  20
ENDBRANCH  18  19
ENDBRANCH  17  18
ENDBRANCH  16  17
ENDBRANCH  15  16
ENDBRANCH   1  15
TORSDOF 22
ENDMDL
MODEL 6
REMARK VINA RESULT:    -5.818      3.282      7.341
REMARK INTER + INTRA:         -16.537
REMARK INTER:                 -13.468
REMARK INTRA:                  -3.069
REMARK UNBOUND:                -3.236
REMARK SMILES CCCCCCCCCCCCCCCCCCCCCCCC(=O)[O-]
REMARK SMILES IDX 13 1 14 2 15 3 16 4 17 5 18 6 19 7 20 8 21 9 22 10 23 11
REMARK SMILES IDX 24 12 25 13 26 14 12 15 11 16 10 17 9 18 8 19 7 20 6 21 5 22
REMARK SMILES IDX 4 23 3 24 2 25 1 26
REMARK H PARENT
REMARK Flexibility Score: inf
ROOT
ATOM      1  C   UNL     1     -18.025   1.006 -11.683  1.00  0.00     0.000 C 
ENDROOT
BRANCH   1   2
ATOM      2  C   UNL     1     -16.755   1.025 -10.820  1.00  0.00     0.000 C 
BRANCH   2   3
ATOM      3  C   UNL     1     -15.499   1.444 -11.607  1.00  0.00     0.000 C 
BRANCH   3   4
ATOM      4  C   UNL     1     -15.509   2.890 -12.135  1.00  0.00     0.000 C 
BRANCH   4   5
ATOM      5  C   UNL     1     -15.368   2.972 -13.664  1.00  0.00     0.000 C 
BRANCH   5   6
ATOM      6  C   UNL     1     -14.161   2.180 -14.198  1.00  0.00     0.000 C 
BRANCH   6   7
ATOM      7  C   UNL     1     -13.918   2.289 -15.718  1.00  0.00     0.000 C 
BRANCH   7   8
ATOM      8  C   UNL     1     -15.015   3.031 -16.503  1.00  0.00     0.000 C 
BRANCH   8   9
ATOM      9  C   UNL     1     -14.470   3.751 -17.748  1.00  0.00     0.000 C 
BRANCH   9  10
ATOM     10  C   UNL     1     -13.942   2.775 -18.819  1.00  0.00     0.006 C 
BRANCH  10  11
ATOM     11  C   UNL     1     -14.941   1.667 -19.194  1.00  0.00     0.053 C 
BRANCH  11  12
ATOM     12  C   UNL     1     -14.285   0.332 -19.367  1.00  0.00     0.041 C 
ATOM     13  O   UNL     1     -13.553  -0.140 -18.456  1.00  0.00    -0.550 OA
ATOM     14  O   UNL     1     -14.499  -0.404 -20.527  1.00  0.00    -0.550 OA
ENDBRANCH  11  12
ENDBRANCH  10  11
ENDBRANCH   9  10
ENDBRANCH   8   9
ENDBRANCH   7   8
ENDBRANCH   6   7
ENDBRANCH   5   6
ENDBRANCH   4   5
ENDBRANCH   3   4
ENDBRANCH   2   3
ENDBRANCH   1   2
BRANCH   1  15
ATOM     15  C   UNL     1     -18.014  -0.191 -12.648  1.00  0.00     0.000 C 
BRANCH  15  16
ATOM     16  C   UNL     1     -17.780   0.221 -14.114  1.00  0.00     0.000 C 
BRANCH  16  17
ATOM     17  C   UNL     1     -16.504  -0.350 -14.758  1.00  0.00     0.000 C 
BRANCH  17  18
ATOM     18  C   UNL     1     -16.563  -0.365 -16.295  1.00  0.00    -0.000 C 
BRANCH  18  19
ATOM     19  C   UNL     1     -16.270  -1.754 -16.884  1.00  0.00    -0.000 C 
BRANCH  19  20
ATOM     20  C   UNL     1     -17.461  -2.718 -16.763  1.00  0.00    -0.000 C 
BRANCH  20  21
ATOM     21  C   UNL     1     -18.791  -1.948 -16.782  1.00  0.00    -0.000 C 
BRANCH  21  22
ATOM     22  C   UNL     1     -19.654  -2.220 -15.538  1.00  0.00    -0.000 C 
BRANCH  22  23
ATOM     23  C   UNL     1     -21.067  -1.606 -15.585  1.00  0.00    -0.000 C 
BRANCH  23  24
ATOM     24  C   UNL     1     -21.075  -0.091 -15.880  1.00  0.00    -0.000 C 
BRANCH  24  25
ATOM     25  C   UNL     1     -22.496   0.494 -15.885  1.00  0.00    -0.003 C 
ATOM     26  C   UNL     1     -22.466   2.009 -16.065  1.00  0.00     0.004 C 
ENDBRANCH  24  25
ENDBRANCH  23  24
ENDBRANCH  22  23
ENDBRANCH  21  22
ENDBRANCH  20  21
ENDBRANCH  19  20
ENDBRANCH  18  19
ENDBRANCH  17  18
ENDBRANCH  16  17
ENDBRANCH  15  16
ENDBRANCH   1  15
TORSDOF 22
ENDMDL
MODEL 7
REMARK VINA RESULT:    -5.802      1.470      2.568
REMARK INTER + INTRA:         -16.501
REMARK INTER:                 -13.245
REMARK INTRA:                  -3.256
REMARK UNBOUND:                -3.236
REMARK SMILES CCCCCCCCCCCCCCCCCCCCCCCC(=O)[O-]
REMARK SMILES IDX 13 1 14 2 15 3 16 4 17 5 18 6 19 7 20 8 21 9 22 10 23 11
REMARK SMILES IDX 24 12 25 13 26 14 12 15 11 16 10 17 9 18 8 19 7 20 6 21 5 22
REMARK SMILES IDX 4 23 3 24 2 25 1 26
REMARK H PARENT
REMARK Flexibility Score: inf
ROOT
ATOM      1  C   UNL     1     -17.327   0.780 -17.382  1.00  0.00     0.000 C 
ENDROOT
BRANCH   1   2
ATOM      2  C   UNL     1     -16.250   0.034 -16.581  1.00  0.00     0.000 C 
BRANCH   2   3
ATOM      3  C   UNL     1     -16.838  -0.918 -15.523  1.00  0.00     0.000 C 
BRANCH   3   4
ATOM      4  C   UNL     1     -17.447  -0.229 -14.289  1.00  0.00     0.000 C 
BRANCH   4   5
ATOM      5  C   UNL     1     -18.864  -0.731 -13.960  1.00  0.00     0.000 C 
BRANCH   5   6
ATOM      6  C   UNL     1     -19.508  -1.511 -15.121  1.00  0.00     0.000 C 
BRANCH   6   7
ATOM      7  C   UNL     1     -20.804  -0.896 -15.692  1.00  0.00     0.000 C 
BRANCH   7   8
ATOM      8  C   UNL     1     -20.670   0.549 -16.203  1.00  0.00     0.000 C 
BRANCH   8   9
ATOM      9  C   UNL     1     -21.914   1.403 -15.901  1.00  0.00     0.000 C 
BRANCH   9  10
ATOM     10  C   UNL     1     -23.232   0.624 -16.085  1.00  0.00     0.006 C 
BRANCH  10  11
ATOM     11  C   UNL     1     -24.471   1.369 -15.559  1.00  0.00     0.053 C 
BRANCH  11  12
ATOM     12  C   UNL     1     -25.351   0.502 -14.712  1.00  0.00     0.041 C 
ATOM     13  O   UNL     1     -26.291   1.010 -14.045  1.00  0.00    -0.550 OA
ATOM     14  O   UNL     1     -25.147  -0.873 -14.675  1.00  0.00    -0.550 OA
ENDBRANCH  11  12
ENDBRANCH  10  11
ENDBRANCH   9  10
ENDBRANCH   8   9
ENDBRANCH   7   8
ENDBRANCH   6   7
ENDBRANCH   5   6
ENDBRANCH   4   5
ENDBRANCH   3   4
ENDBRANCH   2   3
ENDBRANCH   1   2
BRANCH   1  15
ATOM     15  C   UNL     1     -17.717  -0.008 -18.643  1.00  0.00     0.000 C 
BRANCH  15  16
ATOM     16  C   UNL     1     -16.550  -0.827 -19.225  1.00  0.00     0.000 C 
BRANCH  16  17
ATOM     17  C   UNL     1     -15.638  -0.063 -20.202  1.00  0.00     0.000 C 
BRANCH  17  18
ATOM     18  C   UNL     1     -14.143  -0.222 -19.875  1.00  0.00    -0.000 C 
BRANCH  18  19
ATOM     19  C   UNL     1     -13.639   0.841 -18.885  1.00  0.00    -0.000 C 
BRANCH  19  20
ATOM     20  C   UNL     1     -14.307   2.209 -19.086  1.00  0.00    -0.000 C 
BRANCH  20  21
ATOM     21  C   UNL     1     -13.434   3.334 -18.508  1.00  0.00    -0.000 C 
BRANCH  21  22
ATOM     22  C   UNL     1     -14.135   4.117 -17.386  1.00  0.00    -0.000 C 
BRANCH  22  23
ATOM     23  C   UNL     1     -14.764   3.243 -16.283  1.00  0.00    -0.000 C 
BRANCH  23  24
ATOM     24  C   UNL     1     -13.733   2.641 -15.305  1.00  0.00    -0.000 C 
BRANCH  24  25
ATOM     25  C   UNL     1     -14.401   1.961 -14.100  1.00  0.00    -0.003 C 
ATOM     26  C   UNL     1     -15.456   2.867 -13.472  1.00  0.00     0.004 C 
ENDBRANCH  24  25
ENDBRANCH  23  24
ENDBRANCH  22  23
ENDBRANCH  21  22
ENDBRANCH  20  21
ENDBRANCH  19  20
ENDBRANCH  18  19
ENDBRANCH  17  18
ENDBRANCH  16  17
ENDBRANCH  15  16
ENDBRANCH   1  15
TORSDOF 22
ENDMDL
MODEL 8
REMARK VINA RESULT:    -5.800      2.552      6.948
REMARK INTER + INTRA:         -16.496
REMARK INTER:                 -13.996
REMARK INTRA:                  -2.499
REMARK UNBOUND:                -3.236
REMARK SMILES CCCCCCCCCCCCCCCCCCCCCCCC(=O)[O-]
REMARK SMILES IDX 13 1 14 2 15 3 16 4 17 5 18 6 19 7 20 8 21 9 22 10 23 11
REMARK SMILES IDX 24 12 25 13 26 14 12 15 11 16 10 17 9 18 8 19 7 20 6 21 5 22
REMARK SMILES IDX 4 23 3 24 2 25 1 26
REMARK H PARENT
REMARK Flexibility Score: inf
ROOT
ATOM      1  C   UNL     1     -14.206   2.458 -14.563  1.00  0.00     0.000 C 
ENDROOT
BRANCH   1   2
ATOM      2  C   UNL     1     -14.384   2.560 -16.084  1.00  0.00     0.000 C 
BRANCH   2   3
ATOM      3  C   UNL     1     -13.127   3.085 -16.803  1.00  0.00     0.000 C 
BRANCH   3   4
ATOM      4  C   UNL     1     -13.369   3.659 -18.211  1.00  0.00     0.000 C 
BRANCH   4   5
ATOM      5  C   UNL     1     -14.146   2.697 -19.125  1.00  0.00     0.000 C 
BRANCH   5   6
ATOM      6  C   UNL     1     -13.623   1.251 -19.058  1.00  0.00     0.000 C 
BRANCH   6   7
ATOM      7  C   UNL     1     -14.448   0.211 -19.846  1.00  0.00     0.000 C 
BRANCH   7   8
ATOM      8  C   UNL     1     -15.910   0.608 -20.117  1.00  0.00     0.000 C 
BRANCH   8   9
ATOM      9  C   UNL     1     -16.914  -0.264 -19.343  1.00  0.00     0.000 C 
BRANCH   9  10
ATOM     10  C   UNL     1     -17.216   0.281 -17.933  1.00  0.00     0.006 C 
BRANCH  10  11
ATOM     11  C   UNL     1     -16.431  -0.424 -16.814  1.00  0.00     0.053 C 
BRANCH  11  12
ATOM     12  C   UNL     1     -16.274  -1.894 -17.055  1.00  0.00     0.041 C 
ATOM     13  O   UNL     1     -17.228  -2.682 -16.820  1.00  0.00    -0.550 OA
ATOM     14  O   UNL     1     -15.079  -2.393 -17.561  1.00  0.00    -0.550 OA
ENDBRANCH  11  12
ENDBRANCH  10  11
ENDBRANCH   9  10
ENDBRANCH   8   9
ENDBRANCH   7   8
ENDBRANCH   6   7
ENDBRANCH   5   6
ENDBRANCH   4   5
ENDBRANCH   3   4
ENDBRANCH   2   3
ENDBRANCH   1   2
BRANCH   1  15
ATOM     15  C   UNL     1     -15.565   2.509 -13.847  1.00  0.00     0.000 C 
BRANCH  15  16
ATOM     16  C   UNL     1     -15.453   2.948 -12.374  1.00  0.00     0.000 C 
BRANCH  16  17
ATOM     17  C   UNL     1     -15.882   1.889 -11.342  1.00  0.00     0.000 C 
BRANCH  17  18
ATOM     18  C   UNL     1     -17.388   1.582 -11.389  1.00  0.00    -0.000 C 
BRANCH  18  19
ATOM     19  C   UNL     1     -17.681   0.091 -11.618  1.00  0.00    -0.000 C 
BRANCH  19  20
ATOM     20  C   UNL     1     -17.293  -0.384 -13.027  1.00  0.00    -0.000 C 
BRANCH  20  21
ATOM     21  C   UNL     1     -18.473  -1.092 -13.709  1.00  0.00    -0.000 C 
BRANCH  21  22
ATOM     22  C   UNL     1     -19.199  -0.196 -14.727  1.00  0.00    -0.000 C 
BRANCH  22  23
ATOM     23  C   UNL     1     -19.920  -0.955 -15.858  1.00  0.00    -0.000 C 
BRANCH  23  24
ATOM     24  C   UNL     1     -20.818  -2.106 -15.358  1.00  0.00    -0.000 C 
BRANCH  24  25
ATOM     25  C   UNL     1     -22.281  -1.936 -15.798  1.00  0.00    -0.003 C 
ATOM     26  C   UNL     1     -22.664  -0.462 -15.877  1.00  0.00     0.004 C 
ENDBRANCH  24  25
ENDBRANCH  23  24
ENDBRANCH  22  23
ENDBRANCH  21  22
ENDBRANCH  20  21
ENDBRANCH  19  20
ENDBRANCH  18  19
ENDBRANCH  17  18
ENDBRANCH  16  17
ENDBRANCH  15  16
ENDBRANCH   1  15
TORSDOF 22
ENDMDL
MODEL 9
REMARK VINA RESULT:    -5.717      1.699      2.459
REMARK INTER + INTRA:         -16.305
REMARK INTER:                 -13.571
REMARK INTRA:                  -2.734
REMARK UNBOUND:                -3.236
REMARK SMILES CCCCCCCCCCCCCCCCCCCCCCCC(=O)[O-]
REMARK SMILES IDX 13 1 14 2 15 3 16 4 17 5 18 6 19 7 20 8 21 9 22 10 23 11
REMARK SMILES IDX 24 12 25 13 26 14 12 15 11 16 10 17 9 18 8 19 7 20 6 21 5 22
REMARK SMILES IDX 4 23 3 24 2 25 1 26
REMARK H PARENT
REMARK Flexibility Score: inf
ROOT
ATOM      1  C   UNL     1     -15.276  -1.162 -17.860  1.00  0.00     0.000 C 
ENDROOT
BRANCH   1   2
ATOM      2  C   UNL     1     -16.296  -1.484 -18.962  1.00  0.00     0.000 C 
BRANCH   2   3
ATOM      3  C   UNL     1     -17.730  -1.059 -18.597  1.00  0.00     0.000 C 
BRANCH   3   4
ATOM      4  C   UNL     1     -17.926   0.449 -18.356  1.00  0.00     0.000 C 
BRANCH   4   5
ATOM      5  C   UNL     1     -18.623   0.757 -17.020  1.00  0.00     0.000 C 
BRANCH   5   6
ATOM      6  C   UNL     1     -18.585  -0.427 -16.036  1.00  0.00     0.000 C 
BRANCH   6   7
ATOM      7  C   UNL     1     -19.961  -0.925 -15.546  1.00  0.00     0.000 C 
BRANCH   7   8
ATOM      8  C   UNL     1     -21.145  -0.000 -15.877  1.00  0.00     0.000 C 
BRANCH   8   9
ATOM      9  C   UNL     1     -22.493  -0.742 -15.886  1.00  0.00     0.000 C 
BRANCH   9  10
ATOM     10  C   UNL     1     -23.694   0.198 -15.663  1.00  0.00     0.006 C 
BRANCH  10  11
ATOM     11  C   UNL     1     -23.479   1.620 -16.211  1.00  0.00     0.053 C 
BRANCH  11  12
ATOM     12  C   UNL     1     -24.578   2.060 -17.128  1.00  0.00     0.041 C 
ATOM     13  O   UNL     1     -24.872   3.281 -17.227  1.00  0.00    -0.550 OA
ATOM     14  O   UNL     1     -25.266   1.123 -17.891  1.00  0.00    -0.550 OA
ENDBRANCH  11  12
ENDBRANCH  10  11
ENDBRANCH   9  10
ENDBRANCH   8   9
ENDBRANCH   7   8
ENDBRANCH   6   7
ENDBRANCH   5   6
ENDBRANCH   4   5
ENDBRANCH   3   4
ENDBRANCH   2   3
ENDBRANCH   1   2
BRANCH   1  15
ATOM     15  C   UNL     1     -13.972  -0.617 -18.462  1.00  0.00     0.000 C 
BRANCH  15  16
ATOM     16  C   UNL     1     -14.211   0.398 -19.596  1.00  0.00     0.000 C 
BRANCH  16  17
ATOM     17  C   UNL     1     -14.559   1.825 -19.134  1.00  0.00     0.000 C 
BRANCH  17  18
ATOM     18  C   UNL     1     -13.478   2.443 -18.231  1.00  0.00    -0.000 C 
BRANCH  18  19
ATOM     19  C   UNL     1     -13.864   2.416 -16.743  1.00  0.00    -0.000 C 
BRANCH  19  20
ATOM     20  C   UNL     1     -15.343   2.751 -16.503  1.00  0.00    -0.000 C 
BRANCH  20  21
ATOM     21  C   UNL     1     -15.870   2.036 -15.250  1.00  0.00    -0.000 C 
BRANCH  21  22
ATOM     22  C   UNL     1     -15.161   2.489 -13.963  1.00  0.00    -0.000 C 
BRANCH  22  23
ATOM     23  C   UNL     1     -15.040   1.403 -12.875  1.00  0.00    -0.000 C 
BRANCH  23  24
ATOM     24  C   UNL     1     -15.639   1.818 -11.515  1.00  0.00    -0.000 C 
BRANCH  24  25
ATOM     25  C   UNL     1     -16.871   0.981 -11.141  1.00  0.00    -0.003 C 
ATOM     26  C   UNL     1     -17.515   0.366 -12.380  1.00  0.00     0.004 C 
ENDBRANCH  24  25
ENDBRANCH  23  24
ENDBRANCH  22  23
ENDBRANCH  21  22
ENDBRANCH  20  21
ENDBRANCH  19  20
ENDBRANCH  18  19
ENDBRANCH  17  18
ENDBRANCH  16  17
ENDBRANCH  15  16
ENDBRANCH   1  15
TORSDOF 22
ENDMDL
