MODEL 1
REMARK VINA RESULT:    -3.876      0.000      0.000
REMARK INTER + INTRA:          -4.915
REMARK INTER:                  -4.783
REMARK INTRA:                  -0.132
REMARK UNBOUND:                -0.132
REMARK SMILES CCCCCC(=O)[O-]
REMARK SMILES IDX 4 1 5 2 6 3 7 4 8 5 3 6 2 7 1 8
REMARK H PARENT
REMARK Flexibility Score: inf
ROOT
ATOM      1  C   UNL     1       1.541 -28.199  -0.265  1.00  0.00     0.006 C 
ENDROOT
BRANCH   1   2
ATOM      2  C   UNL     1       1.858 -26.895  -1.005  1.00  0.00     0.053 C 
BRANCH   2   3
ATOM      3  C   UNL     1       2.797 -27.152  -2.140  1.00  0.00     0.041 C 
ATOM      4  O   UNL     1       3.958 -27.586  -1.916  1.00  0.00    -0.550 OA
ATOM      5  O   UNL     1       2.375 -26.959  -3.449  1.00  0.00    -0.550 OA
ENDBRANCH   2   3
ENDBRANCH   1   2
BRANCH   1   6
ATOM      6  C   UNL     1       1.910 -28.092   1.220  1.00  0.00     0.000 C 
BRANCH   6   7
ATOM      7  C   UNL     1       3.227 -28.819   1.511  1.00  0.00    -0.003 C 
ATOM      8  C   UNL     1       3.335 -29.194   2.986  1.00  0.00     0.004 C 
ENDBRANCH   6   7
ENDBRANCH   1   6
TORSDOF 4
ENDMDL
MODEL 2
REMARK VINA RESULT:    -3.838      4.408      5.745
REMARK INTER + INTRA:          -4.867
REMARK INTER:                  -4.783
REMARK INTRA:                  -0.084
REMARK UNBOUND:                -0.132
REMARK SMILES CCCCCC(=O)[O-]
REMARK SMILES IDX 4 1 5 2 6 3 7 4 8 5 3 6 2 7 1 8
REMARK H PARENT
REMARK Flexibility Score: inf
ROOT
ATOM      1  C   UNL     1       2.885 -28.957   2.470  1.00  0.00     0.006 C 
ENDROOT
BRANCH   1   2
ATOM      2  C   UNL     1       3.871 -29.505   3.508  1.00  0.00     0.053 C 
BRANCH   2   3
ATOM      3  C   UNL     1       3.138 -30.018   4.706  1.00  0.00     0.041 C 
ATOM      4  O   UNL     1       2.676 -31.189   4.713  1.00  0.00    -0.550 OA
ATOM      5  O   UNL     1       3.010 -29.221   5.836  1.00  0.00    -0.550 OA
ENDBRANCH   2   3
ENDBRANCH   1   2
BRANCH   1   6
ATOM      6  C   UNL     1       3.544 -28.849   1.090  1.00  0.00     0.000 C 
BRANCH   6   7
ATOM      7  C   UNL     1       2.583 -28.228   0.070  1.00  0.00    -0.003 C 
ATOM      8  C   UNL     1       1.360 -27.629   0.759  1.00  0.00     0.004 C 
ENDBRANCH   6   7
ENDBRANCH   1   6
TORSDOF 4
ENDMDL
MODEL 3
REMARK VINA RESULT:    -3.800      5.182      6.577
REMARK INTER + INTRA:          -4.821
REMARK INTER:                  -4.737
REMARK INTRA:                  -0.083
REMARK UNBOUND:                -0.132
REMARK SMILES CCCCCC(=O)[O-]
REMARK SMILES IDX 4 1 5 2 6 3 7 4 8 5 3 6 2 7 1 8
REMARK H PARENT
REMARK Flexibility Score: inf
ROOT
ATOM      1  C   UNL     1       3.399 -29.231   3.767  1.00  0.00     0.006 C 
ENDROOT
BRANCH   1   2
ATOM      2  C   UNL     1       3.742 -30.001   5.046  1.00  0.00     0.053 C 
BRANCH   2   3
ATOM      3  C   UNL     1       2.612 -29.926   6.023  1.00  0.00     0.041 C 
ATOM      4  O   UNL     1       2.457 -28.899   6.734  1.00  0.00    -0.550 OA
ATOM      5  O   UNL     1       1.700 -30.969   6.112  1.00  0.00    -0.550 OA
ENDBRANCH   2   3
ENDBRANCH   1   2
BRANCH   1   6
ATOM      6  C   UNL     1       4.310 -29.654   2.609  1.00  0.00     0.000 C 
BRANCH   6   7
ATOM      7  C   UNL     1       3.770 -29.142   1.269  1.00  0.00    -0.003 C 
ATOM      8  C   UNL     1       2.450 -28.398   1.455  1.00  0.00     0.004 C 
ENDBRANCH   6   7
ENDBRANCH   1   6
TORSDOF 4
ENDMDL
MODEL 4
REMARK VINA RESULT:    -3.760      2.634      3.192
REMARK INTER + INTRA:          -4.771
REMARK INTER:                  -4.649
REMARK INTRA:                  -0.122
REMARK UNBOUND:                -0.132
REMARK SMILES CCCCCC(=O)[O-]
REMARK SMILES IDX 4 1 5 2 6 3 7 4 8 5 3 6 2 7 1 8
REMARK H PARENT
REMARK Flexibility Score: inf
ROOT
ATOM      1  C   UNL     1       1.574 -27.051  -1.023  1.00  0.00     0.006 C 
ENDROOT
BRANCH   1   2
ATOM      2  C   UNL     1       0.686 -26.304  -0.023  1.00  0.00     0.053 C 
BRANCH   2   3
ATOM      3  C   UNL     1      -0.609 -25.913  -0.661  1.00  0.00     0.041 C 
ATOM      4  O   UNL     1      -0.635 -25.533  -1.861  1.00  0.00    -0.550 OA
ATOM      5  O   UNL     1      -1.796 -26.017   0.053  1.00  0.00    -0.550 OA
ENDBRANCH   2   3
ENDBRANCH   1   2
BRANCH   1   6
ATOM      6  C   UNL     1       2.525 -28.014  -0.302  1.00  0.00     0.000 C 
BRANCH   6   7
ATOM      7  C   UNL     1       1.998 -28.362   1.095  1.00  0.00    -0.003 C 
ATOM      8  C   UNL     1       3.136 -28.771   2.026  1.00  0.00     0.004 C 
ENDBRANCH   6   7
ENDBRANCH   1   6
TORSDOF 4
ENDMDL
MODEL 5
REMARK VINA RESULT:    -3.755      5.548      6.494
REMARK INTER + INTRA:          -4.765
REMARK INTER:                  -4.633
REMARK INTRA:                  -0.132
REMARK UNBOUND:                -0.132
REMARK SMILES CCCCCC(=O)[O-]
REMARK SMILES IDX 4 1 5 2 6 3 7 4 8 5 3 6 2 7 1 8
REMARK H PARENT
REMARK Flexibility Score: inf
ROOT
ATOM      1  C   UNL     1      -2.128 -24.022  -0.223  1.00  0.00     0.006 C 
ENDROOT
BRANCH   1   2
ATOM      2  C   UNL     1      -1.470 -25.095  -1.095  1.00  0.00     0.053 C 
BRANCH   2   3
ATOM      3  C   UNL     1      -0.869 -26.168  -0.243  1.00  0.00     0.041 C 
ATOM      4  O   UNL     1       0.381 -26.258  -0.124  1.00  0.00    -0.550 OA
ATOM      5  O   UNL     1      -1.692 -27.037   0.461  1.00  0.00    -0.550 OA
ENDBRANCH   2   3
ENDBRANCH   1   2
BRANCH   1   6
ATOM      6  C   UNL     1      -3.650 -24.202  -0.183  1.00  0.00     0.000 C 
BRANCH   6   7
ATOM      7  C   UNL     1      -4.132 -24.482   1.245  1.00  0.00    -0.003 C 
ATOM      8  C   UNL     1      -4.857 -23.273   1.829  1.00  0.00     0.004 C 
ENDBRANCH   6   7
ENDBRANCH   1   6
TORSDOF 4
ENDMDL
MODEL 6
REMARK VINA RESULT:    -3.753      6.239      7.164
REMARK INTER + INTRA:          -4.763
REMARK INTER:                  -4.619
REMARK INTRA:                  -0.144
REMARK UNBOUND:                -0.132
REMARK SMILES CCCCCC(=O)[O-]
REMARK SMILES IDX 4 1 5 2 6 3 7 4 8 5 3 6 2 7 1 8
REMARK H PARENT
REMARK Flexibility Score: inf
ROOT
ATOM      1  C   UNL     1      -3.341 -25.555   0.421  1.00  0.00     0.006 C 
ENDROOT
BRANCH   1   2
ATOM      2  C   UNL     1      -2.287 -24.528  -0.004  1.00  0.00     0.053 C 
BRANCH   2   3
ATOM      3  C   UNL     1      -1.981 -24.662  -1.462  1.00  0.00     0.041 C 
ATOM      4  O   UNL     1      -2.679 -24.053  -2.315  1.00  0.00    -0.550 OA
ATOM      5  O   UNL     1      -0.894 -25.421  -1.877  1.00  0.00    -0.550 OA
ENDBRANCH   2   3
ENDBRANCH   1   2
BRANCH   1   6
ATOM      6  C   UNL     1      -4.649 -24.866   0.826  1.00  0.00     0.000 C 
BRANCH   6   7
ATOM      7  C   UNL     1      -4.375 -23.501   1.468  1.00  0.00    -0.003 C 
ATOM      8  C   UNL     1      -5.457 -23.142   2.482  1.00  0.00     0.004 C 
ENDBRANCH   6   7
ENDBRANCH   1   6
TORSDOF 4
ENDMDL
MODEL 7
REMARK VINA RESULT:    -3.656      5.850      6.775
REMARK INTER + INTRA:          -4.643
REMARK INTER:                  -4.475
REMARK INTRA:                  -0.168
REMARK UNBOUND:                -0.132
REMARK SMILES CCCCCC(=O)[O-]
REMARK SMILES IDX 4 1 5 2 6 3 7 4 8 5 3 6 2 7 1 8
REMARK H PARENT
REMARK Flexibility Score: inf
ROOT
ATOM      1  C   UNL     1      -2.462 -24.419  -1.210  1.00  0.00     0.006 C 
ENDROOT
BRANCH   1   2
ATOM      2  C   UNL     1      -2.405 -23.681   0.131  1.00  0.00     0.053 C 
BRANCH   2   3
ATOM      3  C   UNL     1      -3.675 -23.882   0.894  1.00  0.00     0.041 C 
ATOM      4  O   UNL     1      -4.155 -25.037   1.035  1.00  0.00    -0.550 OA
ATOM      5  O   UNL     1      -4.304 -22.798   1.493  1.00  0.00    -0.550 OA
ENDBRANCH   2   3
ENDBRANCH   1   2
BRANCH   1   6
ATOM      6  C   UNL     1      -1.177 -25.220  -1.452  1.00  0.00     0.000 C 
BRANCH   6   7
ATOM      7  C   UNL     1      -0.887 -26.162  -0.278  1.00  0.00    -0.003 C 
ATOM      8  C   UNL     1       0.562 -26.639  -0.298  1.00  0.00     0.004 C 
ENDBRANCH   6   7
ENDBRANCH   1   6
TORSDOF 4
ENDMDL
MODEL 8
REMARK VINA RESULT:    -3.632      3.644      4.576
REMARK INTER + INTRA:          -4.613
REMARK INTER:                  -4.529
REMARK INTRA:                  -0.085
REMARK UNBOUND:                -0.132
REMARK SMILES CCCCCC(=O)[O-]
REMARK SMILES IDX 4 1 5 2 6 3 7 4 8 5 3 6 2 7 1 8
REMARK H PARENT
REMARK Flexibility Score: inf
ROOT
ATOM      1  C   UNL     1       0.125 -26.235  -0.623  1.00  0.00     0.006 C 
ENDROOT
BRANCH   1   2
ATOM      2  C   UNL     1      -1.332 -25.894  -0.294  1.00  0.00     0.053 C 
BRANCH   2   3
ATOM      3  C   UNL     1      -1.657 -24.501  -0.734  1.00  0.00     0.041 C 
ATOM      4  O   UNL     1      -2.196 -24.300  -1.853  1.00  0.00    -0.550 OA
ATOM      5  O   UNL     1      -1.410 -23.430   0.115  1.00  0.00    -0.550 OA
ENDBRANCH   2   3
ENDBRANCH   1   2
BRANCH   1   6
ATOM      6  C   UNL     1       0.656 -27.331   0.307  1.00  0.00     0.000 C 
BRANCH   6   7
ATOM      7  C   UNL     1       2.002 -27.869  -0.191  1.00  0.00    -0.003 C 
ATOM      8  C   UNL     1       2.473 -27.115  -1.431  1.00  0.00     0.004 C 
ENDBRANCH   6   7
ENDBRANCH   1   6
TORSDOF 4
ENDMDL
MODEL 9
REMARK VINA RESULT:    -3.596      6.725      7.688
REMARK INTER + INTRA:          -4.569
REMARK INTER:                  -4.408
REMARK INTRA:                  -0.161
REMARK UNBOUND:                -0.132
REMARK SMILES CCCCCC(=O)[O-]
REMARK SMILES IDX 4 1 5 2 6 3 7 4 8 5 3 6 2 7 1 8
REMARK H PARENT
REMARK Flexibility Score: inf
ROOT
ATOM      1  C   UNL     1      -3.707 -25.257  -0.336  1.00  0.00     0.006 C 
ENDROOT
BRANCH   1   2
ATOM      2  C   UNL     1      -4.758 -24.951   0.735  1.00  0.00     0.053 C 
BRANCH   2   3
ATOM      3  C   UNL     1      -4.438 -23.668   1.433  1.00  0.00     0.041 C 
ATOM      4  O   UNL     1      -5.196 -23.233   2.339  1.00  0.00    -0.550 OA
ATOM      5  O   UNL     1      -3.274 -22.978   1.119  1.00  0.00    -0.550 OA
ENDBRANCH   2   3
ENDBRANCH   1   2
BRANCH   1   6
ATOM      6  C   UNL     1      -2.611 -26.176   0.216  1.00  0.00     0.000 C 
BRANCH   6   7
ATOM      7  C   UNL     1      -1.241 -25.809  -0.367  1.00  0.00    -0.003 C 
ATOM      8  C   UNL     1      -1.376 -24.787  -1.491  1.00  0.00     0.004 C 
ENDBRANCH   6   7
ENDBRANCH   1   6
TORSDOF 4
ENDMDL
