MODEL 1
REMARK VINA RESULT:    -6.335      0.000      0.000
REMARK INTER + INTRA:          -7.120
REMARK INTER:                  -7.076
REMARK INTRA:                  -0.044
REMARK UNBOUND:                -0.044
REMARK SMILES O=C([O-])c1ccc(O)c(O)c1
REMARK SMILES IDX 4 1 11 2 5 3 9 4 6 5 7 6 2 7 1 8 3 9 10 10 8 12
REMARK H PARENT 10 11 8 13
REMARK Flexibility Score: inf
ROOT
ATOM      1  C   UNL     1      33.845  26.014  18.345  1.00  0.00     0.001 A 
ATOM      2  C   UNL     1      33.292  27.271  18.052  1.00  0.00     0.060 A 
ATOM      3  C   UNL     1      34.020  25.089  17.303  1.00  0.00     0.014 A 
ATOM      4  C   UNL     1      32.918  27.608  16.745  1.00  0.00     0.158 A 
ATOM      5  C   UNL     1      33.650  25.415  15.998  1.00  0.00     0.051 A 
ATOM      6  C   UNL     1      33.099  26.667  15.704  1.00  0.00     0.157 A 
ENDROOT
BRANCH   1   7
ATOM      7  C   UNL     1      34.237  25.673  19.730  1.00  0.00     0.072 C 
ATOM      8  O   UNL     1      34.803  24.577  19.985  1.00  0.00    -0.545 OA
ATOM      9  O   UNL     1      33.982  26.558  20.772  1.00  0.00    -0.545 OA
ENDBRANCH   1   7
BRANCH   4  10
ATOM     10  O   UNL     1      32.375  28.876  16.528  1.00  0.00    -0.504 OA
ATOM     11  H   UNL     1      32.613  29.466  15.743  1.00  0.00     0.293 HD
ENDBRANCH   4  10
BRANCH   6  12
ATOM     12  O   UNL     1      32.750  26.931  14.378  1.00  0.00    -0.504 OA
ATOM     13  H   UNL     1      32.783  26.244  13.638  1.00  0.00     0.293 HD
ENDBRANCH   6  12
TORSDOF 3
ENDMDL
MODEL 2
REMARK VINA RESULT:    -6.047      2.174      4.173
REMARK INTER + INTRA:          -6.798
REMARK INTER:                  -6.759
REMARK INTRA:                  -0.039
REMARK UNBOUND:                -0.044
REMARK SMILES O=C([O-])c1ccc(O)c(O)c1
REMARK SMILES IDX 4 1 11 2 5 3 9 4 6 5 7 6 2 7 1 8 3 9 10 10 8 12
REMARK H PARENT 10 11 8 13
REMARK Flexibility Score: inf
ROOT
ATOM      1  C   UNL     1      33.916  25.420  18.710  1.00  0.00     0.001 A 
ATOM      2  C   UNL     1      33.164  26.594  18.874  1.00  0.00     0.060 A 
ATOM      3  C   UNL     1      34.766  25.006  19.748  1.00  0.00     0.014 A 
ATOM      4  C   UNL     1      33.251  27.349  20.052  1.00  0.00     0.158 A 
ATOM      5  C   UNL     1      34.859  25.750  20.925  1.00  0.00     0.051 A 
ATOM      6  C   UNL     1      34.111  26.921  21.090  1.00  0.00     0.157 A 
ENDROOT
BRANCH   1   7
ATOM      7  C   UNL     1      33.813  24.634  17.460  1.00  0.00     0.072 C 
ATOM      8  O   UNL     1      33.635  23.388  17.501  1.00  0.00    -0.545 OA
ATOM      9  O   UNL     1      33.913  25.261  16.223  1.00  0.00    -0.545 OA
ENDBRANCH   1   7
BRANCH   4  10
ATOM     10  O   UNL     1      32.473  28.504  20.145  1.00  0.00    -0.504 OA
ATOM     11  H   UNL     1      31.502  28.511  20.422  1.00  0.00     0.293 HD
ENDBRANCH   4  10
BRANCH   6  12
ATOM     12  O   UNL     1      34.250  27.619  22.292  1.00  0.00    -0.504 OA
ATOM     13  H   UNL     1      33.544  27.645  23.015  1.00  0.00     0.293 HD
ENDBRANCH   6  12
TORSDOF 3
ENDMDL
MODEL 3
REMARK VINA RESULT:    -5.961      2.017      4.438
REMARK INTER + INTRA:          -6.702
REMARK INTER:                  -6.662
REMARK INTRA:                  -0.040
REMARK UNBOUND:                -0.044
REMARK SMILES O=C([O-])c1ccc(O)c(O)c1
REMARK SMILES IDX 4 1 11 2 5 3 9 4 6 5 7 6 2 7 1 8 3 9 10 10 8 12
REMARK H PARENT 10 11 8 13
REMARK Flexibility Score: inf
ROOT
ATOM      1  C   UNL     1      33.740  25.569  18.380  1.00  0.00     0.001 A 
ATOM      2  C   UNL     1      34.466  25.264  19.543  1.00  0.00     0.060 A 
ATOM      3  C   UNL     1      33.021  26.773  18.324  1.00  0.00     0.014 A 
ATOM      4  C   UNL     1      34.480  26.140  20.636  1.00  0.00     0.158 A 
ATOM      5  C   UNL     1      33.029  27.653  19.407  1.00  0.00     0.051 A 
ATOM      6  C   UNL     1      33.751  27.351  20.567  1.00  0.00     0.157 A 
ENDROOT
BRANCH   1   7
ATOM      7  C   UNL     1      33.735  24.633  17.234  1.00  0.00     0.072 C 
ATOM      8  O   UNL     1      33.653  23.390  17.422  1.00  0.00    -0.545 OA
ATOM      9  O   UNL     1      33.823  25.113  15.932  1.00  0.00    -0.545 OA
ENDBRANCH   1   7
BRANCH   4  10
ATOM     10  O   UNL     1      35.224  25.772  21.758  1.00  0.00    -0.504 OA
ATOM     11  H   UNL     1      35.386  24.815  22.040  1.00  0.00     0.293 HD
ENDBRANCH   4  10
BRANCH   6  12
ATOM     12  O   UNL     1      33.717  28.274  21.615  1.00  0.00    -0.504 OA
ATOM     13  H   UNL     1      34.527  28.776  21.951  1.00  0.00     0.293 HD
ENDBRANCH   6  12
TORSDOF 3
ENDMDL
MODEL 4
REMARK VINA RESULT:    -5.949      1.226      4.513
REMARK INTER + INTRA:          -6.689
REMARK INTER:                  -6.645
REMARK INTRA:                  -0.044
REMARK UNBOUND:                -0.044
REMARK SMILES O=C([O-])c1ccc(O)c(O)c1
REMARK SMILES IDX 4 1 11 2 5 3 9 4 6 5 7 6 2 7 1 8 3 9 10 10 8 12
REMARK H PARENT 10 11 8 13
REMARK Flexibility Score: inf
ROOT
ATOM      1  C   UNL     1      33.228  26.598  16.780  1.00  0.00     0.001 A 
ATOM      2  C   UNL     1      33.394  25.221  16.556  1.00  0.00     0.060 A 
ATOM      3  C   UNL     1      33.485  27.113  18.061  1.00  0.00     0.014 A 
ATOM      4  C   UNL     1      33.809  24.367  17.586  1.00  0.00     0.158 A 
ATOM      5  C   UNL     1      33.899  26.270  19.093  1.00  0.00     0.051 A 
ATOM      6  C   UNL     1      34.064  24.898  18.872  1.00  0.00     0.157 A 
ENDROOT
BRANCH   1   7
ATOM      7  C   UNL     1      32.790  27.487  15.682  1.00  0.00     0.072 C 
ATOM      8  O   UNL     1      32.429  27.008  14.575  1.00  0.00    -0.545 OA
ATOM      9  O   UNL     1      32.773  28.867  15.858  1.00  0.00    -0.545 OA
ENDBRANCH   1   7
BRANCH   4  10
ATOM     10  O   UNL     1      33.952  23.010  17.289  1.00  0.00    -0.504 OA
ATOM     11  H   UNL     1      34.545  22.377  17.808  1.00  0.00     0.293 HD
ENDBRANCH   4  10
BRANCH   6  12
ATOM     12  O   UNL     1      34.480  24.110  19.946  1.00  0.00    -0.504 OA
ATOM     13  H   UNL     1      34.523  24.435  20.902  1.00  0.00     0.293 HD
ENDBRANCH   6  12
TORSDOF 3
ENDMDL
MODEL 5
REMARK VINA RESULT:    -5.943      1.504      2.708
REMARK INTER + INTRA:          -6.682
REMARK INTER:                  -6.639
REMARK INTRA:                  -0.044
REMARK UNBOUND:                -0.044
REMARK SMILES O=C([O-])c1ccc(O)c(O)c1
REMARK SMILES IDX 4 1 11 2 5 3 9 4 6 5 7 6 2 7 1 8 3 9 10 10 8 12
REMARK H PARENT 10 11 8 13
REMARK Flexibility Score: inf
ROOT
ATOM      1  C   UNL     1      33.780  26.463  19.456  1.00  0.00     0.001 A 
ATOM      2  C   UNL     1      33.964  25.184  18.906  1.00  0.00     0.060 A 
ATOM      3  C   UNL     1      33.348  27.506  18.621  1.00  0.00     0.014 A 
ATOM      4  C   UNL     1      33.723  24.941  17.548  1.00  0.00     0.158 A 
ATOM      5  C   UNL     1      33.105  27.274  17.267  1.00  0.00     0.051 A 
ATOM      6  C   UNL     1      33.288  26.000  16.717  1.00  0.00     0.157 A 
ENDROOT
BRANCH   1   7
ATOM      7  C   UNL     1      34.039  26.705  20.893  1.00  0.00     0.072 C 
ATOM      8  O   UNL     1      33.567  27.722  21.466  1.00  0.00    -0.545 OA
ATOM      9  O   UNL     1      34.808  25.811  21.630  1.00  0.00    -0.545 OA
ENDBRANCH   1   7
BRANCH   4  10
ATOM     10  O   UNL     1      33.926  23.644  17.071  1.00  0.00    -0.504 OA
ATOM     11  H   UNL     1      33.574  23.305  16.187  1.00  0.00     0.293 HD
ENDBRANCH   4  10
BRANCH   6  12
ATOM     12  O   UNL     1      33.027  25.834  15.355  1.00  0.00    -0.504 OA
ATOM     13  H   UNL     1      32.998  26.593  14.689  1.00  0.00     0.293 HD
ENDBRANCH   6  12
TORSDOF 3
ENDMDL
MODEL 6
REMARK VINA RESULT:    -5.907      0.741      4.122
REMARK INTER + INTRA:          -6.642
REMARK INTER:                  -6.598
REMARK INTRA:                  -0.043
REMARK UNBOUND:                -0.044
REMARK SMILES O=C([O-])c1ccc(O)c(O)c1
REMARK SMILES IDX 4 1 11 2 5 3 9 4 6 5 7 6 2 7 1 8 3 9 10 10 8 12
REMARK H PARENT 10 11 8 13
REMARK Flexibility Score: inf
ROOT
ATOM      1  C   UNL     1      33.256  26.634  16.768  1.00  0.00     0.001 A 
ATOM      2  C   UNL     1      33.303  27.150  18.074  1.00  0.00     0.060 A 
ATOM      3  C   UNL     1      33.640  25.302  16.550  1.00  0.00     0.014 A 
ATOM      4  C   UNL     1      33.724  26.356  19.149  1.00  0.00     0.158 A 
ATOM      5  C   UNL     1      34.061  24.503  17.614  1.00  0.00     0.051 A 
ATOM      6  C   UNL     1      34.108  25.014  18.915  1.00  0.00     0.157 A 
ENDROOT
BRANCH   1   7
ATOM      7  C   UNL     1      32.808  27.485  15.644  1.00  0.00     0.072 C 
ATOM      8  O   UNL     1      32.394  26.966  14.573  1.00  0.00    -0.545 OA
ATOM      9  O   UNL     1      32.840  28.871  15.753  1.00  0.00    -0.545 OA
ENDBRANCH   1   7
BRANCH   4  10
ATOM     10  O   UNL     1      33.744  26.935  20.419  1.00  0.00    -0.504 OA
ATOM     11  H   UNL     1      33.004  26.833  21.098  1.00  0.00     0.293 HD
ENDBRANCH   4  10
BRANCH   6  12
ATOM     12  O   UNL     1      34.538  24.163  19.935  1.00  0.00    -0.504 OA
ATOM     13  H   UNL     1      35.110  23.344  19.783  1.00  0.00     0.293 HD
ENDBRANCH   6  12
TORSDOF 3
ENDMDL
MODEL 7
REMARK VINA RESULT:    -5.899      1.853      2.686
REMARK INTER + INTRA:          -6.633
REMARK INTER:                  -6.591
REMARK INTRA:                  -0.042
REMARK UNBOUND:                -0.044
REMARK SMILES O=C([O-])c1ccc(O)c(O)c1
REMARK SMILES IDX 4 1 11 2 5 3 9 4 6 5 7 6 2 7 1 8 3 9 10 10 8 12
REMARK H PARENT 10 11 8 13
REMARK Flexibility Score: inf
ROOT
ATOM      1  C   UNL     1      33.809  27.024  19.893  1.00  0.00     0.001 A 
ATOM      2  C   UNL     1      33.381  27.461  18.628  1.00  0.00     0.060 A 
ATOM      3  C   UNL     1      34.300  25.716  20.029  1.00  0.00     0.014 A 
ATOM      4  C   UNL     1      33.441  26.615  17.514  1.00  0.00     0.158 A 
ATOM      5  C   UNL     1      34.364  24.865  18.925  1.00  0.00     0.051 A 
ATOM      6  C   UNL     1      33.938  25.299  17.664  1.00  0.00     0.157 A 
ENDROOT
BRANCH   1   7
ATOM      7  C   UNL     1      33.740  27.930  21.061  1.00  0.00     0.072 C 
ATOM      8  O   UNL     1      33.806  29.178  20.907  1.00  0.00    -0.545 OA
ATOM      9  O   UNL     1      33.601  27.415  22.345  1.00  0.00    -0.545 OA
ENDBRANCH   1   7
BRANCH   4  10
ATOM     10  O   UNL     1      32.999  27.118  16.288  1.00  0.00    -0.504 OA
ATOM     11  H   UNL     1      32.897  28.102  16.085  1.00  0.00     0.293 HD
ENDBRANCH   4  10
BRANCH   6  12
ATOM     12  O   UNL     1      34.028  24.399  16.600  1.00  0.00    -0.504 OA
ATOM     13  H   UNL     1      34.514  23.515  16.649  1.00  0.00     0.293 HD
ENDBRANCH   6  12
TORSDOF 3
ENDMDL
MODEL 8
REMARK VINA RESULT:    -5.890      1.572      3.976
REMARK INTER + INTRA:          -6.623
REMARK INTER:                  -6.580
REMARK INTRA:                  -0.042
REMARK UNBOUND:                -0.044
REMARK SMILES O=C([O-])c1ccc(O)c(O)c1
REMARK SMILES IDX 4 1 11 2 5 3 9 4 6 5 7 6 2 7 1 8 3 9 10 10 8 12
REMARK H PARENT 10 11 8 13
REMARK Flexibility Score: inf
ROOT
ATOM      1  C   UNL     1      33.292  26.647  17.169  1.00  0.00     0.001 A 
ATOM      2  C   UNL     1      32.927  27.949  17.551  1.00  0.00     0.060 A 
ATOM      3  C   UNL     1      33.672  25.729  18.160  1.00  0.00     0.014 A 
ATOM      4  C   UNL     1      32.937  28.335  18.898  1.00  0.00     0.158 A 
ATOM      5  C   UNL     1      33.684  26.104  19.505  1.00  0.00     0.051 A 
ATOM      6  C   UNL     1      33.321  27.399  19.887  1.00  0.00     0.157 A 
ENDROOT
BRANCH   1   7
ATOM      7  C   UNL     1      33.277  26.254  15.742  1.00  0.00     0.072 C 
ATOM      8  O   UNL     1      34.025  25.331  15.324  1.00  0.00    -0.545 OA
ATOM      9  O   UNL     1      32.436  26.900  14.843  1.00  0.00    -0.545 OA
ENDBRANCH   1   7
BRANCH   4  10
ATOM     10  O   UNL     1      32.562  29.644  19.204  1.00  0.00    -0.504 OA
ATOM     11  H   UNL     1      32.177  30.293  18.532  1.00  0.00     0.293 HD
ENDBRANCH   4  10
BRANCH   6  12
ATOM     12  O   UNL     1      33.355  27.711  21.248  1.00  0.00    -0.504 OA
ATOM     13  H   UNL     1      34.082  28.261  21.684  1.00  0.00     0.293 HD
ENDBRANCH   6  12
TORSDOF 3
ENDMDL
MODEL 9
REMARK VINA RESULT:    -5.879      1.085      2.468
REMARK INTER + INTRA:          -6.611
REMARK INTER:                  -6.568
REMARK INTRA:                  -0.042
REMARK UNBOUND:                -0.044
REMARK SMILES O=C([O-])c1ccc(O)c(O)c1
REMARK SMILES IDX 4 1 11 2 5 3 9 4 6 5 7 6 2 7 1 8 3 9 10 10 8 12
REMARK H PARENT 10 11 8 13
REMARK Flexibility Score: inf
ROOT
ATOM      1  C   UNL     1      33.549  25.812  17.878  1.00  0.00     0.001 A 
ATOM      2  C   UNL     1      33.391  25.921  16.487  1.00  0.00     0.060 A 
ATOM      3  C   UNL     1      33.309  26.938  18.680  1.00  0.00     0.014 A 
ATOM      4  C   UNL     1      32.998  27.131  15.898  1.00  0.00     0.158 A 
ATOM      5  C   UNL     1      32.917  28.147  18.104  1.00  0.00     0.051 A 
ATOM      6  C   UNL     1      32.759  28.259  16.718  1.00  0.00     0.157 A 
ENDROOT
BRANCH   1   7
ATOM      7  C   UNL     1      33.964  24.528  18.485  1.00  0.00     0.072 C 
ATOM      8  O   UNL     1      34.596  24.508  19.574  1.00  0.00    -0.545 OA
ATOM      9  O   UNL     1      33.662  23.323  17.859  1.00  0.00    -0.545 OA
ENDBRANCH   1   7
BRANCH   4  10
ATOM     10  O   UNL     1      32.860  27.166  14.509  1.00  0.00    -0.504 OA
ATOM     11  H   UNL     1      33.637  27.188  13.864  1.00  0.00     0.293 HD
ENDBRANCH   4  10
BRANCH   6  12
ATOM     12  O   UNL     1      32.365  29.496  16.204  1.00  0.00    -0.504 OA
ATOM     13  H   UNL     1      32.524  29.788  15.250  1.00  0.00     0.293 HD
ENDBRANCH   6  12
TORSDOF 3
ENDMDL
