MODEL 1
REMARK VINA RESULT:    -6.461      0.000      0.000
REMARK INTER + INTRA:          -7.078
REMARK INTER:                  -7.028
REMARK INTRA:                  -0.050
REMARK UNBOUND:                -0.050
REMARK SMILES CC1(C)[C@H]2CC=C(CO)[C@@H]1C2
REMARK SMILES IDX 8 1 7 2 1 3 2 4 4 5 3 6 10 7 5 8 11 9 6 10 9 11
REMARK H PARENT 9 12
REMARK Flexibility Score: inf
ROOT
ATOM      1  C   UNL     1      33.293  19.316  48.980  1.00  0.00     0.187 C 
ENDROOT
BRANCH   1   2
ATOM      2  C   UNL     1      32.015  19.219  49.765  1.00  0.00    -0.045 C 
ATOM      3  C   UNL     1      29.770  21.063  49.207  1.00  0.00     0.012 C 
ATOM      4  C   UNL     1      30.245  20.773  50.658  1.00  0.00    -0.026 C 
ATOM      5  C   UNL     1      29.778  19.461  51.347  1.00  0.00    -0.000 C 
ATOM      6  C   UNL     1      29.954  22.023  51.525  1.00  0.00     0.012 C 
ATOM      7  C   UNL     1      31.684  20.234  50.869  1.00  0.00     0.023 C 
ATOM      8  C   UNL     1      29.760  18.280  50.315  1.00  0.00     0.031 C 
ATOM      9  C   UNL     1      31.153  19.387  52.042  1.00  0.00     0.013 C 
ATOM     10  C   UNL     1      31.077  18.259  49.513  1.00  0.00    -0.025 C 
ENDBRANCH   1   2
BRANCH   1  11
ATOM     11  O   UNL     1      33.016  19.684  47.657  1.00  0.00    -0.392 OA
ATOM     12  H   UNL     1      33.863  20.036  47.277  1.00  0.00     0.211 HD
ENDBRANCH   1  11
TORSDOF 2
ENDMDL
MODEL 2
REMARK VINA RESULT:    -6.091      1.896      3.521
REMARK INTER + INTRA:          -6.674
REMARK INTER:                  -6.618
REMARK INTRA:                  -0.056
REMARK UNBOUND:                -0.050
REMARK SMILES CC1(C)[C@H]2CC=C(CO)[C@@H]1C2
REMARK SMILES IDX 8 1 7 2 1 3 2 4 4 5 3 6 10 7 5 8 11 9 6 10 9 11
REMARK H PARENT 9 12
REMARK Flexibility Score: inf
ROOT
ATOM      1  C   UNL     1      30.418  22.102  51.648  1.00  0.00     0.187 C 
ENDROOT
BRANCH   1   2
ATOM      2  C   UNL     1      30.252  20.902  50.759  1.00  0.00    -0.045 C 
ATOM      3  C   UNL     1      32.604  19.301  49.947  1.00  0.00     0.012 C 
ATOM      4  C   UNL     1      31.525  19.745  48.919  1.00  0.00    -0.026 C 
ATOM      5  C   UNL     1      30.200  18.938  48.834  1.00  0.00    -0.000 C 
ATOM      6  C   UNL     1      32.206  19.900  47.536  1.00  0.00     0.012 C 
ATOM      7  C   UNL     1      30.627  20.960  49.272  1.00  0.00     0.023 C 
ATOM      8  C   UNL     1      29.734  18.503  50.267  1.00  0.00     0.031 C 
ATOM      9  C   UNL     1      29.464  20.261  48.540  1.00  0.00     0.013 C 
ATOM     10  C   UNL     1      29.801  19.703  51.232  1.00  0.00    -0.025 C 
ENDBRANCH   1   2
BRANCH   1  11
ATOM     11  O   UNL     1      31.593  21.981  52.403  1.00  0.00    -0.392 OA
ATOM     12  H   UNL     1      32.268  22.568  51.972  1.00  0.00     0.211 HD
ENDBRANCH   1  11
TORSDOF 2
ENDMDL
MODEL 3
REMARK VINA RESULT:    -6.018      2.338      3.966
REMARK INTER + INTRA:          -6.595
REMARK INTER:                  -6.543
REMARK INTRA:                  -0.052
REMARK UNBOUND:                -0.050
REMARK SMILES CC1(C)[C@H]2CC=C(CO)[C@@H]1C2
REMARK SMILES IDX 8 1 7 2 1 3 2 4 4 5 3 6 10 7 5 8 11 9 6 10 9 11
REMARK H PARENT 9 12
REMARK Flexibility Score: inf
ROOT
ATOM      1  C   UNL     1      30.182  18.306  50.678  1.00  0.00     0.187 C 
ENDROOT
BRANCH   1   2
ATOM      2  C   UNL     1      31.150  18.615  49.571  1.00  0.00    -0.045 C 
ATOM      3  C   UNL     1      30.894  21.114  48.009  1.00  0.00     0.012 C 
ATOM      4  C   UNL     1      31.120  19.740  47.318  1.00  0.00    -0.026 C 
ATOM      5  C   UNL     1      32.560  19.158  47.273  1.00  0.00    -0.000 C 
ATOM      6  C   UNL     1      30.464  19.787  45.916  1.00  0.00     0.012 C 
ATOM      7  C   UNL     1      30.748  18.452  48.099  1.00  0.00     0.023 C 
ATOM      8  C   UNL     1      33.309  19.450  48.619  1.00  0.00     0.031 C 
ATOM      9  C   UNL     1      31.948  17.750  47.433  1.00  0.00     0.013 C 
ATOM     10  C   UNL     1      32.408  19.087  49.816  1.00  0.00    -0.025 C 
ENDBRANCH   1   2
BRANCH   1  11
ATOM     11  O   UNL     1      28.918  18.021  50.144  1.00  0.00    -0.392 OA
ATOM     12  H   UNL     1      28.317  18.758  50.431  1.00  0.00     0.211 HD
ENDBRANCH   1  11
TORSDOF 2
ENDMDL
MODEL 4
REMARK VINA RESULT:    -5.874      4.619      6.199
REMARK INTER + INTRA:          -6.438
REMARK INTER:                  -6.375
REMARK INTRA:                  -0.063
REMARK UNBOUND:                -0.050
REMARK SMILES CC1(C)[C@H]2CC=C(CO)[C@@H]1C2
REMARK SMILES IDX 8 1 7 2 1 3 2 4 4 5 3 6 10 7 5 8 11 9 6 10 9 11
REMARK H PARENT 9 12
REMARK Flexibility Score: inf
ROOT
ATOM      1  C   UNL     1      27.598  21.923  46.719  1.00  0.00     0.187 C 
ENDROOT
BRANCH   1   2
ATOM      2  C   UNL     1      28.852  22.121  45.915  1.00  0.00    -0.045 C 
ATOM      3  C   UNL     1      30.537  19.806  45.172  1.00  0.00     0.012 C 
ATOM      4  C   UNL     1      31.152  21.108  45.756  1.00  0.00    -0.026 C 
ATOM      5  C   UNL     1      31.362  22.322  44.809  1.00  0.00    -0.000 C 
ATOM      6  C   UNL     1      32.446  20.734  46.523  1.00  0.00     0.012 C 
ATOM      7  C   UNL     1      30.236  22.053  46.576  1.00  0.00     0.023 C 
ATOM      8  C   UNL     1      30.162  22.446  43.807  1.00  0.00     0.031 C 
ATOM      9  C   UNL     1      31.015  23.249  45.993  1.00  0.00     0.013 C 
ATOM     10  C   UNL     1      28.826  22.329  44.565  1.00  0.00    -0.025 C 
ENDBRANCH   1   2
BRANCH   1  11
ATOM     11  O   UNL     1      27.307  20.556  46.826  1.00  0.00    -0.392 OA
ATOM     12  H   UNL     1      28.174  20.092  46.965  1.00  0.00     0.211 HD
ENDBRANCH   1  11
TORSDOF 2
ENDMDL
MODEL 5
REMARK VINA RESULT:    -5.785      2.742      4.079
REMARK INTER + INTRA:          -6.342
REMARK INTER:                  -6.277
REMARK INTRA:                  -0.066
REMARK UNBOUND:                -0.050
REMARK SMILES CC1(C)[C@H]2CC=C(CO)[C@@H]1C2
REMARK SMILES IDX 8 1 7 2 1 3 2 4 4 5 3 6 10 7 5 8 11 9 6 10 9 11
REMARK H PARENT 9 12
REMARK Flexibility Score: inf
ROOT
ATOM      1  C   UNL     1      31.461  17.474  44.894  1.00  0.00     0.187 C 
ENDROOT
BRANCH   1   2
ATOM      2  C   UNL     1      31.222  18.381  46.069  1.00  0.00    -0.045 C 
ATOM      3  C   UNL     1      33.334  20.241  46.981  1.00  0.00     0.012 C 
ATOM      4  C   UNL     1      32.542  19.353  47.981  1.00  0.00    -0.026 C 
ATOM      5  C   UNL     1      31.122  19.807  48.418  1.00  0.00    -0.000 C 
ATOM      6  C   UNL     1      33.458  19.050  49.193  1.00  0.00     0.012 C 
ATOM      7  C   UNL     1      31.842  18.079  47.441  1.00  0.00     0.023 C 
ATOM      8  C   UNL     1      30.353  20.435  47.205  1.00  0.00     0.031 C 
ATOM      9  C   UNL     1      30.706  18.322  48.454  1.00  0.00     0.013 C 
ATOM     10  C   UNL     1      30.483  19.524  45.968  1.00  0.00    -0.025 C 
ENDBRANCH   1   2
BRANCH   1  11
ATOM     11  O   UNL     1      32.756  16.942  44.954  1.00  0.00    -0.392 OA
ATOM     12  H   UNL     1      33.303  17.452  44.301  1.00  0.00     0.211 HD
ENDBRANCH   1  11
TORSDOF 2
ENDMDL
MODEL 6
REMARK VINA RESULT:    -5.616      3.674      4.638
REMARK INTER + INTRA:          -6.158
REMARK INTER:                  -6.118
REMARK INTRA:                  -0.041
REMARK UNBOUND:                -0.050
REMARK SMILES CC1(C)[C@H]2CC=C(CO)[C@@H]1C2
REMARK SMILES IDX 8 1 7 2 1 3 2 4 4 5 3 6 10 7 5 8 11 9 6 10 9 11
REMARK H PARENT 9 12
REMARK Flexibility Score: inf
ROOT
ATOM      1  C   UNL     1      32.815  18.329  43.683  1.00  0.00     0.187 C 
ENDROOT
BRANCH   1   2
ATOM      2  C   UNL     1      32.364  18.617  45.087  1.00  0.00    -0.045 C 
ATOM      3  C   UNL     1      29.864  20.120  45.580  1.00  0.00     0.012 C 
ATOM      4  C   UNL     1      31.181  20.459  46.332  1.00  0.00    -0.026 C 
ATOM      5  C   UNL     1      31.594  19.581  47.545  1.00  0.00    -0.000 C 
ATOM      6  C   UNL     1      31.166  21.969  46.680  1.00  0.00     0.012 C 
ATOM      7  C   UNL     1      32.526  20.015  45.700  1.00  0.00     0.023 C 
ATOM      8  C   UNL     1      31.259  18.075  47.267  1.00  0.00     0.031 C 
ATOM      9  C   UNL     1      33.066  19.767  47.122  1.00  0.00     0.013 C 
ATOM     10  C   UNL     1      31.759  17.672  45.866  1.00  0.00    -0.025 C 
ENDBRANCH   1   2
BRANCH   1  11
ATOM     11  O   UNL     1      31.742  17.839  42.926  1.00  0.00    -0.392 OA
ATOM     12  H   UNL     1      31.506  16.953  43.308  1.00  0.00     0.211 HD
ENDBRANCH   1  11
TORSDOF 2
ENDMDL
MODEL 7
REMARK VINA RESULT:    -5.610      4.300      5.690
REMARK INTER + INTRA:          -6.151
REMARK INTER:                  -6.108
REMARK INTRA:                  -0.043
REMARK UNBOUND:                -0.050
REMARK SMILES CC1(C)[C@H]2CC=C(CO)[C@@H]1C2
REMARK SMILES IDX 8 1 7 2 1 3 2 4 4 5 3 6 10 7 5 8 11 9 6 10 9 11
REMARK H PARENT 9 12
REMARK Flexibility Score: inf
ROOT
ATOM      1  C   UNL     1      31.064  19.081  44.732  1.00  0.00     0.187 C 
ENDROOT
BRANCH   1   2
ATOM      2  C   UNL     1      30.994  20.515  45.176  1.00  0.00    -0.045 C 
ATOM      3  C   UNL     1      29.065  21.347  47.259  1.00  0.00     0.012 C 
ATOM      4  C   UNL     1      29.241  22.153  45.942  1.00  0.00    -0.026 C 
ATOM      5  C   UNL     1      30.443  23.131  45.823  1.00  0.00    -0.000 C 
ATOM      6  C   UNL     1      27.894  22.840  45.609  1.00  0.00     0.012 C 
ATOM      7  C   UNL     1      29.854  21.433  44.713  1.00  0.00     0.023 C 
ATOM      8  C   UNL     1      31.717  22.514  46.499  1.00  0.00     0.031 C 
ATOM      9  C   UNL     1      30.541  22.759  44.329  1.00  0.00     0.013 C 
ATOM     10  C   UNL     1      31.908  21.057  46.034  1.00  0.00    -0.025 C 
ENDBRANCH   1   2
BRANCH   1  11
ATOM     11  O   UNL     1      30.495  18.945  43.458  1.00  0.00    -0.392 OA
ATOM     12  H   UNL     1      29.768  18.275  43.543  1.00  0.00     0.211 HD
ENDBRANCH   1  11
TORSDOF 2
ENDMDL
MODEL 8
REMARK VINA RESULT:    -5.602      4.368      5.967
REMARK INTER + INTRA:          -6.143
REMARK INTER:                  -6.084
REMARK INTRA:                  -0.059
REMARK UNBOUND:                -0.050
REMARK SMILES CC1(C)[C@H]2CC=C(CO)[C@@H]1C2
REMARK SMILES IDX 8 1 7 2 1 3 2 4 4 5 3 6 10 7 5 8 11 9 6 10 9 11
REMARK H PARENT 9 12
REMARK Flexibility Score: inf
ROOT
ATOM      1  C   UNL     1      29.503  20.102  43.346  1.00  0.00     0.187 C 
ENDROOT
BRANCH   1   2
ATOM      2  C   UNL     1      30.023  21.223  44.202  1.00  0.00    -0.045 C 
ATOM      3  C   UNL     1      32.141  20.722  46.205  1.00  0.00     0.012 C 
ATOM      4  C   UNL     1      30.870  21.546  46.552  1.00  0.00    -0.026 C 
ATOM      5  C   UNL     1      30.806  23.036  46.116  1.00  0.00    -0.000 C 
ATOM      6  C   UNL     1      30.570  21.364  48.060  1.00  0.00     0.012 C 
ATOM      7  C   UNL     1      29.606  21.355  45.673  1.00  0.00     0.023 C 
ATOM      8  C   UNL     1      31.451  23.218  44.699  1.00  0.00     0.031 C 
ATOM      9  C   UNL     1      29.295  22.852  45.867  1.00  0.00     0.013 C 
ATOM     10  C   UNL     1      30.911  22.147  43.730  1.00  0.00    -0.025 C 
ENDBRANCH   1   2
BRANCH   1  11
ATOM     11  O   UNL     1      30.423  19.045  43.329  1.00  0.00    -0.392 OA
ATOM     12  H   UNL     1      30.278  18.558  42.477  1.00  0.00     0.211 HD
ENDBRANCH   1  11
TORSDOF 2
ENDMDL
MODEL 9
REMARK VINA RESULT:    -5.594      2.145      3.352
REMARK INTER + INTRA:          -6.134
REMARK INTER:                  -6.111
REMARK INTRA:                  -0.024
REMARK UNBOUND:                -0.050
REMARK SMILES CC1(C)[C@H]2CC=C(CO)[C@@H]1C2
REMARK SMILES IDX 8 1 7 2 1 3 2 4 4 5 3 6 10 7 5 8 11 9 6 10 9 11
REMARK H PARENT 9 12
REMARK Flexibility Score: inf
ROOT
ATOM      1  C   UNL     1      30.437  21.513  47.498  1.00  0.00     0.187 C 
ENDROOT
BRANCH   1   2
ATOM      2  C   UNL     1      31.124  20.207  47.788  1.00  0.00    -0.045 C 
ATOM      3  C   UNL     1      29.844  18.197  49.540  1.00  0.00     0.012 C 
ATOM      4  C   UNL     1      31.338  18.591  49.707  1.00  0.00    -0.026 C 
ATOM      5  C   UNL     1      32.386  17.960  48.749  1.00  0.00    -0.000 C 
ATOM      6  C   UNL     1      31.725  18.411  51.196  1.00  0.00     0.012 C 
ATOM      7  C   UNL     1      31.809  19.955  49.138  1.00  0.00     0.023 C 
ATOM      8  C   UNL     1      31.800  17.847  47.298  1.00  0.00     0.031 C 
ATOM      9  C   UNL     1      33.157  19.297  48.784  1.00  0.00     0.013 C 
ATOM     10  C   UNL     1      31.140  19.179  46.890  1.00  0.00    -0.025 C 
ENDBRANCH   1   2
BRANCH   1  11
ATOM     11  O   UNL     1      29.500  21.344  46.471  1.00  0.00    -0.392 OA
ATOM     12  H   UNL     1      29.002  22.200  46.399  1.00  0.00     0.211 HD
ENDBRANCH   1  11
TORSDOF 2
ENDMDL
