MODEL 1
REMARK VINA RESULT:    -4.390      0.000      0.000
REMARK INTER + INTRA:          -4.671
REMARK INTER:                  -4.647
REMARK INTRA:                  -0.024
REMARK UNBOUND:                -0.024
REMARK SMILES O=C([O-])c1cccnc1
REMARK SMILES IDX 4 1 5 2 9 3 6 4 8 5 7 6 2 7 1 8 3 9
REMARK H PARENT
REMARK Flexibility Score: inf
ROOT
ATOM      1  C   UNL     1      -5.100 -22.039  49.489  1.00  0.00     0.016 A 
ATOM      2  C   UNL     1      -5.650 -23.072  48.711  1.00  0.00     0.013 A 
ATOM      3  C   UNL     1      -3.957 -22.318  50.258  1.00  0.00     0.120 A 
ATOM      4  C   UNL     1      -5.063 -24.339  48.712  1.00  0.00     0.021 A 
ATOM      5  N   UNL     1      -3.406 -23.561  50.242  1.00  0.00    -0.264 NA
ATOM      6  C   UNL     1      -3.929 -24.568  49.493  1.00  0.00     0.111 A 
ENDROOT
BRANCH   1   7
ATOM      7  C   UNL     1      -5.705 -20.690  49.501  1.00  0.00     0.073 C 
ATOM      8  O   UNL     1      -6.676 -20.417  48.745  1.00  0.00    -0.545 OA
ATOM      9  O   UNL     1      -5.212 -19.704  50.348  1.00  0.00    -0.545 OA
ENDBRANCH   1   7
TORSDOF 1
ENDMDL
MODEL 2
REMARK VINA RESULT:    -4.256      2.899      3.691
REMARK INTER + INTRA:          -4.529
REMARK INTER:                  -4.506
REMARK INTRA:                  -0.023
REMARK UNBOUND:                -0.024
REMARK SMILES O=C([O-])c1cccnc1
REMARK SMILES IDX 4 1 5 2 9 3 6 4 8 5 7 6 2 7 1 8 3 9
REMARK H PARENT
REMARK Flexibility Score: inf
ROOT
ATOM      1  C   UNL     1      -3.157 -23.314  49.844  1.00  0.00     0.016 A 
ATOM      2  C   UNL     1      -3.870 -24.520  49.735  1.00  0.00     0.013 A 
ATOM      3  C   UNL     1      -3.721 -22.152  49.288  1.00  0.00     0.120 A 
ATOM      4  C   UNL     1      -5.108 -24.546  49.090  1.00  0.00     0.021 A 
ATOM      5  N   UNL     1      -4.928 -22.206  48.664  1.00  0.00    -0.264 NA
ATOM      6  C   UNL     1      -5.626 -23.367  48.554  1.00  0.00     0.111 A 
ENDROOT
BRANCH   1   7
ATOM      7  C   UNL     1      -1.846 -23.264  50.524  1.00  0.00     0.073 C 
ATOM      8  O   UNL     1      -1.360 -22.162  50.898  1.00  0.00    -0.545 OA
ATOM      9  O   UNL     1      -1.129 -24.432  50.761  1.00  0.00    -0.545 OA
ENDBRANCH   1   7
TORSDOF 1
ENDMDL
MODEL 3
REMARK VINA RESULT:    -4.223      2.786      3.728
REMARK INTER + INTRA:          -4.494
REMARK INTER:                  -4.472
REMARK INTRA:                  -0.022
REMARK UNBOUND:                -0.024
REMARK SMILES O=C([O-])c1cccnc1
REMARK SMILES IDX 4 1 5 2 9 3 6 4 8 5 7 6 2 7 1 8 3 9
REMARK H PARENT
REMARK Flexibility Score: inf
ROOT
ATOM      1  C   UNL     1      -3.442 -24.380  48.875  1.00  0.00     0.016 A 
ATOM      2  C   UNL     1      -2.246 -25.071  48.620  1.00  0.00     0.013 A 
ATOM      3  C   UNL     1      -3.485 -23.498  49.969  1.00  0.00     0.120 A 
ATOM      4  C   UNL     1      -1.134 -24.874  49.443  1.00  0.00     0.021 A 
ATOM      5  N   UNL     1      -2.388 -23.325  50.754  1.00  0.00    -0.264 NA
ATOM      6  C   UNL     1      -1.225 -23.988  50.517  1.00  0.00     0.111 A 
ENDROOT
BRANCH   1   7
ATOM      7  C   UNL     1      -4.630 -24.573  48.017  1.00  0.00     0.073 C 
ATOM      8  O   UNL     1      -4.499 -24.881  46.801  1.00  0.00    -0.545 OA
ATOM      9  O   UNL     1      -5.910 -24.419  48.539  1.00  0.00    -0.545 OA
ENDBRANCH   1   7
TORSDOF 1
ENDMDL
MODEL 4
REMARK VINA RESULT:    -4.168      2.836      4.053
REMARK INTER + INTRA:          -4.436
REMARK INTER:                  -4.413
REMARK INTRA:                  -0.023
REMARK UNBOUND:                -0.024
REMARK SMILES O=C([O-])c1cccnc1
REMARK SMILES IDX 4 1 5 2 9 3 6 4 8 5 7 6 2 7 1 8 3 9
REMARK H PARENT
REMARK Flexibility Score: inf
ROOT
ATOM      1  C   UNL     1      -4.326 -22.322  49.902  1.00  0.00     0.016 A 
ATOM      2  C   UNL     1      -4.095 -21.161  50.658  1.00  0.00     0.013 A 
ATOM      3  C   UNL     1      -5.298 -22.277  48.888  1.00  0.00     0.120 A 
ATOM      4  C   UNL     1      -4.820 -19.997  50.394  1.00  0.00     0.021 A 
ATOM      5  N   UNL     1      -5.990 -21.131  48.652  1.00  0.00    -0.264 NA
ATOM      6  C   UNL     1      -5.774 -20.001  49.376  1.00  0.00     0.111 A 
ENDROOT
BRANCH   1   7
ATOM      7  C   UNL     1      -3.569 -23.565  50.165  1.00  0.00     0.073 C 
ATOM      8  O   UNL     1      -2.452 -23.523  50.747  1.00  0.00    -0.545 OA
ATOM      9  O   UNL     1      -4.080 -24.798  49.774  1.00  0.00    -0.545 OA
ENDBRANCH   1   7
TORSDOF 1
ENDMDL
MODEL 5
REMARK VINA RESULT:    -4.163      2.446      3.331
REMARK INTER + INTRA:          -4.430
REMARK INTER:                  -4.412
REMARK INTRA:                  -0.018
REMARK UNBOUND:                -0.024
REMARK SMILES O=C([O-])c1cccnc1
REMARK SMILES IDX 4 1 5 2 9 3 6 4 8 5 7 6 2 7 1 8 3 9
REMARK H PARENT
REMARK Flexibility Score: inf
ROOT
ATOM      1  C   UNL     1      -3.761 -24.112  49.016  1.00  0.00     0.016 A 
ATOM      2  C   UNL     1      -3.236 -23.632  50.227  1.00  0.00     0.013 A 
ATOM      3  C   UNL     1      -2.907 -24.819  48.151  1.00  0.00     0.120 A 
ATOM      4  C   UNL     1      -1.898 -23.861  50.551  1.00  0.00     0.021 A 
ATOM      5  N   UNL     1      -1.607 -25.028  48.491  1.00  0.00    -0.264 NA
ATOM      6  C   UNL     1      -1.089 -24.568  49.661  1.00  0.00     0.111 A 
ENDROOT
BRANCH   1   7
ATOM      7  C   UNL     1      -5.175 -23.881  48.654  1.00  0.00     0.073 C 
ATOM      8  O   UNL     1      -5.938 -24.852  48.397  1.00  0.00    -0.545 OA
ATOM      9  O   UNL     1      -5.685 -22.589  48.593  1.00  0.00    -0.545 OA
ENDBRANCH   1   7
TORSDOF 1
ENDMDL
MODEL 6
REMARK VINA RESULT:    -4.146      2.754      3.677
REMARK INTER + INTRA:          -4.412
REMARK INTER:                  -4.392
REMARK INTRA:                  -0.020
REMARK UNBOUND:                -0.024
REMARK SMILES O=C([O-])c1cccnc1
REMARK SMILES IDX 4 1 5 2 9 3 6 4 8 5 7 6 2 7 1 8 3 9
REMARK H PARENT
REMARK Flexibility Score: inf
ROOT
ATOM      1  C   UNL     1      -4.795 -22.370  49.480  1.00  0.00     0.016 A 
ATOM      2  C   UNL     1      -5.446 -22.293  48.238  1.00  0.00     0.013 A 
ATOM      3  C   UNL     1      -4.745 -21.216  50.281  1.00  0.00     0.120 A 
ATOM      4  C   UNL     1      -6.025 -21.092  47.823  1.00  0.00     0.021 A 
ATOM      5  N   UNL     1      -5.316 -20.059  49.853  1.00  0.00    -0.264 NA
ATOM      6  C   UNL     1      -5.949 -19.973  48.653  1.00  0.00     0.111 A 
ENDROOT
BRANCH   1   7
ATOM      7  C   UNL     1      -4.177 -23.633  49.938  1.00  0.00     0.073 C 
ATOM      8  O   UNL     1      -3.033 -23.631  50.468  1.00  0.00    -0.545 OA
ATOM      9  O   UNL     1      -4.850 -24.841  49.792  1.00  0.00    -0.545 OA
ENDBRANCH   1   7
TORSDOF 1
ENDMDL
MODEL 7
REMARK VINA RESULT:    -4.140     11.328     12.185
REMARK INTER + INTRA:          -4.406
REMARK INTER:                  -4.382
REMARK INTRA:                  -0.024
REMARK UNBOUND:                -0.024
REMARK SMILES O=C([O-])c1cccnc1
REMARK SMILES IDX 4 1 5 2 9 3 6 4 8 5 7 6 2 7 1 8 3 9
REMARK H PARENT
REMARK Flexibility Score: inf
ROOT
ATOM      1  C   UNL     1      -7.270 -11.022  52.678  1.00  0.00     0.016 A 
ATOM      2  C   UNL     1      -6.709 -11.759  51.622  1.00  0.00     0.013 A 
ATOM      3  C   UNL     1      -8.636 -10.696  52.614  1.00  0.00     0.120 A 
ATOM      4  C   UNL     1      -7.503 -12.151  50.542  1.00  0.00     0.021 A 
ATOM      5  N   UNL     1      -9.386 -11.090  51.550  1.00  0.00    -0.264 NA
ATOM      6  C   UNL     1      -8.854 -11.804  50.523  1.00  0.00     0.111 A 
ENDROOT
BRANCH   1   7
ATOM      7  C   UNL     1      -6.448 -10.597  53.831  1.00  0.00     0.073 C 
ATOM      8  O   UNL     1      -5.204 -10.798  53.839  1.00  0.00    -0.545 OA
ATOM      9  O   UNL     1      -7.037  -9.969  54.923  1.00  0.00    -0.545 OA
ENDBRANCH   1   7
TORSDOF 1
ENDMDL
MODEL 8
REMARK VINA RESULT:    -3.949      1.976      2.419
REMARK INTER + INTRA:          -4.204
REMARK INTER:                  -4.184
REMARK INTRA:                  -0.019
REMARK UNBOUND:                -0.024
REMARK SMILES O=C([O-])c1cccnc1
REMARK SMILES IDX 4 1 5 2 9 3 6 4 8 5 7 6 2 7 1 8 3 9
REMARK H PARENT
REMARK Flexibility Score: inf
ROOT
ATOM      1  C   UNL     1      -3.961 -22.846  49.331  1.00  0.00     0.016 A 
ATOM      2  C   UNL     1      -5.113 -23.648  49.395  1.00  0.00     0.013 A 
ATOM      3  C   UNL     1      -3.123 -22.968  48.209  1.00  0.00     0.120 A 
ATOM      4  C   UNL     1      -5.405 -24.538  48.360  1.00  0.00     0.021 A 
ATOM      5  N   UNL     1      -3.431 -23.844  47.215  1.00  0.00    -0.264 NA
ATOM      6  C   UNL     1      -4.543 -24.624  47.266  1.00  0.00     0.111 A 
ENDROOT
BRANCH   1   7
ATOM      7  C   UNL     1      -3.634 -21.896  50.416  1.00  0.00     0.073 C 
ATOM      8  O   UNL     1      -4.513 -21.117  50.872  1.00  0.00    -0.545 OA
ATOM      9  O   UNL     1      -2.350 -21.851  50.949  1.00  0.00    -0.545 OA
ENDBRANCH   1   7
TORSDOF 1
ENDMDL
