MODEL 1
REMARK VINA RESULT:    -3.948      0.000      0.000
REMARK INTER + INTRA:          -4.482
REMARK INTER:                  -4.179
REMARK INTRA:                  -0.303
REMARK UNBOUND:                -0.303
REMARK SMILES CC1=C[C@@H]2C(=C(C)CC[C@H]2C(C)C)CC1
REMARK SMILES IDX 1 1 2 2 3 3 4 4 10 5 9 6 8 7 6 8 5 9 14 10 15 11 7 12 11 13
REMARK SMILES IDX 12 14 13 15
REMARK H PARENT
REMARK Flexibility Score: inf
ROOT
ATOM      1  C   UNL     1      52.897  36.058  28.718  1.00  0.00     0.039 C 
ATOM      2  C   UNL     1      52.000  34.859  28.876  1.00  0.00    -0.076 C 
ATOM      3  C   UNL     1      51.515  34.244  27.781  1.00  0.00    -0.020 C 
ATOM      4  C   UNL     1      50.595  33.036  27.847  1.00  0.00     0.041 C 
ATOM      5  C   UNL     1      51.335  31.714  27.474  1.00  0.00     0.003 C 
ATOM      6  C   UNL     1      50.417  30.457  27.665  1.00  0.00     0.009 C 
ATOM      7  C   UNL     1      49.039  30.771  28.280  1.00  0.00     0.031 C 
ATOM      8  C   UNL     1      49.165  31.766  29.412  1.00  0.00    -0.073 C 
ATOM      9  C   UNL     1      49.938  32.864  29.215  1.00  0.00    -0.064 C 
ATOM     10  C   UNL     1      50.182  33.905  30.292  1.00  0.00     0.036 C 
ATOM     11  C   UNL     1      51.641  34.356  30.251  1.00  0.00     0.035 C 
ATOM     12  C   UNL     1      48.452  31.497  30.714  1.00  0.00     0.039 C 
ENDROOT
BRANCH   5  13
ATOM     13  C   UNL     1      52.037  31.756  26.077  1.00  0.00    -0.013 C 
ATOM     14  C   UNL     1      53.563  31.600  26.200  1.00  0.00     0.007 C 
ATOM     15  C   UNL     1      51.471  30.742  25.069  1.00  0.00     0.007 C 
ENDBRANCH   5  13
TORSDOF 1
ENDMDL
MODEL 2
REMARK VINA RESULT:    -3.764      1.349      2.204
REMARK INTER + INTRA:          -4.287
REMARK INTER:                  -3.977
REMARK INTRA:                  -0.311
REMARK UNBOUND:                -0.303
REMARK SMILES CC1=C[C@@H]2C(=C(C)CC[C@H]2C(C)C)CC1
REMARK SMILES IDX 1 1 2 2 3 3 4 4 10 5 9 6 8 7 6 8 5 9 14 10 15 11 7 12 11 13
REMARK SMILES IDX 12 14 13 15
REMARK H PARENT
REMARK Flexibility Score: inf
ROOT
ATOM      1  C   UNL     1      51.106  34.308  30.655  1.00  0.00     0.039 C 
ATOM      2  C   UNL     1      50.696  33.011  30.011  1.00  0.00    -0.076 C 
ATOM      3  C   UNL     1      50.660  32.919  28.668  1.00  0.00    -0.020 C 
ATOM      4  C   UNL     1      50.248  31.653  27.934  1.00  0.00     0.041 C 
ATOM      5  C   UNL     1      51.471  30.913  27.310  1.00  0.00     0.003 C 
ATOM      6  C   UNL     1      51.058  29.545  26.663  1.00  0.00     0.009 C 
ATOM      7  C   UNL     1      49.579  29.168  26.877  1.00  0.00     0.031 C 
ATOM      8  C   UNL     1      49.142  29.472  28.292  1.00  0.00    -0.073 C 
ATOM      9  C   UNL     1      49.481  30.675  28.822  1.00  0.00    -0.064 C 
ATOM     10  C   UNL     1      49.144  31.073  30.248  1.00  0.00     0.036 C 
ATOM     11  C   UNL     1      50.322  31.825  30.864  1.00  0.00     0.035 C 
ATOM     12  C   UNL     1      48.369  28.432  29.066  1.00  0.00     0.039 C 
ENDROOT
BRANCH   5  13
ATOM     13  C   UNL     1      52.332  31.808  26.358  1.00  0.00    -0.013 C 
ATOM     14  C   UNL     1      53.779  31.299  26.250  1.00  0.00     0.007 C 
ATOM     15  C   UNL     1      51.719  31.992  24.959  1.00  0.00     0.007 C 
ENDBRANCH   5  13
TORSDOF 1
ENDMDL
MODEL 3
REMARK VINA RESULT:    -3.556      3.581      6.849
REMARK INTER + INTRA:          -4.067
REMARK INTER:                  -3.757
REMARK INTRA:                  -0.310
REMARK UNBOUND:                -0.303
REMARK SMILES CC1=C[C@@H]2C(=C(C)CC[C@H]2C(C)C)CC1
REMARK SMILES IDX 1 1 2 2 3 3 4 4 10 5 9 6 8 7 6 8 5 9 14 10 15 11 7 12 11 13
REMARK SMILES IDX 12 14 13 15
REMARK H PARENT
REMARK Flexibility Score: inf
ROOT
ATOM      1  C   UNL     1      50.935  27.554  27.977  1.00  0.00     0.039 C 
ATOM      2  C   UNL     1      52.329  27.837  27.484  1.00  0.00    -0.076 C 
ATOM      3  C   UNL     1      52.501  28.494  26.321  1.00  0.00    -0.020 C 
ATOM      4  C   UNL     1      53.870  28.812  25.743  1.00  0.00     0.041 C 
ATOM      5  C   UNL     1      54.242  30.318  25.908  1.00  0.00     0.003 C 
ATOM      6  C   UNL     1      55.704  30.615  25.424  1.00  0.00     0.009 C 
ATOM      7  C   UNL     1      56.495  29.362  25.003  1.00  0.00     0.031 C 
ATOM      8  C   UNL     1      56.260  28.223  25.970  1.00  0.00    -0.073 C 
ATOM      9  C   UNL     1      54.984  27.960  26.350  1.00  0.00    -0.064 C 
ATOM     10  C   UNL     1      54.628  26.878  27.353  1.00  0.00     0.036 C 
ATOM     11  C   UNL     1      53.524  27.380  28.282  1.00  0.00     0.035 C 
ATOM     12  C   UNL     1      57.440  27.438  26.488  1.00  0.00     0.039 C 
ENDROOT
BRANCH   5  13
ATOM     13  C   UNL     1      53.183  31.299  25.304  1.00  0.00    -0.013 C 
ATOM     14  C   UNL     1      52.731  32.353  26.330  1.00  0.00     0.007 C 
ATOM     15  C   UNL     1      53.638  31.976  24.001  1.00  0.00     0.007 C 
ENDBRANCH   5  13
TORSDOF 1
ENDMDL
MODEL 4
REMARK VINA RESULT:    -3.446      1.417      3.766
REMARK INTER + INTRA:          -3.951
REMARK INTER:                  -3.641
REMARK INTRA:                  -0.311
REMARK UNBOUND:                -0.303
REMARK SMILES CC1=C[C@@H]2C(=C(C)CC[C@H]2C(C)C)CC1
REMARK SMILES IDX 1 1 2 2 3 3 4 4 10 5 9 6 8 7 6 8 5 9 14 10 15 11 7 12 11 13
REMARK SMILES IDX 12 14 13 15
REMARK H PARENT
REMARK Flexibility Score: inf
ROOT
ATOM      1  C   UNL     1      51.557  31.703  24.375  1.00  0.00     0.039 C 
ATOM      2  C   UNL     1      51.313  31.962  25.838  1.00  0.00    -0.076 C 
ATOM      3  C   UNL     1      50.219  31.446  26.430  1.00  0.00    -0.020 C 
ATOM      4  C   UNL     1      49.889  31.666  27.897  1.00  0.00     0.041 C 
ATOM      5  C   UNL     1      50.166  30.395  28.758  1.00  0.00     0.003 C 
ATOM      6  C   UNL     1      49.944  30.665  30.287  1.00  0.00     0.009 C 
ATOM      7  C   UNL     1      49.617  32.132  30.627  1.00  0.00     0.031 C 
ATOM      8  C   UNL     1      50.490  33.079  29.834  1.00  0.00    -0.073 C 
ATOM      9  C   UNL     1      50.643  32.847  28.505  1.00  0.00    -0.064 C 
ATOM     10  C   UNL     1      51.534  33.696  27.617  1.00  0.00     0.036 C 
ATOM     11  C   UNL     1      52.283  32.800  26.633  1.00  0.00     0.035 C 
ATOM     12  C   UNL     1      51.170  34.225  30.543  1.00  0.00     0.039 C 
ENDROOT
BRANCH   5  13
ATOM     13  C   UNL     1      49.430  29.113  28.247  1.00  0.00    -0.013 C 
ATOM     14  C   UNL     1      50.353  27.883  28.254  1.00  0.00     0.007 C 
ATOM     15  C   UNL     1      48.121  28.810  28.996  1.00  0.00     0.007 C 
ENDBRANCH   5  13
TORSDOF 1
ENDMDL
MODEL 5
REMARK VINA RESULT:    -3.412      2.748      4.942
REMARK INTER + INTRA:          -3.915
REMARK INTER:                  -3.604
REMARK INTRA:                  -0.311
REMARK UNBOUND:                -0.303
REMARK SMILES CC1=C[C@@H]2C(=C(C)CC[C@H]2C(C)C)CC1
REMARK SMILES IDX 1 1 2 2 3 3 4 4 10 5 9 6 8 7 6 8 5 9 14 10 15 11 7 12 11 13
REMARK SMILES IDX 12 14 13 15
REMARK H PARENT
REMARK Flexibility Score: inf
ROOT
ATOM      1  C   UNL     1      52.006  33.395  27.133  1.00  0.00     0.039 C 
ATOM      2  C   UNL     1      52.126  31.915  26.890  1.00  0.00    -0.076 C 
ATOM      3  C   UNL     1      53.165  31.442  26.175  1.00  0.00    -0.020 C 
ATOM      4  C   UNL     1      53.360  29.965  25.872  1.00  0.00     0.041 C 
ATOM      5  C   UNL     1      54.496  29.333  26.735  1.00  0.00     0.003 C 
ATOM      6  C   UNL     1      54.607  27.786  26.509  1.00  0.00     0.009 C 
ATOM      7  C   UNL     1      53.518  27.202  25.589  1.00  0.00     0.031 C 
ATOM      8  C   UNL     1      52.166  27.801  25.902  1.00  0.00    -0.073 C 
ATOM      9  C   UNL     1      52.084  29.147  26.061  1.00  0.00    -0.064 C 
ATOM     10  C   UNL     1      50.793  29.857  26.428  1.00  0.00     0.036 C 
ATOM     11  C   UNL     1      51.086  30.968  27.435  1.00  0.00     0.035 C 
ATOM     12  C   UNL     1      50.970  26.892  26.047  1.00  0.00     0.039 C 
ENDROOT
BRANCH   5  13
ATOM     13  C   UNL     1      55.868  30.074  26.612  1.00  0.00    -0.013 C 
ATOM     14  C   UNL     1      56.856  29.630  27.703  1.00  0.00     0.007 C 
ATOM     15  C   UNL     1      56.513  29.956  25.220  1.00  0.00     0.007 C 
ENDBRANCH   5  13
TORSDOF 1
ENDMDL
MODEL 6
REMARK VINA RESULT:    -3.404      2.057      4.600
REMARK INTER + INTRA:          -3.907
REMARK INTER:                  -3.598
REMARK INTRA:                  -0.309
REMARK UNBOUND:                -0.303
REMARK SMILES CC1=C[C@@H]2C(=C(C)CC[C@H]2C(C)C)CC1
REMARK SMILES IDX 1 1 2 2 3 3 4 4 10 5 9 6 8 7 6 8 5 9 14 10 15 11 7 12 11 13
REMARK SMILES IDX 12 14 13 15
REMARK H PARENT
REMARK Flexibility Score: inf
ROOT
ATOM      1  C   UNL     1      52.805  29.761  26.475  1.00  0.00     0.039 C 
ATOM      2  C   UNL     1      51.763  30.833  26.651  1.00  0.00    -0.076 C 
ATOM      3  C   UNL     1      50.770  30.654  27.543  1.00  0.00    -0.020 C 
ATOM      4  C   UNL     1      49.671  31.677  27.777  1.00  0.00     0.041 C 
ATOM      5  C   UNL     1      49.866  32.452  29.117  1.00  0.00     0.003 C 
ATOM      6  C   UNL     1      48.802  33.590  29.293  1.00  0.00     0.009 C 
ATOM      7  C   UNL     1      47.875  33.781  28.077  1.00  0.00     0.031 C 
ATOM      8  C   UNL     1      48.654  33.699  26.784  1.00  0.00    -0.073 C 
ATOM      9  C   UNL     1      49.546  32.686  26.637  1.00  0.00    -0.064 C 
ATOM     10  C   UNL     1      50.423  32.531  25.408  1.00  0.00     0.036 C 
ATOM     11  C   UNL     1      51.825  32.095  25.828  1.00  0.00     0.035 C 
ATOM     12  C   UNL     1      48.431  34.746  25.720  1.00  0.00     0.039 C 
ENDROOT
BRANCH   5  13
ATOM     13  C   UNL     1      49.987  31.524  30.370  1.00  0.00    -0.013 C 
ATOM     14  C   UNL     1      50.918  32.125  31.438  1.00  0.00     0.007 C 
ATOM     15  C   UNL     1      48.633  31.139  30.990  1.00  0.00     0.007 C 
ENDBRANCH   5  13
TORSDOF 1
ENDMDL
MODEL 7
REMARK VINA RESULT:    -3.370      1.499      5.449
REMARK INTER + INTRA:          -3.870
REMARK INTER:                  -3.649
REMARK INTRA:                  -0.222
REMARK UNBOUND:                -0.303
REMARK SMILES CC1=C[C@@H]2C(=C(C)CC[C@H]2C(C)C)CC1
REMARK SMILES IDX 1 1 2 2 3 3 4 4 10 5 9 6 8 7 6 8 5 9 14 10 15 11 7 12 11 13
REMARK SMILES IDX 12 14 13 15
REMARK H PARENT
REMARK Flexibility Score: inf
ROOT
ATOM      1  C   UNL     1      49.413  27.321  28.516  1.00  0.00     0.039 C 
ATOM      2  C   UNL     1      50.106  28.617  28.190  1.00  0.00    -0.076 C 
ATOM      3  C   UNL     1      49.388  29.754  28.116  1.00  0.00    -0.020 C 
ATOM      4  C   UNL     1      50.003  31.103  27.782  1.00  0.00     0.041 C 
ATOM      5  C   UNL     1      50.124  32.020  29.039  1.00  0.00     0.003 C 
ATOM      6  C   UNL     1      50.873  33.359  28.714  1.00  0.00     0.009 C 
ATOM      7  C   UNL     1      51.425  33.441  27.279  1.00  0.00     0.031 C 
ATOM      8  C   UNL     1      52.056  32.129  26.866  1.00  0.00    -0.073 C 
ATOM      9  C   UNL     1      51.377  30.983  27.125  1.00  0.00    -0.064 C 
ATOM     10  C   UNL     1      51.930  29.606  26.806  1.00  0.00     0.036 C 
ATOM     11  C   UNL     1      51.593  28.641  27.940  1.00  0.00     0.035 C 
ATOM     12  C   UNL     1      53.413  32.138  26.205  1.00  0.00     0.039 C 
ENDROOT
BRANCH   5  13
ATOM     13  C   UNL     1      48.772  32.238  29.793  1.00  0.00    -0.013 C 
ATOM     14  C   UNL     1      48.690  31.394  31.076  1.00  0.00     0.007 C 
ATOM     15  C   UNL     1      48.464  33.714  30.099  1.00  0.00     0.007 C 
ENDBRANCH   5  13
TORSDOF 1
ENDMDL
MODEL 8
REMARK VINA RESULT:    -3.283      4.152      6.359
REMARK INTER + INTRA:          -3.779
REMARK INTER:                  -3.469
REMARK INTRA:                  -0.310
REMARK UNBOUND:                -0.303
REMARK SMILES CC1=C[C@@H]2C(=C(C)CC[C@H]2C(C)C)CC1
REMARK SMILES IDX 1 1 2 2 3 3 4 4 10 5 9 6 8 7 6 8 5 9 14 10 15 11 7 12 11 13
REMARK SMILES IDX 12 14 13 15
REMARK H PARENT
REMARK Flexibility Score: inf
ROOT
ATOM      1  C   UNL     1      53.250  32.473  23.875  1.00  0.00     0.039 C 
ATOM      2  C   UNL     1      53.843  31.289  24.592  1.00  0.00    -0.076 C 
ATOM      3  C   UNL     1      53.259  30.833  25.717  1.00  0.00    -0.020 C 
ATOM      4  C   UNL     1      53.795  29.653  26.509  1.00  0.00     0.041 C 
ATOM      5  C   UNL     1      52.931  28.370  26.308  1.00  0.00     0.003 C 
ATOM      6  C   UNL     1      53.558  27.125  27.026  1.00  0.00     0.009 C 
ATOM      7  C   UNL     1      54.931  27.394  27.672  1.00  0.00     0.031 C 
ATOM      8  C   UNL     1      55.802  28.232  26.762  1.00  0.00    -0.073 C 
ATOM      9  C   UNL     1      55.249  29.325  26.176  1.00  0.00    -0.064 C 
ATOM     10  C   UNL     1      56.007  30.211  25.205  1.00  0.00     0.036 C 
ATOM     11  C   UNL     1      55.086  30.623  24.058  1.00  0.00     0.035 C 
ATOM     12  C   UNL     1      57.233  27.817  26.523  1.00  0.00     0.039 C 
ENDROOT
BRANCH   5  13
ATOM     13  C   UNL     1      51.415  28.572  26.638  1.00  0.00    -0.013 C 
ATOM     14  C   UNL     1      50.524  27.600  25.847  1.00  0.00     0.007 C 
ATOM     15  C   UNL     1      51.093  28.497  28.140  1.00  0.00     0.007 C 
ENDBRANCH   5  13
TORSDOF 1
ENDMDL
