MODEL 1
REMARK VINA RESULT:    -4.382      0.000      0.000
REMARK INTER + INTRA:          -9.662
REMARK INTER:                  -7.712
REMARK INTRA:                  -1.949
REMARK UNBOUND:                -1.949
REMARK SMILES CCCCCCCCCCCCCCC(=O)[O-]
REMARK SMILES IDX 9 1 10 2 11 3 12 4 13 5 14 6 15 7 16 8 17 9 8 10 7 11 6 12
REMARK SMILES IDX 5 13 4 14 3 15 2 16 1 17
REMARK H PARENT
REMARK Flexibility Score: inf
ROOT
ATOM      1  C   UNL     1      49.663  35.935 -13.100  1.00  0.00     0.000 C 
ENDROOT
BRANCH   1   2
ATOM      2  C   UNL     1      48.128  36.022 -13.191  1.00  0.00     0.000 C 
BRANCH   2   3
ATOM      3  C   UNL     1      47.385  34.714 -12.861  1.00  0.00     0.000 C 
BRANCH   3   4
ATOM      4  C   UNL     1      45.988  34.641 -13.498  1.00  0.00     0.000 C 
BRANCH   4   5
ATOM      5  C   UNL     1      45.091  35.832 -13.112  1.00  0.00     0.006 C 
BRANCH   5   6
ATOM      6  C   UNL     1      44.828  35.949 -11.600  1.00  0.00     0.053 C 
BRANCH   6   7
ATOM      7  C   UNL     1      43.386  36.191 -11.280  1.00  0.00     0.041 C 
ATOM      8  O   UNL     1      42.585  36.553 -12.182  1.00  0.00    -0.550 OA
ATOM      9  O   UNL     1      42.920  36.000  -9.985  1.00  0.00    -0.550 OA
ENDBRANCH   6   7
ENDBRANCH   5   6
ENDBRANCH   4   5
ENDBRANCH   3   4
ENDBRANCH   2   3
ENDBRANCH   1   2
BRANCH   1  10
ATOM     10  C   UNL     1      50.421  37.171 -13.623  1.00  0.00     0.000 C 
BRANCH  10  11
ATOM     11  C   UNL     1      50.189  37.458 -15.122  1.00  0.00    -0.000 C 
BRANCH  11  12
ATOM     12  C   UNL     1      50.843  36.404 -16.033  1.00  0.00    -0.000 C 
BRANCH  12  13
ATOM     13  C   UNL     1      49.874  35.863 -17.097  1.00  0.00    -0.000 C 
BRANCH  13  14
ATOM     14  C   UNL     1      48.953  34.760 -16.549  1.00  0.00    -0.000 C 
BRANCH  14  15
ATOM     15  C   UNL     1      47.461  35.076 -16.746  1.00  0.00    -0.000 C 
BRANCH  15  16
ATOM     16  C   UNL     1      47.194  36.512 -17.245  1.00  0.00    -0.003 C 
ATOM     17  C   UNL     1      46.610  37.410 -16.156  1.00  0.00     0.004 C 
ENDBRANCH  15  16
ENDBRANCH  14  15
ENDBRANCH  13  14
ENDBRANCH  12  13
ENDBRANCH  11  12
ENDBRANCH  10  11
ENDBRANCH   1  10
TORSDOF 13
ENDMDL
MODEL 2
REMARK VINA RESULT:    -4.231      1.722      2.228
REMARK INTER + INTRA:          -9.395
REMARK INTER:                  -7.262
REMARK INTRA:                  -2.134
REMARK UNBOUND:                -1.949
REMARK SMILES CCCCCCCCCCCCCCC(=O)[O-]
REMARK SMILES IDX 9 1 10 2 11 3 12 4 13 5 14 6 15 7 16 8 17 9 8 10 7 11 6 12
REMARK SMILES IDX 5 13 4 14 3 15 2 16 1 17
REMARK H PARENT
REMARK Flexibility Score: inf
ROOT
ATOM      1  C   UNL     1      49.337  35.686 -13.295  1.00  0.00     0.000 C 
ENDROOT
BRANCH   1   2
ATOM      2  C   UNL     1      48.263  34.666 -13.719  1.00  0.00     0.000 C 
BRANCH   2   3
ATOM      3  C   UNL     1      46.881  35.273 -14.025  1.00  0.00     0.000 C 
BRANCH   3   4
ATOM      4  C   UNL     1      45.742  34.591 -13.250  1.00  0.00     0.000 C 
BRANCH   4   5
ATOM      5  C   UNL     1      44.945  35.573 -12.370  1.00  0.00     0.006 C 
BRANCH   5   6
ATOM      6  C   UNL     1      45.826  36.526 -11.544  1.00  0.00     0.053 C 
BRANCH   6   7
ATOM      7  C   UNL     1      46.425  35.865 -10.341  1.00  0.00     0.041 C 
ATOM      8  O   UNL     1      45.683  35.391  -9.440  1.00  0.00    -0.550 OA
ATOM      9  O   UNL     1      47.805  35.756 -10.221  1.00  0.00    -0.550 OA
ENDBRANCH   6   7
ENDBRANCH   5   6
ENDBRANCH   4   5
ENDBRANCH   3   4
ENDBRANCH   2   3
ENDBRANCH   1   2
BRANCH   1  10
ATOM     10  C   UNL     1      48.946  37.165 -13.482  1.00  0.00     0.000 C 
BRANCH  10  11
ATOM     11  C   UNL     1      50.064  38.035 -14.093  1.00  0.00    -0.000 C 
BRANCH  11  12
ATOM     12  C   UNL     1      51.200  37.194 -14.703  1.00  0.00    -0.000 C 
BRANCH  12  13
ATOM     13  C   UNL     1      51.234  37.274 -16.237  1.00  0.00    -0.000 C 
BRANCH  13  14
ATOM     14  C   UNL     1      50.963  35.915 -16.904  1.00  0.00    -0.000 C 
BRANCH  14  15
ATOM     15  C   UNL     1      49.463  35.595 -17.020  1.00  0.00    -0.000 C 
BRANCH  15  16
ATOM     16  C   UNL     1      48.586  36.834 -17.296  1.00  0.00    -0.003 C 
ATOM     17  C   UNL     1      47.107  36.481 -17.449  1.00  0.00     0.004 C 
ENDBRANCH  15  16
ENDBRANCH  14  15
ENDBRANCH  13  14
ENDBRANCH  12  13
ENDBRANCH  11  12
ENDBRANCH  10  11
ENDBRANCH   1  10
TORSDOF 13
ENDMDL
MODEL 3
REMARK VINA RESULT:    -4.219      3.754      6.269
REMARK INTER + INTRA:          -9.375
REMARK INTER:                  -7.483
REMARK INTRA:                  -1.891
REMARK UNBOUND:                -1.949
REMARK SMILES CCCCCCCCCCCCCCC(=O)[O-]
REMARK SMILES IDX 9 1 10 2 11 3 12 4 13 5 14 6 15 7 16 8 17 9 8 10 7 11 6 12
REMARK SMILES IDX 5 13 4 14 3 15 2 16 1 17
REMARK H PARENT
REMARK Flexibility Score: inf
ROOT
ATOM      1  C   UNL     1      48.126  34.751 -13.944  1.00  0.00     0.000 C 
ENDROOT
BRANCH   1   2
ATOM      2  C   UNL     1      47.040  34.704 -15.035  1.00  0.00     0.000 C 
BRANCH   2   3
ATOM      3  C   UNL     1      47.573  34.734 -16.480  1.00  0.00     0.000 C 
BRANCH   3   4
ATOM      4  C   UNL     1      47.573  36.145 -17.089  1.00  0.00     0.000 C 
BRANCH   4   5
ATOM      5  C   UNL     1      48.988  36.739 -17.226  1.00  0.00     0.006 C 
BRANCH   5   6
ATOM      6  C   UNL     1      50.116  35.720 -16.989  1.00  0.00     0.053 C 
BRANCH   6   7
ATOM      7  C   UNL     1      51.395  36.363 -16.550  1.00  0.00     0.041 C 
ATOM      8  O   UNL     1      52.436  36.251 -17.249  1.00  0.00    -0.550 OA
ATOM      9  O   UNL     1      51.434  37.102 -15.374  1.00  0.00    -0.550 OA
ENDBRANCH   6   7
ENDBRANCH   5   6
ENDBRANCH   4   5
ENDBRANCH   3   4
ENDBRANCH   2   3
ENDBRANCH   1   2
BRANCH   1  10
ATOM     10  C   UNL     1      48.544  36.166 -13.497  1.00  0.00     0.000 C 
BRANCH  10  11
ATOM     11  C   UNL     1      49.008  36.246 -12.027  1.00  0.00    -0.000 C 
BRANCH  11  12
ATOM     12  C   UNL     1      47.903  36.754 -11.085  1.00  0.00    -0.000 C 
BRANCH  12  13
ATOM     13  C   UNL     1      47.275  35.627 -10.250  1.00  0.00    -0.000 C 
BRANCH  13  14
ATOM     14  C   UNL     1      46.063  34.984 -10.944  1.00  0.00    -0.000 C 
BRANCH  14  15
ATOM     15  C   UNL     1      44.954  35.999 -11.270  1.00  0.00    -0.000 C 
BRANCH  15  16
ATOM     16  C   UNL     1      44.486  35.953 -12.740  1.00  0.00    -0.003 C 
ATOM     17  C   UNL     1      44.834  37.230 -13.504  1.00  0.00     0.004 C 
ENDBRANCH  15  16
ENDBRANCH  14  15
ENDBRANCH  13  14
ENDBRANCH  12  13
ENDBRANCH  11  12
ENDBRANCH  10  11
ENDBRANCH   1  10
TORSDOF 13
ENDMDL
MODEL 4
REMARK VINA RESULT:    -4.173      1.734      3.678
REMARK INTER + INTRA:          -9.293
REMARK INTER:                  -7.251
REMARK INTRA:                  -2.042
REMARK UNBOUND:                -1.949
REMARK SMILES CCCCCCCCCCCCCCC(=O)[O-]
REMARK SMILES IDX 9 1 10 2 11 3 12 4 13 5 14 6 15 7 16 8 17 9 8 10 7 11 6 12
REMARK SMILES IDX 5 13 4 14 3 15 2 16 1 17
REMARK H PARENT
REMARK Flexibility Score: inf
ROOT
ATOM      1  C   UNL     1      47.187  36.389 -17.252  1.00  0.00     0.000 C 
ENDROOT
BRANCH   1   2
ATOM      2  C   UNL     1      46.927  37.627 -16.372  1.00  0.00     0.000 C 
BRANCH   2   3
ATOM      3  C   UNL     1      45.874  37.425 -15.267  1.00  0.00     0.000 C 
BRANCH   3   4
ATOM      4  C   UNL     1      46.441  37.643 -13.854  1.00  0.00     0.000 C 
BRANCH   4   5
ATOM      5  C   UNL     1      45.459  37.221 -12.744  1.00  0.00     0.006 C 
BRANCH   5   6
ATOM      6  C   UNL     1      45.018  35.749 -12.829  1.00  0.00     0.053 C 
BRANCH   6   7
ATOM      7  C   UNL     1      46.057  34.801 -12.316  1.00  0.00     0.041 C 
ATOM      8  O   UNL     1      46.677  34.046 -13.111  1.00  0.00    -0.550 OA
ATOM      9  O   UNL     1      46.355  34.763 -10.959  1.00  0.00    -0.550 OA
ENDBRANCH   6   7
ENDBRANCH   5   6
ENDBRANCH   4   5
ENDBRANCH   3   4
ENDBRANCH   2   3
ENDBRANCH   1   2
BRANCH   1  10
ATOM     10  C   UNL     1      47.476  35.086 -16.480  1.00  0.00     0.000 C 
BRANCH  10  11
ATOM     11  C   UNL     1      48.979  34.763 -16.340  1.00  0.00    -0.000 C 
BRANCH  11  12
ATOM     12  C   UNL     1      49.861  35.662 -17.225  1.00  0.00    -0.000 C 
BRANCH  12  13
ATOM     13  C   UNL     1      51.097  36.191 -16.481  1.00  0.00    -0.000 C 
BRANCH  13  14
ATOM     14  C   UNL     1      50.930  37.650 -16.023  1.00  0.00    -0.000 C 
BRANCH  14  15
ATOM     15  C   UNL     1      50.125  37.778 -14.719  1.00  0.00    -0.000 C 
BRANCH  15  16
ATOM     16  C   UNL     1      50.711  36.961 -13.548  1.00  0.00    -0.003 C 
ATOM     17  C   UNL     1      49.682  36.023 -12.919  1.00  0.00     0.004 C 
ENDBRANCH  15  16
ENDBRANCH  14  15
ENDBRANCH  13  14
ENDBRANCH  12  13
ENDBRANCH  11  12
ENDBRANCH  10  11
ENDBRANCH   1  10
TORSDOF 13
ENDMDL
MODEL 5
REMARK VINA RESULT:    -4.157      3.185      6.051
REMARK INTER + INTRA:          -9.265
REMARK INTER:                  -7.679
REMARK INTRA:                  -1.586
REMARK UNBOUND:                -1.949
REMARK SMILES CCCCCCCCCCCCCCC(=O)[O-]
REMARK SMILES IDX 9 1 10 2 11 3 12 4 13 5 14 6 15 7 16 8 17 9 8 10 7 11 6 12
REMARK SMILES IDX 5 13 4 14 3 15 2 16 1 17
REMARK H PARENT
REMARK Flexibility Score: inf
ROOT
ATOM      1  C   UNL     1      47.166  36.348 -17.157  1.00  0.00     0.000 C 
ENDROOT
BRANCH   1   2
ATOM      2  C   UNL     1      47.470  34.977 -16.523  1.00  0.00     0.000 C 
BRANCH   2   3
ATOM      3  C   UNL     1      48.948  34.751 -16.151  1.00  0.00     0.000 C 
BRANCH   3   4
ATOM      4  C   UNL     1      49.921  35.463 -17.105  1.00  0.00     0.000 C 
BRANCH   4   5
ATOM      5  C   UNL     1      50.870  36.433 -16.377  1.00  0.00     0.006 C 
BRANCH   5   6
ATOM      6  C   UNL     1      50.202  37.219 -15.235  1.00  0.00     0.053 C 
BRANCH   6   7
ATOM      7  C   UNL     1      50.932  37.086 -13.935  1.00  0.00     0.041 C 
ATOM      8  O   UNL     1      52.031  37.676 -13.759  1.00  0.00    -0.550 OA
ATOM      9  O   UNL     1      50.392  36.322 -12.908  1.00  0.00    -0.550 OA
ENDBRANCH   6   7
ENDBRANCH   5   6
ENDBRANCH   4   5
ENDBRANCH   3   4
ENDBRANCH   2   3
ENDBRANCH   1   2
BRANCH   1  10
ATOM     10  C   UNL     1      46.593  37.404 -16.190  1.00  0.00     0.000 C 
BRANCH  10  11
ATOM     11  C   UNL     1      46.574  36.954 -14.713  1.00  0.00    -0.000 C 
BRANCH  11  12
ATOM     12  C   UNL     1      45.238  37.271 -14.017  1.00  0.00    -0.000 C 
BRANCH  12  13
ATOM     13  C   UNL     1      44.753  36.121 -13.121  1.00  0.00    -0.000 C 
BRANCH  13  14
ATOM     14  C   UNL     1      45.497  34.804 -13.397  1.00  0.00    -0.000 C 
BRANCH  14  15
ATOM     15  C   UNL     1      46.419  34.384 -12.240  1.00  0.00    -0.000 C 
BRANCH  15  16
ATOM     16  C   UNL     1      46.202  35.202 -10.949  1.00  0.00    -0.003 C 
ATOM     17  C   UNL     1      47.467  35.933 -10.502  1.00  0.00     0.004 C 
ENDBRANCH  15  16
ENDBRANCH  14  15
ENDBRANCH  13  14
ENDBRANCH  12  13
ENDBRANCH  11  12
ENDBRANCH  10  11
ENDBRANCH   1  10
TORSDOF 13
ENDMDL
MODEL 6
REMARK VINA RESULT:    -4.139      3.232      6.846
REMARK INTER + INTRA:          -9.234
REMARK INTER:                  -7.245
REMARK INTRA:                  -1.989
REMARK UNBOUND:                -1.949
REMARK SMILES CCCCCCCCCCCCCCC(=O)[O-]
REMARK SMILES IDX 9 1 10 2 11 3 12 4 13 5 14 6 15 7 16 8 17 9 8 10 7 11 6 12
REMARK SMILES IDX 5 13 4 14 3 15 2 16 1 17
REMARK H PARENT
REMARK Flexibility Score: inf
ROOT
ATOM      1  C   UNL     1      45.214  36.593 -13.535  1.00  0.00     0.000 C 
ENDROOT
BRANCH   1   2
ATOM      2  C   UNL     1      45.242  35.127 -13.064  1.00  0.00     0.000 C 
BRANCH   2   3
ATOM      3  C   UNL     1      46.576  34.396 -13.307  1.00  0.00     0.000 C 
BRANCH   3   4
ATOM      4  C   UNL     1      47.643  35.296 -13.949  1.00  0.00     0.000 C 
BRANCH   4   5
ATOM      5  C   UNL     1      48.353  34.626 -15.141  1.00  0.00     0.006 C 
BRANCH   5   6
ATOM      6  C   UNL     1      47.588  34.749 -16.471  1.00  0.00     0.053 C 
BRANCH   6   7
ATOM      7  C   UNL     1      47.762  36.088 -17.118  1.00  0.00     0.041 C 
ATOM      8  O   UNL     1      46.772  36.689 -17.612  1.00  0.00    -0.550 OA
ATOM      9  O   UNL     1      49.017  36.681 -17.162  1.00  0.00    -0.550 OA
ENDBRANCH   6   7
ENDBRANCH   5   6
ENDBRANCH   4   5
ENDBRANCH   3   4
ENDBRANCH   2   3
ENDBRANCH   1   2
BRANCH   1  10
ATOM     10  C   UNL     1      44.058  37.441 -12.968  1.00  0.00     0.000 C 
BRANCH  10  11
ATOM     11  C   UNL     1      42.908  36.605 -12.366  1.00  0.00    -0.000 C 
BRANCH  11  12
ATOM     12  C   UNL     1      42.298  37.258 -11.112  1.00  0.00    -0.000 C 
BRANCH  12  13
ATOM     13  C   UNL     1      43.290  37.326  -9.941  1.00  0.00    -0.000 C 
BRANCH  13  14
ATOM     14  C   UNL     1      43.732  35.934  -9.461  1.00  0.00    -0.000 C 
BRANCH  14  15
ATOM     15  C   UNL     1      45.259  35.753  -9.479  1.00  0.00    -0.000 C 
BRANCH  15  16
ATOM     16  C   UNL     1      46.032  37.050  -9.801  1.00  0.00    -0.003 C 
ATOM     17  C   UNL     1      47.384  36.776 -10.458  1.00  0.00     0.004 C 
ENDBRANCH  15  16
ENDBRANCH  14  15
ENDBRANCH  13  14
ENDBRANCH  12  13
ENDBRANCH  11  12
ENDBRANCH  10  11
ENDBRANCH   1  10
TORSDOF 13
ENDMDL
MODEL 7
REMARK VINA RESULT:    -4.139      2.256      4.071
REMARK INTER + INTRA:          -9.233
REMARK INTER:                  -7.628
REMARK INTRA:                  -1.605
REMARK UNBOUND:                -1.949
REMARK SMILES CCCCCCCCCCCCCCC(=O)[O-]
REMARK SMILES IDX 9 1 10 2 11 3 12 4 13 5 14 6 15 7 16 8 17 9 8 10 7 11 6 12
REMARK SMILES IDX 5 13 4 14 3 15 2 16 1 17
REMARK H PARENT
REMARK Flexibility Score: inf
ROOT
ATOM      1  C   UNL     1      44.340  36.019 -13.033  1.00  0.00     0.000 C 
ENDROOT
BRANCH   1   2
ATOM      2  C   UNL     1      43.073  36.587 -12.363  1.00  0.00     0.000 C 
BRANCH   2   3
ATOM      3  C   UNL     1      43.042  36.463 -10.829  1.00  0.00     0.000 C 
BRANCH   3   4
ATOM      4  C   UNL     1      43.837  37.574 -10.123  1.00  0.00     0.000 C 
BRANCH   4   5
ATOM      5  C   UNL     1      45.083  37.044  -9.388  1.00  0.00     0.006 C 
BRANCH   5   6
ATOM      6  C   UNL     1      46.397  37.250 -10.163  1.00  0.00     0.053 C 
BRANCH   6   7
ATOM      7  C   UNL     1      47.157  35.975 -10.364  1.00  0.00     0.041 C 
ATOM      8  O   UNL     1      46.546  34.877 -10.444  1.00  0.00    -0.550 OA
ATOM      9  O   UNL     1      48.541  36.002 -10.480  1.00  0.00    -0.550 OA
ENDBRANCH   6   7
ENDBRANCH   5   6
ENDBRANCH   4   5
ENDBRANCH   3   4
ENDBRANCH   2   3
ENDBRANCH   1   2
BRANCH   1  10
ATOM     10  C   UNL     1      45.164  37.039 -13.843  1.00  0.00     0.000 C 
BRANCH  10  11
ATOM     11  C   UNL     1      46.649  36.650 -14.010  1.00  0.00    -0.000 C 
BRANCH  11  12
ATOM     12  C   UNL     1      46.864  35.126 -14.014  1.00  0.00    -0.000 C 
BRANCH  12  13
ATOM     13  C   UNL     1      48.210  34.723 -14.635  1.00  0.00    -0.000 C 
BRANCH  13  14
ATOM     14  C   UNL     1      48.147  34.628 -16.168  1.00  0.00    -0.000 C 
BRANCH  14  15
ATOM     15  C   UNL     1      49.298  35.379 -16.861  1.00  0.00    -0.000 C 
BRANCH  15  16
ATOM     16  C   UNL     1      49.108  36.910 -16.888  1.00  0.00    -0.003 C 
ATOM     17  C   UNL     1      47.903  37.334 -17.727  1.00  0.00     0.004 C 
ENDBRANCH  15  16
ENDBRANCH  14  15
ENDBRANCH  13  14
ENDBRANCH  12  13
ENDBRANCH  11  12
ENDBRANCH  10  11
ENDBRANCH   1  10
TORSDOF 13
ENDMDL
MODEL 8
REMARK VINA RESULT:    -4.100      2.167      3.656
REMARK INTER + INTRA:          -9.164
REMARK INTER:                  -7.347
REMARK INTRA:                  -1.817
REMARK UNBOUND:                -1.949
REMARK SMILES CCCCCCCCCCCCCCC(=O)[O-]
REMARK SMILES IDX 9 1 10 2 11 3 12 4 13 5 14 6 15 7 16 8 17 9 8 10 7 11 6 12
REMARK SMILES IDX 5 13 4 14 3 15 2 16 1 17
REMARK H PARENT
REMARK Flexibility Score: inf
ROOT
ATOM      1  C   UNL     1      46.465  37.192 -14.698  1.00  0.00     0.000 C 
ENDROOT
BRANCH   1   2
ATOM      2  C   UNL     1      45.062  37.268 -14.067  1.00  0.00     0.000 C 
BRANCH   2   3
ATOM      3  C   UNL     1      44.714  36.104 -13.121  1.00  0.00     0.000 C 
BRANCH   3   4
ATOM      4  C   UNL     1      45.805  35.022 -13.077  1.00  0.00     0.000 C 
BRANCH   4   5
ATOM      5  C   UNL     1      46.243  34.671 -11.642  1.00  0.00     0.006 C 
BRANCH   5   6
ATOM      6  C   UNL     1      46.231  35.870 -10.677  1.00  0.00     0.053 C 
BRANCH   6   7
ATOM      7  C   UNL     1      47.538  36.601 -10.644  1.00  0.00     0.041 C 
ATOM      8  O   UNL     1      48.619  35.965 -10.537  1.00  0.00    -0.550 OA
ATOM      9  O   UNL     1      47.562  37.986 -10.747  1.00  0.00    -0.550 OA
ENDBRANCH   6   7
ENDBRANCH   5   6
ENDBRANCH   4   5
ENDBRANCH   3   4
ENDBRANCH   2   3
ENDBRANCH   1   2
BRANCH   1  10
ATOM     10  C   UNL     1      46.544  37.629 -16.173  1.00  0.00     0.000 C 
BRANCH  10  11
ATOM     11  C   UNL     1      47.134  36.555 -17.113  1.00  0.00    -0.000 C 
BRANCH  11  12
ATOM     12  C   UNL     1      47.392  35.219 -16.394  1.00  0.00    -0.000 C 
BRANCH  12  13
ATOM     13  C   UNL     1      48.871  34.802 -16.437  1.00  0.00    -0.000 C 
BRANCH  13  14
ATOM     14  C   UNL     1      49.786  35.930 -16.940  1.00  0.00    -0.000 C 
BRANCH  14  15
ATOM     15  C   UNL     1      50.541  36.639 -15.802  1.00  0.00    -0.000 C 
BRANCH  15  16
ATOM     16  C   UNL     1      49.993  36.309 -14.398  1.00  0.00    -0.003 C 
ATOM     17  C   UNL     1      49.882  37.547 -13.509  1.00  0.00     0.004 C 
ENDBRANCH  15  16
ENDBRANCH  14  15
ENDBRANCH  13  14
ENDBRANCH  12  13
ENDBRANCH  11  12
ENDBRANCH  10  11
ENDBRANCH   1  10
TORSDOF 13
ENDMDL
MODEL 9
REMARK VINA RESULT:    -4.092      2.404      4.448
REMARK INTER + INTRA:          -9.150
REMARK INTER:                  -7.663
REMARK INTRA:                  -1.487
REMARK UNBOUND:                -1.949
REMARK SMILES CCCCCCCCCCCCCCC(=O)[O-]
REMARK SMILES IDX 9 1 10 2 11 3 12 4 13 5 14 6 15 7 16 8 17 9 8 10 7 11 6 12
REMARK SMILES IDX 5 13 4 14 3 15 2 16 1 17
REMARK H PARENT
REMARK Flexibility Score: inf
ROOT
ATOM      1  C   UNL     1      44.067  37.410 -12.812  1.00  0.00     0.000 C 
ENDROOT
BRANCH   1   2
ATOM      2  C   UNL     1      42.956  36.599 -12.117  1.00  0.00     0.000 C 
BRANCH   2   3
ATOM      3  C   UNL     1      42.776  36.902 -10.618  1.00  0.00     0.000 C 
BRANCH   3   4
ATOM      4  C   UNL     1      43.446  35.856  -9.711  1.00  0.00     0.000 C 
BRANCH   4   5
ATOM      5  C   UNL     1      44.946  36.129  -9.489  1.00  0.00     0.006 C 
BRANCH   5   6
ATOM      6  C   UNL     1      45.798  34.853  -9.363  1.00  0.00     0.053 C 
BRANCH   6   7
ATOM      7  C   UNL     1      45.687  34.213  -8.014  1.00  0.00     0.041 C 
ATOM      8  O   UNL     1      46.041  33.016  -7.847  1.00  0.00    -0.550 OA
ATOM      9  O   UNL     1      45.206  34.944  -6.935  1.00  0.00    -0.550 OA
ENDBRANCH   6   7
ENDBRANCH   5   6
ENDBRANCH   4   5
ENDBRANCH   3   4
ENDBRANCH   2   3
ENDBRANCH   1   2
BRANCH   1  10
ATOM     10  C   UNL     1      45.223  36.572 -13.393  1.00  0.00     0.000 C 
BRANCH  10  11
ATOM     11  C   UNL     1      45.135  35.068 -13.058  1.00  0.00    -0.000 C 
BRANCH  11  12
ATOM     12  C   UNL     1      46.496  34.358 -13.168  1.00  0.00    -0.000 C 
BRANCH  12  13
ATOM     13  C   UNL     1      47.653  35.337 -13.421  1.00  0.00    -0.000 C 
BRANCH  13  14
ATOM     14  C   UNL     1      48.592  34.861 -14.541  1.00  0.00    -0.000 C 
BRANCH  14  15
ATOM     15  C   UNL     1      47.883  34.730 -15.900  1.00  0.00    -0.000 C 
BRANCH  15  16
ATOM     16  C   UNL     1      48.222  35.868 -16.886  1.00  0.00    -0.003 C 
ATOM     17  C   UNL     1      46.976  36.599 -17.384  1.00  0.00     0.004 C 
ENDBRANCH  15  16
ENDBRANCH  14  15
ENDBRANCH  13  14
ENDBRANCH  12  13
ENDBRANCH  11  12
ENDBRANCH  10  11
ENDBRANCH   1  10
TORSDOF 13
ENDMDL
