MODEL 1
REMARK VINA RESULT:    15.075      0.000      0.000
REMARK INTER + INTRA:          25.932
REMARK INTER:                  26.531
REMARK INTRA:                  -0.600
REMARK UNBOUND:                -0.600
REMARK SMILES CCCCCCCCCCCCCCC(=O)[O-]
REMARK SMILES IDX 9 1 10 2 11 3 12 4 13 5 14 6 15 7 16 8 17 9 8 10 7 11 6 12
REMARK SMILES IDX 5 13 4 14 3 15 2 16 1 17
REMARK H PARENT
REMARK Flexibility Score: inf
ROOT
ATOM      1  C   UNL     1      56.440  47.051  21.519  1.00  0.00     0.000 C 
ENDROOT
BRANCH   1   2
ATOM      2  C   UNL     1      56.479  48.291  20.617  1.00  0.00     0.000 C 
BRANCH   2   3
ATOM      3  C   UNL     1      55.991  47.959  19.202  1.00  0.00     0.000 C 
BRANCH   3   4
ATOM      4  C   UNL     1      57.168  47.888  18.217  1.00  0.00     0.000 C 
BRANCH   4   5
ATOM      5  C   UNL     1      56.939  48.738  16.954  1.00  0.00     0.006 C 
BRANCH   5   6
ATOM      6  C   UNL     1      55.506  49.273  16.801  1.00  0.00     0.053 C 
BRANCH   6   7
ATOM      7  C   UNL     1      55.419  50.353  15.767  1.00  0.00     0.041 C 
ATOM      8  O   UNL     1      56.323  51.225  15.682  1.00  0.00    -0.550 OA
ATOM      9  O   UNL     1      54.354  50.377  14.876  1.00  0.00    -0.550 OA
ENDBRANCH   6   7
ENDBRANCH   5   6
ENDBRANCH   4   5
ENDBRANCH   3   4
ENDBRANCH   2   3
ENDBRANCH   1   2
BRANCH   1  10
ATOM     10  C   UNL     1      55.832  45.852  20.782  1.00  0.00     0.000 C 
BRANCH  10  11
ATOM     11  C   UNL     1      56.623  44.571  21.065  1.00  0.00    -0.000 C 
BRANCH  11  12
ATOM     12  C   UNL     1      56.015  43.372  20.319  1.00  0.00    -0.000 C 
BRANCH  12  13
ATOM     13  C   UNL     1      56.126  42.060  21.112  1.00  0.00    -0.000 C 
BRANCH  13  14
ATOM     14  C   UNL     1      54.836  41.223  21.052  1.00  0.00    -0.000 C 
BRANCH  14  15
ATOM     15  C   UNL     1      55.111  39.731  20.806  1.00  0.00    -0.000 C 
BRANCH  15  16
ATOM     16  C   UNL     1      56.608  39.388  20.857  1.00  0.00    -0.003 C 
ATOM     17  C   UNL     1      56.826  37.952  21.327  1.00  0.00     0.004 C 
ENDBRANCH  15  16
ENDBRANCH  14  15
ENDBRANCH  13  14
ENDBRANCH  12  13
ENDBRANCH  11  12
ENDBRANCH  10  11
ENDBRANCH   1  10
TORSDOF 13
ENDMDL
MODEL 2
REMARK VINA RESULT:    15.528      4.746      9.240
REMARK INTER + INTRA:          26.729
REMARK INTER:                  27.354
REMARK INTRA:                  -0.625
REMARK UNBOUND:                -0.600
REMARK SMILES CCCCCCCCCCCCCCC(=O)[O-]
REMARK SMILES IDX 9 1 10 2 11 3 12 4 13 5 14 6 15 7 16 8 17 9 8 10 7 11 6 12
REMARK SMILES IDX 5 13 4 14 3 15 2 16 1 17
REMARK H PARENT
REMARK Flexibility Score: inf
ROOT
ATOM      1  C   UNL     1      56.543  46.000  20.501  1.00  0.00     0.000 C 
ENDROOT
BRANCH   1   2
ATOM      2  C   UNL     1      55.543  44.860  20.268  1.00  0.00     0.000 C 
BRANCH   2   3
ATOM      3  C   UNL     1      56.205  43.494  20.485  1.00  0.00     0.000 C 
BRANCH   3   4
ATOM      4  C   UNL     1      55.155  42.372  20.504  1.00  0.00     0.000 C 
BRANCH   4   5
ATOM      5  C   UNL     1      55.539  41.211  21.439  1.00  0.00     0.006 C 
BRANCH   5   6
ATOM      6  C   UNL     1      55.390  39.816  20.812  1.00  0.00     0.053 C 
BRANCH   6   7
ATOM      7  C   UNL     1      56.642  39.005  20.946  1.00  0.00     0.041 C 
ATOM      8  O   UNL     1      57.745  39.472  20.557  1.00  0.00    -0.550 OA
ATOM      9  O   UNL     1      56.595  37.745  21.529  1.00  0.00    -0.550 OA
ENDBRANCH   6   7
ENDBRANCH   5   6
ENDBRANCH   4   5
ENDBRANCH   3   4
ENDBRANCH   2   3
ENDBRANCH   1   2
BRANCH   1  10
ATOM     10  C   UNL     1      55.820  47.340  20.678  1.00  0.00     0.000 C 
BRANCH  10  11
ATOM     11  C   UNL     1      55.909  48.186  19.403  1.00  0.00    -0.000 C 
BRANCH  11  12
ATOM     12  C   UNL     1      57.211  47.896  18.640  1.00  0.00    -0.000 C 
BRANCH  12  13
ATOM     13  C   UNL     1      57.152  48.344  17.171  1.00  0.00    -0.000 C 
BRANCH  13  14
ATOM     14  C   UNL     1      55.799  48.974  16.800  1.00  0.00    -0.000 C 
BRANCH  14  15
ATOM     15  C   UNL     1      55.954  50.327  16.086  1.00  0.00    -0.000 C 
BRANCH  15  16
ATOM     16  C   UNL     1      54.818  50.603  15.089  1.00  0.00    -0.003 C 
ATOM     17  C   UNL     1      53.581  49.774  15.423  1.00  0.00     0.004 C 
ENDBRANCH  15  16
ENDBRANCH  14  15
ENDBRANCH  13  14
ENDBRANCH  12  13
ENDBRANCH  11  12
ENDBRANCH  10  11
ENDBRANCH   1  10
TORSDOF 13
ENDMDL
MODEL 3
REMARK VINA RESULT:    15.598      4.293      8.834
REMARK INTER + INTRA:          26.853
REMARK INTER:                  27.573
REMARK INTRA:                  -0.720
REMARK UNBOUND:                -0.600
REMARK SMILES CCCCCCCCCCCCCCC(=O)[O-]
REMARK SMILES IDX 9 1 10 2 11 3 12 4 13 5 14 6 15 7 16 8 17 9 8 10 7 11 6 12
REMARK SMILES IDX 5 13 4 14 3 15 2 16 1 17
REMARK H PARENT
REMARK Flexibility Score: inf
ROOT
ATOM      1  C   UNL     1      56.399  47.767  20.778  1.00  0.00     0.000 C 
ENDROOT
BRANCH   1   2
ATOM      2  C   UNL     1      56.422  46.312  21.262  1.00  0.00     0.000 C 
BRANCH   2   3
ATOM      3  C   UNL     1      55.453  45.446  20.449  1.00  0.00     0.000 C 
BRANCH   3   4
ATOM      4  C   UNL     1      56.108  44.114  20.050  1.00  0.00     0.000 C 
BRANCH   4   5
ATOM      5  C   UNL     1      55.183  42.904  20.274  1.00  0.00     0.006 C 
BRANCH   5   6
ATOM      6  C   UNL     1      55.761  41.830  21.210  1.00  0.00     0.053 C 
BRANCH   6   7
ATOM      7  C   UNL     1      55.245  40.463  20.881  1.00  0.00     0.041 C 
ATOM      8  O   UNL     1      55.996  39.459  20.988  1.00  0.00    -0.550 OA
ATOM      9  O   UNL     1      53.923  40.296  20.487  1.00  0.00    -0.550 OA
ENDBRANCH   6   7
ENDBRANCH   5   6
ENDBRANCH   4   5
ENDBRANCH   3   4
ENDBRANCH   2   3
ENDBRANCH   1   2
BRANCH   1  10
ATOM     10  C   UNL     1      56.024  47.849  19.294  1.00  0.00     0.000 C 
BRANCH  10  11
ATOM     11  C   UNL     1      57.274  47.966  18.415  1.00  0.00    -0.000 C 
BRANCH  11  12
ATOM     12  C   UNL     1      56.906  48.419  16.993  1.00  0.00    -0.000 C 
BRANCH  12  13
ATOM     13  C   UNL     1      55.804  49.491  16.977  1.00  0.00    -0.000 C 
BRANCH  13  14
ATOM     14  C   UNL     1      55.904  50.421  15.756  1.00  0.00    -0.000 C 
BRANCH  14  15
ATOM     15  C   UNL     1      54.600  50.472  14.944  1.00  0.00    -0.000 C 
BRANCH  15  16
ATOM     16  C   UNL     1      53.509  49.556  15.518  1.00  0.00    -0.003 C 
ATOM     17  C   UNL     1      52.143  50.237  15.478  1.00  0.00     0.004 C 
ENDBRANCH  15  16
ENDBRANCH  14  15
ENDBRANCH  13  14
ENDBRANCH  12  13
ENDBRANCH  11  12
ENDBRANCH  10  11
ENDBRANCH   1  10
TORSDOF 13
ENDMDL
MODEL 4
REMARK VINA RESULT:    16.134      4.339      8.845
REMARK INTER + INTRA:          27.796
REMARK INTER:                  28.554
REMARK INTRA:                  -0.758
REMARK UNBOUND:                -0.600
REMARK SMILES CCCCCCCCCCCCCCC(=O)[O-]
REMARK SMILES IDX 9 1 10 2 11 3 12 4 13 5 14 6 15 7 16 8 17 9 8 10 7 11 6 12
REMARK SMILES IDX 5 13 4 14 3 15 2 16 1 17
REMARK H PARENT
REMARK Flexibility Score: inf
ROOT
ATOM      1  C   UNL     1      56.783  47.398  21.480  1.00  0.00     0.000 C 
ENDROOT
BRANCH   1   2
ATOM      2  C   UNL     1      56.691  45.916  21.867  1.00  0.00     0.000 C 
BRANCH   2   3
ATOM      3  C   UNL     1      56.074  45.088  20.734  1.00  0.00     0.000 C 
BRANCH   3   4
ATOM      4  C   UNL     1      56.548  43.628  20.799  1.00  0.00     0.000 C 
BRANCH   4   5
ATOM      5  C   UNL     1      55.397  42.620  20.633  1.00  0.00     0.006 C 
BRANCH   5   6
ATOM      6  C   UNL     1      55.499  41.386  21.546  1.00  0.00     0.053 C 
BRANCH   6   7
ATOM      7  C   UNL     1      55.228  40.115  20.802  1.00  0.00     0.041 C 
ATOM      8  O   UNL     1      54.153  39.972  20.163  1.00  0.00    -0.550 OA
ATOM      9  O   UNL     1      56.177  39.101  20.789  1.00  0.00    -0.550 OA
ENDBRANCH   6   7
ENDBRANCH   5   6
ENDBRANCH   4   5
ENDBRANCH   3   4
ENDBRANCH   2   3
ENDBRANCH   1   2
BRANCH   1  10
ATOM     10  C   UNL     1      56.513  47.594  19.983  1.00  0.00     0.000 C 
BRANCH  10  11
ATOM     11  C   UNL     1      55.410  48.634  19.755  1.00  0.00    -0.000 C 
BRANCH  11  12
ATOM     12  C   UNL     1      55.225  48.918  18.255  1.00  0.00    -0.000 C 
BRANCH  12  13
ATOM     13  C   UNL     1      56.485  48.605  17.431  1.00  0.00    -0.000 C 
BRANCH  13  14
ATOM     14  C   UNL     1      56.589  49.468  16.162  1.00  0.00    -0.000 C 
BRANCH  14  15
ATOM     15  C   UNL     1      55.464  50.511  16.063  1.00  0.00    -0.000 C 
BRANCH  15  16
ATOM     16  C   UNL     1      54.492  50.226  14.909  1.00  0.00    -0.003 C 
ATOM     17  C   UNL     1      53.071  50.016  15.427  1.00  0.00     0.004 C 
ENDBRANCH  15  16
ENDBRANCH  14  15
ENDBRANCH  13  14
ENDBRANCH  12  13
ENDBRANCH  11  12
ENDBRANCH  10  11
ENDBRANCH   1  10
TORSDOF 13
ENDMDL
MODEL 5
REMARK VINA RESULT:    17.218     12.123     13.904
REMARK INTER + INTRA:          29.704
REMARK INTER:                  30.385
REMARK INTRA:                  -0.681
REMARK UNBOUND:                -0.600
REMARK SMILES CCCCCCCCCCCCCCC(=O)[O-]
REMARK SMILES IDX 9 1 10 2 11 3 12 4 13 5 14 6 15 7 16 8 17 9 8 10 7 11 6 12
REMARK SMILES IDX 5 13 4 14 3 15 2 16 1 17
REMARK H PARENT
REMARK Flexibility Score: inf
ROOT
ATOM      1  C   UNL     1      52.296  55.375  27.546  1.00  0.00     0.000 C 
ENDROOT
BRANCH   1   2
ATOM      2  C   UNL     1      53.336  55.746  26.481  1.00  0.00     0.000 C 
BRANCH   2   3
ATOM      3  C   UNL     1      52.657  56.235  25.195  1.00  0.00     0.000 C 
BRANCH   3   4
ATOM      4  C   UNL     1      53.687  56.828  24.221  1.00  0.00     0.000 C 
BRANCH   4   5
ATOM      5  C   UNL     1      54.910  55.914  24.019  1.00  0.00     0.006 C 
BRANCH   5   6
ATOM      6  C   UNL     1      56.264  56.618  24.208  1.00  0.00     0.053 C 
BRANCH   6   7
ATOM      7  C   UNL     1      56.945  56.191  25.471  1.00  0.00     0.041 C 
ATOM      8  O   UNL     1      56.758  55.035  25.934  1.00  0.00    -0.550 OA
ATOM      9  O   UNL     1      57.812  57.060  26.121  1.00  0.00    -0.550 OA
ENDBRANCH   6   7
ENDBRANCH   5   6
ENDBRANCH   4   5
ENDBRANCH   3   4
ENDBRANCH   2   3
ENDBRANCH   1   2
BRANCH   1  10
ATOM     10  C   UNL     1      52.834  54.292  28.488  1.00  0.00     0.000 C 
BRANCH  10  11
ATOM     11  C   UNL     1      52.244  52.920  28.144  1.00  0.00    -0.000 C 
BRANCH  11  12
ATOM     12  C   UNL     1      50.750  52.860  28.500  1.00  0.00    -0.000 C 
BRANCH  12  13
ATOM     13  C   UNL     1      50.492  52.238  29.883  1.00  0.00    -0.000 C 
BRANCH  13  14
ATOM     14  C   UNL     1      50.237  53.298  30.968  1.00  0.00    -0.000 C 
BRANCH  14  15
ATOM     15  C   UNL     1      49.443  52.742  32.161  1.00  0.00    -0.000 C 
BRANCH  15  16
ATOM     16  C   UNL     1      48.718  53.840  32.954  1.00  0.00    -0.003 C 
ATOM     17  C   UNL     1      49.273  53.950  34.372  1.00  0.00     0.004 C 
ENDBRANCH  15  16
ENDBRANCH  14  15
ENDBRANCH  13  14
ENDBRANCH  12  13
ENDBRANCH  11  12
ENDBRANCH  10  11
ENDBRANCH   1  10
TORSDOF 13
ENDMDL
MODEL 6
REMARK VINA RESULT:    17.241      0.949      1.127
REMARK INTER + INTRA:          29.743
REMARK INTER:                  30.425
REMARK INTRA:                  -0.682
REMARK UNBOUND:                -0.600
REMARK SMILES CCCCCCCCCCCCCCC(=O)[O-]
REMARK SMILES IDX 9 1 10 2 11 3 12 4 13 5 14 6 15 7 16 8 17 9 8 10 7 11 6 12
REMARK SMILES IDX 5 13 4 14 3 15 2 16 1 17
REMARK H PARENT
REMARK Flexibility Score: inf
ROOT
ATOM      1  C   UNL     1      56.702  46.788  22.630  1.00  0.00     0.000 C 
ENDROOT
BRANCH   1   2
ATOM      2  C   UNL     1      56.954  47.768  21.476  1.00  0.00     0.000 C 
BRANCH   2   3
ATOM      3  C   UNL     1      55.991  47.506  20.312  1.00  0.00     0.000 C 
BRANCH   3   4
ATOM      4  C   UNL     1      56.661  47.819  18.965  1.00  0.00     0.000 C 
BRANCH   4   5
ATOM      5  C   UNL     1      55.766  48.660  18.036  1.00  0.00     0.006 C 
BRANCH   5   6
ATOM      6  C   UNL     1      56.358  48.905  16.638  1.00  0.00     0.053 C 
BRANCH   6   7
ATOM      7  C   UNL     1      55.759  50.109  15.979  1.00  0.00     0.041 C 
ATOM      8  O   UNL     1      56.399  51.192  15.934  1.00  0.00    -0.550 OA
ATOM      9  O   UNL     1      54.505  50.024  15.387  1.00  0.00    -0.550 OA
ENDBRANCH   6   7
ENDBRANCH   5   6
ENDBRANCH   4   5
ENDBRANCH   3   4
ENDBRANCH   2   3
ENDBRANCH   1   2
BRANCH   1  10
ATOM     10  C   UNL     1      57.609  45.557  22.516  1.00  0.00     0.000 C 
BRANCH  10  11
ATOM     11  C   UNL     1      56.782  44.278  22.347  1.00  0.00    -0.000 C 
BRANCH  11  12
ATOM     12  C   UNL     1      56.599  43.934  20.860  1.00  0.00    -0.000 C 
BRANCH  12  13
ATOM     13  C   UNL     1      55.515  42.869  20.625  1.00  0.00    -0.000 C 
BRANCH  13  14
ATOM     14  C   UNL     1      55.686  41.642  21.537  1.00  0.00    -0.000 C 
BRANCH  14  15
ATOM     15  C   UNL     1      55.140  40.353  20.902  1.00  0.00    -0.000 C 
BRANCH  15  16
ATOM     16  C   UNL     1      56.247  39.470  20.308  1.00  0.00    -0.003 C 
ATOM     17  C   UNL     1      56.870  38.576  21.378  1.00  0.00     0.004 C 
ENDBRANCH  15  16
ENDBRANCH  14  15
ENDBRANCH  13  14
ENDBRANCH  12  13
ENDBRANCH  11  12
ENDBRANCH  10  11
ENDBRANCH   1  10
TORSDOF 13
ENDMDL
MODEL 7
REMARK VINA RESULT:    17.919      6.685     10.987
REMARK INTER + INTRA:          30.938
REMARK INTER:                  31.536
REMARK INTRA:                  -0.599
REMARK UNBOUND:                -0.600
REMARK SMILES CCCCCCCCCCCCCCC(=O)[O-]
REMARK SMILES IDX 9 1 10 2 11 3 12 4 13 5 14 6 15 7 16 8 17 9 8 10 7 11 6 12
REMARK SMILES IDX 5 13 4 14 3 15 2 16 1 17
REMARK H PARENT
REMARK Flexibility Score: inf
ROOT
ATOM      1  C   UNL     1      54.967  52.815  21.076  1.00  0.00     0.000 C 
ENDROOT
BRANCH   1   2
ATOM      2  C   UNL     1      55.206  51.640  20.120  1.00  0.00     0.000 C 
BRANCH   2   3
ATOM      3  C   UNL     1      55.343  50.322  20.892  1.00  0.00     0.000 C 
BRANCH   3   4
ATOM      4  C   UNL     1      55.084  49.118  19.973  1.00  0.00     0.000 C 
BRANCH   4   5
ATOM      5  C   UNL     1      56.289  48.163  19.887  1.00  0.00     0.006 C 
BRANCH   5   6
ATOM      6  C   UNL     1      56.240  46.990  20.880  1.00  0.00     0.053 C 
BRANCH   6   7
ATOM      7  C   UNL     1      57.042  47.267  22.115  1.00  0.00     0.041 C 
ATOM      8  O   UNL     1      56.468  47.400  23.227  1.00  0.00    -0.550 OA
ATOM      9  O   UNL     1      58.427  47.347  22.040  1.00  0.00    -0.550 OA
ENDBRANCH   6   7
ENDBRANCH   5   6
ENDBRANCH   4   5
ENDBRANCH   3   4
ENDBRANCH   2   3
ENDBRANCH   1   2
BRANCH   1  10
ATOM     10  C   UNL     1      53.662  52.633  21.859  1.00  0.00     0.000 C 
BRANCH  10  11
ATOM     11  C   UNL     1      53.074  53.987  22.273  1.00  0.00    -0.000 C 
BRANCH  11  12
ATOM     12  C   UNL     1      53.750  54.511  23.551  1.00  0.00    -0.000 C 
BRANCH  12  13
ATOM     13  C   UNL     1      54.426  55.876  23.348  1.00  0.00    -0.000 C 
BRANCH  13  14
ATOM     14  C   UNL     1      54.367  56.757  24.608  1.00  0.00    -0.000 C 
BRANCH  14  15
ATOM     15  C   UNL     1      55.449  56.390  25.636  1.00  0.00    -0.000 C 
BRANCH  15  16
ATOM     16  C   UNL     1      56.872  56.582  25.092  1.00  0.00    -0.003 C 
ATOM     17  C   UNL     1      57.811  57.100  26.180  1.00  0.00     0.004 C 
ENDBRANCH  15  16
ENDBRANCH  14  15
ENDBRANCH  13  14
ENDBRANCH  12  13
ENDBRANCH  11  12
ENDBRANCH  10  11
ENDBRANCH   1  10
TORSDOF 13
ENDMDL
