MODEL 1
REMARK VINA RESULT:    -3.091      0.000      0.000
REMARK INTER + INTRA:          -7.642
REMARK INTER:                  -5.801
REMARK INTRA:                  -1.841
REMARK UNBOUND:                -1.841
REMARK SMILES CCCCCCCCCCCCCC=CC=CC(=O)OC
REMARK SMILES IDX 9 1 8 2 7 3 6 4 5 5 4 6 3 7 2 8 1 9 10 10 11 11 12 12 13 13
REMARK SMILES IDX 14 14 15 15 16 16 17 17 18 18 19 19 20 20 21 21
REMARK H PARENT
REMARK Flexibility Score: inf
ROOT
ATOM      1  C   UNL     1      23.920  51.810  52.932  1.00  0.00     0.000 C 
ENDROOT
BRANCH   1   2
ATOM      2  C   UNL     1      23.670  50.605  53.861  1.00  0.00     0.000 C 
BRANCH   2   3
ATOM      3  C   UNL     1      23.728  50.922  55.366  1.00  0.00     0.000 C 
BRANCH   3   4
ATOM      4  C   UNL     1      22.412  50.612  56.092  1.00  0.00    -0.000 C 
BRANCH   4   5
ATOM      5  C   UNL     1      21.498  51.846  56.125  1.00  0.00    -0.000 C 
BRANCH   5   6
ATOM      6  C   UNL     1      20.560  51.930  54.908  1.00  0.00    -0.000 C 
BRANCH   6   7
ATOM      7  C   UNL     1      19.553  53.097  54.938  1.00  0.00    -0.000 C 
BRANCH   7   8
ATOM      8  C   UNL     1      20.164  54.473  55.255  1.00  0.00    -0.003 C 
ATOM      9  C   UNL     1      19.320  55.634  54.733  1.00  0.00     0.004 C 
ENDBRANCH   7   8
ENDBRANCH   6   7
ENDBRANCH   5   6
ENDBRANCH   4   5
ENDBRANCH   3   4
ENDBRANCH   2   3
ENDBRANCH   1   2
BRANCH   1  10
ATOM     10  C   UNL     1      23.291  53.138  53.398  1.00  0.00     0.000 C 
BRANCH  10  11
ATOM     11  C   UNL     1      24.068  54.403  52.991  1.00  0.00     0.000 C 
BRANCH  11  12
ATOM     12  C   UNL     1      23.293  55.699  53.283  1.00  0.00     0.004 C 
BRANCH  12  13
ATOM     13  C   UNL     1      22.372  56.095  52.119  1.00  0.00     0.027 C 
BRANCH  13  14
ATOM     14  C   UNL     1      22.969  55.776  50.772  1.00  0.00    -0.027 C 
ATOM     15  C   UNL     1      22.639  54.716  50.021  1.00  0.00    -0.004 C 
BRANCH  15  16
ATOM     16  C   UNL     1      21.584  53.745  50.386  1.00  0.00     0.007 C 
ATOM     17  C   UNL     1      21.263  52.664  49.660  1.00  0.00     0.093 C 
BRANCH  17  18
ATOM     18  C   UNL     1      22.008  52.160  48.492  1.00  0.00     0.330 C 
ATOM     19  O   UNL     1      21.629  52.500  47.337  1.00  0.00    -0.247 OA
BRANCH  18  20
ATOM     20  O   UNL     1      23.073  51.268  48.646  1.00  0.00    -0.466 OA
ATOM     21  C   UNL     1      23.145  50.333  49.716  1.00  0.00     0.282 C 
ENDBRANCH  18  20
ENDBRANCH  17  18
ENDBRANCH  15  16
ENDBRANCH  13  14
ENDBRANCH  12  13
ENDBRANCH  11  12
ENDBRANCH  10  11
ENDBRANCH   1  10
TORSDOF 15
ENDMDL
MODEL 2
REMARK VINA RESULT:    -2.599     11.420     14.621
REMARK INTER + INTRA:          -6.719
REMARK INTER:                  -4.857
REMARK INTRA:                  -1.862
REMARK UNBOUND:                -1.841
REMARK SMILES CCCCCCCCCCCCCC=CC=CC(=O)OC
REMARK SMILES IDX 9 1 8 2 7 3 6 4 5 5 4 6 3 7 2 8 1 9 10 10 11 11 12 12 13 13
REMARK SMILES IDX 14 14 15 15 16 16 17 17 18 18 19 19 20 20 21 21
REMARK H PARENT
REMARK Flexibility Score: inf
ROOT
ATOM      1  C   UNL     1      21.209  50.902  37.281  1.00  0.00     0.000 C 
ENDROOT
BRANCH   1   2
ATOM      2  C   UNL     1      20.453  51.299  35.997  1.00  0.00     0.000 C 
BRANCH   2   3
ATOM      3  C   UNL     1      20.089  52.790  35.893  1.00  0.00     0.000 C 
BRANCH   3   4
ATOM      4  C   UNL     1      18.727  53.118  36.522  1.00  0.00    -0.000 C 
BRANCH   4   5
ATOM      5  C   UNL     1      18.776  54.458  37.271  1.00  0.00    -0.000 C 
BRANCH   5   6
ATOM      6  C   UNL     1      18.955  54.289  38.790  1.00  0.00    -0.000 C 
BRANCH   6   7
ATOM      7  C   UNL     1      18.937  55.602  39.599  1.00  0.00    -0.000 C 
BRANCH   7   8
ATOM      8  C   UNL     1      17.803  55.711  40.634  1.00  0.00    -0.003 C 
ATOM      9  C   UNL     1      18.306  55.658  42.075  1.00  0.00     0.004 C 
ENDBRANCH   7   8
ENDBRANCH   6   7
ENDBRANCH   5   6
ENDBRANCH   4   5
ENDBRANCH   3   4
ENDBRANCH   2   3
ENDBRANCH   1   2
BRANCH   1  10
ATOM     10  C   UNL     1      22.230  51.942  37.787  1.00  0.00     0.000 C 
BRANCH  10  11
ATOM     11  C   UNL     1      23.469  52.124  36.892  1.00  0.00     0.000 C 
BRANCH  11  12
ATOM     12  C   UNL     1      24.125  53.506  37.056  1.00  0.00     0.004 C 
BRANCH  12  13
ATOM     13  C   UNL     1      23.433  54.578  36.199  1.00  0.00     0.027 C 
BRANCH  13  14
ATOM     14  C   UNL     1      22.316  55.274  36.932  1.00  0.00    -0.027 C 
ATOM     15  C   UNL     1      22.369  55.665  38.213  1.00  0.00    -0.004 C 
BRANCH  15  16
ATOM     16  C   UNL     1      23.569  55.526  39.068  1.00  0.00     0.007 C 
ATOM     17  C   UNL     1      23.546  55.144  40.352  1.00  0.00     0.093 C 
BRANCH  17  18
ATOM     18  C   UNL     1      22.369  54.629  41.076  1.00  0.00     0.330 C 
ATOM     19  O   UNL     1      21.864  55.334  41.993  1.00  0.00    -0.247 OA
BRANCH  18  20
ATOM     20  O   UNL     1      21.856  53.357  40.806  1.00  0.00    -0.466 OA
ATOM     21  C   UNL     1      20.790  52.784  41.554  1.00  0.00     0.282 C 
ENDBRANCH  18  20
ENDBRANCH  17  18
ENDBRANCH  15  16
ENDBRANCH  13  14
ENDBRANCH  12  13
ENDBRANCH  11  12
ENDBRANCH  10  11
ENDBRANCH   1  10
TORSDOF 15
ENDMDL
MODEL 3
REMARK VINA RESULT:    -2.310     10.823     14.710
REMARK INTER + INTRA:          -6.176
REMARK INTER:                  -3.854
REMARK INTRA:                  -2.322
REMARK UNBOUND:                -1.841
REMARK SMILES CCCCCCCCCCCCCC=CC=CC(=O)OC
REMARK SMILES IDX 9 1 8 2 7 3 6 4 5 5 4 6 3 7 2 8 1 9 10 10 11 11 12 12 13 13
REMARK SMILES IDX 14 14 15 15 16 16 17 17 18 18 19 19 20 20 21 21
REMARK H PARENT
REMARK Flexibility Score: inf
ROOT
ATOM      1  C   UNL     1      20.038  51.873  37.046  1.00  0.00     0.000 C 
ENDROOT
BRANCH   1   2
ATOM      2  C   UNL     1      20.832  51.651  38.349  1.00  0.00     0.000 C 
BRANCH   2   3
ATOM      3  C   UNL     1      22.247  51.075  38.157  1.00  0.00     0.000 C 
BRANCH   3   4
ATOM      4  C   UNL     1      22.730  51.153  36.702  1.00  0.00    -0.000 C 
BRANCH   4   5
ATOM      5  C   UNL     1      24.114  51.816  36.618  1.00  0.00    -0.000 C 
BRANCH   5   6
ATOM      6  C   UNL     1      24.087  53.166  35.881  1.00  0.00    -0.000 C 
BRANCH   6   7
ATOM      7  C   UNL     1      24.110  54.409  36.793  1.00  0.00    -0.000 C 
BRANCH   7   8
ATOM      8  C   UNL     1      22.805  54.672  37.564  1.00  0.00    -0.003 C 
ATOM      9  C   UNL     1      22.798  56.019  38.283  1.00  0.00     0.004 C 
ENDBRANCH   7   8
ENDBRANCH   6   7
ENDBRANCH   5   6
ENDBRANCH   4   5
ENDBRANCH   3   4
ENDBRANCH   2   3
ENDBRANCH   1   2
BRANCH   1  10
ATOM     10  C   UNL     1      20.211  53.264  36.403  1.00  0.00     0.000 C 
BRANCH  10  11
ATOM     11  C   UNL     1      18.989  54.192  36.525  1.00  0.00     0.000 C 
BRANCH  11  12
ATOM     12  C   UNL     1      19.157  55.260  37.619  1.00  0.00     0.004 C 
BRANCH  12  13
ATOM     13  C   UNL     1      18.934  54.684  39.026  1.00  0.00     0.027 C 
BRANCH  13  14
ATOM     14  C   UNL     1      19.478  55.578  40.111  1.00  0.00    -0.027 C 
ATOM     15  C   UNL     1      20.167  55.152  41.179  1.00  0.00    -0.004 C 
BRANCH  15  16
ATOM     16  C   UNL     1      20.548  53.740  41.403  1.00  0.00     0.007 C 
ATOM     17  C   UNL     1      21.809  53.307  41.546  1.00  0.00     0.093 C 
BRANCH  17  18
ATOM     18  C   UNL     1      23.002  54.164  41.685  1.00  0.00     0.330 C 
ATOM     19  O   UNL     1      23.918  54.074  40.822  1.00  0.00    -0.247 OA
BRANCH  18  20
ATOM     20  O   UNL     1      23.155  55.013  42.784  1.00  0.00    -0.466 OA
ATOM     21  C   UNL     1      24.043  56.125  42.779  1.00  0.00     0.282 C 
ENDBRANCH  18  20
ENDBRANCH  17  18
ENDBRANCH  15  16
ENDBRANCH  13  14
ENDBRANCH  12  13
ENDBRANCH  11  12
ENDBRANCH  10  11
ENDBRANCH   1  10
TORSDOF 15
ENDMDL
MODEL 4
REMARK VINA RESULT:    -2.198      2.424      6.129
REMARK INTER + INTRA:          -5.967
REMARK INTER:                  -5.365
REMARK INTRA:                  -0.601
REMARK UNBOUND:                -1.841
REMARK SMILES CCCCCCCCCCCCCC=CC=CC(=O)OC
REMARK SMILES IDX 9 1 8 2 7 3 6 4 5 5 4 6 3 7 2 8 1 9 10 10 11 11 12 12 13 13
REMARK SMILES IDX 14 14 15 15 16 16 17 17 18 18 19 19 20 20 21 21
REMARK H PARENT
REMARK Flexibility Score: inf
ROOT
ATOM      1  C   UNL     1      21.524  55.244  52.482  1.00  0.00     0.000 C 
ENDROOT
BRANCH   1   2
ATOM      2  C   UNL     1      21.772  56.057  51.196  1.00  0.00     0.000 C 
BRANCH   2   3
ATOM      3  C   UNL     1      23.239  56.103  50.730  1.00  0.00     0.000 C 
BRANCH   3   4
ATOM      4  C   UNL     1      23.446  55.470  49.347  1.00  0.00    -0.000 C 
BRANCH   4   5
ATOM      5  C   UNL     1      23.460  53.937  49.440  1.00  0.00    -0.000 C 
BRANCH   5   6
ATOM      6  C   UNL     1      22.054  53.318  49.345  1.00  0.00    -0.000 C 
BRANCH   6   7
ATOM      7  C   UNL     1      22.022  51.778  49.278  1.00  0.00    -0.000 C 
BRANCH   7   8
ATOM      8  C   UNL     1      23.358  51.087  49.600  1.00  0.00    -0.003 C 
ATOM      9  C   UNL     1      23.574  50.875  51.097  1.00  0.00     0.004 C 
ENDBRANCH   7   8
ENDBRANCH   6   7
ENDBRANCH   5   6
ENDBRANCH   4   5
ENDBRANCH   3   4
ENDBRANCH   2   3
ENDBRANCH   1   2
BRANCH   1  10
ATOM     10  C   UNL     1      20.926  56.043  53.657  1.00  0.00     0.000 C 
BRANCH  10  11
ATOM     11  C   UNL     1      21.724  55.961  54.971  1.00  0.00     0.000 C 
BRANCH  11  12
ATOM     12  C   UNL     1      20.945  55.266  56.100  1.00  0.00     0.004 C 
BRANCH  12  13
ATOM     13  C   UNL     1      19.428  55.297  55.858  1.00  0.00     0.027 C 
BRANCH  13  14
ATOM     14  C   UNL     1      18.984  54.283  54.835  1.00  0.00    -0.027 C 
ATOM     15  C   UNL     1      19.181  52.961  54.933  1.00  0.00    -0.004 C 
BRANCH  15  16
ATOM     16  C   UNL     1      19.806  52.306  56.104  1.00  0.00     0.007 C 
ATOM     17  C   UNL     1      20.948  51.606  56.062  1.00  0.00     0.093 C 
BRANCH  17  18
ATOM     18  C   UNL     1      21.862  51.518  54.907  1.00  0.00     0.330 C 
ATOM     19  O   UNL     1      22.027  50.400  54.348  1.00  0.00    -0.247 OA
BRANCH  18  20
ATOM     20  O   UNL     1      22.588  52.632  54.475  1.00  0.00    -0.466 OA
ATOM     21  C   UNL     1      24.010  52.654  54.433  1.00  0.00     0.282 C 
ENDBRANCH  18  20
ENDBRANCH  17  18
ENDBRANCH  15  16
ENDBRANCH  13  14
ENDBRANCH  12  13
ENDBRANCH  11  12
ENDBRANCH  10  11
ENDBRANCH   1  10
TORSDOF 15
ENDMDL
MODEL 5
REMARK VINA RESULT:    -2.055     11.172     14.604
REMARK INTER + INTRA:          -5.699
REMARK INTER:                  -3.175
REMARK INTRA:                  -2.524
REMARK UNBOUND:                -1.841
REMARK SMILES CCCCCCCCCCCCCC=CC=CC(=O)OC
REMARK SMILES IDX 9 1 8 2 7 3 6 4 5 5 4 6 3 7 2 8 1 9 10 10 11 11 12 12 13 13
REMARK SMILES IDX 14 14 15 15 16 16 17 17 18 18 19 19 20 20 21 21
REMARK H PARENT
REMARK Flexibility Score: inf
ROOT
ATOM      1  C   UNL     1      22.990  52.465  36.050  1.00  0.00     0.000 C 
ENDROOT
BRANCH   1   2
ATOM      2  C   UNL     1      22.941  53.997  35.877  1.00  0.00     0.000 C 
BRANCH   2   3
ATOM      3  C   UNL     1      22.768  54.792  37.183  1.00  0.00     0.000 C 
BRANCH   3   4
ATOM      4  C   UNL     1      24.047  55.528  37.607  1.00  0.00    -0.000 C 
BRANCH   4   5
ATOM      5  C   UNL     1      24.125  55.658  39.136  1.00  0.00    -0.000 C 
BRANCH   5   6
ATOM      6  C   UNL     1      22.798  55.314  39.835  1.00  0.00    -0.000 C 
BRANCH   6   7
ATOM      7  C   UNL     1      22.903  54.257  40.952  1.00  0.00    -0.000 C 
BRANCH   7   8
ATOM      8  C   UNL     1      22.093  52.972  40.707  1.00  0.00    -0.003 C 
ATOM      9  C   UNL     1      21.096  52.675  41.825  1.00  0.00     0.004 C 
ENDBRANCH   7   8
ENDBRANCH   6   7
ENDBRANCH   5   6
ENDBRANCH   4   5
ENDBRANCH   3   4
ENDBRANCH   2   3
ENDBRANCH   1   2
BRANCH   1  10
ATOM     10  C   UNL     1      22.712  51.958  37.479  1.00  0.00     0.000 C 
BRANCH  10  11
ATOM     11  C   UNL     1      21.642  50.856  37.581  1.00  0.00     0.000 C 
BRANCH  11  12
ATOM     12  C   UNL     1      20.380  51.173  36.762  1.00  0.00     0.004 C 
BRANCH  12  13
ATOM     13  C   UNL     1      19.764  52.526  37.149  1.00  0.00     0.027 C 
BRANCH  13  14
ATOM     14  C   UNL     1      19.074  52.486  38.488  1.00  0.00    -0.027 C 
ATOM     15  C   UNL     1      18.893  53.547  39.288  1.00  0.00    -0.004 C 
BRANCH  15  16
ATOM     16  C   UNL     1      19.290  54.926  38.927  1.00  0.00     0.007 C 
ATOM     17  C   UNL     1      18.804  56.032  39.509  1.00  0.00     0.093 C 
BRANCH  17  18
ATOM     18  C   UNL     1      17.946  56.068  40.708  1.00  0.00     0.330 C 
ATOM     19  O   UNL     1      16.694  56.123  40.557  1.00  0.00    -0.247 OA
BRANCH  18  20
ATOM     20  O   UNL     1      18.500  56.109  41.991  1.00  0.00    -0.466 OA
ATOM     21  C   UNL     1      19.878  55.861  42.241  1.00  0.00     0.282 C 
ENDBRANCH  18  20
ENDBRANCH  17  18
ENDBRANCH  15  16
ENDBRANCH  13  14
ENDBRANCH  12  13
ENDBRANCH  11  12
ENDBRANCH  10  11
ENDBRANCH   1  10
TORSDOF 15
ENDMDL
MODEL 6
REMARK VINA RESULT:    -1.921     10.831     14.357
REMARK INTER + INTRA:          -5.447
REMARK INTER:                  -4.861
REMARK INTRA:                  -0.586
REMARK UNBOUND:                -1.841
REMARK SMILES CCCCCCCCCCCCCC=CC=CC(=O)OC
REMARK SMILES IDX 9 1 8 2 7 3 6 4 5 5 4 6 3 7 2 8 1 9 10 10 11 11 12 12 13 13
REMARK SMILES IDX 14 14 15 15 16 16 17 17 18 18 19 19 20 20 21 21
REMARK H PARENT
REMARK Flexibility Score: inf
ROOT
ATOM      1  C   UNL     1      21.008  52.272  35.882  1.00  0.00     0.000 C 
ENDROOT
BRANCH   1   2
ATOM      2  C   UNL     1      20.924  50.921  36.620  1.00  0.00     0.000 C 
BRANCH   2   3
ATOM      3  C   UNL     1      22.213  50.498  37.348  1.00  0.00     0.000 C 
BRANCH   3   4
ATOM      4  C   UNL     1      23.006  51.691  37.900  1.00  0.00    -0.000 C 
BRANCH   4   5
ATOM      5  C   UNL     1      22.592  52.004  39.345  1.00  0.00    -0.000 C 
BRANCH   5   6
ATOM      6  C   UNL     1      23.460  53.096  39.994  1.00  0.00    -0.000 C 
BRANCH   6   7
ATOM      7  C   UNL     1      23.012  54.543  39.706  1.00  0.00    -0.000 C 
BRANCH   7   8
ATOM      8  C   UNL     1      22.580  55.348  40.944  1.00  0.00    -0.003 C 
ATOM      9  C   UNL     1      23.065  54.730  42.254  1.00  0.00     0.004 C 
ENDBRANCH   7   8
ENDBRANCH   6   7
ENDBRANCH   5   6
ENDBRANCH   4   5
ENDBRANCH   3   4
ENDBRANCH   2   3
ENDBRANCH   1   2
BRANCH   1  10
ATOM     10  C   UNL     1      21.720  53.399  36.657  1.00  0.00     0.000 C 
BRANCH  10  11
ATOM     11  C   UNL     1      21.900  54.712  35.875  1.00  0.00     0.000 C 
BRANCH  11  12
ATOM     12  C   UNL     1      21.208  55.908  36.550  1.00  0.00     0.004 C 
BRANCH  12  13
ATOM     13  C   UNL     1      19.687  55.716  36.648  1.00  0.00     0.027 C 
BRANCH  13  14
ATOM     14  C   UNL     1      19.136  56.122  37.991  1.00  0.00    -0.027 C 
ATOM     15  C   UNL     1      18.890  55.278  39.003  1.00  0.00    -0.004 C 
BRANCH  15  16
ATOM     16  C   UNL     1      19.193  53.831  38.960  1.00  0.00     0.007 C 
ATOM     17  C   UNL     1      19.510  53.090  40.032  1.00  0.00     0.093 C 
BRANCH  17  18
ATOM     18  C   UNL     1      19.436  53.533  41.437  1.00  0.00     0.330 C 
ATOM     19  O   UNL     1      20.160  52.956  42.294  1.00  0.00    -0.247 OA
BRANCH  18  20
ATOM     20  O   UNL     1      18.535  54.525  41.834  1.00  0.00    -0.466 OA
ATOM     21  C   UNL     1      18.952  55.752  42.422  1.00  0.00     0.282 C 
ENDBRANCH  18  20
ENDBRANCH  17  18
ENDBRANCH  15  16
ENDBRANCH  13  14
ENDBRANCH  12  13
ENDBRANCH  11  12
ENDBRANCH  10  11
ENDBRANCH   1  10
TORSDOF 15
ENDMDL
MODEL 7
REMARK VINA RESULT:    -1.781      2.963      5.835
REMARK INTER + INTRA:          -5.183
REMARK INTER:                  -4.396
REMARK INTRA:                  -0.788
REMARK UNBOUND:                -1.841
REMARK SMILES CCCCCCCCCCCCCC=CC=CC(=O)OC
REMARK SMILES IDX 9 1 8 2 7 3 6 4 5 5 4 6 3 7 2 8 1 9 10 10 11 11 12 12 13 13
REMARK SMILES IDX 14 14 15 15 16 16 17 17 18 18 19 19 20 20 21 21
REMARK H PARENT
REMARK Flexibility Score: inf
ROOT
ATOM      1  C   UNL     1      21.440  51.744  51.278  1.00  0.00     0.000 C 
ENDROOT
BRANCH   1   2
ATOM      2  C   UNL     1      22.695  50.864  51.103  1.00  0.00     0.000 C 
BRANCH   2   3
ATOM      3  C   UNL     1      23.472  51.093  49.795  1.00  0.00     0.000 C 
BRANCH   3   4
ATOM      4  C   UNL     1      24.076  52.502  49.699  1.00  0.00    -0.000 C 
BRANCH   4   5
ATOM      5  C   UNL     1      22.991  53.544  49.391  1.00  0.00    -0.000 C 
BRANCH   5   6
ATOM      6  C   UNL     1      23.542  54.789  48.672  1.00  0.00    -0.000 C 
BRANCH   6   7
ATOM      7  C   UNL     1      24.076  55.896  49.602  1.00  0.00    -0.000 C 
BRANCH   7   8
ATOM      8  C   UNL     1      23.613  55.794  51.066  1.00  0.00    -0.003 C 
ATOM      9  C   UNL     1      22.133  56.125  51.246  1.00  0.00     0.004 C 
ENDBRANCH   7   8
ENDBRANCH   6   7
ENDBRANCH   5   6
ENDBRANCH   4   5
ENDBRANCH   3   4
ENDBRANCH   2   3
ENDBRANCH   1   2
BRANCH   1  10
ATOM     10  C   UNL     1      21.319  52.448  52.644  1.00  0.00     0.000 C 
BRANCH  10  11
ATOM     11  C   UNL     1      20.643  53.830  52.605  1.00  0.00     0.000 C 
BRANCH  11  12
ATOM     12  C   UNL     1      19.918  54.177  53.916  1.00  0.00     0.004 C 
BRANCH  12  13
ATOM     13  C   UNL     1      20.139  55.641  54.328  1.00  0.00     0.027 C 
BRANCH  13  14
ATOM     14  C   UNL     1      20.750  55.771  55.699  1.00  0.00    -0.027 C 
ATOM     15  C   UNL     1      22.030  55.505  55.995  1.00  0.00    -0.004 C 
BRANCH  15  16
ATOM     16  C   UNL     1      23.042  55.108  54.990  1.00  0.00     0.007 C 
ATOM     17  C   UNL     1      23.625  53.903  54.934  1.00  0.00     0.093 C 
BRANCH  17  18
ATOM     18  C   UNL     1      23.240  52.723  55.732  1.00  0.00     0.330 C 
ATOM     19  O   UNL     1      24.125  51.874  56.026  1.00  0.00    -0.247 OA
BRANCH  18  20
ATOM     20  O   UNL     1      21.909  52.505  56.101  1.00  0.00    -0.466 OA
ATOM     21  C   UNL     1      21.239  51.272  55.868  1.00  0.00     0.282 C 
ENDBRANCH  18  20
ENDBRANCH  17  18
ENDBRANCH  15  16
ENDBRANCH  13  14
ENDBRANCH  12  13
ENDBRANCH  11  12
ENDBRANCH  10  11
ENDBRANCH   1  10
TORSDOF 15
ENDMDL
MODEL 8
REMARK VINA RESULT:    -0.656     11.771     15.057
REMARK INTER + INTRA:          -3.072
REMARK INTER:                  -1.398
REMARK INTRA:                  -1.674
REMARK UNBOUND:                -1.841
REMARK SMILES CCCCCCCCCCCCCC=CC=CC(=O)OC
REMARK SMILES IDX 9 1 8 2 7 3 6 4 5 5 4 6 3 7 2 8 1 9 10 10 11 11 12 12 13 13
REMARK SMILES IDX 14 14 15 15 16 16 17 17 18 18 19 19 20 20 21 21
REMARK H PARENT
REMARK Flexibility Score: inf
ROOT
ATOM      1  C   UNL     1      21.588  50.984  37.511  1.00  0.00     0.000 C 
ENDROOT
BRANCH   1   2
ATOM      2  C   UNL     1      20.314  50.689  36.694  1.00  0.00     0.000 C 
BRANCH   2   3
ATOM      3  C   UNL     1      19.696  51.911  35.992  1.00  0.00     0.000 C 
BRANCH   3   4
ATOM      4  C   UNL     1      19.821  53.200  36.817  1.00  0.00    -0.000 C 
BRANCH   4   5
ATOM      5  C   UNL     1      18.564  53.432  37.668  1.00  0.00    -0.000 C 
BRANCH   5   6
ATOM      6  C   UNL     1      18.887  53.857  39.111  1.00  0.00    -0.000 C 
BRANCH   6   7
ATOM      7  C   UNL     1      19.645  52.807  39.947  1.00  0.00    -0.000 C 
BRANCH   7   8
ATOM      8  C   UNL     1      20.816  53.361  40.779  1.00  0.00    -0.003 C 
ATOM      9  C   UNL     1      22.083  52.518  40.658  1.00  0.00     0.004 C 
ENDBRANCH   7   8
ENDBRANCH   6   7
ENDBRANCH   5   6
ENDBRANCH   4   5
ENDBRANCH   3   4
ENDBRANCH   2   3
ENDBRANCH   1   2
BRANCH   1  10
ATOM     10  C   UNL     1      22.909  50.893  36.720  1.00  0.00     0.000 C 
BRANCH  10  11
ATOM     11  C   UNL     1      24.120  51.560  37.398  1.00  0.00     0.000 C 
BRANCH  11  12
ATOM     12  C   UNL     1      24.035  53.095  37.392  1.00  0.00     0.004 C 
BRANCH  12  13
ATOM     13  C   UNL     1      23.773  53.654  35.985  1.00  0.00     0.027 C 
BRANCH  13  14
ATOM     14  C   UNL     1      24.097  55.122  35.875  1.00  0.00    -0.027 C 
ATOM     15  C   UNL     1      23.291  56.115  36.275  1.00  0.00    -0.004 C 
BRANCH  15  16
ATOM     16  C   UNL     1      21.990  55.900  36.947  1.00  0.00     0.007 C 
ATOM     17  C   UNL     1      21.834  55.767  38.272  1.00  0.00     0.093 C 
BRANCH  17  18
ATOM     18  C   UNL     1      22.879  55.991  39.288  1.00  0.00     0.330 C 
ATOM     19  O   UNL     1      24.083  56.051  38.918  1.00  0.00    -0.247 OA
BRANCH  18  20
ATOM     20  O   UNL     1      22.559  56.069  40.647  1.00  0.00    -0.466 OA
ATOM     21  C   UNL     1      23.506  55.809  41.676  1.00  0.00     0.282 C 
ENDBRANCH  18  20
ENDBRANCH  17  18
ENDBRANCH  15  16
ENDBRANCH  13  14
ENDBRANCH  12  13
ENDBRANCH  11  12
ENDBRANCH  10  11
ENDBRANCH   1  10
TORSDOF 15
ENDMDL
