MODEL 1
REMARK VINA RESULT:    -3.001      0.000      0.000
REMARK INTER + INTRA:          -3.394
REMARK INTER:                  -3.352
REMARK INTRA:                  -0.042
REMARK UNBOUND:                -0.042
REMARK SMILES CCCC(=O)[O-]
REMARK SMILES IDX 3 1 4 2 5 3 6 4 2 5 1 6
REMARK H PARENT
REMARK Flexibility Score: inf
ROOT
ATOM      1  C   UNL     1      19.573  22.364  48.640  1.00  0.00     0.052 C 
ENDROOT
BRANCH   1   2
ATOM      2  C   UNL     1      19.841  22.054  47.201  1.00  0.00     0.041 C 
ATOM      3  O   UNL     1      19.063  21.299  46.560  1.00  0.00    -0.550 OA
ATOM      4  O   UNL     1      20.977  22.557  46.580  1.00  0.00    -0.550 OA
ENDBRANCH   1   2
BRANCH   1   5
ATOM      5  C   UNL     1      20.302  23.646  49.055  1.00  0.00     0.003 C 
ATOM      6  C   UNL     1      19.444  24.878  48.787  1.00  0.00     0.004 C 
ENDBRANCH   1   5
TORSDOF 2
ENDMDL
MODEL 2
REMARK VINA RESULT:    -2.978      1.696      2.349
REMARK INTER + INTRA:          -3.368
REMARK INTER:                  -3.309
REMARK INTRA:                  -0.059
REMARK UNBOUND:                -0.042
REMARK SMILES CCCC(=O)[O-]
REMARK SMILES IDX 3 1 4 2 5 3 6 4 2 5 1 6
REMARK H PARENT
REMARK Flexibility Score: inf
ROOT
ATOM      1  C   UNL     1      21.143  23.469  48.296  1.00  0.00     0.052 C 
ENDROOT
BRANCH   1   2
ATOM      2  C   UNL     1      21.259  23.421  46.805  1.00  0.00     0.041 C 
ATOM      3  O   UNL     1      22.228  22.826  46.263  1.00  0.00    -0.550 OA
ATOM      4  O   UNL     1      20.324  24.075  46.012  1.00  0.00    -0.550 OA
ENDBRANCH   1   2
BRANCH   1   5
ATOM      5  C   UNL     1      19.680  23.317  48.724  1.00  0.00     0.003 C 
ATOM      6  C   UNL     1      19.230  21.862  48.634  1.00  0.00     0.004 C 
ENDBRANCH   1   5
TORSDOF 2
ENDMDL
MODEL 3
REMARK VINA RESULT:    -2.978     16.470     17.126
REMARK INTER + INTRA:          -3.368
REMARK INTER:                  -3.332
REMARK INTRA:                  -0.036
REMARK UNBOUND:                -0.042
REMARK SMILES CCCC(=O)[O-]
REMARK SMILES IDX 3 1 4 2 5 3 6 4 2 5 1 6
REMARK H PARENT
REMARK Flexibility Score: inf
ROOT
ATOM      1  C   UNL     1      22.860  11.985  35.900  1.00  0.00     0.052 C 
ENDROOT
BRANCH   1   2
ATOM      2  C   UNL     1      22.490  12.788  34.693  1.00  0.00     0.041 C 
ATOM      3  O   UNL     1      21.550  12.411  33.944  1.00  0.00    -0.550 OA
ATOM      4  O   UNL     1      23.215  13.927  34.366  1.00  0.00    -0.550 OA
ENDBRANCH   1   2
BRANCH   1   5
ATOM      5  C   UNL     1      22.956  10.498  35.544  1.00  0.00     0.003 C 
ATOM      6  C   UNL     1      21.847   9.698  36.219  1.00  0.00     0.004 C 
ENDBRANCH   1   5
TORSDOF 2
ENDMDL
MODEL 4
REMARK VINA RESULT:    -2.960     11.367     12.040
REMARK INTER + INTRA:          -3.348
REMARK INTER:                  -3.306
REMARK INTRA:                  -0.042
REMARK UNBOUND:                -0.042
REMARK SMILES CCCC(=O)[O-]
REMARK SMILES IDX 3 1 4 2 5 3 6 4 2 5 1 6
REMARK H PARENT
REMARK Flexibility Score: inf
ROOT
ATOM      1  C   UNL     1      10.275  22.352  41.770  1.00  0.00     0.052 C 
ENDROOT
BRANCH   1   2
ATOM      2  C   UNL     1      10.582  21.152  40.930  1.00  0.00     0.041 C 
ATOM      3  O   UNL     1       9.652  20.527  40.356  1.00  0.00    -0.550 OA
ATOM      4  O   UNL     1      11.889  20.695  40.821  1.00  0.00    -0.550 OA
ENDBRANCH   1   2
BRANCH   1   5
ATOM      5  C   UNL     1       9.017  23.058  41.256  1.00  0.00     0.003 C 
ATOM      6  C   UNL     1       9.370  24.149  40.250  1.00  0.00     0.004 C 
ENDBRANCH   1   5
TORSDOF 2
ENDMDL
MODEL 5
REMARK VINA RESULT:    -2.941     11.012     11.728
REMARK INTER + INTRA:          -3.327
REMARK INTER:                  -3.307
REMARK INTRA:                  -0.021
REMARK UNBOUND:                -0.042
REMARK SMILES CCCC(=O)[O-]
REMARK SMILES IDX 3 1 4 2 5 3 6 4 2 5 1 6
REMARK H PARENT
REMARK Flexibility Score: inf
ROOT
ATOM      1  C   UNL     1      25.023  23.280  37.159  1.00  0.00     0.052 C 
ENDROOT
BRANCH   1   2
ATOM      2  C   UNL     1      23.608  23.687  37.426  1.00  0.00     0.041 C 
ATOM      3  O   UNL     1      23.357  24.600  38.256  1.00  0.00    -0.550 OA
ATOM      4  O   UNL     1      22.562  23.026  36.794  1.00  0.00    -0.550 OA
ENDBRANCH   1   2
BRANCH   1   5
ATOM      5  C   UNL     1      25.070  21.870  36.563  1.00  0.00     0.003 C 
ATOM      6  C   UNL     1      25.043  20.809  37.659  1.00  0.00     0.004 C 
ENDBRANCH   1   5
TORSDOF 2
ENDMDL
MODEL 6
REMARK VINA RESULT:    -2.878      2.024      2.773
REMARK INTER + INTRA:          -3.257
REMARK INTER:                  -3.205
REMARK INTRA:                  -0.052
REMARK UNBOUND:                -0.042
REMARK SMILES CCCC(=O)[O-]
REMARK SMILES IDX 3 1 4 2 5 3 6 4 2 5 1 6
REMARK H PARENT
REMARK Flexibility Score: inf
ROOT
ATOM      1  C   UNL     1      19.496  22.173  48.808  1.00  0.00     0.052 C 
ENDROOT
BRANCH   1   2
ATOM      2  C   UNL     1      20.357  23.395  48.757  1.00  0.00     0.041 C 
ATOM      3  O   UNL     1      21.363  23.431  48.000  1.00  0.00    -0.550 OA
ATOM      4  O   UNL     1      20.078  24.478  49.581  1.00  0.00    -0.550 OA
ENDBRANCH   1   2
BRANCH   1   5
ATOM      5  C   UNL     1      18.553  22.132  47.602  1.00  0.00     0.003 C 
ATOM      6  C   UNL     1      17.348  23.043  47.814  1.00  0.00     0.004 C 
ENDBRANCH   1   5
TORSDOF 2
ENDMDL
MODEL 7
REMARK VINA RESULT:    -2.852      1.508      2.006
REMARK INTER + INTRA:          -3.227
REMARK INTER:                  -3.173
REMARK INTRA:                  -0.054
REMARK UNBOUND:                -0.042
REMARK SMILES CCCC(=O)[O-]
REMARK SMILES IDX 3 1 4 2 5 3 6 4 2 5 1 6
REMARK H PARENT
REMARK Flexibility Score: inf
ROOT
ATOM      1  C   UNL     1      19.508  22.138  48.754  1.00  0.00     0.052 C 
ENDROOT
BRANCH   1   2
ATOM      2  C   UNL     1      18.412  22.294  47.747  1.00  0.00     0.041 C 
ATOM      3  O   UNL     1      17.393  22.980  48.021  1.00  0.00    -0.550 OA
ATOM      4  O   UNL     1      18.492  21.640  46.524  1.00  0.00    -0.550 OA
ENDBRANCH   1   2
BRANCH   1   5
ATOM      5  C   UNL     1      20.365  23.406  48.811  1.00  0.00     0.003 C 
ATOM      6  C   UNL     1      21.306  23.488  47.613  1.00  0.00     0.004 C 
ENDBRANCH   1   5
TORSDOF 2
ENDMDL
MODEL 8
REMARK VINA RESULT:    -2.825     13.499     14.440
REMARK INTER + INTRA:          -3.197
REMARK INTER:                  -3.141
REMARK INTRA:                  -0.056
REMARK UNBOUND:                -0.042
REMARK SMILES CCCC(=O)[O-]
REMARK SMILES IDX 3 1 4 2 5 3 6 4 2 5 1 6
REMARK H PARENT
REMARK Flexibility Score: inf
ROOT
ATOM      1  C   UNL     1      19.847  20.844  32.973  1.00  0.00     0.052 C 
ENDROOT
BRANCH   1   2
ATOM      2  C   UNL     1      20.351  21.251  34.321  1.00  0.00     0.041 C 
ATOM      3  O   UNL     1      19.540  21.506  35.250  1.00  0.00    -0.550 OA
ATOM      4  O   UNL     1      21.715  21.396  34.540  1.00  0.00    -0.550 OA
ENDBRANCH   1   2
BRANCH   1   5
ATOM      5  C   UNL     1      19.037  21.980  32.339  1.00  0.00     0.003 C 
ATOM      6  C   UNL     1      19.874  23.248  32.212  1.00  0.00     0.004 C 
ENDBRANCH   1   5
TORSDOF 2
ENDMDL
MODEL 9
REMARK VINA RESULT:    -2.810     10.651     11.322
REMARK INTER + INTRA:          -3.180
REMARK INTER:                  -3.141
REMARK INTRA:                  -0.039
REMARK UNBOUND:                -0.042
REMARK SMILES CCCC(=O)[O-]
REMARK SMILES IDX 3 1 4 2 5 3 6 4 2 5 1 6
REMARK H PARENT
REMARK Flexibility Score: inf
ROOT
ATOM      1  C   UNL     1       9.637  23.003  42.487  1.00  0.00     0.052 C 
ENDROOT
BRANCH   1   2
ATOM      2  C   UNL     1      11.044  22.541  42.700  1.00  0.00     0.041 C 
ATOM      3  O   UNL     1      11.614  21.827  41.834  1.00  0.00    -0.550 OA
ATOM      4  O   UNL     1      11.709  22.858  43.878  1.00  0.00    -0.550 OA
ENDBRANCH   1   2
BRANCH   1   5
ATOM      5  C   UNL     1       9.229  22.818  41.022  1.00  0.00     0.003 C 
ATOM      6  C   UNL     1       9.374  24.120  40.241  1.00  0.00     0.004 C 
ENDBRANCH   1   5
TORSDOF 2
ENDMDL
