MODEL 1
REMARK VINA RESULT:    -3.243      0.000      0.000
REMARK INTER + INTRA:          -4.265
REMARK INTER:                  -4.570
REMARK INTRA:                   0.305
REMARK UNBOUND:                 0.305
REMARK SMILES CC1=CCC(=C(C)C)C(=O)CC(C)=CCC1
REMARK SMILES IDX 12 1 14 2 13 3 15 4 16 5 2 6 1 7 3 8 11 10 9 11 10 12 5 13
REMARK SMILES IDX 6 14 7 15 8 16 4 17
REMARK H PARENT
REMARK Flexibility Score: 60.00
ROOT
ATOM      1  C   UNL     1      25.692  45.309  85.361  1.00  0.00    -0.070 C 
ATOM      2  C   UNL     1      25.113  44.626  86.379  1.00  0.00    -0.027 C 
ATOM      3  C   UNL     1      25.771  44.632  84.016  1.00  0.00     0.039 C 
ENDROOT
BRANCH   2   4
ATOM      4  C   UNL     1      24.928  45.152  87.780  1.00  0.00     0.032 C 
BRANCH   4   5
ATOM      5  C   UNL     1      25.806  44.383  88.781  1.00  0.00     0.034 C 
BRANCH   5   6
ATOM      6  C   UNL     1      26.963  45.202  89.322  1.00  0.00    -0.077 C 
ATOM      7  C   UNL     1      26.770  45.958  90.614  1.00  0.00     0.039 C 
ATOM      8  C   UNL     1      28.141  45.363  88.670  1.00  0.00    -0.023 CG0
ATOM      9  G   UNL     1      28.600  44.629  87.428  1.00  0.00     0.000 G0
ENDBRANCH   5   6
ENDBRANCH   4   5
ENDBRANCH   2   4
BRANCH   1  10
ATOM     10  C   UNL     1      26.269  46.709  85.514  1.00  0.00     0.111 C 
BRANCH  10  11
ATOM     11  C   UNL     1      27.660  46.675  86.101  1.00  0.00     0.163 C 
ATOM     12  O   UNL     1      28.093  47.753  86.591  1.00  0.00    -0.294 OA
BRANCH  11  13
ATOM     13  C   UNL     1      28.528  45.443  86.140  1.00  0.00    -0.002 C 
ATOM     14  C   UNL     1      29.247  45.046  85.042  1.00  0.00    -0.069 C 
ATOM     15  C   UNL     1      30.176  43.851  85.094  1.00  0.00     0.039 C 
ATOM     16  C   UNL     1      29.118  45.740  83.704  1.00  0.00     0.039 C 
BRANCH  13  17
ATOM     17  C   UNL     1      28.608  44.633  87.432  1.00  0.00     0.066 CG0
ATOM     18  G   UNL     1      28.117  45.364  88.664  1.00  0.00     0.000 G0
ENDBRANCH  13  17
ENDBRANCH  11  13
ENDBRANCH  10  11
ENDBRANCH   1  10
TORSDOF 0
ENDMDL
MODEL 2
REMARK VINA RESULT:    -3.235      9.998     11.416
REMARK INTER + INTRA:          -4.254
REMARK INTER:                  -4.584
REMARK INTRA:                   0.330
REMARK UNBOUND:                 0.305
REMARK SMILES CC1=CCC(=C(C)C)C(=O)CC(C)=CCC1
REMARK SMILES IDX 12 1 14 2 13 3 15 4 16 5 2 6 1 7 3 8 11 10 9 11 10 12 5 13
REMARK SMILES IDX 6 14 7 15 8 16 4 17
REMARK H PARENT
REMARK Flexibility Score: 60.00
ROOT
ATOM      1  C   UNL     1      22.359  35.538  85.400  1.00  0.00    -0.070 C 
ATOM      2  C   UNL     1      22.310  36.887  85.526  1.00  0.00    -0.027 C 
ATOM      3  C   UNL     1      21.494  34.899  84.343  1.00  0.00     0.039 C 
ENDROOT
BRANCH   2   4
ATOM      4  C   UNL     1      23.118  37.695  86.508  1.00  0.00     0.032 C 
BRANCH   4   5
ATOM      5  C   UNL     1      22.212  38.600  87.361  1.00  0.00     0.034 C 
BRANCH   5   6
ATOM      6  C   UNL     1      21.248  37.828  88.242  1.00  0.00    -0.077 C 
ATOM      7  C   UNL     1      19.782  38.184  88.192  1.00  0.00     0.039 C 
ATOM      8  C   UNL     1      21.635  36.885  89.136  1.00  0.00    -0.023 CG0
ATOM      9  G   UNL     1      23.019  36.290  89.288  1.00  0.00     0.000 G0
ENDBRANCH   5   6
ENDBRANCH   4   5
ENDBRANCH   2   4
BRANCH   1  10
ATOM     10  C   UNL     1      23.231  34.648  86.274  1.00  0.00     0.111 C 
BRANCH  10  11
ATOM     11  C   UNL     1      22.568  34.349  87.597  1.00  0.00     0.163 C 
ATOM     12  O   UNL     1      21.502  33.674  87.554  1.00  0.00    -0.294 OA
BRANCH  11  13
ATOM     13  C   UNL     1      23.111  34.792  88.931  1.00  0.00    -0.002 C 
ATOM     14  C   UNL     1      23.687  33.897  89.796  1.00  0.00    -0.069 C 
ATOM     15  C   UNL     1      24.300  34.344  91.106  1.00  0.00     0.039 C 
ATOM     16  C   UNL     1      23.700  32.410  89.520  1.00  0.00     0.039 C 
BRANCH  13  17
ATOM     17  C   UNL     1      23.022  36.267  89.316  1.00  0.00     0.066 CG0
ATOM     18  G   UNL     1      21.654  36.887  89.119  1.00  0.00     0.000 G0
ENDBRANCH  13  17
ENDBRANCH  11  13
ENDBRANCH  10  11
ENDBRANCH   1  10
TORSDOF 0
ENDMDL
MODEL 3
REMARK VINA RESULT:    -3.213      2.478      4.696
REMARK INTER + INTRA:          -4.222
REMARK INTER:                  -4.275
REMARK INTRA:                   0.053
REMARK UNBOUND:                 0.305
REMARK SMILES CC1=CCC(=C(C)C)C(=O)CC(C)=CCC1
REMARK SMILES IDX 12 1 14 2 13 3 15 4 16 5 2 6 1 7 3 8 11 10 9 11 10 12 5 13
REMARK SMILES IDX 6 14 7 15 8 16 4 17
REMARK H PARENT
REMARK Flexibility Score: 60.00
ROOT
ATOM      1  C   UNL     1      29.212  45.095  81.856  1.00  0.00    -0.070 C 
ATOM      2  C   UNL     1      29.729  44.343  82.860  1.00  0.00    -0.027 C 
ATOM      3  C   UNL     1      28.976  44.424  80.526  1.00  0.00     0.039 C 
ENDROOT
BRANCH   2   4
ATOM      4  C   UNL     1      30.009  44.838  84.256  1.00  0.00     0.032 C 
BRANCH   4   5
ATOM      5  C   UNL     1      29.005  44.253  85.263  1.00  0.00     0.034 C 
BRANCH   5   6
ATOM      6  C   UNL     1      27.953  45.250  85.712  1.00  0.00    -0.077 C 
ATOM      7  C   UNL     1      28.213  46.062  86.957  1.00  0.00     0.039 C 
ATOM      8  C   UNL     1      26.750  45.401  85.105  1.00  0.00    -0.023 CG0
ATOM      9  G   UNL     1      26.309  44.782  83.795  1.00  0.00     0.000 G0
ENDBRANCH   5   6
ENDBRANCH   4   5
ENDBRANCH   2   4
BRANCH   1  10
ATOM     10  C   UNL     1      28.873  46.571  82.006  1.00  0.00     0.111 C 
BRANCH  10  11
ATOM     11  C   UNL     1      27.473  46.768  82.536  1.00  0.00     0.163 C 
ATOM     12  O   UNL     1      27.190  47.919  82.969  1.00  0.00    -0.294 OA
BRANCH  11  13
ATOM     13  C   UNL     1      26.421  45.689  82.557  1.00  0.00    -0.002 C 
ATOM     14  C   UNL     1      25.568  45.508  81.498  1.00  0.00    -0.069 C 
ATOM     15  C   UNL     1      24.556  44.382  81.481  1.00  0.00     0.039 C 
ATOM     16  C   UNL     1      25.550  46.447  80.313  1.00  0.00     0.039 C 
BRANCH  13  17
ATOM     17  C   UNL     1      26.314  44.781  83.780  1.00  0.00     0.066 CG0
ATOM     18  G   UNL     1      26.756  45.420  85.080  1.00  0.00     0.000 G0
ENDBRANCH  13  17
ENDBRANCH  11  13
ENDBRANCH  10  11
ENDBRANCH   1  10
TORSDOF 0
ENDMDL
MODEL 4
REMARK VINA RESULT:    -3.195      2.526      5.576
REMARK INTER + INTRA:          -4.197
REMARK INTER:                  -4.346
REMARK INTRA:                   0.149
REMARK UNBOUND:                 0.305
REMARK SMILES CC1=CCC(=C(C)C)C(=O)CC(C)=CCC1
REMARK SMILES IDX 12 1 14 2 13 3 15 4 16 5 2 6 1 7 3 8 11 10 9 11 10 12 5 13
REMARK SMILES IDX 6 14 7 15 8 16 4 17
REMARK H PARENT
REMARK Flexibility Score: 60.00
ROOT
ATOM      1  C   UNL     1      29.506  44.899  84.351  1.00  0.00    -0.070 C 
ATOM      2  C   UNL     1      29.552  44.360  83.107  1.00  0.00    -0.027 C 
ATOM      3  C   UNL     1      29.748  43.982  85.524  1.00  0.00     0.039 C 
ENDROOT
BRANCH   2   4
ATOM      4  C   UNL     1      29.356  45.125  81.824  1.00  0.00     0.032 C 
BRANCH   4   5
ATOM      5  C   UNL     1      28.047  44.717  81.129  1.00  0.00     0.034 C 
BRANCH   5   6
ATOM      6  C   UNL     1      26.934  45.735  81.295  1.00  0.00    -0.077 C 
ATOM      7  C   UNL     1      26.694  46.730  80.186  1.00  0.00     0.039 C 
ATOM      8  C   UNL     1      26.188  45.859  82.421  1.00  0.00    -0.023 CG0
ATOM      9  G   UNL     1      26.173  44.920  83.609  1.00  0.00     0.000 G0
ENDBRANCH   5   6
ENDBRANCH   4   5
ENDBRANCH   2   4
BRANCH   1  10
ATOM     10  C   UNL     1      29.213  46.369  84.615  1.00  0.00     0.111 C 
BRANCH  10  11
ATOM     11  C   UNL     1      27.739  46.611  84.836  1.00  0.00     0.163 C 
ATOM     12  O   UNL     1      27.375  47.813  84.950  1.00  0.00    -0.294 OA
BRANCH  11  13
ATOM     13  C   UNL     1      26.707  45.514  84.909  1.00  0.00    -0.002 C 
ATOM     14  C   UNL     1      26.250  45.050  86.116  1.00  0.00    -0.069 C 
ATOM     15  C   UNL     1      25.162  44.000  86.199  1.00  0.00     0.039 C 
ATOM     16  C   UNL     1      26.837  45.516  87.430  1.00  0.00     0.039 C 
BRANCH  13  17
ATOM     17  C   UNL     1      26.160  44.922  83.613  1.00  0.00     0.066 CG0
ATOM     18  G   UNL     1      26.194  45.864  82.427  1.00  0.00     0.000 G0
ENDBRANCH  13  17
ENDBRANCH  11  13
ENDBRANCH  10  11
ENDBRANCH   1  10
TORSDOF 0
ENDMDL
MODEL 5
REMARK VINA RESULT:    -3.162      9.309     11.045
REMARK INTER + INTRA:          -4.150
REMARK INTER:                  -4.459
REMARK INTRA:                   0.309
REMARK UNBOUND:                 0.305
REMARK SMILES CC1=CCC(=C(C)C)C(=O)CC(C)=CCC1
REMARK SMILES IDX 12 1 14 2 13 3 15 4 16 5 2 6 1 7 3 8 11 10 9 11 10 12 5 13
REMARK SMILES IDX 6 14 7 15 8 16 4 17
REMARK H PARENT
REMARK Flexibility Score: 60.00
ROOT
ATOM      1  C   UNL     1      23.285  35.134  88.016  1.00  0.00    -0.070 C 
ATOM      2  C   UNL     1      23.058  34.447  86.868  1.00  0.00    -0.027 C 
ATOM      3  C   UNL     1      23.193  34.377  89.317  1.00  0.00     0.039 C 
ENDROOT
BRANCH   2   4
ATOM      4  C   UNL     1      23.128  35.032  85.481  1.00  0.00     0.032 C 
BRANCH   4   5
ATOM      5  C   UNL     1      21.756  34.981  84.788  1.00  0.00     0.034 C 
BRANCH   5   6
ATOM      6  C   UNL     1      20.605  35.356  85.702  1.00  0.00    -0.077 C 
ATOM      7  C   UNL     1      19.644  34.275  86.134  1.00  0.00     0.039 C 
ATOM      8  C   UNL     1      20.337  36.626  86.094  1.00  0.00    -0.023 CG0
ATOM      9  G   UNL     1      21.207  37.847  85.879  1.00  0.00     0.000 G0
ENDBRANCH   5   6
ENDBRANCH   4   5
ENDBRANCH   2   4
BRANCH   1  10
ATOM     10  C   UNL     1      23.614  36.619  88.050  1.00  0.00     0.111 C 
BRANCH  10  11
ATOM     11  C   UNL     1      22.368  37.461  88.192  1.00  0.00     0.163 C 
ATOM     12  O   UNL     1      21.730  37.347  89.275  1.00  0.00    -0.294 OA
BRANCH  11  13
ATOM     13  C   UNL     1      21.872  38.416  87.138  1.00  0.00    -0.002 C 
ATOM     14  C   UNL     1      22.006  39.773  87.289  1.00  0.00    -0.069 C 
ATOM     15  C   UNL     1      21.576  40.737  86.204  1.00  0.00     0.039 C 
ATOM     16  C   UNL     1      22.540  40.389  88.563  1.00  0.00     0.039 C 
BRANCH  13  17
ATOM     17  C   UNL     1      21.218  37.856  85.877  1.00  0.00     0.066 CG0
ATOM     18  G   UNL     1      20.326  36.654  86.112  1.00  0.00     0.000 G0
ENDBRANCH  13  17
ENDBRANCH  11  13
ENDBRANCH  10  11
ENDBRANCH   1  10
TORSDOF 0
ENDMDL
MODEL 6
REMARK VINA RESULT:    -3.009      3.629      6.363
REMARK INTER + INTRA:          -3.936
REMARK INTER:                  -4.244
REMARK INTRA:                   0.309
REMARK UNBOUND:                 0.305
REMARK SMILES CC1=CCC(=C(C)C)C(=O)CC(C)=CCC1
REMARK SMILES IDX 12 1 14 2 13 3 15 4 16 5 2 6 1 7 3 8 11 10 9 11 10 12 5 13
REMARK SMILES IDX 6 14 7 15 8 16 4 17
REMARK H PARENT
REMARK Flexibility Score: 60.00
ROOT
ATOM      1  C   UNL     1      28.967  44.734  80.098  1.00  0.00    -0.070 C 
ATOM      2  C   UNL     1      27.829  44.357  79.465  1.00  0.00    -0.027 C 
ATOM      3  C   UNL     1      29.963  45.558  79.321  1.00  0.00     0.039 C 
ENDROOT
BRANCH   2   4
ATOM      4  C   UNL     1      26.717  43.553  80.089  1.00  0.00     0.032 C 
BRANCH   4   5
ATOM      5  C   UNL     1      25.375  44.299  79.999  1.00  0.00     0.034 C 
BRANCH   5   6
ATOM      6  C   UNL     1      25.425  45.700  80.578  1.00  0.00    -0.077 C 
ATOM      7  C   UNL     1      25.092  46.866  79.679  1.00  0.00     0.039 C 
ATOM      8  C   UNL     1      25.830  45.978  81.842  1.00  0.00    -0.023 CG0
ATOM      9  G   UNL     1      26.108  44.982  82.948  1.00  0.00     0.000 G0
ENDBRANCH   5   6
ENDBRANCH   4   5
ENDBRANCH   2   4
BRANCH   1  10
ATOM     10  C   UNL     1      29.288  44.357  81.537  1.00  0.00     0.111 C 
BRANCH  10  11
ATOM     11  C   UNL     1      28.676  45.330  82.515  1.00  0.00     0.163 C 
ATOM     12  O   UNL     1      29.132  46.506  82.503  1.00  0.00    -0.294 OA
BRANCH  11  13
ATOM     13  C   UNL     1      27.564  44.978  83.471  1.00  0.00    -0.002 C 
ATOM     14  C   UNL     1      27.827  44.660  84.779  1.00  0.00    -0.069 C 
ATOM     15  C   UNL     1      26.712  44.375  85.763  1.00  0.00     0.039 C 
ATOM     16  C   UNL     1      29.239  44.525  85.304  1.00  0.00     0.039 C 
BRANCH  13  17
ATOM     17  C   UNL     1      26.123  44.985  82.968  1.00  0.00     0.066 CG0
ATOM     18  G   UNL     1      25.854  45.962  81.842  1.00  0.00     0.000 G0
ENDBRANCH  13  17
ENDBRANCH  11  13
ENDBRANCH  10  11
ENDBRANCH   1  10
TORSDOF 0
ENDMDL
MODEL 7
REMARK VINA RESULT:    -2.925      9.826     11.328
REMARK INTER + INTRA:          -3.816
REMARK INTER:                  -4.077
REMARK INTRA:                   0.261
REMARK UNBOUND:                 0.305
REMARK SMILES CC1=CCC(=C(C)C)C(=O)CC(C)=CCC1
REMARK SMILES IDX 12 1 14 2 13 3 15 4 16 5 2 6 1 7 3 8 11 10 9 11 10 12 5 13
REMARK SMILES IDX 6 14 7 15 8 16 4 17
REMARK H PARENT
REMARK Flexibility Score: 60.00
ROOT
ATOM      1  C   UNL     1      23.121  35.956  85.998  1.00  0.00    -0.070 C 
ATOM      2  C   UNL     1      22.358  36.989  85.561  1.00  0.00    -0.027 C 
ATOM      3  C   UNL     1      23.157  34.705  85.157  1.00  0.00     0.039 C 
ENDROOT
BRANCH   2   4
ATOM      4  C   UNL     1      22.221  38.319  86.257  1.00  0.00     0.032 C 
BRANCH   4   5
ATOM      5  C   UNL     1      20.762  38.581  86.667  1.00  0.00     0.034 C 
BRANCH   5   6
ATOM      6  C   UNL     1      20.546  38.565  88.168  1.00  0.00    -0.077 C 
ATOM      7  C   UNL     1      20.483  39.881  88.903  1.00  0.00     0.039 C 
ATOM      8  C   UNL     1      20.485  37.430  88.908  1.00  0.00    -0.023 CG0
ATOM      9  G   UNL     1      20.418  36.009  88.388  1.00  0.00     0.000 G0
ENDBRANCH   5   6
ENDBRANCH   4   5
ENDBRANCH   2   4
BRANCH   1  10
ATOM     10  C   UNL     1      23.925  35.998  87.289  1.00  0.00     0.111 C 
BRANCH  10  11
ATOM     11  C   UNL     1      23.029  35.925  88.503  1.00  0.00     0.163 C 
ATOM     12  O   UNL     1      23.429  36.528  89.537  1.00  0.00    -0.294 OA
BRANCH  11  13
ATOM     13  C   UNL     1      21.709  35.198  88.534  1.00  0.00    -0.002 C 
ATOM     14  C   UNL     1      21.653  33.836  88.680  1.00  0.00    -0.069 C 
ATOM     15  C   UNL     1      20.331  33.105  88.783  1.00  0.00     0.039 C 
ATOM     16  C   UNL     1      22.899  32.978  88.693  1.00  0.00     0.039 C 
BRANCH  13  17
ATOM     17  C   UNL     1      20.416  36.001  88.408  1.00  0.00     0.066 CG0
ATOM     18  G   UNL     1      20.506  37.422  88.924  1.00  0.00     0.000 G0
ENDBRANCH  13  17
ENDBRANCH  11  13
ENDBRANCH  10  11
ENDBRANCH   1  10
TORSDOF 0
ENDMDL
MODEL 8
REMARK VINA RESULT:    -2.822     10.233     11.679
REMARK INTER + INTRA:          -3.672
REMARK INTER:                  -3.935
REMARK INTRA:                   0.263
REMARK UNBOUND:                 0.305
REMARK SMILES CC1=CCC(=C(C)C)C(=O)CC(C)=CCC1
REMARK SMILES IDX 12 1 14 2 13 3 15 4 16 5 2 6 1 7 3 8 11 10 9 11 10 12 5 13
REMARK SMILES IDX 6 14 7 15 8 16 4 17
REMARK H PARENT
REMARK Flexibility Score: 60.00
ROOT
ATOM      1  C   UNL     1      23.201  34.944  86.914  1.00  0.00    -0.070 C 
ATOM      2  C   UNL     1      22.721  33.923  87.668  1.00  0.00    -0.027 C 
ATOM      3  C   UNL     1      23.046  34.845  85.417  1.00  0.00     0.039 C 
ENDROOT
BRANCH   2   4
ATOM      4  C   UNL     1      22.768  33.861  89.173  1.00  0.00     0.032 C 
BRANCH   4   5
ATOM      5  C   UNL     1      21.358  33.965  89.776  1.00  0.00     0.034 C 
BRANCH   5   6
ATOM      6  C   UNL     1      20.266  34.114  88.733  1.00  0.00    -0.077 C 
ATOM      7  C   UNL     1      19.593  32.869  88.209  1.00  0.00     0.039 C 
ATOM      8  C   UNL     1      19.910  35.300  88.180  1.00  0.00    -0.023 CG0
ATOM      9  G   UNL     1      20.363  36.678  88.615  1.00  0.00     0.000 G0
ENDBRANCH   5   6
ENDBRANCH   4   5
ENDBRANCH   2   4
BRANCH   1  10
ATOM     10  C   UNL     1      23.890  36.166  87.504  1.00  0.00     0.111 C 
BRANCH  10  11
ATOM     11  C   UNL     1      22.914  37.054  88.238  1.00  0.00     0.163 C 
ATOM     12  O   UNL     1      23.344  37.629  89.276  1.00  0.00    -0.294 OA
BRANCH  11  13
ATOM     13  C   UNL     1      21.493  37.291  87.795  1.00  0.00    -0.002 C 
ATOM     14  C   UNL     1      21.213  38.025  86.671  1.00  0.00    -0.069 C 
ATOM     15  C   UNL     1      19.793  38.208  86.178  1.00  0.00     0.039 C 
ATOM     16  C   UNL     1      22.294  38.737  85.888  1.00  0.00     0.039 C 
BRANCH  13  17
ATOM     17  C   UNL     1      20.351  36.691  88.613  1.00  0.00     0.066 CG0
ATOM     18  G   UNL     1      19.931  35.302  88.181  1.00  0.00     0.000 G0
ENDBRANCH  13  17
ENDBRANCH  11  13
ENDBRANCH  10  11
ENDBRANCH   1  10
TORSDOF 0
ENDMDL
MODEL 9
REMARK VINA RESULT:    -2.681      9.631     11.095
REMARK INTER + INTRA:          -3.474
REMARK INTER:                  -3.716
REMARK INTRA:                   0.243
REMARK UNBOUND:                 0.305
REMARK SMILES CC1=CCC(=C(C)C)C(=O)CC(C)=CCC1
REMARK SMILES IDX 12 1 14 2 13 3 15 4 16 5 2 6 1 7 3 8 11 10 9 11 10 12 5 13
REMARK SMILES IDX 6 14 7 15 8 16 4 17
REMARK H PARENT
REMARK Flexibility Score: 60.00
ROOT
ATOM      1  C   UNL     1      21.453  34.793  85.677  1.00  0.00    -0.070 C 
ATOM      2  C   UNL     1      22.691  34.598  86.197  1.00  0.00    -0.027 C 
ATOM      3  C   UNL     1      21.338  34.963  84.183  1.00  0.00     0.039 C 
ENDROOT
BRANCH   2   4
ATOM      4  C   UNL     1      22.992  34.388  87.659  1.00  0.00     0.032 C 
BRANCH   4   5
ATOM      5  C   UNL     1      23.855  35.532  88.217  1.00  0.00     0.034 C 
BRANCH   5   6
ATOM      6  C   UNL     1      23.112  36.427  89.191  1.00  0.00    -0.077 C 
ATOM      7  C   UNL     1      23.263  36.166  90.670  1.00  0.00     0.039 C 
ATOM      8  C   UNL     1      22.251  37.403  88.811  1.00  0.00    -0.023 CG0
ATOM      9  G   UNL     1      22.020  37.914  87.404  1.00  0.00     0.000 G0
ENDBRANCH   5   6
ENDBRANCH   4   5
ENDBRANCH   2   4
BRANCH   1  10
ATOM     10  C   UNL     1      20.191  34.858  86.525  1.00  0.00     0.111 C 
BRANCH  10  11
ATOM     11  C   UNL     1      20.068  36.184  87.237  1.00  0.00     0.163 C 
ATOM     12  O   UNL     1      19.392  36.193  88.302  1.00  0.00    -0.294 OA
BRANCH  11  13
ATOM     13  C   UNL     1      20.711  37.460  86.757  1.00  0.00    -0.002 C 
ATOM     14  C   UNL     1      20.138  38.213  85.764  1.00  0.00    -0.069 C 
ATOM     15  C   UNL     1      20.738  39.533  85.325  1.00  0.00     0.039 C 
ATOM     16  C   UNL     1      18.910  37.750  85.013  1.00  0.00     0.039 C 
BRANCH  13  17
ATOM     17  C   UNL     1      22.017  37.921  87.400  1.00  0.00     0.066 CG0
ATOM     18  G   UNL     1      22.247  37.398  88.802  1.00  0.00     0.000 G0
ENDBRANCH  13  17
ENDBRANCH  11  13
ENDBRANCH  10  11
ENDBRANCH   1  10
TORSDOF 0
ENDMDL
