MODEL 1
REMARK VINA RESULT:    -4.294      0.000      0.000
REMARK INTER + INTRA:          -8.792
REMARK INTER:                  -8.060
REMARK INTRA:                  -0.731
REMARK UNBOUND:                -0.731
REMARK SMILES O=C([O-])CCCCCCCCCCCCCCC(=O)[O-]
REMARK SMILES IDX 10 1 9 2 8 3 7 4 6 5 5 6 4 7 2 8 1 9 3 10 11 11 12 12 13 13
REMARK SMILES IDX 14 14 15 15 16 16 17 17 18 18 19 19 20 20
REMARK H PARENT
REMARK Flexibility Score: inf
ROOT
ATOM      1  C   UNL     1     -22.715  22.113  39.417  1.00  0.00     0.000 C 
ENDROOT
BRANCH   1   2
ATOM      2  C   UNL     1     -21.891  21.751  38.168  1.00  0.00     0.000 C 
BRANCH   2   3
ATOM      3  C   UNL     1     -22.702  21.148  37.003  1.00  0.00     0.000 C 
BRANCH   3   4
ATOM      4  C   UNL     1     -22.046  21.267  35.614  1.00  0.00     0.000 C 
BRANCH   4   5
ATOM      5  C   UNL     1     -21.037  22.421  35.468  1.00  0.00     0.000 C 
BRANCH   5   6
ATOM      6  C   UNL     1     -19.897  22.095  34.487  1.00  0.00     0.006 C 
BRANCH   6   7
ATOM      7  C   UNL     1     -18.884  23.242  34.375  1.00  0.00     0.053 C 
BRANCH   7   8
ATOM      8  C   UNL     1     -17.488  22.737  34.179  1.00  0.00     0.041 C 
ATOM      9  O   UNL     1     -16.545  23.190  34.879  1.00  0.00    -0.550 OA
ATOM     10  O   UNL     1     -17.223  21.786  33.201  1.00  0.00    -0.550 OA
ENDBRANCH   7   8
ENDBRANCH   6   7
ENDBRANCH   5   6
ENDBRANCH   4   5
ENDBRANCH   3   4
ENDBRANCH   2   3
ENDBRANCH   1   2
BRANCH   1  11
ATOM     11  C   UNL     1     -21.932  21.911  40.726  1.00  0.00     0.000 C 
BRANCH  11  12
ATOM     12  C   UNL     1     -20.466  21.522  40.480  1.00  0.00     0.000 C 
BRANCH  12  13
ATOM     13  C   UNL     1     -19.509  22.156  41.506  1.00  0.00     0.000 C 
BRANCH  13  14
ATOM     14  C   UNL     1     -18.249  21.307  41.752  1.00  0.00     0.000 C 
BRANCH  14  15
ATOM     15  C   UNL     1     -18.475  20.025  42.574  1.00  0.00     0.000 C 
BRANCH  15  16
ATOM     16  C   UNL     1     -17.345  19.000  42.410  1.00  0.00     0.006 C 
BRANCH  16  17
ATOM     17  C   UNL     1     -17.509  18.203  41.111  1.00  0.00     0.053 C 
BRANCH  17  18
ATOM     18  C   UNL     1     -16.559  17.049  41.080  1.00  0.00     0.041 C 
ATOM     19  O   UNL     1     -15.497  17.120  40.407  1.00  0.00    -0.550 OA
ATOM     20  O   UNL     1     -16.870  15.874  41.754  1.00  0.00    -0.550 OA
ENDBRANCH  17  18
ENDBRANCH  16  17
ENDBRANCH  15  16
ENDBRANCH  14  15
ENDBRANCH  13  14
ENDBRANCH  12  13
ENDBRANCH  11  12
ENDBRANCH   1  11
TORSDOF 15
ENDMDL
MODEL 2
REMARK VINA RESULT:    -4.272      1.843      8.150
REMARK INTER + INTRA:          -8.749
REMARK INTER:                  -7.864
REMARK INTRA:                  -0.885
REMARK UNBOUND:                -0.731
REMARK SMILES O=C([O-])CCCCCCCCCCCCCCC(=O)[O-]
REMARK SMILES IDX 10 1 9 2 8 3 7 4 6 5 5 6 4 7 2 8 1 9 3 10 11 11 12 12 13 13
REMARK SMILES IDX 14 14 15 15 16 16 17 17 18 18 19 19 20 20
REMARK H PARENT
REMARK Flexibility Score: inf
ROOT
ATOM      1  C   UNL     1     -21.486  22.094  38.683  1.00  0.00     0.000 C 
ENDROOT
BRANCH   1   2
ATOM      2  C   UNL     1     -21.831  23.105  39.793  1.00  0.00     0.000 C 
BRANCH   2   3
ATOM      3  C   UNL     1     -21.241  22.778  41.180  1.00  0.00     0.000 C 
BRANCH   3   4
ATOM      4  C   UNL     1     -21.370  21.306  41.618  1.00  0.00     0.000 C 
BRANCH   4   5
ATOM      5  C   UNL     1     -20.058  20.502  41.593  1.00  0.00     0.000 C 
BRANCH   5   6
ATOM      6  C   UNL     1     -18.835  21.345  41.992  1.00  0.00     0.006 C 
BRANCH   6   7
ATOM      7  C   UNL     1     -17.514  20.684  41.573  1.00  0.00     0.053 C 
BRANCH   7   8
ATOM      8  C   UNL     1     -17.414  19.274  42.071  1.00  0.00     0.041 C 
ATOM      9  O   UNL     1     -17.341  19.041  43.306  1.00  0.00    -0.550 OA
ATOM     10  O   UNL     1     -17.372  18.219  41.168  1.00  0.00    -0.550 OA
ENDBRANCH   7   8
ENDBRANCH   6   7
ENDBRANCH   5   6
ENDBRANCH   4   5
ENDBRANCH   3   4
ENDBRANCH   2   3
ENDBRANCH   1   2
BRANCH   1  11
ATOM     11  C   UNL     1     -22.709  21.289  38.211  1.00  0.00     0.000 C 
BRANCH  11  12
ATOM     12  C   UNL     1     -22.621  20.902  36.726  1.00  0.00     0.000 C 
BRANCH  12  13
ATOM     13  C   UNL     1     -22.269  22.099  35.826  1.00  0.00     0.000 C 
BRANCH  13  14
ATOM     14  C   UNL     1     -21.002  21.863  34.983  1.00  0.00     0.000 C 
BRANCH  14  15
ATOM     15  C   UNL     1     -20.387  23.129  34.360  1.00  0.00     0.000 C 
BRANCH  15  16
ATOM     16  C   UNL     1     -19.563  22.837  33.098  1.00  0.00     0.006 C 
BRANCH  16  17
ATOM     17  C   UNL     1     -19.450  24.085  32.216  1.00  0.00     0.053 C 
BRANCH  17  18
ATOM     18  C   UNL     1     -18.198  24.839  32.533  1.00  0.00     0.041 C 
ATOM     19  O   UNL     1     -17.089  24.242  32.565  1.00  0.00    -0.550 OA
ATOM     20  O   UNL     1     -18.261  26.192  32.845  1.00  0.00    -0.550 OA
ENDBRANCH  17  18
ENDBRANCH  16  17
ENDBRANCH  15  16
ENDBRANCH  14  15
ENDBRANCH  13  14
ENDBRANCH  12  13
ENDBRANCH  11  12
ENDBRANCH   1  11
TORSDOF 15
ENDMDL
MODEL 3
REMARK VINA RESULT:    -4.249      2.759      3.844
REMARK INTER + INTRA:          -8.706
REMARK INTER:                  -7.090
REMARK INTRA:                  -1.616
REMARK UNBOUND:                -0.731
REMARK SMILES O=C([O-])CCCCCCCCCCCCCCC(=O)[O-]
REMARK SMILES IDX 10 1 9 2 8 3 7 4 6 5 5 6 4 7 2 8 1 9 3 10 11 11 12 12 13 13
REMARK SMILES IDX 14 14 15 15 16 16 17 17 18 18 19 19 20 20
REMARK H PARENT
REMARK Flexibility Score: inf
ROOT
ATOM      1  C   UNL     1     -20.497  25.296  42.017  1.00  0.00     0.000 C 
ENDROOT
BRANCH   1   2
ATOM      2  C   UNL     1     -19.630  25.733  40.822  1.00  0.00     0.000 C 
BRANCH   2   3
ATOM      3  C   UNL     1     -19.188  24.591  39.884  1.00  0.00     0.000 C 
BRANCH   3   4
ATOM      4  C   UNL     1     -19.952  24.505  38.548  1.00  0.00     0.000 C 
BRANCH   4   5
ATOM      5  C   UNL     1     -19.155  24.959  37.312  1.00  0.00     0.000 C 
BRANCH   5   6
ATOM      6  C   UNL     1     -19.871  24.635  35.990  1.00  0.00     0.006 C 
BRANCH   6   7
ATOM      7  C   UNL     1     -18.945  23.934  34.987  1.00  0.00     0.053 C 
BRANCH   7   8
ATOM      8  C   UNL     1     -19.680  22.921  34.162  1.00  0.00     0.041 C 
ATOM      9  O   UNL     1     -19.655  22.988  32.905  1.00  0.00    -0.550 OA
ATOM     10  O   UNL     1     -20.417  21.921  34.784  1.00  0.00    -0.550 OA
ENDBRANCH   7   8
ENDBRANCH   6   7
ENDBRANCH   5   6
ENDBRANCH   4   5
ENDBRANCH   3   4
ENDBRANCH   2   3
ENDBRANCH   1   2
BRANCH   1  11
ATOM     11  C   UNL     1     -21.984  25.145  41.651  1.00  0.00     0.000 C 
BRANCH  11  12
ATOM     12  C   UNL     1     -22.502  23.715  41.870  1.00  0.00     0.000 C 
BRANCH  12  13
ATOM     13  C   UNL     1     -22.684  22.947  40.549  1.00  0.00     0.000 C 
BRANCH  13  14
ATOM     14  C   UNL     1     -21.729  21.745  40.420  1.00  0.00     0.000 C 
BRANCH  14  15
ATOM     15  C   UNL     1     -20.939  21.399  41.694  1.00  0.00     0.000 C 
BRANCH  15  16
ATOM     16  C   UNL     1     -19.427  21.289  41.452  1.00  0.00     0.006 C 
BRANCH  16  17
ATOM     17  C   UNL     1     -18.891  19.938  41.936  1.00  0.00     0.053 C 
BRANCH  17  18
ATOM     18  C   UNL     1     -18.017  20.120  43.135  1.00  0.00     0.041 C 
ATOM     19  O   UNL     1     -17.867  21.263  43.643  1.00  0.00    -0.550 OA
ATOM     20  O   UNL     1     -17.326  19.036  43.664  1.00  0.00    -0.550 OA
ENDBRANCH  17  18
ENDBRANCH  16  17
ENDBRANCH  15  16
ENDBRANCH  14  15
ENDBRANCH  13  14
ENDBRANCH  12  13
ENDBRANCH  11  12
ENDBRANCH   1  11
TORSDOF 15
ENDMDL
MODEL 4
REMARK VINA RESULT:    -4.224     16.152     18.763
REMARK INTER + INTRA:          -8.659
REMARK INTER:                  -6.325
REMARK INTRA:                  -2.334
REMARK UNBOUND:                -0.731
REMARK SMILES O=C([O-])CCCCCCCCCCCCCCC(=O)[O-]
REMARK SMILES IDX 10 1 9 2 8 3 7 4 6 5 5 6 4 7 2 8 1 9 3 10 11 11 12 12 13 13
REMARK SMILES IDX 14 14 15 15 16 16 17 17 18 18 19 19 20 20
REMARK H PARENT
REMARK Flexibility Score: inf
ROOT
ATOM      1  C   UNL     1      -4.994  30.541  46.316  1.00  0.00     0.000 C 
ENDROOT
BRANCH   1   2
ATOM      2  C   UNL     1      -6.160  30.464  47.319  1.00  0.00     0.000 C 
BRANCH   2   3
ATOM      3  C   UNL     1      -7.368  31.363  46.984  1.00  0.00     0.000 C 
BRANCH   3   4
ATOM      4  C   UNL     1      -7.191  32.268  45.750  1.00  0.00     0.000 C 
BRANCH   4   5
ATOM      5  C   UNL     1      -6.743  33.708  46.058  1.00  0.00     0.000 C 
BRANCH   5   6
ATOM      6  C   UNL     1      -7.224  34.200  47.434  1.00  0.00     0.006 C 
BRANCH   6   7
ATOM      7  C   UNL     1      -6.102  34.879  48.231  1.00  0.00     0.053 C 
BRANCH   7   8
ATOM      8  C   UNL     1      -5.298  33.888  49.018  1.00  0.00     0.041 C 
ATOM      9  O   UNL     1      -5.639  33.585  50.191  1.00  0.00    -0.550 OA
ATOM     10  O   UNL     1      -4.156  33.323  48.465  1.00  0.00    -0.550 OA
ENDBRANCH   7   8
ENDBRANCH   6   7
ENDBRANCH   5   6
ENDBRANCH   4   5
ENDBRANCH   3   4
ENDBRANCH   2   3
ENDBRANCH   1   2
BRANCH   1  11
ATOM     11  C   UNL     1      -4.574  29.159  45.785  1.00  0.00     0.000 C 
BRANCH  11  12
ATOM     12  C   UNL     1      -5.168  28.006  46.610  1.00  0.00     0.000 C 
BRANCH  12  13
ATOM     13  C   UNL     1      -5.457  26.760  45.755  1.00  0.00     0.000 C 
BRANCH  13  14
ATOM     14  C   UNL     1      -6.660  26.947  44.812  1.00  0.00     0.000 C 
BRANCH  14  15
ATOM     15  C   UNL     1      -7.927  27.518  45.474  1.00  0.00     0.000 C 
BRANCH  15  16
ATOM     16  C   UNL     1      -8.516  28.713  44.711  1.00  0.00     0.006 C 
BRANCH  16  17
ATOM     17  C   UNL     1      -7.571  29.172  43.596  1.00  0.00     0.053 C 
BRANCH  17  18
ATOM     18  C   UNL     1      -8.329  29.907  42.536  1.00  0.00     0.041 C 
ATOM     19  O   UNL     1      -8.129  29.648  41.320  1.00  0.00    -0.550 OA
ATOM     20  O   UNL     1      -9.220  30.913  42.889  1.00  0.00    -0.550 OA
ENDBRANCH  17  18
ENDBRANCH  16  17
ENDBRANCH  15  16
ENDBRANCH  14  15
ENDBRANCH  13  14
ENDBRANCH  12  13
ENDBRANCH  11  12
ENDBRANCH   1  11
TORSDOF 15
ENDMDL
MODEL 5
REMARK VINA RESULT:    -4.223     16.389     18.600
REMARK INTER + INTRA:          -8.658
REMARK INTER:                  -6.620
REMARK INTRA:                  -2.038
REMARK UNBOUND:                -0.731
REMARK SMILES O=C([O-])CCCCCCCCCCCCCCC(=O)[O-]
REMARK SMILES IDX 10 1 9 2 8 3 7 4 6 5 5 6 4 7 2 8 1 9 3 10 11 11 12 12 13 13
REMARK SMILES IDX 14 14 15 15 16 16 17 17 18 18 19 19 20 20
REMARK H PARENT
REMARK Flexibility Score: inf
ROOT
ATOM      1  C   UNL     1      -8.442  32.086  45.058  1.00  0.00     0.000 C 
ENDROOT
BRANCH   1   2
ATOM      2  C   UNL     1      -7.199  32.978  44.884  1.00  0.00     0.000 C 
BRANCH   2   3
ATOM      3  C   UNL     1      -6.065  32.361  44.042  1.00  0.00     0.000 C 
BRANCH   3   4
ATOM      4  C   UNL     1      -4.687  32.314  44.729  1.00  0.00     0.000 C 
BRANCH   4   5
ATOM      5  C   UNL     1      -4.500  33.317  45.882  1.00  0.00     0.000 C 
BRANCH   5   6
ATOM      6  C   UNL     1      -4.239  32.630  47.234  1.00  0.00     0.006 C 
BRANCH   6   7
ATOM      7  C   UNL     1      -4.288  33.620  48.406  1.00  0.00     0.053 C 
BRANCH   7   8
ATOM      8  C   UNL     1      -5.614  33.595  49.102  1.00  0.00     0.041 C 
ATOM      9  O   UNL     1      -5.698  33.912  50.318  1.00  0.00    -0.550 OA
ATOM     10  O   UNL     1      -6.753  33.193  48.416  1.00  0.00    -0.550 OA
ENDBRANCH   7   8
ENDBRANCH   6   7
ENDBRANCH   5   6
ENDBRANCH   4   5
ENDBRANCH   3   4
ENDBRANCH   2   3
ENDBRANCH   1   2
BRANCH   1  11
ATOM     11  C   UNL     1      -8.084  30.612  45.320  1.00  0.00     0.000 C 
BRANCH  11  12
ATOM     12  C   UNL     1      -7.923  30.303  46.817  1.00  0.00     0.000 C 
BRANCH  12  13
ATOM     13  C   UNL     1      -6.472  29.956  47.193  1.00  0.00     0.000 C 
BRANCH  13  14
ATOM     14  C   UNL     1      -5.772  29.086  46.133  1.00  0.00     0.000 C 
BRANCH  14  15
ATOM     15  C   UNL     1      -5.661  27.591  46.484  1.00  0.00     0.000 C 
BRANCH  15  16
ATOM     16  C   UNL     1      -6.792  26.747  45.881  1.00  0.00     0.006 C 
BRANCH  16  17
ATOM     17  C   UNL     1      -7.052  27.141  44.422  1.00  0.00     0.053 C 
BRANCH  17  18
ATOM     18  C   UNL     1      -6.234  26.297  43.498  1.00  0.00     0.041 C 
ATOM     19  O   UNL     1      -6.071  26.645  42.298  1.00  0.00    -0.550 OA
ATOM     20  O   UNL     1      -5.692  25.098  43.946  1.00  0.00    -0.550 OA
ENDBRANCH  17  18
ENDBRANCH  16  17
ENDBRANCH  15  16
ENDBRANCH  14  15
ENDBRANCH  13  14
ENDBRANCH  12  13
ENDBRANCH  11  12
ENDBRANCH   1  11
TORSDOF 15
ENDMDL
MODEL 6
REMARK VINA RESULT:    -4.222     15.499     18.036
REMARK INTER + INTRA:          -8.656
REMARK INTER:                  -7.016
REMARK INTRA:                  -1.640
REMARK UNBOUND:                -0.731
REMARK SMILES O=C([O-])CCCCCCCCCCCCCCC(=O)[O-]
REMARK SMILES IDX 10 1 9 2 8 3 7 4 6 5 5 6 4 7 2 8 1 9 3 10 11 11 12 12 13 13
REMARK SMILES IDX 14 14 15 15 16 16 17 17 18 18 19 19 20 20
REMARK H PARENT
REMARK Flexibility Score: inf
ROOT
ATOM      1  C   UNL     1      -5.265  30.264  46.374  1.00  0.00     0.000 C 
ENDROOT
BRANCH   1   2
ATOM      2  C   UNL     1      -6.328  30.494  47.465  1.00  0.00     0.000 C 
BRANCH   2   3
ATOM      3  C   UNL     1      -7.553  31.318  47.019  1.00  0.00     0.000 C 
BRANCH   3   4
ATOM      4  C   UNL     1      -7.339  32.184  45.762  1.00  0.00     0.000 C 
BRANCH   4   5
ATOM      5  C   UNL     1      -6.824  33.610  46.033  1.00  0.00     0.000 C 
BRANCH   5   6
ATOM      6  C   UNL     1      -7.226  34.133  47.423  1.00  0.00     0.006 C 
BRANCH   6   7
ATOM      7  C   UNL     1      -6.062  34.834  48.136  1.00  0.00     0.053 C 
BRANCH   7   8
ATOM      8  C   UNL     1      -5.288  33.887  49.003  1.00  0.00     0.041 C 
ATOM      9  O   UNL     1      -4.269  33.302  48.551  1.00  0.00    -0.550 OA
ATOM     10  O   UNL     1      -5.711  33.628  50.301  1.00  0.00    -0.550 OA
ENDBRANCH   7   8
ENDBRANCH   6   7
ENDBRANCH   5   6
ENDBRANCH   4   5
ENDBRANCH   3   4
ENDBRANCH   2   3
ENDBRANCH   1   2
BRANCH   1  11
ATOM     11  C   UNL     1      -4.549  28.910  46.517  1.00  0.00     0.000 C 
BRANCH  11  12
ATOM     12  C   UNL     1      -5.530  27.726  46.553  1.00  0.00     0.000 C 
BRANCH  12  13
ATOM     13  C   UNL     1      -6.230  27.502  45.201  1.00  0.00     0.000 C 
BRANCH  13  14
ATOM     14  C   UNL     1      -7.763  27.439  45.326  1.00  0.00     0.000 C 
BRANCH  14  15
ATOM     15  C   UNL     1      -8.517  28.649  44.743  1.00  0.00     0.000 C 
BRANCH  15  16
ATOM     16  C   UNL     1      -9.888  28.278  44.161  1.00  0.00     0.006 C 
BRANCH  16  17
ATOM     17  C   UNL     1      -9.762  27.140  43.143  1.00  0.00     0.053 C 
BRANCH  17  18
ATOM     18  C   UNL     1     -11.086  26.858  42.506  1.00  0.00     0.041 C 
ATOM     19  O   UNL     1     -11.172  26.721  41.257  1.00  0.00    -0.550 OA
ATOM     20  O   UNL     1     -12.234  26.796  43.286  1.00  0.00    -0.550 OA
ENDBRANCH  17  18
ENDBRANCH  16  17
ENDBRANCH  15  16
ENDBRANCH  14  15
ENDBRANCH  13  14
ENDBRANCH  12  13
ENDBRANCH  11  12
ENDBRANCH   1  11
TORSDOF 15
ENDMDL
MODEL 7
REMARK VINA RESULT:    -4.182     14.905     17.167
REMARK INTER + INTRA:          -8.580
REMARK INTER:                  -7.174
REMARK INTRA:                  -1.406
REMARK UNBOUND:                -0.731
REMARK SMILES O=C([O-])CCCCCCCCCCCCCCC(=O)[O-]
REMARK SMILES IDX 10 1 9 2 8 3 7 4 6 5 5 6 4 7 2 8 1 9 3 10 11 11 12 12 13 13
REMARK SMILES IDX 14 14 15 15 16 16 17 17 18 18 19 19 20 20
REMARK H PARENT
REMARK Flexibility Score: inf
ROOT
ATOM      1  C   UNL     1      -5.677  27.100  45.467  1.00  0.00     0.000 C 
ENDROOT
BRANCH   1   2
ATOM      2  C   UNL     1      -7.189  26.880  45.659  1.00  0.00     0.000 C 
BRANCH   2   3
ATOM      3  C   UNL     1      -8.081  28.060  45.224  1.00  0.00     0.000 C 
BRANCH   3   4
ATOM      4  C   UNL     1      -7.981  28.443  43.734  1.00  0.00     0.000 C 
BRANCH   4   5
ATOM      5  C   UNL     1      -9.310  28.391  42.959  1.00  0.00     0.000 C 
BRANCH   5   6
ATOM      6  C   UNL     1     -10.293  27.354  43.530  1.00  0.00     0.006 C 
BRANCH   6   7
ATOM      7  C   UNL     1     -11.614  27.317  42.749  1.00  0.00     0.053 C 
BRANCH   7   8
ATOM      8  C   UNL     1     -11.875  25.965  42.158  1.00  0.00     0.041 C 
ATOM      9  O   UNL     1     -13.055  25.597  41.915  1.00  0.00    -0.550 OA
ATOM     10  O   UNL     1     -10.818  25.101  41.902  1.00  0.00    -0.550 OA
ENDBRANCH   7   8
ENDBRANCH   6   7
ENDBRANCH   5   6
ENDBRANCH   4   5
ENDBRANCH   3   4
ENDBRANCH   2   3
ENDBRANCH   1   2
BRANCH   1  11
ATOM     11  C   UNL     1      -5.059  27.982  46.566  1.00  0.00     0.000 C 
BRANCH  11  12
ATOM     12  C   UNL     1      -4.286  29.181  45.992  1.00  0.00     0.000 C 
BRANCH  12  13
ATOM     13  C   UNL     1      -4.961  30.525  46.316  1.00  0.00     0.000 C 
BRANCH  13  14
ATOM     14  C   UNL     1      -6.115  30.387  47.325  1.00  0.00     0.000 C 
BRANCH  14  15
ATOM     15  C   UNL     1      -7.194  31.481  47.237  1.00  0.00     0.000 C 
BRANCH  15  16
ATOM     16  C   UNL     1      -6.612  32.881  46.998  1.00  0.00     0.006 C 
BRANCH  16  17
ATOM     17  C   UNL     1      -6.766  33.760  48.244  1.00  0.00     0.053 C 
BRANCH  17  18
ATOM     18  C   UNL     1      -5.600  33.578  49.161  1.00  0.00     0.041 C 
ATOM     19  O   UNL     1      -5.768  33.584  50.410  1.00  0.00    -0.550 OA
ATOM     20  O   UNL     1      -4.318  33.452  48.641  1.00  0.00    -0.550 OA
ENDBRANCH  17  18
ENDBRANCH  16  17
ENDBRANCH  15  16
ENDBRANCH  14  15
ENDBRANCH  13  14
ENDBRANCH  12  13
ENDBRANCH  11  12
ENDBRANCH   1  11
TORSDOF 15
ENDMDL
MODEL 8
REMARK VINA RESULT:    -4.177     14.324     16.966
REMARK INTER + INTRA:          -8.572
REMARK INTER:                  -6.070
REMARK INTRA:                  -2.502
REMARK UNBOUND:                -0.731
REMARK SMILES O=C([O-])CCCCCCCCCCCCCCC(=O)[O-]
REMARK SMILES IDX 10 1 9 2 8 3 7 4 6 5 5 6 4 7 2 8 1 9 3 10 11 11 12 12 13 13
REMARK SMILES IDX 14 14 15 15 16 16 17 17 18 18 19 19 20 20
REMARK H PARENT
REMARK Flexibility Score: inf
ROOT
ATOM      1  C   UNL     1      -4.597  29.173  45.509  1.00  0.00     0.000 C 
ENDROOT
BRANCH   1   2
ATOM      2  C   UNL     1      -5.133  27.774  45.152  1.00  0.00     0.000 C 
BRANCH   2   3
ATOM      3  C   UNL     1      -6.260  27.254  46.066  1.00  0.00     0.000 C 
BRANCH   3   4
ATOM      4  C   UNL     1      -7.664  27.232  45.431  1.00  0.00     0.000 C 
BRANCH   4   5
ATOM      5  C   UNL     1      -7.684  27.306  43.893  1.00  0.00     0.000 C 
BRANCH   5   6
ATOM      6  C   UNL     1      -8.899  28.076  43.349  1.00  0.00     0.006 C 
BRANCH   6   7
ATOM      7  C   UNL     1     -10.210  27.629  44.011  1.00  0.00     0.053 C 
BRANCH   7   8
ATOM      8  C   UNL     1     -11.103  26.905  43.049  1.00  0.00     0.041 C 
ATOM      9  O   UNL     1     -10.617  26.356  42.025  1.00  0.00    -0.550 OA
ATOM     10  O   UNL     1     -12.474  26.863  43.268  1.00  0.00    -0.550 OA
ENDBRANCH   7   8
ENDBRANCH   6   7
ENDBRANCH   5   6
ENDBRANCH   4   5
ENDBRANCH   3   4
ENDBRANCH   2   3
ENDBRANCH   1   2
BRANCH   1  11
ATOM     11  C   UNL     1      -5.038  29.640  46.908  1.00  0.00     0.000 C 
BRANCH  11  12
ATOM     12  C   UNL     1      -5.096  31.171  47.025  1.00  0.00     0.000 C 
BRANCH  12  13
ATOM     13  C   UNL     1      -6.516  31.684  47.323  1.00  0.00     0.000 C 
BRANCH  13  14
ATOM     14  C   UNL     1      -7.597  30.608  47.115  1.00  0.00     0.000 C 
BRANCH  14  15
ATOM     15  C   UNL     1      -8.415  30.746  45.819  1.00  0.00     0.000 C 
BRANCH  15  16
ATOM     16  C   UNL     1      -7.913  31.876  44.910  1.00  0.00     0.006 C 
BRANCH  16  17
ATOM     17  C   UNL     1      -7.079  31.319  43.751  1.00  0.00     0.053 C 
BRANCH  17  18
ATOM     18  C   UNL     1      -5.884  32.183  43.503  1.00  0.00     0.041 C 
ATOM     19  O   UNL     1      -5.691  33.214  44.200  1.00  0.00    -0.550 OA
ATOM     20  O   UNL     1      -5.008  31.879  42.468  1.00  0.00    -0.550 OA
ENDBRANCH  17  18
ENDBRANCH  16  17
ENDBRANCH  15  16
ENDBRANCH  14  15
ENDBRANCH  13  14
ENDBRANCH  12  13
ENDBRANCH  11  12
ENDBRANCH   1  11
TORSDOF 15
ENDMDL
MODEL 9
REMARK VINA RESULT:    -4.144     16.499     18.990
REMARK INTER + INTRA:          -8.510
REMARK INTER:                  -6.125
REMARK INTRA:                  -2.385
REMARK UNBOUND:                -0.731
REMARK SMILES O=C([O-])CCCCCCCCCCCCCCC(=O)[O-]
REMARK SMILES IDX 10 1 9 2 8 3 7 4 6 5 5 6 4 7 2 8 1 9 3 10 11 11 12 12 13 13
REMARK SMILES IDX 14 14 15 15 16 16 17 17 18 18 19 19 20 20
REMARK H PARENT
REMARK Flexibility Score: inf
ROOT
ATOM      1  C   UNL     1      -4.922  30.643  43.563  1.00  0.00     0.000 C 
ENDROOT
BRANCH   1   2
ATOM      2  C   UNL     1      -4.037  31.336  44.615  1.00  0.00     0.000 C 
BRANCH   2   3
ATOM      3  C   UNL     1      -4.112  30.732  46.032  1.00  0.00     0.000 C 
BRANCH   3   4
ATOM      4  C   UNL     1      -4.424  29.223  46.086  1.00  0.00     0.000 C 
BRANCH   4   5
ATOM      5  C   UNL     1      -5.690  28.849  46.878  1.00  0.00     0.000 C 
BRANCH   5   6
ATOM      6  C   UNL     1      -6.555  27.800  46.158  1.00  0.00     0.006 C 
BRANCH   6   7
ATOM      7  C   UNL     1      -5.755  26.540  45.796  1.00  0.00     0.053 C 
BRANCH   7   8
ATOM      8  C   UNL     1      -5.879  26.200  44.342  1.00  0.00     0.041 C 
ATOM      9  O   UNL     1      -6.322  27.050  43.527  1.00  0.00    -0.550 OA
ATOM     10  O   UNL     1      -5.532  24.931  43.893  1.00  0.00    -0.550 OA
ENDBRANCH   7   8
ENDBRANCH   6   7
ENDBRANCH   5   6
ENDBRANCH   4   5
ENDBRANCH   3   4
ENDBRANCH   2   3
ENDBRANCH   1   2
BRANCH   1  11
ATOM     11  C   UNL     1      -6.298  31.314  43.408  1.00  0.00     0.000 C 
BRANCH  11  12
ATOM     12  C   UNL     1      -7.432  30.480  44.028  1.00  0.00     0.000 C 
BRANCH  12  13
ATOM     13  C   UNL     1      -8.401  31.335  44.863  1.00  0.00     0.000 C 
BRANCH  13  14
ATOM     14  C   UNL     1      -7.792  31.797  46.199  1.00  0.00     0.000 C 
BRANCH  14  15
ATOM     15  C   UNL     1      -7.503  33.306  46.297  1.00  0.00     0.000 C 
BRANCH  15  16
ATOM     16  C   UNL     1      -6.202  33.620  47.049  1.00  0.00     0.006 C 
BRANCH  16  17
ATOM     17  C   UNL     1      -6.150  32.879  48.390  1.00  0.00     0.053 C 
BRANCH  17  18
ATOM     18  C   UNL     1      -6.287  33.842  49.526  1.00  0.00     0.041 C 
ATOM     19  O   UNL     1      -5.788  33.571  50.650  1.00  0.00    -0.550 OA
ATOM     20  O   UNL     1      -7.008  35.018  49.359  1.00  0.00    -0.550 OA
ENDBRANCH  17  18
ENDBRANCH  16  17
ENDBRANCH  15  16
ENDBRANCH  14  15
ENDBRANCH  13  14
ENDBRANCH  12  13
ENDBRANCH  11  12
ENDBRANCH   1  11
TORSDOF 15
ENDMDL
