MODEL 1
REMARK VINA RESULT:    42.755      0.000      0.000
REMARK INTER + INTRA:          52.034
REMARK INTER:                  51.503
REMARK INTRA:                   0.532
REMARK UNBOUND:                 0.532
REMARK SMILES O=c1c(O)c(-c2ccc(O)c(O)c2)oc2cc(O)cc(O)c12
REMARK SMILES IDX 5 1 3 2 2 3 1 4 22 5 20 6 19 7 17 8 16 9 15 10 14 11 6 12
REMARK SMILES IDX 7 13 8 14 9 15 13 16 11 17 10 18 12 20 4 22 21 24 18 26
REMARK H PARENT 10 19 12 21 4 23 21 25 18 27
REMARK Flexibility Score: inf
ROOT
ATOM      1  C   UNL     1      10.164  -9.065 -16.192  1.00  0.00     0.180 A 
ATOM      2  C   UNL     1      10.043  -7.668 -16.089  1.00  0.00     0.208 A 
ATOM      3  C   UNL     1       8.852  -7.124 -15.583  1.00  0.00     0.238 A 
ATOM      4  O   UNL     1       8.769  -5.875 -15.442  1.00  0.00    -0.285 OA
ATOM      5  C   UNL     1       7.791  -7.981 -15.202  1.00  0.00     0.111 A 
ATOM      6  C   UNL     1       6.525  -7.536 -14.715  1.00  0.00     0.134 A 
ATOM      7  C   UNL     1       5.598  -8.474 -14.244  1.00  0.00     0.093 A 
ATOM      8  C   UNL     1       5.866  -9.845 -14.304  1.00  0.00     0.123 A 
ATOM      9  C   UNL     1       7.075 -10.290 -14.833  1.00  0.00     0.094 A 
ATOM     10  C   UNL     1       8.035  -9.377 -15.277  1.00  0.00     0.146 A 
ATOM     11  O   UNL     1       9.177  -9.844 -15.765  1.00  0.00    -0.452 OA
ENDROOT
BRANCH   1  12
ATOM     12  C   UNL     1      11.379  -9.712 -16.739  1.00  0.00     0.025 A 
ATOM     13  C   UNL     1      12.531  -8.941 -16.963  1.00  0.00     0.016 A 
ATOM     14  C   UNL     1      13.695  -9.534 -17.458  1.00  0.00     0.051 A 
ATOM     15  C   UNL     1      13.729 -10.909 -17.722  1.00  0.00     0.157 A 
ATOM     16  C   UNL     1      11.424 -11.096 -16.986  1.00  0.00     0.062 A 
ATOM     17  C   UNL     1      12.594 -11.691 -17.481  1.00  0.00     0.158 A 
BRANCH  15  18
ATOM     18  O   UNL     1      14.887 -11.503 -18.218  1.00  0.00    -0.504 OA
ATOM     19  H   UNL     1      15.643 -10.951 -18.605  1.00  0.00     0.293 HD
ENDBRANCH  15  18
BRANCH  17  20
ATOM     20  O   UNL     1      12.634 -13.062 -17.733  1.00  0.00    -0.504 OA
ATOM     21  H   UNL     1      13.495 -13.527 -18.001  1.00  0.00     0.293 HD
ENDBRANCH  17  20
ENDBRANCH   1  12
BRANCH   2  22
ATOM     22  O   UNL     1      11.110  -6.842 -16.451  1.00  0.00    -0.502 OA
ATOM     23  H   UNL     1      11.159  -5.866 -16.180  1.00  0.00     0.293 HD
ENDBRANCH   2  22
BRANCH   6  24
ATOM     24  O   UNL     1       6.122  -6.197 -14.697  1.00  0.00    -0.507 OA
ATOM     25  H   UNL     1       6.739  -5.415 -14.539  1.00  0.00     0.293 HD
ENDBRANCH   6  24
BRANCH   8  26
ATOM     26  O   UNL     1       4.931 -10.772 -13.849  1.00  0.00    -0.508 OA
ATOM     27  H   UNL     1       4.226 -10.522 -13.167  1.00  0.00     0.293 HD
ENDBRANCH   8  26
TORSDOF 6
ENDMDL
MODEL 2
REMARK VINA RESULT:    44.354      1.173      6.466
REMARK INTER + INTRA:          53.961
REMARK INTER:                  53.467
REMARK INTRA:                   0.493
REMARK UNBOUND:                 0.532
REMARK SMILES O=c1c(O)c(-c2ccc(O)c(O)c2)oc2cc(O)cc(O)c12
REMARK SMILES IDX 5 1 3 2 2 3 1 4 22 5 20 6 19 7 17 8 16 9 15 10 14 11 6 12
REMARK SMILES IDX 7 13 8 14 9 15 13 16 11 17 10 18 12 20 4 22 21 24 18 26
REMARK H PARENT 10 19 12 21 4 23 21 25 18 27
REMARK Flexibility Score: inf
ROOT
ATOM      1  C   UNL     1       8.419  -8.829 -15.556  1.00  0.00     0.180 A 
ATOM      2  C   UNL     1       8.626  -7.470 -15.850  1.00  0.00     0.208 A 
ATOM      3  C   UNL     1       9.811  -7.086 -16.497  1.00  0.00     0.238 A 
ATOM      4  O   UNL     1       9.966  -5.875 -16.806  1.00  0.00    -0.285 OA
ATOM      5  C   UNL     1      10.782  -8.062 -16.827  1.00  0.00     0.111 A 
ATOM      6  C   UNL     1      12.036  -7.780 -17.447  1.00  0.00     0.134 A 
ATOM      7  C   UNL     1      12.862  -8.838 -17.848  1.00  0.00     0.093 A 
ATOM      8  C   UNL     1      12.508 -10.166 -17.591  1.00  0.00     0.123 A 
ATOM      9  C   UNL     1      11.313 -10.447 -16.933  1.00  0.00     0.094 A 
ATOM     10  C   UNL     1      10.451  -9.415 -16.554  1.00  0.00     0.146 A 
ATOM     11  O   UNL     1       9.318  -9.729 -15.938  1.00  0.00    -0.452 OA
ENDROOT
BRANCH   1  12
ATOM     12  C   UNL     1       7.206  -9.307 -14.854  1.00  0.00     0.025 A 
ATOM     13  C   UNL     1       6.083  -8.469 -14.765  1.00  0.00     0.016 A 
ATOM     14  C   UNL     1       4.921  -8.907 -14.126  1.00  0.00     0.051 A 
ATOM     15  C   UNL     1       4.858 -10.194 -13.579  1.00  0.00     0.157 A 
ATOM     16  C   UNL     1       7.132 -10.607 -14.321  1.00  0.00     0.062 A 
ATOM     17  C   UNL     1       5.964 -11.047 -13.680  1.00  0.00     0.158 A 
BRANCH  15  18
ATOM     18  O   UNL     1       3.702 -10.635 -12.939  1.00  0.00    -0.504 OA
ATOM     19  H   UNL     1       3.465 -10.329 -12.003  1.00  0.00     0.293 HD
ENDBRANCH  15  18
BRANCH  17  20
ATOM     20  O   UNL     1       5.895 -12.334 -13.147  1.00  0.00    -0.504 OA
ATOM     21  H   UNL     1       5.048 -12.683 -12.714  1.00  0.00     0.293 HD
ENDBRANCH  17  20
ENDBRANCH   1  12
BRANCH   2  22
ATOM     22  O   UNL     1       7.645  -6.526 -15.534  1.00  0.00    -0.502 OA
ATOM     23  H   UNL     1       7.397  -6.298 -14.578  1.00  0.00     0.293 HD
ENDBRANCH   2  22
BRANCH   6  24
ATOM     24  O   UNL     1      12.525  -6.489 -17.667  1.00  0.00    -0.507 OA
ATOM     25  H   UNL     1      12.814  -5.853 -16.939  1.00  0.00     0.293 HD
ENDBRANCH   6  24
BRANCH   8  26
ATOM     26  O   UNL     1      13.343 -11.212 -17.977  1.00  0.00    -0.508 OA
ATOM     27  H   UNL     1      14.350 -11.142 -17.899  1.00  0.00     0.293 HD
ENDBRANCH   8  26
TORSDOF 6
ENDMDL
