MODEL 1
REMARK VINA RESULT:    -3.291      0.000      0.000
REMARK INTER + INTRA:          -4.055
REMARK INTER:                  -3.965
REMARK INTRA:                  -0.090
REMARK UNBOUND:                -0.090
REMARK SMILES CC[C@H](C)[C@@H]([NH3+])C(=O)[O-]
REMARK SMILES IDX 3 1 4 2 5 3 6 4 7 8 8 9 9 10 2 11 1 12
REMARK H PARENT 6 5 6 6 6 7
REMARK Flexibility Score: inf
ROOT
ATOM      1  C   UNL     1     150.339 150.087 136.276  1.00  0.00     0.050 C 
ATOM      2  C   UNL     1     150.437 150.703 137.683  1.00  0.00     0.014 C 
ENDROOT
BRANCH   1   3
ATOM      3  C   UNL     1     151.620 149.233 135.975  1.00  0.00     0.230 C 
BRANCH   3   4
ATOM      4  N   UNL     1     152.656 149.404 137.003  1.00  0.00    -0.350 N 
ATOM      5  H   UNL     1     153.155 150.311 136.860  1.00  0.00     0.345 HD
ATOM      6  H   UNL     1     153.361 148.635 136.920  1.00  0.00     0.345 HD
ATOM      7  H   UNL     1     152.260 149.382 137.966  1.00  0.00     0.345 HD
ENDBRANCH   3   4
BRANCH   3   8
ATOM      8  C   UNL     1     151.315 147.772 135.744  1.00  0.00     0.099 C 
ATOM      9  O   UNL     1     151.186 147.335 134.571  1.00  0.00    -0.544 OA
ATOM     10  O   UNL     1     151.141 146.905 136.816  1.00  0.00    -0.544 OA
ENDBRANCH   3   8
ENDBRANCH   1   3
BRANCH   1  11
ATOM     11  C   UNL     1     150.025 151.216 135.255  1.00  0.00     0.006 C 
ATOM     12  C   UNL     1     149.123 150.786 134.099  1.00  0.00     0.004 C 
ENDBRANCH   1  11
TORSDOF 4
ENDMDL
MODEL 2
REMARK VINA RESULT:    -3.174      8.383      9.538
REMARK INTER + INTRA:          -3.913
REMARK INTER:                  -3.847
REMARK INTRA:                  -0.067
REMARK UNBOUND:                -0.090
REMARK SMILES CC[C@H](C)[C@@H]([NH3+])C(=O)[O-]
REMARK SMILES IDX 3 1 4 2 5 3 6 4 7 8 8 9 9 10 2 11 1 12
REMARK H PARENT 6 5 6 6 6 7
REMARK Flexibility Score: inf
ROOT
ATOM      1  C   UNL     1     148.959 152.920 128.563  1.00  0.00     0.050 C 
ATOM      2  C   UNL     1     148.731 151.782 129.572  1.00  0.00     0.014 C 
ENDROOT
BRANCH   1   3
ATOM      3  C   UNL     1     147.619 153.698 128.320  1.00  0.00     0.230 C 
BRANCH   3   4
ATOM      4  N   UNL     1     146.472 152.792 128.162  1.00  0.00    -0.350 N 
ATOM      5  H   UNL     1     146.022 152.619 129.090  1.00  0.00     0.345 HD
ATOM      6  H   UNL     1     146.803 151.872 127.790  1.00  0.00     0.345 HD
ATOM      7  H   UNL     1     145.759 153.174 127.505  1.00  0.00     0.345 HD
ENDBRANCH   3   4
BRANCH   3   8
ATOM      8  C   UNL     1     147.345 154.749 129.369  1.00  0.00     0.099 C 
ATOM      9  O   UNL     1     147.949 155.852 129.325  1.00  0.00    -0.544 OA
ATOM     10  O   UNL     1     146.456 154.500 130.408  1.00  0.00    -0.544 OA
ENDBRANCH   3   8
ENDBRANCH   1   3
BRANCH   1  11
ATOM     11  C   UNL     1     149.642 152.337 127.294  1.00  0.00     0.006 C 
ATOM     12  C   UNL     1     151.116 152.707 127.146  1.00  0.00     0.004 C 
ENDBRANCH   1  11
TORSDOF 4
ENDMDL
MODEL 3
REMARK VINA RESULT:    -3.093      2.683      3.963
REMARK INTER + INTRA:          -3.816
REMARK INTER:                  -3.758
REMARK INTRA:                  -0.058
REMARK UNBOUND:                -0.090
REMARK SMILES CC[C@H](C)[C@@H]([NH3+])C(=O)[O-]
REMARK SMILES IDX 3 1 4 2 5 3 6 4 7 8 8 9 9 10 2 11 1 12
REMARK H PARENT 6 5 6 6 6 7
REMARK Flexibility Score: inf
ROOT
ATOM      1  C   UNL     1     153.160 149.122 135.945  1.00  0.00     0.050 C 
ATOM      2  C   UNL     1     153.747 148.510 137.229  1.00  0.00     0.014 C 
ENDROOT
BRANCH   1   3
ATOM      3  C   UNL     1     151.617 148.850 135.878  1.00  0.00     0.230 C 
BRANCH   3   4
ATOM      4  N   UNL     1     151.225 147.676 136.669  1.00  0.00    -0.350 N 
ATOM      5  H   UNL     1     151.037 147.956 137.658  1.00  0.00     0.345 HD
ATOM      6  H   UNL     1     152.009 146.982 136.677  1.00  0.00     0.345 HD
ATOM      7  H   UNL     1     150.379 147.208 136.282  1.00  0.00     0.345 HD
ENDBRANCH   3   4
BRANCH   3   8
ATOM      8  C   UNL     1     150.787 150.058 136.245  1.00  0.00     0.099 C 
ATOM      9  O   UNL     1     150.449 150.247 137.443  1.00  0.00    -0.544 OA
ATOM     10  O   UNL     1     150.360 150.948 135.268  1.00  0.00    -0.544 OA
ENDBRANCH   3   8
ENDBRANCH   1   3
BRANCH   1  11
ATOM     11  C   UNL     1     153.987 148.622 134.727  1.00  0.00     0.006 C 
ATOM     12  C   UNL     1     155.499 148.642 134.942  1.00  0.00     0.004 C 
ENDBRANCH   1  11
TORSDOF 4
ENDMDL
MODEL 4
REMARK VINA RESULT:    -3.087      0.663      2.292
REMARK INTER + INTRA:          -3.809
REMARK INTER:                  -3.834
REMARK INTRA:                   0.025
REMARK UNBOUND:                -0.090
REMARK SMILES CC[C@H](C)[C@@H]([NH3+])C(=O)[O-]
REMARK SMILES IDX 3 1 4 2 5 3 6 4 7 8 8 9 9 10 2 11 1 12
REMARK H PARENT 6 5 6 6 6 7
REMARK Flexibility Score: inf
ROOT
ATOM      1  C   UNL     1     150.940 150.420 136.381  1.00  0.00     0.050 C 
ATOM      2  C   UNL     1     150.074 150.752 135.154  1.00  0.00     0.014 C 
ENDROOT
BRANCH   1   3
ATOM      3  C   UNL     1     152.017 149.344 136.002  1.00  0.00     0.230 C 
BRANCH   3   4
ATOM      4  N   UNL     1     153.123 149.301 136.969  1.00  0.00    -0.350 N 
ATOM      5  H   UNL     1     152.844 148.742 137.807  1.00  0.00     0.345 HD
ATOM      6  H   UNL     1     153.344 150.271 137.291  1.00  0.00     0.345 HD
ATOM      7  H   UNL     1     153.986 148.887 136.558  1.00  0.00     0.345 HD
ENDBRANCH   3   4
BRANCH   3   8
ATOM      8  C   UNL     1     151.430 147.971 135.781  1.00  0.00     0.099 C 
ATOM      9  O   UNL     1     151.230 147.208 136.762  1.00  0.00    -0.544 OA
ATOM     10  O   UNL     1     151.139 147.522 134.499  1.00  0.00    -0.544 OA
ENDBRANCH   3   8
ENDBRANCH   1   3
BRANCH   1  11
ATOM     11  C   UNL     1     150.008 150.052 137.569  1.00  0.00     0.006 C 
ATOM     12  C   UNL     1     150.073 151.024 138.745  1.00  0.00     0.004 C 
ENDBRANCH   1  11
TORSDOF 4
ENDMDL
MODEL 5
REMARK VINA RESULT:    -3.044      2.577      3.920
REMARK INTER + INTRA:          -3.757
REMARK INTER:                  -3.684
REMARK INTRA:                  -0.073
REMARK UNBOUND:                -0.090
REMARK SMILES CC[C@H](C)[C@@H]([NH3+])C(=O)[O-]
REMARK SMILES IDX 3 1 4 2 5 3 6 4 7 8 8 9 9 10 2 11 1 12
REMARK H PARENT 6 5 6 6 6 7
REMARK Flexibility Score: inf
ROOT
ATOM      1  C   UNL     1     152.018 148.975 136.807  1.00  0.00     0.050 C 
ATOM      2  C   UNL     1     151.763 148.243 135.478  1.00  0.00     0.014 C 
ENDROOT
BRANCH   1   3
ATOM      3  C   UNL     1     151.246 150.340 136.825  1.00  0.00     0.230 C 
BRANCH   3   4
ATOM      4  N   UNL     1     150.768 150.725 135.490  1.00  0.00    -0.350 N 
ATOM      5  H   UNL     1     150.545 149.872 134.929  1.00  0.00     0.345 HD
ATOM      6  H   UNL     1     151.521 151.251 134.987  1.00  0.00     0.345 HD
ATOM      7  H   UNL     1     149.921 151.331 135.537  1.00  0.00     0.345 HD
ENDBRANCH   3   4
BRANCH   3   8
ATOM      8  C   UNL     1     150.125 150.373 137.837  1.00  0.00     0.099 C 
ATOM      9  O   UNL     1     149.189 149.535 137.765  1.00  0.00    -0.544 OA
ATOM     10  O   UNL     1     150.096 151.342 138.831  1.00  0.00    -0.544 OA
ENDBRANCH   3   8
ENDBRANCH   1   3
BRANCH   1  11
ATOM     11  C   UNL     1     153.552 149.064 137.044  1.00  0.00     0.006 C 
ATOM     12  C   UNL     1     154.399 148.754 135.811  1.00  0.00     0.004 C 
ENDBRANCH   1  11
TORSDOF 4
ENDMDL
MODEL 6
REMARK VINA RESULT:    -3.010      6.792      7.913
REMARK INTER + INTRA:          -3.716
REMARK INTER:                  -3.610
REMARK INTRA:                  -0.106
REMARK UNBOUND:                -0.090
REMARK SMILES CC[C@H](C)[C@@H]([NH3+])C(=O)[O-]
REMARK SMILES IDX 3 1 4 2 5 3 6 4 7 8 8 9 9 10 2 11 1 12
REMARK H PARENT 6 5 6 6 6 7
REMARK Flexibility Score: inf
ROOT
ATOM      1  C   UNL     1     149.261 152.549 128.718  1.00  0.00     0.050 C 
ATOM      2  C   UNL     1     149.051 152.408 127.201  1.00  0.00     0.014 C 
ENDROOT
BRANCH   1   3
ATOM      3  C   UNL     1     148.088 151.850 129.489  1.00  0.00     0.230 C 
BRANCH   3   4
ATOM      4  N   UNL     1     146.990 151.459 128.594  1.00  0.00    -0.350 N 
ATOM      5  H   UNL     1     146.074 151.759 128.999  1.00  0.00     0.345 HD
ATOM      6  H   UNL     1     146.971 150.417 128.498  1.00  0.00     0.345 HD
ATOM      7  H   UNL     1     147.093 151.874 127.644  1.00  0.00     0.345 HD
ENDBRANCH   3   4
BRANCH   3   8
ATOM      8  C   UNL     1     148.546 150.684 130.333  1.00  0.00     0.099 C 
ATOM      9  O   UNL     1     149.606 150.073 130.039  1.00  0.00    -0.544 OA
ATOM     10  O   UNL     1     147.790 150.252 131.416  1.00  0.00    -0.544 OA
ENDBRANCH   3   8
ENDBRANCH   1   3
BRANCH   1  11
ATOM     11  C   UNL     1     149.493 154.048 129.056  1.00  0.00     0.006 C 
ATOM     12  C   UNL     1     148.212 154.871 129.176  1.00  0.00     0.004 C 
ENDBRANCH   1  11
TORSDOF 4
ENDMDL
MODEL 7
REMARK VINA RESULT:    -3.008      6.858      8.221
REMARK INTER + INTRA:          -3.713
REMARK INTER:                  -3.628
REMARK INTRA:                  -0.085
REMARK UNBOUND:                -0.090
REMARK SMILES CC[C@H](C)[C@@H]([NH3+])C(=O)[O-]
REMARK SMILES IDX 3 1 4 2 5 3 6 4 7 8 8 9 9 10 2 11 1 12
REMARK H PARENT 6 5 6 6 6 7
REMARK Flexibility Score: inf
ROOT
ATOM      1  C   UNL     1     149.124 152.074 127.924  1.00  0.00     0.050 C 
ATOM      2  C   UNL     1     148.002 152.653 127.045  1.00  0.00     0.014 C 
ENDROOT
BRANCH   1   3
ATOM      3  C   UNL     1     148.679 152.067 129.428  1.00  0.00     0.230 C 
BRANCH   3   4
ATOM      4  N   UNL     1     147.353 152.670 129.617  1.00  0.00    -0.350 N 
ATOM      5  H   UNL     1     146.614 151.932 129.572  1.00  0.00     0.345 HD
ATOM      6  H   UNL     1     147.167 153.355 128.848  1.00  0.00     0.345 HD
ATOM      7  H   UNL     1     147.277 153.171 130.527  1.00  0.00     0.345 HD
ENDBRANCH   3   4
BRANCH   3   8
ATOM      8  C   UNL     1     148.752 150.698 130.061  1.00  0.00     0.099 C 
ATOM      9  O   UNL     1     149.728 149.942 129.811  1.00  0.00    -0.544 OA
ATOM     10  O   UNL     1     147.736 150.245 130.892  1.00  0.00    -0.544 OA
ENDBRANCH   3   8
ENDBRANCH   1   3
BRANCH   1  11
ATOM     11  C   UNL     1     150.446 152.831 127.614  1.00  0.00     0.006 C 
ATOM     12  C   UNL     1     151.491 151.997 126.875  1.00  0.00     0.004 C 
ENDBRANCH   1  11
TORSDOF 4
ENDMDL
MODEL 8
REMARK VINA RESULT:    -2.989      7.410      8.315
REMARK INTER + INTRA:          -3.690
REMARK INTER:                  -3.570
REMARK INTRA:                  -0.120
REMARK UNBOUND:                -0.090
REMARK SMILES CC[C@H](C)[C@@H]([NH3+])C(=O)[O-]
REMARK SMILES IDX 3 1 4 2 5 3 6 4 7 8 8 9 9 10 2 11 1 12
REMARK H PARENT 6 5 6 6 6 7
REMARK Flexibility Score: inf
ROOT
ATOM      1  C   UNL     1     149.082 150.955 129.748  1.00  0.00     0.050 C 
ATOM      2  C   UNL     1     148.097 150.598 130.874  1.00  0.00     0.014 C 
ENDROOT
BRANCH   1   3
ATOM      3  C   UNL     1     148.528 152.162 128.914  1.00  0.00     0.230 C 
BRANCH   3   4
ATOM      4  N   UNL     1     147.345 152.772 129.537  1.00  0.00    -0.350 N 
ATOM      5  H   UNL     1     147.572 153.737 129.868  1.00  0.00     0.345 HD
ATOM      6  H   UNL     1     147.060 152.207 130.371  1.00  0.00     0.345 HD
ATOM      7  H   UNL     1     146.538 152.818 128.881  1.00  0.00     0.345 HD
ENDBRANCH   3   4
BRANCH   3   8
ATOM      8  C   UNL     1     149.580 153.201 128.605  1.00  0.00     0.099 C 
ATOM      9  O   UNL     1     149.536 154.326 129.169  1.00  0.00    -0.544 OA
ATOM     10  O   UNL     1     150.581 152.943 127.677  1.00  0.00    -0.544 OA
ENDBRANCH   3   8
ENDBRANCH   1   3
BRANCH   1  11
ATOM     11  C   UNL     1     149.408 149.668 128.939  1.00  0.00     0.006 C 
ATOM     12  C   UNL     1     150.889 149.487 128.613  1.00  0.00     0.004 C 
ENDBRANCH   1  11
TORSDOF 4
ENDMDL
MODEL 9
REMARK VINA RESULT:    -2.904      6.666      8.024
REMARK INTER + INTRA:          -3.589
REMARK INTER:                  -3.498
REMARK INTRA:                  -0.091
REMARK UNBOUND:                -0.090
REMARK SMILES CC[C@H](C)[C@@H]([NH3+])C(=O)[O-]
REMARK SMILES IDX 3 1 4 2 5 3 6 4 7 8 8 9 9 10 2 11 1 12
REMARK H PARENT 6 5 6 6 6 7
REMARK Flexibility Score: inf
ROOT
ATOM      1  C   UNL     1     148.758 149.623 129.833  1.00  0.00     0.050 C 
ATOM      2  C   UNL     1     150.162 149.114 129.462  1.00  0.00     0.014 C 
ENDROOT
BRANCH   1   3
ATOM      3  C   UNL     1     148.049 150.215 128.565  1.00  0.00     0.230 C 
BRANCH   3   4
ATOM      4  N   UNL     1     146.605 149.944 128.558  1.00  0.00    -0.350 N 
ATOM      5  H   UNL     1     146.398 149.090 129.125  1.00  0.00     0.345 HD
ATOM      6  H   UNL     1     146.289 149.761 127.578  1.00  0.00     0.345 HD
ATOM      7  H   UNL     1     146.055 150.744 128.936  1.00  0.00     0.345 HD
ENDBRANCH   3   4
BRANCH   3   8
ATOM      8  C   UNL     1     148.331 151.684 128.360  1.00  0.00     0.099 C 
ATOM      9  O   UNL     1     147.426 152.533 128.572  1.00  0.00    -0.544 OA
ATOM     10  O   UNL     1     149.572 152.112 127.906  1.00  0.00    -0.544 OA
ENDBRANCH   3   8
ENDBRANCH   1   3
BRANCH   1  11
ATOM     11  C   UNL     1     148.878 150.584 131.049  1.00  0.00     0.006 C 
ATOM     12  C   UNL     1     148.539 149.943 132.393  1.00  0.00     0.004 C 
ENDBRANCH   1  11
TORSDOF 4
ENDMDL
