MODEL 1
REMARK VINA RESULT:    -3.484      0.000      0.000
REMARK INTER + INTRA:          -3.832
REMARK INTER:                  -3.789
REMARK INTRA:                  -0.043
REMARK UNBOUND:                -0.043
REMARK SMILES CC1(C)[C@@H]2CC=C(CO)[C@H]1C2
REMARK SMILES IDX 8 1 7 2 1 3 2 4 4 5 3 6 10 7 5 8 11 9 6 10 9 11
REMARK H PARENT 9 12
REMARK Flexibility Score: inf
ROOT
ATOM      1  C   UNL     1     141.782 -44.847  65.218  1.00  0.00     0.187 C 
ENDROOT
BRANCH   1   2
ATOM      2  C   UNL     1     141.338 -45.470  66.512  1.00  0.00    -0.045 C 
ATOM      3  C   UNL     1     139.727 -47.948  66.601  1.00  0.00     0.012 C 
ATOM      4  C   UNL     1     140.968 -47.749  67.516  1.00  0.00    -0.026 C 
ATOM      5  C   UNL     1     140.815 -46.896  68.805  1.00  0.00    -0.000 C 
ATOM      6  C   UNL     1     141.586 -49.140  67.805  1.00  0.00     0.012 C 
ATOM      7  C   UNL     1     142.037 -46.707  67.093  1.00  0.00     0.023 C 
ATOM      8  C   UNL     1     139.879 -45.666  68.537  1.00  0.00     0.031 C 
ATOM      9  C   UNL     1     142.252 -46.382  68.584  1.00  0.00     0.013 C 
ATOM     10  C   UNL     1     140.302 -44.954  67.236  1.00  0.00    -0.025 C 
ENDBRANCH   1   2
BRANCH   1  11
ATOM     11  O   UNL     1     143.159 -45.034  65.036  1.00  0.00    -0.392 OA
ATOM     12  H   UNL     1     143.614 -44.435  65.685  1.00  0.00     0.211 HD
ENDBRANCH   1  11
TORSDOF 2
ENDMDL
MODEL 2
REMARK VINA RESULT:    -3.299      1.289      2.406
REMARK INTER + INTRA:          -3.631
REMARK INTER:                  -3.591
REMARK INTRA:                  -0.039
REMARK UNBOUND:                -0.043
REMARK SMILES CC1(C)[C@@H]2CC=C(CO)[C@H]1C2
REMARK SMILES IDX 8 1 7 2 1 3 2 4 4 5 3 6 10 7 5 8 11 9 6 10 9 11
REMARK H PARENT 9 12
REMARK Flexibility Score: inf
ROOT
ATOM      1  C   UNL     1     141.889 -45.367  67.102  1.00  0.00     0.187 C 
ENDROOT
BRANCH   1   2
ATOM      2  C   UNL     1     141.702 -46.633  67.890  1.00  0.00    -0.045 C 
ATOM      3  C   UNL     1     139.138 -47.319  69.192  1.00  0.00     0.012 C 
ATOM      4  C   UNL     1     139.931 -48.361  68.353  1.00  0.00    -0.026 C 
ATOM      5  C   UNL     1     141.140 -49.082  69.008  1.00  0.00    -0.000 C 
ATOM      6  C   UNL     1     138.918 -49.358  67.735  1.00  0.00     0.012 C 
ATOM      7  C   UNL     1     140.955 -47.841  67.309  1.00  0.00     0.023 C 
ATOM      8  C   UNL     1     141.944 -48.086  69.914  1.00  0.00     0.031 C 
ATOM      9  C   UNL     1     141.843 -49.057  67.636  1.00  0.00     0.013 C 
ATOM     10  C   UNL     1     142.203 -46.771  69.153  1.00  0.00    -0.025 C 
ENDBRANCH   1   2
BRANCH   1  11
ATOM     11  O   UNL     1     142.637 -45.620  65.944  1.00  0.00    -0.392 OA
ATOM     12  H   UNL     1     143.054 -46.513  66.067  1.00  0.00     0.211 HD
ENDBRANCH   1  11
TORSDOF 2
ENDMDL
MODEL 3
REMARK VINA RESULT:    -3.110     22.366     24.053
REMARK INTER + INTRA:          -3.425
REMARK INTER:                  -3.366
REMARK INTRA:                  -0.059
REMARK UNBOUND:                -0.043
REMARK SMILES CC1(C)[C@@H]2CC=C(CO)[C@H]1C2
REMARK SMILES IDX 8 1 7 2 1 3 2 4 4 5 3 6 10 7 5 8 11 9 6 10 9 11
REMARK H PARENT 9 12
REMARK Flexibility Score: inf
ROOT
ATOM      1  C   UNL     1     125.608 -38.292  84.467  1.00  0.00     0.187 C 
ENDROOT
BRANCH   1   2
ATOM      2  C   UNL     1     126.684 -37.425  83.876  1.00  0.00    -0.045 C 
ATOM      3  C   UNL     1     126.243 -35.791  81.452  1.00  0.00     0.012 C 
ATOM      4  C   UNL     1     126.938 -35.206  82.714  1.00  0.00    -0.026 C 
ATOM      5  C   UNL     1     128.440 -35.521  82.951  1.00  0.00    -0.000 C 
ATOM      6  C   UNL     1     126.642 -33.686  82.771  1.00  0.00     0.012 C 
ATOM      7  C   UNL     1     126.695 -35.904  84.079  1.00  0.00     0.023 C 
ATOM      8  C   UNL     1     128.759 -37.001  82.541  1.00  0.00     0.031 C 
ATOM      9  C   UNL     1     128.148 -35.562  84.465  1.00  0.00     0.013 C 
ATOM     10  C   UNL     1     127.709 -37.954  83.145  1.00  0.00    -0.025 C 
ENDBRANCH   1   2
BRANCH   1  11
ATOM     11  O   UNL     1     124.488 -38.321  83.625  1.00  0.00    -0.392 OA
ATOM     12  H   UNL     1     123.762 -37.842  84.105  1.00  0.00     0.211 HD
ENDBRANCH   1  11
TORSDOF 2
ENDMDL
MODEL 4
REMARK VINA RESULT:    -3.083     22.227     23.989
REMARK INTER + INTRA:          -3.396
REMARK INTER:                  -3.374
REMARK INTRA:                  -0.023
REMARK UNBOUND:                -0.043
REMARK SMILES CC1(C)[C@@H]2CC=C(CO)[C@H]1C2
REMARK SMILES IDX 8 1 7 2 1 3 2 4 4 5 3 6 10 7 5 8 11 9 6 10 9 11
REMARK H PARENT 9 12
REMARK Flexibility Score: inf
ROOT
ATOM      1  C   UNL     1     124.552 -36.797  82.160  1.00  0.00     0.187 C 
ENDROOT
BRANCH   1   2
ATOM      2  C   UNL     1     125.737 -36.019  82.660  1.00  0.00    -0.045 C 
ATOM      3  C   UNL     1     128.514 -36.732  81.941  1.00  0.00     0.012 C 
ATOM      4  C   UNL     1     128.007 -35.264  81.876  1.00  0.00    -0.026 C 
ATOM      5  C   UNL     1     127.928 -34.443  83.192  1.00  0.00    -0.000 C 
ATOM      6  C   UNL     1     128.803 -34.524  80.771  1.00  0.00     0.012 C 
ATOM      7  C   UNL     1     126.479 -35.016  81.766  1.00  0.00     0.023 C 
ATOM      8  C   UNL     1     127.437 -35.352  84.373  1.00  0.00     0.031 C 
ATOM      9  C   UNL     1     126.661 -33.759  82.639  1.00  0.00     0.013 C 
ATOM     10  C   UNL     1     126.197 -36.157  83.939  1.00  0.00    -0.025 C 
ENDBRANCH   1   2
BRANCH   1  11
ATOM     11  O   UNL     1     124.211 -37.804  83.073  1.00  0.00    -0.392 OA
ATOM     12  H   UNL     1     124.114 -38.641  82.548  1.00  0.00     0.211 HD
ENDBRANCH   1  11
TORSDOF 2
ENDMDL
MODEL 5
REMARK VINA RESULT:    -3.074     22.409     24.084
REMARK INTER + INTRA:          -3.387
REMARK INTER:                  -3.361
REMARK INTRA:                  -0.025
REMARK UNBOUND:                -0.043
REMARK SMILES CC1(C)[C@@H]2CC=C(CO)[C@H]1C2
REMARK SMILES IDX 8 1 7 2 1 3 2 4 4 5 3 6 10 7 5 8 11 9 6 10 9 11
REMARK H PARENT 9 12
REMARK Flexibility Score: inf
ROOT
ATOM      1  C   UNL     1     126.907 -32.633  82.194  1.00  0.00     0.187 C 
ENDROOT
BRANCH   1   2
ATOM      2  C   UNL     1     126.739 -34.104  82.449  1.00  0.00    -0.045 C 
ATOM      3  C   UNL     1     128.851 -36.071  81.808  1.00  0.00     0.012 C 
ATOM      4  C   UNL     1     128.101 -36.095  83.170  1.00  0.00    -0.026 C 
ATOM      5  C   UNL     1     126.690 -36.740  83.233  1.00  0.00    -0.000 C 
ATOM      6  C   UNL     1     129.059 -36.676  84.241  1.00  0.00     0.012 C 
ATOM      7  C   UNL     1     127.401 -34.795  83.649  1.00  0.00     0.023 C 
ATOM      8  C   UNL     1     125.875 -36.398  81.937  1.00  0.00     0.031 C 
ATOM      9  C   UNL     1     126.294 -35.669  84.270  1.00  0.00     0.013 C 
ATOM     10  C   UNL     1     125.975 -34.890  81.633  1.00  0.00    -0.025 C 
ENDBRANCH   1   2
BRANCH   1  11
ATOM     11  O   UNL     1     125.672 -31.977  82.292  1.00  0.00    -0.392 OA
ATOM     12  H   UNL     1     124.991 -32.603  81.930  1.00  0.00     0.211 HD
ENDBRANCH   1  11
TORSDOF 2
ENDMDL
MODEL 6
REMARK VINA RESULT:    -3.023      2.270      3.660
REMARK INTER + INTRA:          -3.331
REMARK INTER:                  -3.308
REMARK INTRA:                  -0.023
REMARK UNBOUND:                -0.043
REMARK SMILES CC1(C)[C@@H]2CC=C(CO)[C@H]1C2
REMARK SMILES IDX 8 1 7 2 1 3 2 4 4 5 3 6 10 7 5 8 11 9 6 10 9 11
REMARK H PARENT 9 12
REMARK Flexibility Score: inf
ROOT
ATOM      1  C   UNL     1     139.699 -47.449  65.913  1.00  0.00     0.187 C 
ENDROOT
BRANCH   1   2
ATOM      2  C   UNL     1     140.131 -48.363  67.025  1.00  0.00    -0.045 C 
ATOM      3  C   UNL     1     139.522 -47.799  69.862  1.00  0.00     0.012 C 
ATOM      4  C   UNL     1     139.301 -49.209  69.246  1.00  0.00    -0.026 C 
ATOM      5  C   UNL     1     140.525 -50.151  69.078  1.00  0.00    -0.000 C 
ATOM      6  C   UNL     1     138.136 -49.893  70.005  1.00  0.00     0.012 C 
ATOM      7  C   UNL     1     139.147 -49.325  67.706  1.00  0.00     0.023 C 
ATOM      8  C   UNL     1     141.786 -49.332  68.634  1.00  0.00     0.031 C 
ATOM      9  C   UNL     1     139.888 -50.675  67.774  1.00  0.00     0.013 C 
ATOM     10  C   UNL     1     141.422 -48.392  67.468  1.00  0.00    -0.025 C 
ENDBRANCH   1   2
BRANCH   1  11
ATOM     11  O   UNL     1     140.711 -46.524  65.622  1.00  0.00    -0.392 OA
ATOM     12  H   UNL     1     140.364 -45.945  64.895  1.00  0.00     0.211 HD
ENDBRANCH   1  11
TORSDOF 2
ENDMDL
MODEL 7
REMARK VINA RESULT:    -2.997     22.718     24.376
REMARK INTER + INTRA:          -3.302
REMARK INTER:                  -3.259
REMARK INTRA:                  -0.044
REMARK UNBOUND:                -0.043
REMARK SMILES CC1(C)[C@@H]2CC=C(CO)[C@H]1C2
REMARK SMILES IDX 8 1 7 2 1 3 2 4 4 5 3 6 10 7 5 8 11 9 6 10 9 11
REMARK H PARENT 9 12
REMARK Flexibility Score: inf
ROOT
ATOM      1  C   UNL     1     127.493 -35.271  84.096  1.00  0.00     0.187 C 
ENDROOT
BRANCH   1   2
ATOM      2  C   UNL     1     127.504 -34.265  82.980  1.00  0.00    -0.045 C 
ATOM      3  C   UNL     1     127.214 -35.047  80.144  1.00  0.00     0.012 C 
ATOM      4  C   UNL     1     126.410 -33.861  80.749  1.00  0.00    -0.026 C 
ATOM      5  C   UNL     1     127.118 -32.489  80.915  1.00  0.00    -0.000 C 
ATOM      6  C   UNL     1     125.071 -33.740  79.979  1.00  0.00     0.012 C 
ATOM      7  C   UNL     1     126.211 -33.815  82.287  1.00  0.00     0.023 C 
ATOM      8  C   UNL     1     128.604 -32.693  81.371  1.00  0.00     0.031 C 
ATOM      9  C   UNL     1     126.310 -32.278  82.212  1.00  0.00     0.013 C 
ATOM     10  C   UNL     1     128.665 -33.693  82.543  1.00  0.00    -0.025 C 
ENDBRANCH   1   2
BRANCH   1  11
ATOM     11  O   UNL     1     126.217 -35.345  84.671  1.00  0.00    -0.392 OA
ATOM     12  H   UNL     1     125.741 -36.084  84.209  1.00  0.00     0.211 HD
ENDBRANCH   1  11
TORSDOF 2
ENDMDL
MODEL 8
REMARK VINA RESULT:    -2.906     22.082     23.868
REMARK INTER + INTRA:          -3.204
REMARK INTER:                  -3.164
REMARK INTRA:                  -0.040
REMARK UNBOUND:                -0.043
REMARK SMILES CC1(C)[C@@H]2CC=C(CO)[C@H]1C2
REMARK SMILES IDX 8 1 7 2 1 3 2 4 4 5 3 6 10 7 5 8 11 9 6 10 9 11
REMARK H PARENT 9 12
REMARK Flexibility Score: inf
ROOT
ATOM      1  C   UNL     1     125.753 -38.107  84.426  1.00  0.00     0.187 C 
ENDROOT
BRANCH   1   2
ATOM      2  C   UNL     1     126.106 -36.896  83.608  1.00  0.00    -0.045 C 
ATOM      3  C   UNL     1     128.736 -36.591  82.292  1.00  0.00     0.012 C 
ATOM      4  C   UNL     1     127.409 -36.291  81.540  1.00  0.00    -0.026 C 
ATOM      5  C   UNL     1     126.706 -34.928  81.782  1.00  0.00    -0.000 C 
ATOM      6  C   UNL     1     127.630 -36.576  80.033  1.00  0.00     0.012 C 
ATOM      7  C   UNL     1     126.099 -36.930  82.073  1.00  0.00     0.023 C 
ATOM      8  C   UNL     1     126.818 -34.517  83.292  1.00  0.00     0.031 C 
ATOM      9  C   UNL     1     125.350 -35.652  81.647  1.00  0.00     0.013 C 
ATOM     10  C   UNL     1     126.434 -35.707  84.193  1.00  0.00    -0.025 C 
ENDBRANCH   1   2
BRANCH   1  11
ATOM     11  O   UNL     1     124.479 -38.575  84.075  1.00  0.00    -0.392 OA
ATOM     12  H   UNL     1     123.933 -38.556  84.905  1.00  0.00     0.211 HD
ENDBRANCH   1  11
TORSDOF 2
ENDMDL
MODEL 9
REMARK VINA RESULT:    -2.860      3.917      5.456
REMARK INTER + INTRA:          -3.154
REMARK INTER:                  -3.110
REMARK INTRA:                  -0.044
REMARK UNBOUND:                -0.043
REMARK SMILES CC1(C)[C@@H]2CC=C(CO)[C@H]1C2
REMARK SMILES IDX 8 1 7 2 1 3 2 4 4 5 3 6 10 7 5 8 11 9 6 10 9 11
REMARK H PARENT 9 12
REMARK Flexibility Score: inf
ROOT
ATOM      1  C   UNL     1     141.323 -49.558  68.748  1.00  0.00     0.187 C 
ENDROOT
BRANCH   1   2
ATOM      2  C   UNL     1     140.073 -50.384  68.622  1.00  0.00    -0.045 C 
ATOM      3  C   UNL     1     137.399 -49.168  68.295  1.00  0.00     0.012 C 
ATOM      4  C   UNL     1     137.868 -50.357  67.409  1.00  0.00    -0.026 C 
ATOM      5  C   UNL     1     137.797 -51.794  67.993  1.00  0.00    -0.000 C 
ATOM      6  C   UNL     1     137.159 -50.247  66.035  1.00  0.00     0.012 C 
ATOM      7  C   UNL     1     139.391 -50.614  67.267  1.00  0.00     0.023 C 
ATOM      8  C   UNL     1     138.199 -51.788  69.509  1.00  0.00     0.031 C 
ATOM      9  C   UNL     1     139.090 -52.125  67.220  1.00  0.00     0.013 C 
ATOM     10  C   UNL     1     139.499 -50.982  69.707  1.00  0.00    -0.025 C 
ENDBRANCH   1   2
BRANCH   1  11
ATOM     11  O   UNL     1     141.960 -49.448  67.504  1.00  0.00    -0.392 OA
ATOM     12  H   UNL     1     142.419 -48.567  67.500  1.00  0.00     0.211 HD
ENDBRANCH   1  11
TORSDOF 2
ENDMDL
