MODEL 1
REMARK VINA RESULT:    -2.592      0.000      0.000
REMARK INTER + INTRA:          -2.592
REMARK INTER:                  -2.592
REMARK INTRA:                   0.000
REMARK UNBOUND:                 0.000
REMARK SMILES CC(=O)[O-]
REMARK SMILES IDX 1 1 2 2 3 3 4 4
REMARK H PARENT
REMARK Flexibility Score: inf
ROOT
ATOM      1  C   UNL     1      16.106 -16.152  26.048  1.00  0.00     0.063 C 
ATOM      2  C   UNL     1      15.361 -17.048  25.119  1.00  0.00     0.038 C 
ATOM      3  O   UNL     1      15.139 -18.245  25.437  1.00  0.00    -0.550 OA
ATOM      4  O   UNL     1      14.862 -16.550  23.922  1.00  0.00    -0.550 OA
ENDROOT
TORSDOF 0
ENDMDL
MODEL 2
REMARK VINA RESULT:    -2.503      1.385      1.777
REMARK INTER + INTRA:          -2.503
REMARK INTER:                  -2.503
REMARK INTRA:                   0.000
REMARK UNBOUND:                 0.000
REMARK SMILES CC(=O)[O-]
REMARK SMILES IDX 1 1 2 2 3 3 4 4
REMARK H PARENT
REMARK Flexibility Score: inf
ROOT
ATOM      1  C   UNL     1      15.126 -16.547  23.945  1.00  0.00     0.063 C 
ATOM      2  C   UNL     1      15.497 -17.029  25.306  1.00  0.00     0.038 C 
ATOM      3  O   UNL     1      15.206 -18.200  25.663  1.00  0.00    -0.550 OA
ATOM      4  O   UNL     1      16.212 -16.205  26.165  1.00  0.00    -0.550 OA
ENDROOT
TORSDOF 0
ENDMDL
MODEL 3
REMARK VINA RESULT:    -2.396     11.015     11.320
REMARK INTER + INTRA:          -2.396
REMARK INTER:                  -2.396
REMARK INTRA:                   0.000
REMARK UNBOUND:                 0.000
REMARK SMILES CC(=O)[O-]
REMARK SMILES IDX 1 1 2 2 3 3 4 4
REMARK H PARENT
REMARK Flexibility Score: inf
ROOT
ATOM      1  C   UNL     1       8.635  -8.211  20.760  1.00  0.00     0.063 C 
ATOM      2  C   UNL     1       8.281  -9.636  20.506  1.00  0.00     0.038 C 
ATOM      3  O   UNL     1       8.972 -10.328  19.713  1.00  0.00    -0.550 OA
ATOM      4  O   UNL     1       7.220 -10.221  21.185  1.00  0.00    -0.550 OA
ENDROOT
TORSDOF 0
ENDMDL
MODEL 4
REMARK VINA RESULT:    -2.291     15.416     15.966
REMARK INTER + INTRA:          -2.291
REMARK INTER:                  -2.291
REMARK INTRA:                   0.000
REMARK UNBOUND:                 0.000
REMARK SMILES CC(=O)[O-]
REMARK SMILES IDX 1 1 2 2 3 3 4 4
REMARK H PARENT
REMARK Flexibility Score: inf
ROOT
ATOM      1  C   UNL     1       5.751 -19.104  12.173  1.00  0.00     0.063 C 
ATOM      2  C   UNL     1       6.408 -20.412  12.458  1.00  0.00     0.038 C 
ATOM      3  O   UNL     1       5.816 -21.488  12.184  1.00  0.00    -0.550 OA
ATOM      4  O   UNL     1       7.696 -20.446  12.976  1.00  0.00    -0.550 OA
ENDROOT
TORSDOF 0
ENDMDL
MODEL 5
REMARK VINA RESULT:    -2.228     15.585     16.247
REMARK INTER + INTRA:          -2.228
REMARK INTER:                  -2.228
REMARK INTRA:                   0.000
REMARK UNBOUND:                 0.000
REMARK SMILES CC(=O)[O-]
REMARK SMILES IDX 1 1 2 2 3 3 4 4
REMARK H PARENT
REMARK Flexibility Score: inf
ROOT
ATOM      1  C   UNL     1       5.369 -21.456  11.875  1.00  0.00     0.063 C 
ATOM      2  C   UNL     1       6.186 -20.306  12.360  1.00  0.00     0.038 C 
ATOM      3  O   UNL     1       5.754 -19.130  12.241  1.00  0.00    -0.550 OA
ATOM      4  O   UNL     1       7.401 -20.533  12.993  1.00  0.00    -0.550 OA
ENDROOT
TORSDOF 0
ENDMDL
MODEL 6
REMARK VINA RESULT:    -2.165     11.044     11.410
REMARK INTER + INTRA:          -2.165
REMARK INTER:                  -2.165
REMARK INTRA:                   0.000
REMARK UNBOUND:                 0.000
REMARK SMILES CC(=O)[O-]
REMARK SMILES IDX 1 1 2 2 3 3 4 4
REMARK H PARENT
REMARK Flexibility Score: inf
ROOT
ATOM      1  C   UNL     1       7.151 -10.217  21.094  1.00  0.00     0.063 C 
ATOM      2  C   UNL     1       8.331  -9.565  20.458  1.00  0.00     0.038 C 
ATOM      3  O   UNL     1       9.076 -10.222  19.686  1.00  0.00    -0.550 OA
ATOM      4  O   UNL     1       8.581  -8.216  20.674  1.00  0.00    -0.550 OA
ENDROOT
TORSDOF 0
ENDMDL
MODEL 7
REMARK VINA RESULT:    -2.127     13.677     14.271
REMARK INTER + INTRA:          -2.127
REMARK INTER:                  -2.127
REMARK INTRA:                   0.000
REMARK UNBOUND:                 0.000
REMARK SMILES CC(=O)[O-]
REMARK SMILES IDX 1 1 2 2 3 3 4 4
REMARK H PARENT
REMARK Flexibility Score: inf
ROOT
ATOM      1  C   UNL     1      18.552  -9.585  14.948  1.00  0.00     0.063 C 
ATOM      2  C   UNL     1      18.168  -9.230  13.552  1.00  0.00     0.038 C 
ATOM      3  O   UNL     1      18.381  -8.070  13.114  1.00  0.00    -0.550 OA
ATOM      4  O   UNL     1      17.625 -10.194  12.713  1.00  0.00    -0.550 OA
ENDROOT
TORSDOF 0
ENDMDL
MODEL 8
REMARK VINA RESULT:    -2.066     13.916     14.431
REMARK INTER + INTRA:          -2.066
REMARK INTER:                  -2.066
REMARK INTRA:                   0.000
REMARK UNBOUND:                 0.000
REMARK SMILES CC(=O)[O-]
REMARK SMILES IDX 1 1 2 2 3 3 4 4
REMARK H PARENT
REMARK Flexibility Score: inf
ROOT
ATOM      1  C   UNL     1      18.157  -7.825  12.915  1.00  0.00     0.063 C 
ATOM      2  C   UNL     1      18.128  -9.230  13.413  1.00  0.00     0.038 C 
ATOM      3  O   UNL     1      18.552  -9.499  14.567  1.00  0.00    -0.550 OA
ATOM      4  O   UNL     1      17.583 -10.236  12.627  1.00  0.00    -0.550 OA
ENDROOT
TORSDOF 0
ENDMDL
MODEL 9
REMARK VINA RESULT:    -1.991     13.355     13.569
REMARK INTER + INTRA:          -1.991
REMARK INTER:                  -1.991
REMARK INTRA:                   0.000
REMARK UNBOUND:                 0.000
REMARK SMILES CC(=O)[O-]
REMARK SMILES IDX 1 1 2 2 3 3 4 4
REMARK H PARENT
REMARK Flexibility Score: inf
ROOT
ATOM      1  C   UNL     1      13.927 -13.644  12.699  1.00  0.00     0.063 C 
ATOM      2  C   UNL     1      14.832 -12.476  12.496  1.00  0.00     0.038 C 
ATOM      3  O   UNL     1      14.373 -11.306  12.544  1.00  0.00    -0.550 OA
ATOM      4  O   UNL     1      16.194 -12.675  12.307  1.00  0.00    -0.550 OA
ENDROOT
TORSDOF 0
ENDMDL
