MODEL 1
REMARK VINA RESULT:    -4.207      0.000      0.000
REMARK INTER + INTRA:          -6.522
REMARK INTER:                  -6.174
REMARK INTRA:                  -0.348
REMARK UNBOUND:                -0.348
REMARK SMILES CCCCCCCCCC=O
REMARK SMILES IDX 6 1 5 2 4 3 3 4 2 5 1 6 7 7 8 8 9 9 10 10 11 11
REMARK H PARENT
REMARK Flexibility Score: inf
ROOT
ATOM      1  C   UNL     1     116.264 116.937 114.872  1.00  0.00     0.000 C 
ENDROOT
BRANCH   1   2
ATOM      2  C   UNL     1     116.466 116.220 116.218  1.00  0.00     0.000 C 
BRANCH   2   3
ATOM      3  C   UNL     1     117.598 116.838 117.053  1.00  0.00    -0.000 C 
BRANCH   3   4
ATOM      4  C   UNL     1     118.127 115.885 118.136  1.00  0.00    -0.000 C 
BRANCH   4   5
ATOM      5  C   UNL     1     117.518 114.487 117.979  1.00  0.00    -0.003 C 
ATOM      6  C   UNL     1     118.598 113.443 117.706  1.00  0.00     0.004 C 
ENDBRANCH   4   5
ENDBRANCH   3   4
ENDBRANCH   2   3
ENDBRANCH   1   2
BRANCH   1   7
ATOM      7  C   UNL     1     116.970 116.221 113.710  1.00  0.00     0.000 C 
BRANCH   7   8
ATOM      8  C   UNL     1     116.043 115.983 112.508  1.00  0.00     0.008 C 
BRANCH   8   9
ATOM      9  C   UNL     1     115.744 117.297 111.778  1.00  0.00     0.072 C 
BRANCH   9  10
ATOM     10  C   UNL     1     117.008 118.049 111.487  1.00  0.00     0.224 C 
ATOM     11  O   UNL     1     116.965 119.194 111.064  1.00  0.00    -0.303 OA
ENDBRANCH   9  10
ENDBRANCH   8   9
ENDBRANCH   7   8
ENDBRANCH   1   7
TORSDOF 8
ENDMDL
MODEL 2
REMARK VINA RESULT:    -4.200      2.096      3.187
REMARK INTER + INTRA:          -6.513
REMARK INTER:                  -6.048
REMARK INTRA:                  -0.465
REMARK UNBOUND:                -0.348
REMARK SMILES CCCCCCCCCC=O
REMARK SMILES IDX 6 1 5 2 4 3 3 4 2 5 1 6 7 7 8 8 9 9 10 10 11 11
REMARK H PARENT
REMARK Flexibility Score: inf
ROOT
ATOM      1  C   UNL     1     116.921 116.500 115.821  1.00  0.00     0.000 C 
ENDROOT
BRANCH   1   2
ATOM      2  C   UNL     1     115.823 116.096 116.820  1.00  0.00     0.000 C 
BRANCH   2   3
ATOM      3  C   UNL     1     115.821 116.973 118.083  1.00  0.00    -0.000 C 
BRANCH   3   4
ATOM      4  C   UNL     1     116.783 118.167 117.978  1.00  0.00    -0.000 C 
BRANCH   4   5
ATOM      5  C   UNL     1     116.097 119.463 118.426  1.00  0.00    -0.003 C 
ATOM      6  C   UNL     1     114.801 119.695 117.654  1.00  0.00     0.004 C 
ENDBRANCH   4   5
ENDBRANCH   3   4
ENDBRANCH   2   3
ENDBRANCH   1   2
BRANCH   1   7
ATOM      7  C   UNL     1     116.351 116.930 114.459  1.00  0.00     0.000 C 
BRANCH   7   8
ATOM      8  C   UNL     1     117.053 116.244 113.278  1.00  0.00     0.008 C 
BRANCH   8   9
ATOM      9  C   UNL     1     116.997 117.122 112.022  1.00  0.00     0.072 C 
BRANCH   9  10
ATOM     10  C   UNL     1     115.597 117.589 111.756  1.00  0.00     0.224 C 
ATOM     11  O   UNL     1     114.758 116.816 111.320  1.00  0.00    -0.303 OA
ENDBRANCH   9  10
ENDBRANCH   8   9
ENDBRANCH   7   8
ENDBRANCH   1   7
TORSDOF 8
ENDMDL
MODEL 3
REMARK VINA RESULT:    -4.189      1.931      2.622
REMARK INTER + INTRA:          -6.496
REMARK INTER:                  -6.126
REMARK INTRA:                  -0.370
REMARK UNBOUND:                -0.348
REMARK SMILES CCCCCCCCCC=O
REMARK SMILES IDX 6 1 5 2 4 3 3 4 2 5 1 6 7 7 8 8 9 9 10 10 11 11
REMARK H PARENT
REMARK Flexibility Score: inf
ROOT
ATOM      1  C   UNL     1     116.222 116.251 115.228  1.00  0.00     0.000 C 
ENDROOT
BRANCH   1   2
ATOM      2  C   UNL     1     116.987 116.396 116.555  1.00  0.00     0.000 C 
BRANCH   2   3
ATOM      3  C   UNL     1     116.429 117.525 117.438  1.00  0.00    -0.000 C 
BRANCH   3   4
ATOM      4  C   UNL     1     117.531 118.309 118.167  1.00  0.00    -0.000 C 
BRANCH   4   5
ATOM      5  C   UNL     1     118.919 117.769 117.802  1.00  0.00    -0.003 C 
ATOM      6  C   UNL     1     119.938 118.900 117.688  1.00  0.00     0.004 C 
ENDBRANCH   4   5
ENDBRANCH   3   4
ENDBRANCH   2   3
ENDBRANCH   1   2
BRANCH   1   7
ATOM      7  C   UNL     1     116.895 117.010 114.073  1.00  0.00     0.000 C 
BRANCH   7   8
ATOM      8  C   UNL     1     116.043 117.023 112.795  1.00  0.00     0.008 C 
BRANCH   8   9
ATOM      9  C   UNL     1     116.320 115.781 111.939  1.00  0.00     0.072 C 
BRANCH   9  10
ATOM     10  C   UNL     1     117.794 115.542 111.802  1.00  0.00     0.224 C 
ATOM     11  O   UNL     1     118.504 116.357 111.235  1.00  0.00    -0.303 OA
ENDBRANCH   9  10
ENDBRANCH   8   9
ENDBRANCH   7   8
ENDBRANCH   1   7
TORSDOF 8
ENDMDL
MODEL 4
REMARK VINA RESULT:    -4.165      2.508      2.989
REMARK INTER + INTRA:          -6.461
REMARK INTER:                  -6.145
REMARK INTRA:                  -0.316
REMARK UNBOUND:                -0.348
REMARK SMILES CCCCCCCCCC=O
REMARK SMILES IDX 6 1 5 2 4 3 3 4 2 5 1 6 7 7 8 8 9 9 10 10 11 11
REMARK H PARENT
REMARK Flexibility Score: inf
ROOT
ATOM      1  C   UNL     1     116.340 117.043 115.992  1.00  0.00     0.000 C 
ENDROOT
BRANCH   1   2
ATOM      2  C   UNL     1     115.555 116.003 116.810  1.00  0.00     0.000 C 
BRANCH   2   3
ATOM      3  C   UNL     1     114.850 116.621 118.029  1.00  0.00    -0.000 C 
BRANCH   3   4
ATOM      4  C   UNL     1     113.739 115.722 118.592  1.00  0.00    -0.000 C 
BRANCH   4   5
ATOM      5  C   UNL     1     113.347 114.638 117.580  1.00  0.00    -0.003 C 
ATOM      6  C   UNL     1     113.241 113.271 118.251  1.00  0.00     0.004 C 
ENDBRANCH   4   5
ENDBRANCH   3   4
ENDBRANCH   2   3
ENDBRANCH   1   2
BRANCH   1   7
ATOM      7  C   UNL     1     116.956 116.447 114.716  1.00  0.00     0.000 C 
BRANCH   7   8
ATOM      8  C   UNL     1     116.274 116.952 113.435  1.00  0.00     0.008 C 
BRANCH   8   9
ATOM      9  C   UNL     1     116.210 115.845 112.376  1.00  0.00     0.072 C 
BRANCH   9  10
ATOM     10  C   UNL     1     117.566 115.579 111.796  1.00  0.00     0.224 C 
ATOM     11  O   UNL     1     118.247 116.496 111.365  1.00  0.00    -0.303 OA
ENDBRANCH   9  10
ENDBRANCH   8   9
ENDBRANCH   7   8
ENDBRANCH   1   7
TORSDOF 8
ENDMDL
MODEL 5
REMARK VINA RESULT:    -4.133      2.836      5.787
REMARK INTER + INTRA:          -6.414
REMARK INTER:                  -6.160
REMARK INTRA:                  -0.254
REMARK UNBOUND:                -0.348
REMARK SMILES CCCCCCCCCC=O
REMARK SMILES IDX 6 1 5 2 4 3 3 4 2 5 1 6 7 7 8 8 9 9 10 10 11 11
REMARK H PARENT
REMARK Flexibility Score: inf
ROOT
ATOM      1  C   UNL     1     116.572 117.360 116.523  1.00  0.00     0.000 C 
ENDROOT
BRANCH   1   2
ATOM      2  C   UNL     1     116.205 116.364 115.410  1.00  0.00     0.000 C 
BRANCH   2   3
ATOM      3  C   UNL     1     116.858 116.717 114.063  1.00  0.00    -0.000 C 
BRANCH   3   4
ATOM      4  C   UNL     1     116.164 116.041 112.871  1.00  0.00    -0.000 C 
BRANCH   4   5
ATOM      5  C   UNL     1     116.623 116.664 111.546  1.00  0.00    -0.003 C 
ATOM      6  C   UNL     1     117.594 117.816 111.787  1.00  0.00     0.004 C 
ENDBRANCH   4   5
ENDBRANCH   3   4
ENDBRANCH   2   3
ENDBRANCH   1   2
BRANCH   1   7
ATOM      7  C   UNL     1     117.883 116.990 117.237  1.00  0.00     0.000 C 
BRANCH   7   8
ATOM      8  C   UNL     1     118.394 118.110 118.156  1.00  0.00     0.008 C 
BRANCH   8   9
ATOM      9  C   UNL     1     119.756 118.630 117.681  1.00  0.00     0.072 C 
BRANCH   9  10
ATOM     10  C   UNL     1     120.008 120.018 118.189  1.00  0.00     0.224 C 
ATOM     11  O   UNL     1     120.387 120.896 117.430  1.00  0.00    -0.303 OA
ENDBRANCH   9  10
ENDBRANCH   8   9
ENDBRANCH   7   8
ENDBRANCH   1   7
TORSDOF 8
ENDMDL
MODEL 6
REMARK VINA RESULT:    -4.120      1.189      1.811
REMARK INTER + INTRA:          -6.396
REMARK INTER:                  -6.151
REMARK INTRA:                  -0.245
REMARK UNBOUND:                -0.348
REMARK SMILES CCCCCCCCCC=O
REMARK SMILES IDX 6 1 5 2 4 3 3 4 2 5 1 6 7 7 8 8 9 9 10 10 11 11
REMARK H PARENT
REMARK Flexibility Score: inf
ROOT
ATOM      1  C   UNL     1     116.258 116.167 116.191  1.00  0.00     0.000 C 
ENDROOT
BRANCH   1   2
ATOM      2  C   UNL     1     117.383 116.060 117.235  1.00  0.00     0.000 C 
BRANCH   2   3
ATOM      3  C   UNL     1     117.238 114.821 118.134  1.00  0.00    -0.000 C 
BRANCH   3   4
ATOM      4  C   UNL     1     118.112 113.645 117.671  1.00  0.00    -0.000 C 
BRANCH   4   5
ATOM      5  C   UNL     1     119.410 113.575 118.485  1.00  0.00    -0.003 C 
ATOM      6  C   UNL     1     120.474 112.760 117.756  1.00  0.00     0.004 C 
ENDBRANCH   4   5
ENDBRANCH   3   4
ENDBRANCH   2   3
ENDBRANCH   1   2
BRANCH   1   7
ATOM      7  C   UNL     1     116.669 116.997 114.964  1.00  0.00     0.000 C 
BRANCH   7   8
ATOM      8  C   UNL     1     116.565 116.206 113.650  1.00  0.00     0.008 C 
BRANCH   8   9
ATOM      9  C   UNL     1     115.973 117.075 112.534  1.00  0.00     0.072 C 
BRANCH   9  10
ATOM     10  C   UNL     1     116.974 117.298 111.440  1.00  0.00     0.224 C 
ATOM     11  O   UNL     1     118.048 116.715 111.455  1.00  0.00    -0.303 OA
ENDBRANCH   9  10
ENDBRANCH   8   9
ENDBRANCH   7   8
ENDBRANCH   1   7
TORSDOF 8
ENDMDL
MODEL 7
REMARK VINA RESULT:    -4.087      3.114      6.366
REMARK INTER + INTRA:          -6.347
REMARK INTER:                  -6.154
REMARK INTRA:                  -0.193
REMARK UNBOUND:                -0.348
REMARK SMILES CCCCCCCCCC=O
REMARK SMILES IDX 6 1 5 2 4 3 3 4 2 5 1 6 7 7 8 8 9 9 10 10 11 11
REMARK H PARENT
REMARK Flexibility Score: inf
ROOT
ATOM      1  C   UNL     1     117.437 115.896 117.065  1.00  0.00     0.000 C 
ENDROOT
BRANCH   1   2
ATOM      2  C   UNL     1     116.227 116.196 116.164  1.00  0.00     0.000 C 
BRANCH   2   3
ATOM      3  C   UNL     1     116.608 117.005 114.913  1.00  0.00    -0.000 C 
BRANCH   3   4
ATOM      4  C   UNL     1     116.452 116.199 113.614  1.00  0.00    -0.000 C 
BRANCH   4   5
ATOM      5  C   UNL     1     116.140 117.124 112.431  1.00  0.00    -0.003 C 
ATOM      6  C   UNL     1     117.414 117.753 111.873  1.00  0.00     0.004 C 
ENDBRANCH   4   5
ENDBRANCH   3   4
ENDBRANCH   2   3
ENDBRANCH   1   2
BRANCH   1   7
ATOM      7  C   UNL     1     117.249 114.619 117.900  1.00  0.00     0.000 C 
BRANCH   7   8
ATOM      8  C   UNL     1     118.342 113.572 117.638  1.00  0.00     0.008 C 
BRANCH   8   9
ATOM      9  C   UNL     1     119.519 113.756 118.603  1.00  0.00     0.072 C 
BRANCH   9  10
ATOM     10  C   UNL     1     120.609 112.767 118.315  1.00  0.00     0.224 C 
ATOM     11  O   UNL     1     121.261 112.847 117.286  1.00  0.00    -0.303 OA
ENDBRANCH   9  10
ENDBRANCH   8   9
ENDBRANCH   7   8
ENDBRANCH   1   7
TORSDOF 8
ENDMDL
MODEL 8
REMARK VINA RESULT:    -4.063      3.192      5.568
REMARK INTER + INTRA:          -6.311
REMARK INTER:                  -5.976
REMARK INTRA:                  -0.335
REMARK UNBOUND:                -0.348
REMARK SMILES CCCCCCCCCC=O
REMARK SMILES IDX 6 1 5 2 4 3 3 4 2 5 1 6 7 7 8 8 9 9 10 10 11 11
REMARK H PARENT
REMARK Flexibility Score: inf
ROOT
ATOM      1  C   UNL     1     116.860 116.924 116.150  1.00  0.00     0.000 C 
ENDROOT
BRANCH   1   2
ATOM      2  C   UNL     1     116.333 116.282 114.855  1.00  0.00     0.000 C 
BRANCH   2   3
ATOM      3  C   UNL     1     116.744 117.066 113.598  1.00  0.00    -0.000 C 
BRANCH   3   4
ATOM      4  C   UNL     1     115.947 116.650 112.352  1.00  0.00    -0.000 C 
BRANCH   4   5
ATOM      5  C   UNL     1     116.568 115.412 111.693  1.00  0.00    -0.003 C 
ATOM      6  C   UNL     1     118.093 115.480 111.719  1.00  0.00     0.004 C 
ENDBRANCH   4   5
ENDBRANCH   3   4
ENDBRANCH   2   3
ENDBRANCH   1   2
BRANCH   1   7
ATOM      7  C   UNL     1     116.188 116.352 117.409  1.00  0.00     0.000 C 
BRANCH   7   8
ATOM      8  C   UNL     1     115.170 117.321 118.030  1.00  0.00     0.008 C 
BRANCH   8   9
ATOM      9  C   UNL     1     115.492 118.771 117.650  1.00  0.00     0.072 C 
BRANCH   9  10
ATOM     10  C   UNL     1     114.363 119.686 118.019  1.00  0.00     0.224 C 
ATOM     11  O   UNL     1     113.307 119.232 118.432  1.00  0.00    -0.303 OA
ENDBRANCH   9  10
ENDBRANCH   8   9
ENDBRANCH   7   8
ENDBRANCH   1   7
TORSDOF 8
ENDMDL
MODEL 9
REMARK VINA RESULT:    -4.048      3.479      6.145
REMARK INTER + INTRA:          -6.289
REMARK INTER:                  -5.967
REMARK INTRA:                  -0.322
REMARK UNBOUND:                -0.348
REMARK SMILES CCCCCCCCCC=O
REMARK SMILES IDX 6 1 5 2 4 3 3 4 2 5 1 6 7 7 8 8 9 9 10 10 11 11
REMARK H PARENT
REMARK Flexibility Score: inf
ROOT
ATOM      1  C   UNL     1     116.171 116.635 116.134  1.00  0.00     0.000 C 
ENDROOT
BRANCH   1   2
ATOM      2  C   UNL     1     116.968 116.806 114.828  1.00  0.00     0.000 C 
BRANCH   2   3
ATOM      3  C   UNL     1     116.238 116.217 113.610  1.00  0.00    -0.000 C 
BRANCH   3   4
ATOM      4  C   UNL     1     117.193 115.856 112.462  1.00  0.00    -0.000 C 
BRANCH   4   5
ATOM      5  C   UNL     1     117.723 117.120 111.774  1.00  0.00    -0.003 C 
ATOM      6  C   UNL     1     116.593 118.107 111.490  1.00  0.00     0.004 C 
ENDBRANCH   4   5
ENDBRANCH   3   4
ENDBRANCH   2   3
ENDBRANCH   1   2
BRANCH   1   7
ATOM      7  C   UNL     1     116.839 115.651 117.108  1.00  0.00     0.000 C 
BRANCH   7   8
ATOM      8  C   UNL     1     115.845 115.037 118.105  1.00  0.00     0.008 C 
BRANCH   8   9
ATOM      9  C   UNL     1     114.437 115.608 117.897  1.00  0.00     0.072 C 
BRANCH   9  10
ATOM     10  C   UNL     1     113.418 114.510 117.825  1.00  0.00     0.224 C 
ATOM     11  O   UNL     1     113.305 113.709 118.740  1.00  0.00    -0.303 OA
ENDBRANCH   9  10
ENDBRANCH   8   9
ENDBRANCH   7   8
ENDBRANCH   1   7
TORSDOF 8
ENDMDL
