MODEL 1
REMARK VINA RESULT:    -4.693      0.000      0.000
REMARK INTER + INTRA:          -6.428
REMARK INTER:                  -6.339
REMARK INTRA:                  -0.089
REMARK UNBOUND:                -0.089
REMARK SMILES [NH3+]CCCC[C@H]([NH3+])C(=O)[O-]
REMARK SMILES IDX 4 1 3 2 2 3 1 4 5 8 6 9 7 10 8 14 9 15 10 16
REMARK H PARENT 1 5 1 6 1 7 7 11 7 12 7 13
REMARK Flexibility Score: inf
ROOT
ATOM      1  C   UNL     1     161.990 153.999 229.628  1.00  0.00     0.012 C 
ENDROOT
BRANCH   1   2
ATOM      2  C   UNL     1     161.535 155.461 229.496  1.00  0.00     0.061 C 
BRANCH   2   3
ATOM      3  C   UNL     1     162.555 156.343 228.758  1.00  0.00     0.258 C 
BRANCH   3   4
ATOM      4  N   UNL     1     163.513 155.523 228.018  1.00  0.00    -0.358 N 
ATOM      5  H   UNL     1     164.198 155.087 228.678  1.00  0.00     0.344 HD
ATOM      6  H   UNL     1     162.999 154.766 227.514  1.00  0.00     0.344 HD
ATOM      7  H   UNL     1     164.022 156.110 227.317  1.00  0.00     0.344 HD
ENDBRANCH   3   4
ENDBRANCH   2   3
ENDBRANCH   1   2
BRANCH   1   8
ATOM      8  C   UNL     1     160.887 152.935 229.434  1.00  0.00     0.072 C 
BRANCH   8   9
ATOM      9  C   UNL     1     161.239 151.479 229.842  1.00  0.00     0.227 C 
BRANCH   9  10
ATOM     10  N   UNL     1     161.905 150.742 228.758  1.00  0.00    -0.350 N 
ATOM     11  H   UNL     1     162.462 151.384 228.149  1.00  0.00     0.345 HD
ATOM     12  H   UNL     1     161.186 150.262 228.169  1.00  0.00     0.345 HD
ATOM     13  H   UNL     1     162.536 150.010 229.160  1.00  0.00     0.345 HD
ENDBRANCH   9  10
BRANCH   9  14
ATOM     14  C   UNL     1     160.046 150.732 230.388  1.00  0.00     0.099 C 
ATOM     15  O   UNL     1     160.168 149.923 231.347  1.00  0.00    -0.544 OA
ATOM     16  O   UNL     1     158.787 150.961 229.849  1.00  0.00    -0.544 OA
ENDBRANCH   9  14
ENDBRANCH   8   9
ENDBRANCH   1   8
TORSDOF 7
ENDMDL
MODEL 2
REMARK VINA RESULT:    -4.665     12.339     14.176
REMARK INTER + INTRA:          -6.390
REMARK INTER:                  -6.305
REMARK INTRA:                  -0.085
REMARK UNBOUND:                -0.089
REMARK SMILES [NH3+]CCCC[C@H]([NH3+])C(=O)[O-]
REMARK SMILES IDX 4 1 3 2 2 3 1 4 5 8 6 9 7 10 8 14 9 15 10 16
REMARK H PARENT 1 5 1 6 1 7 7 11 7 12 7 13
REMARK Flexibility Score: inf
ROOT
ATOM      1  C   UNL     1     156.023 164.024 229.549  1.00  0.00     0.012 C 
ENDROOT
BRANCH   1   2
ATOM      2  C   UNL     1     156.496 162.562 229.497  1.00  0.00     0.061 C 
BRANCH   2   3
ATOM      3  C   UNL     1     155.511 161.637 228.766  1.00  0.00     0.258 C 
BRANCH   3   4
ATOM      4  N   UNL     1     154.505 162.415 228.043  1.00  0.00    -0.358 N 
ATOM      5  H   UNL     1     153.592 162.382 228.553  1.00  0.00     0.344 HD
ATOM      6  H   UNL     1     154.822 163.409 227.978  1.00  0.00     0.344 HD
ATOM      7  H   UNL     1     154.384 162.035 227.076  1.00  0.00     0.344 HD
ENDBRANCH   3   4
ENDBRANCH   2   3
ENDBRANCH   1   2
BRANCH   1   8
ATOM      8  C   UNL     1     157.137 165.091 229.462  1.00  0.00     0.072 C 
BRANCH   8   9
ATOM      9  C   UNL     1     156.752 166.538 229.871  1.00  0.00     0.227 C 
BRANCH   9  10
ATOM     10  N   UNL     1     156.105 167.274 228.774  1.00  0.00    -0.350 N 
ATOM     11  H   UNL     1     156.654 167.193 227.887  1.00  0.00     0.345 HD
ATOM     12  H   UNL     1     156.028 168.286 229.029  1.00  0.00     0.345 HD
ATOM     13  H   UNL     1     155.139 166.905 228.619  1.00  0.00     0.345 HD
ENDBRANCH   9  10
BRANCH   9  14
ATOM     14  C   UNL     1     157.918 167.299 230.454  1.00  0.00     0.099 C 
ATOM     15  O   UNL     1     157.758 168.100 231.414  1.00  0.00    -0.544 OA
ATOM     16  O   UNL     1     159.196 167.091 229.950  1.00  0.00    -0.544 OA
ENDBRANCH   9  14
ENDBRANCH   8   9
ENDBRANCH   1   8
TORSDOF 7
ENDMDL
MODEL 3
REMARK VINA RESULT:    -4.472     11.320     12.839
REMARK INTER + INTRA:          -6.130
REMARK INTER:                  -5.625
REMARK INTRA:                  -0.504
REMARK UNBOUND:                -0.089
REMARK SMILES [NH3+]CCCC[C@H]([NH3+])C(=O)[O-]
REMARK SMILES IDX 4 1 3 2 2 3 1 4 5 8 6 9 7 10 8 14 9 15 10 16
REMARK H PARENT 1 5 1 6 1 7 7 11 7 12 7 13
REMARK Flexibility Score: inf
ROOT
ATOM      1  C   UNL     1     158.792 166.788 230.056  1.00  0.00     0.012 C 
ENDROOT
BRANCH   1   2
ATOM      2  C   UNL     1     157.336 167.152 230.390  1.00  0.00     0.061 C 
BRANCH   2   3
ATOM      3  C   UNL     1     156.366 166.866 229.233  1.00  0.00     0.258 C 
BRANCH   3   4
ATOM      4  N   UNL     1     155.377 165.859 229.618  1.00  0.00    -0.358 N 
ATOM      5  H   UNL     1     154.446 166.094 229.205  1.00  0.00     0.344 HD
ATOM      6  H   UNL     1     155.682 164.926 229.260  1.00  0.00     0.344 HD
ATOM      7  H   UNL     1     155.300 165.812 230.661  1.00  0.00     0.344 HD
ENDBRANCH   3   4
ENDBRANCH   2   3
ENDBRANCH   1   2
BRANCH   1   8
ATOM      8  C   UNL     1     158.987 165.488 229.244  1.00  0.00     0.072 C 
BRANCH   8   9
ATOM      9  C   UNL     1     159.251 164.190 230.054  1.00  0.00     0.227 C 
BRANCH   9  10
ATOM     10  N   UNL     1     160.102 163.239 229.322  1.00  0.00    -0.350 N 
ATOM     11  H   UNL     1     160.510 162.524 229.965  1.00  0.00     0.345 HD
ATOM     12  H   UNL     1     160.882 163.756 228.856  1.00  0.00     0.345 HD
ATOM     13  H   UNL     1     159.542 162.759 228.580  1.00  0.00     0.345 HD
ENDBRANCH   9  10
BRANCH   9  14
ATOM     14  C   UNL     1     157.974 163.550 230.543  1.00  0.00     0.099 C 
ATOM     15  O   UNL     1     157.805 163.284 231.763  1.00  0.00    -0.544 OA
ATOM     16  O   UNL     1     156.953 163.277 229.641  1.00  0.00    -0.544 OA
ENDBRANCH   9  14
ENDBRANCH   8   9
ENDBRANCH   1   8
TORSDOF 7
ENDMDL
MODEL 4
REMARK VINA RESULT:    -4.465      3.045      4.386
REMARK INTER + INTRA:          -6.120
REMARK INTER:                  -5.613
REMARK INTRA:                  -0.507
REMARK UNBOUND:                -0.089
REMARK SMILES [NH3+]CCCC[C@H]([NH3+])C(=O)[O-]
REMARK SMILES IDX 4 1 3 2 2 3 1 4 5 8 6 9 7 10 8 14 9 15 10 16
REMARK H PARENT 1 5 1 6 1 7 7 11 7 12 7 13
REMARK Flexibility Score: inf
ROOT
ATOM      1  C   UNL     1     159.164 151.264 229.952  1.00  0.00     0.012 C 
ENDROOT
BRANCH   1   2
ATOM      2  C   UNL     1     160.605 150.876 230.324  1.00  0.00     0.061 C 
BRANCH   2   3
ATOM      3  C   UNL     1     161.612 151.160 229.199  1.00  0.00     0.258 C 
BRANCH   3   4
ATOM      4  N   UNL     1     162.621 152.126 229.634  1.00  0.00    -0.358 N 
ATOM      5  H   UNL     1     162.801 152.822 228.875  1.00  0.00     0.344 HD
ATOM      6  H   UNL     1     162.270 152.630 230.480  1.00  0.00     0.344 HD
ATOM      7  H   UNL     1     163.509 151.631 229.880  1.00  0.00     0.344 HD
ENDBRANCH   3   4
ENDBRANCH   2   3
ENDBRANCH   1   2
BRANCH   1   8
ATOM      8  C   UNL     1     159.009 152.582 229.161  1.00  0.00     0.072 C 
BRANCH   8   9
ATOM      9  C   UNL     1     158.754 153.869 229.990  1.00  0.00     0.227 C 
BRANCH   9  10
ATOM     10  N   UNL     1     157.856 154.808 229.300  1.00  0.00    -0.350 N 
ATOM     11  H   UNL     1     157.135 154.299 228.739  1.00  0.00     0.345 HD
ATOM     12  H   UNL     1     158.413 155.417 228.658  1.00  0.00     0.345 HD
ATOM     13  H   UNL     1     157.380 155.424 229.999  1.00  0.00     0.345 HD
ENDBRANCH   9  10
BRANCH   9  14
ATOM     14  C   UNL     1     160.038 154.532 230.430  1.00  0.00     0.099 C 
ATOM     15  O   UNL     1     161.010 154.657 229.638  1.00  0.00    -0.544 OA
ATOM     16  O   UNL     1     160.141 155.041 231.718  1.00  0.00    -0.544 OA
ENDBRANCH   9  14
ENDBRANCH   8   9
ENDBRANCH   1   8
TORSDOF 7
ENDMDL
MODEL 5
REMARK VINA RESULT:    -4.400     12.000     13.732
REMARK INTER + INTRA:          -6.032
REMARK INTER:                  -5.503
REMARK INTRA:                  -0.529
REMARK UNBOUND:                -0.089
REMARK SMILES [NH3+]CCCC[C@H]([NH3+])C(=O)[O-]
REMARK SMILES IDX 4 1 3 2 2 3 1 4 5 8 6 9 7 10 8 14 9 15 10 16
REMARK H PARENT 1 5 1 6 1 7 7 11 7 12 7 13
REMARK Flexibility Score: inf
ROOT
ATOM      1  C   UNL     1     156.738 163.987 230.741  1.00  0.00     0.012 C 
ENDROOT
BRANCH   1   2
ATOM      2  C   UNL     1     157.774 162.926 230.336  1.00  0.00     0.061 C 
BRANCH   2   3
ATOM      3  C   UNL     1     159.223 163.393 230.540  1.00  0.00     0.258 C 
BRANCH   3   4
ATOM      4  N   UNL     1     159.788 163.899 229.290  1.00  0.00    -0.358 N 
ATOM      5  H   UNL     1     160.614 163.321 229.010  1.00  0.00     0.344 HD
ATOM      6  H   UNL     1     159.064 163.842 228.539  1.00  0.00     0.344 HD
ATOM      7  H   UNL     1     160.078 164.898 229.405  1.00  0.00     0.344 HD
ENDBRANCH   3   4
ENDBRANCH   2   3
ENDBRANCH   1   2
BRANCH   1   8
ATOM      8  C   UNL     1     156.282 164.941 229.615  1.00  0.00     0.072 C 
BRANCH   8   9
ATOM      9  C   UNL     1     156.425 166.463 229.887  1.00  0.00     0.227 C 
BRANCH   9  10
ATOM     10  N   UNL     1     156.040 167.276 228.723  1.00  0.00    -0.350 N 
ATOM     11  H   UNL     1     155.271 166.820 228.180  1.00  0.00     0.345 HD
ATOM     12  H   UNL     1     156.867 167.400 228.095  1.00  0.00     0.345 HD
ATOM     13  H   UNL     1     155.727 168.223 229.039  1.00  0.00     0.345 HD
ENDBRANCH   9  10
BRANCH   9  14
ATOM     14  C   UNL     1     157.795 166.827 230.405  1.00  0.00     0.099 C 
ATOM     15  O   UNL     1     157.971 167.149 231.611  1.00  0.00    -0.544 OA
ATOM     16  O   UNL     1     158.889 166.776 229.550  1.00  0.00    -0.544 OA
ENDBRANCH   9  14
ENDBRANCH   8   9
ENDBRANCH   1   8
TORSDOF 7
ENDMDL
MODEL 6
REMARK VINA RESULT:    -4.389     10.186     11.505
REMARK INTER + INTRA:          -6.017
REMARK INTER:                  -5.924
REMARK INTRA:                  -0.092
REMARK UNBOUND:                -0.089
REMARK SMILES [NH3+]CCCC[C@H]([NH3+])C(=O)[O-]
REMARK SMILES IDX 4 1 3 2 2 3 1 4 5 8 6 9 7 10 8 14 9 15 10 16
REMARK H PARENT 1 5 1 6 1 7 7 11 7 12 7 13
REMARK Flexibility Score: inf
ROOT
ATOM      1  C   UNL     1     157.022 163.769 229.607  1.00  0.00     0.012 C 
ENDROOT
BRANCH   1   2
ATOM      2  C   UNL     1     156.300 165.112 229.806  1.00  0.00     0.061 C 
BRANCH   2   3
ATOM      3  C   UNL     1     157.040 166.293 229.160  1.00  0.00     0.258 C 
BRANCH   3   4
ATOM      4  N   UNL     1     156.102 167.341 228.761  1.00  0.00    -0.358 N 
ATOM      5  H   UNL     1     155.254 166.915 228.321  1.00  0.00     0.344 HD
ATOM      6  H   UNL     1     155.809 167.879 229.608  1.00  0.00     0.344 HD
ATOM      7  H   UNL     1     156.560 167.996 228.086  1.00  0.00     0.344 HD
ENDBRANCH   3   4
ENDBRANCH   2   3
ENDBRANCH   1   2
BRANCH   1   8
ATOM      8  C   UNL     1     156.189 162.508 229.926  1.00  0.00     0.072 C 
BRANCH   8   9
ATOM      9  C   UNL     1     155.653 161.699 228.715  1.00  0.00     0.227 C 
BRANCH   9  10
ATOM     10  N   UNL     1     154.338 162.177 228.263  1.00  0.00    -0.350 N 
ATOM     11  H   UNL     1     154.369 162.484 227.264  1.00  0.00     0.345 HD
ATOM     12  H   UNL     1     154.039 162.987 228.853  1.00  0.00     0.345 HD
ATOM     13  H   UNL     1     153.627 161.417 228.370  1.00  0.00     0.345 HD
ENDBRANCH   9  10
BRANCH   9  14
ATOM     14  C   UNL     1     155.659 160.211 228.971  1.00  0.00     0.099 C 
ATOM     15  O   UNL     1     155.552 159.387 228.023  1.00  0.00    -0.544 OA
ATOM     16  O   UNL     1     155.817 159.737 230.267  1.00  0.00    -0.544 OA
ENDBRANCH   9  14
ENDBRANCH   8   9
ENDBRANCH   1   8
TORSDOF 7
ENDMDL
MODEL 7
REMARK VINA RESULT:    -4.386      2.037      2.436
REMARK INTER + INTRA:          -6.012
REMARK INTER:                  -5.517
REMARK INTRA:                  -0.496
REMARK UNBOUND:                -0.089
REMARK SMILES [NH3+]CCCC[C@H]([NH3+])C(=O)[O-]
REMARK SMILES IDX 4 1 3 2 2 3 1 4 5 8 6 9 7 10 8 14 9 15 10 16
REMARK H PARENT 1 5 1 6 1 7 7 11 7 12 7 13
REMARK Flexibility Score: inf
ROOT
ATOM      1  C   UNL     1     161.231 154.069 230.781  1.00  0.00     0.012 C 
ENDROOT
BRANCH   1   2
ATOM      2  C   UNL     1     160.182 155.153 230.486  1.00  0.00     0.061 C 
BRANCH   2   3
ATOM      3  C   UNL     1     158.738 154.651 230.646  1.00  0.00     0.258 C 
BRANCH   3   4
ATOM      4  N   UNL     1     158.208 154.174 229.370  1.00  0.00    -0.358 N 
ATOM      5  H   UNL     1     158.666 154.682 228.579  1.00  0.00     0.344 HD
ATOM      6  H   UNL     1     158.407 153.152 229.277  1.00  0.00     0.344 HD
ATOM      7  H   UNL     1     157.173 154.321 229.333  1.00  0.00     0.344 HD
ENDBRANCH   3   4
ENDBRANCH   2   3
ENDBRANCH   1   2
BRANCH   1   8
ATOM      8  C   UNL     1     161.535 153.099 229.617  1.00  0.00     0.072 C 
BRANCH   8   9
ATOM      9  C   UNL     1     161.485 151.582 229.940  1.00  0.00     0.227 C 
BRANCH   9  10
ATOM     10  N   UNL     1     161.942 150.756 228.811  1.00  0.00    -0.350 N 
ATOM     11  H   UNL     1     162.960 150.535 228.891  1.00  0.00     0.345 HD
ATOM     12  H   UNL     1     161.779 151.269 227.915  1.00  0.00     0.345 HD
ATOM     13  H   UNL     1     161.394 149.865 228.778  1.00  0.00     0.345 HD
ENDBRANCH   9  10
BRANCH   9  14
ATOM     14  C   UNL     1     160.132 151.148 230.450  1.00  0.00     0.099 C 
ATOM     15  O   UNL     1     159.982 150.744 231.635  1.00  0.00    -0.544 OA
ATOM     16  O   UNL     1     159.026 151.223 229.614  1.00  0.00    -0.544 OA
ENDBRANCH   9  14
ENDBRANCH   8   9
ENDBRANCH   1   8
TORSDOF 7
ENDMDL
MODEL 8
REMARK VINA RESULT:    -4.363      3.665      5.470
REMARK INTER + INTRA:          -5.983
REMARK INTER:                  -5.879
REMARK INTRA:                  -0.104
REMARK UNBOUND:                -0.089
REMARK SMILES [NH3+]CCCC[C@H]([NH3+])C(=O)[O-]
REMARK SMILES IDX 4 1 3 2 2 3 1 4 5 8 6 9 7 10 8 14 9 15 10 16
REMARK H PARENT 1 5 1 6 1 7 7 11 7 12 7 13
REMARK Flexibility Score: inf
ROOT
ATOM      1  C   UNL     1     160.313 153.881 229.710  1.00  0.00     0.012 C 
ENDROOT
BRANCH   1   2
ATOM      2  C   UNL     1     160.241 152.359 229.499  1.00  0.00     0.061 C 
BRANCH   2   3
ATOM      3  C   UNL     1     161.569 151.648 229.801  1.00  0.00     0.258 C 
BRANCH   3   4
ATOM      4  N   UNL     1     161.918 150.717 228.728  1.00  0.00    -0.358 N 
ATOM      5  H   UNL     1     162.815 150.230 228.954  1.00  0.00     0.344 HD
ATOM      6  H   UNL     1     161.159 150.004 228.634  1.00  0.00     0.344 HD
ATOM      7  H   UNL     1     162.012 151.232 227.822  1.00  0.00     0.344 HD
ENDBRANCH   3   4
ENDBRANCH   2   3
ENDBRANCH   1   2
BRANCH   1   8
ATOM      8  C   UNL     1     161.689 154.529 229.438  1.00  0.00     0.072 C 
BRANCH   8   9
ATOM      9  C   UNL     1     161.757 156.079 229.504  1.00  0.00     0.227 C 
BRANCH   9  10
ATOM     10  N   UNL     1     160.423 156.698 229.458  1.00  0.00    -0.350 N 
ATOM     11  H   UNL     1     160.489 157.741 229.483  1.00  0.00     0.345 HD
ATOM     12  H   UNL     1     159.861 156.377 230.280  1.00  0.00     0.345 HD
ATOM     13  H   UNL     1     159.923 156.402 228.588  1.00  0.00     0.345 HD
ENDBRANCH   9  10
BRANCH   9  14
ATOM     14  C   UNL     1     162.686 156.657 228.464  1.00  0.00     0.099 C 
ATOM     15  O   UNL     1     163.578 155.950 227.922  1.00  0.00    -0.544 OA
ATOM     16  O   UNL     1     162.540 157.981 228.072  1.00  0.00    -0.544 OA
ENDBRANCH   9  14
ENDBRANCH   8   9
ENDBRANCH   1   8
TORSDOF 7
ENDMDL
MODEL 9
REMARK VINA RESULT:    -4.350     14.425     15.568
REMARK INTER + INTRA:          -5.965
REMARK INTER:                  -5.897
REMARK INTRA:                  -0.068
REMARK UNBOUND:                -0.089
REMARK SMILES [NH3+]CCCC[C@H]([NH3+])C(=O)[O-]
REMARK SMILES IDX 4 1 3 2 2 3 1 4 5 8 6 9 7 10 8 14 9 15 10 16
REMARK H PARENT 1 5 1 6 1 7 7 11 7 12 7 13
REMARK Flexibility Score: inf
ROOT
ATOM      1  C   UNL     1     159.080 162.733 218.878  1.00  0.00     0.012 C 
ENDROOT
BRANCH   1   2
ATOM      2  C   UNL     1     158.901 162.869 220.399  1.00  0.00     0.061 C 
BRANCH   2   3
ATOM      3  C   UNL     1     158.581 164.306 220.840  1.00  0.00     0.258 C 
BRANCH   3   4
ATOM      4  N   UNL     1     157.669 164.310 221.983  1.00  0.00    -0.358 N 
ATOM      5  H   UNL     1     158.070 163.741 222.764  1.00  0.00     0.344 HD
ATOM      6  H   UNL     1     157.539 165.293 222.313  1.00  0.00     0.344 HD
ATOM      7  H   UNL     1     156.740 163.921 221.702  1.00  0.00     0.344 HD
ENDBRANCH   3   4
ENDBRANCH   2   3
ENDBRANCH   1   2
BRANCH   1   8
ATOM      8  C   UNL     1     157.903 162.078 218.122  1.00  0.00     0.072 C 
BRANCH   8   9
ATOM      9  C   UNL     1     158.098 161.836 216.601  1.00  0.00     0.227 C 
BRANCH   9  10
ATOM     10  N   UNL     1     157.774 163.027 215.801  1.00  0.00    -0.350 N 
ATOM     11  H   UNL     1     158.275 163.872 216.160  1.00  0.00     0.345 HD
ATOM     12  H   UNL     1     156.745 163.206 215.841  1.00  0.00     0.345 HD
ATOM     13  H   UNL     1     158.038 162.866 214.801  1.00  0.00     0.345 HD
ENDBRANCH   9  10
BRANCH   9  14
ATOM     14  C   UNL     1     157.362 160.610 216.116  1.00  0.00     0.099 C 
ATOM     15  O   UNL     1     157.873 159.462 216.216  1.00  0.00    -0.544 OA
ATOM     16  O   UNL     1     156.087 160.741 215.581  1.00  0.00    -0.544 OA
ENDBRANCH   9  14
ENDBRANCH   8   9
ENDBRANCH   1   8
TORSDOF 7
ENDMDL
