MODEL 1
REMARK VINA RESULT:    -3.583      0.000      0.000
REMARK INTER + INTRA:          -5.519
REMARK INTER:                  -5.258
REMARK INTRA:                  -0.261
REMARK UNBOUND:                -0.261
REMARK SMILES C=C1C=C[C@H](C(C)C)CCC(C)=CCC1
REMARK SMILES IDX 3 1 4 2 5 3 9 4 10 5 11 6 12 7 13 8 6 10 7 11 8 12 2 13 1 14
REMARK SMILES IDX 15 15 14 16
REMARK H PARENT
REMARK Flexibility Score: 70.00
ROOT
ATOM      1  C   UNL     1      30.792   6.256  30.254  1.00  0.00    -0.001 C 
ATOM      2  C   UNL     1      30.948   6.976  31.386  1.00  0.00    -0.023 C 
ENDROOT
BRANCH   2   3
ATOM      3  C   UNL     1      31.240   8.463  31.594  1.00  0.00     0.014 C 
BRANCH   3   4
ATOM      4  C   UNL     1      30.067   9.439  31.346  1.00  0.00     0.012 C 
BRANCH   4   5
ATOM      5  C   UNL     1      30.431  10.535  30.327  1.00  0.00     0.031 C 
BRANCH   5   6
ATOM      6  C   UNL     1      29.299  10.776  29.351  1.00  0.00    -0.077 C 
ATOM      7  C   UNL     1      28.297  11.853  29.674  1.00  0.00     0.039 C 
ATOM      8  C   UNL     1      29.110  10.039  28.233  1.00  0.00    -0.028 CG0
ATOM      9  G   UNL     1      29.975   8.891  27.765  1.00  0.00     0.000 G0
ENDBRANCH   5   6
ENDBRANCH   4   5
ENDBRANCH   3   4
BRANCH   3  10
ATOM     10  C   UNL     1      32.004   8.760  32.920  1.00  0.00    -0.010 C 
ATOM     11  C   UNL     1      31.179   8.367  34.157  1.00  0.00     0.008 C 
ATOM     12  C   UNL     1      32.472  10.213  33.047  1.00  0.00     0.008 C 
ENDBRANCH   3  10
ENDBRANCH   2   3
BRANCH   1  13
ATOM     13  C   UNL     1      30.755   6.737  28.855  1.00  0.00    -0.055 C 
ATOM     14  C   UNL     1      31.880   6.769  28.133  1.00  0.00     0.012 C 
BRANCH  13  15
ATOM     15  C   UNL     1      29.574   7.565  28.401  1.00  0.00     0.039 C 
BRANCH  15  16
ATOM     16  C   UNL     1      29.974   8.885  27.734  1.00  0.00     0.032 CG0
ATOM     17  G   UNL     1      29.130  10.041  28.222  1.00  0.00     0.000 G0
ENDBRANCH  15  16
ENDBRANCH  13  15
ENDBRANCH   1  13
TORSDOF 1
ENDMDL
MODEL 2
REMARK VINA RESULT:    -3.508      2.902      4.639
REMARK INTER + INTRA:          -5.409
REMARK INTER:                  -4.841
REMARK INTRA:                  -0.569
REMARK UNBOUND:                -0.261
REMARK SMILES C=C1C=C[C@H](C(C)C)CCC(C)=CCC1
REMARK SMILES IDX 3 1 4 2 5 3 9 4 10 5 11 6 12 7 13 8 6 10 7 11 8 12 2 13 1 14
REMARK SMILES IDX 15 15 14 16
REMARK H PARENT
REMARK Flexibility Score: 70.00
ROOT
ATOM      1  C   UNL     1      31.837   6.996  33.246  1.00  0.00    -0.001 C 
ATOM      2  C   UNL     1      31.543   6.932  34.563  1.00  0.00    -0.023 C 
ENDROOT
BRANCH   2   3
ATOM      3  C   UNL     1      30.737   7.878  35.454  1.00  0.00     0.014 C 
BRANCH   3   4
ATOM      4  C   UNL     1      29.204   7.682  35.465  1.00  0.00     0.012 C 
BRANCH   4   5
ATOM      5  C   UNL     1      28.481   8.708  34.573  1.00  0.00     0.031 C 
BRANCH   5   6
ATOM      6  C   UNL     1      29.035  10.102  34.780  1.00  0.00    -0.077 C 
ATOM      7  C   UNL     1      28.679  10.829  36.050  1.00  0.00     0.039 C 
ATOM      8  C   UNL     1      29.789  10.749  33.862  1.00  0.00    -0.028 CG0
ATOM      9  G   UNL     1      30.211  10.208  32.514  1.00  0.00     0.000 G0
ENDBRANCH   5   6
ENDBRANCH   4   5
ENDBRANCH   3   4
BRANCH   3  10
ATOM     10  C   UNL     1      31.337   8.034  36.885  1.00  0.00    -0.010 C 
ATOM     11  C   UNL     1      30.294   7.741  37.978  1.00  0.00     0.008 C 
ATOM     12  C   UNL     1      31.983   9.400  37.136  1.00  0.00     0.008 C 
ENDBRANCH   3  10
ENDBRANCH   2   3
BRANCH   1  13
ATOM     13  C   UNL     1      31.363   7.975  32.242  1.00  0.00    -0.055 C 
ATOM     14  C   UNL     1      31.156   7.587  30.980  1.00  0.00     0.012 C 
BRANCH  13  15
ATOM     15  C   UNL     1      31.524   9.451  32.533  1.00  0.00     0.039 C 
BRANCH  15  16
ATOM     16  C   UNL     1      30.205  10.229  32.493  1.00  0.00     0.032 CG0
ATOM     17  G   UNL     1      29.812  10.742  33.859  1.00  0.00     0.000 G0
ENDBRANCH  15  16
ENDBRANCH  13  15
ENDBRANCH   1  13
TORSDOF 1
ENDMDL
MODEL 3
REMARK VINA RESULT:    -3.418      4.021      6.544
REMARK INTER + INTRA:          -5.277
REMARK INTER:                  -4.733
REMARK INTRA:                  -0.544
REMARK UNBOUND:                -0.261
REMARK SMILES C=C1C=C[C@H](C(C)C)CCC(C)=CCC1
REMARK SMILES IDX 3 1 4 2 5 3 9 4 10 5 11 6 12 7 13 8 6 10 7 11 8 12 2 13 1 14
REMARK SMILES IDX 15 15 14 16
REMARK H PARENT
REMARK Flexibility Score: 70.00
ROOT
ATOM      1  C   UNL     1      31.618   6.944  33.585  1.00  0.00    -0.001 C 
ATOM      2  C   UNL     1      31.654   8.218  33.139  1.00  0.00    -0.023 C 
ENDROOT
BRANCH   2   3
ATOM      3  C   UNL     1      30.718   9.398  33.406  1.00  0.00     0.014 C 
BRANCH   3   4
ATOM      4  C   UNL     1      30.938  10.171  34.726  1.00  0.00     0.012 C 
BRANCH   4   5
ATOM      5  C   UNL     1      29.856   9.851  35.774  1.00  0.00     0.031 C 
BRANCH   5   6
ATOM      6  C   UNL     1      30.472   9.519  37.116  1.00  0.00    -0.077 C 
ATOM      7  C   UNL     1      31.088  10.639  37.914  1.00  0.00     0.039 C 
ATOM      8  C   UNL     1      30.547   8.263  37.613  1.00  0.00    -0.028 CG0
ATOM      9  G   UNL     1      30.032   7.009  36.944  1.00  0.00     0.000 G0
ENDBRANCH   5   6
ENDBRANCH   4   5
ENDBRANCH   3   4
BRANCH   3  10
ATOM     10  C   UNL     1      30.548  10.339  32.175  1.00  0.00    -0.010 C 
ATOM     11  C   UNL     1      30.444   9.549  30.859  1.00  0.00     0.008 C 
ATOM     12  C   UNL     1      31.644  11.402  32.059  1.00  0.00     0.008 C 
ENDBRANCH   3  10
ENDBRANCH   2   3
BRANCH   1  13
ATOM     13  C   UNL     1      30.693   6.338  34.569  1.00  0.00    -0.055 C 
ATOM     14  C   UNL     1      29.413   6.133  34.241  1.00  0.00     0.012 C 
BRANCH  13  15
ATOM     15  C   UNL     1      31.077   6.351  36.032  1.00  0.00     0.039 C 
BRANCH  15  16
ATOM     16  C   UNL     1      30.020   6.996  36.935  1.00  0.00     0.032 CG0
ATOM     17  G   UNL     1      30.550   8.231  37.627  1.00  0.00     0.000 G0
ENDBRANCH  15  16
ENDBRANCH  13  15
ENDBRANCH   1  13
TORSDOF 1
ENDMDL
MODEL 4
REMARK VINA RESULT:    -3.341      2.104      5.425
REMARK INTER + INTRA:          -5.164
REMARK INTER:                  -4.752
REMARK INTRA:                  -0.412
REMARK UNBOUND:                -0.261
REMARK SMILES C=C1C=C[C@H](C(C)C)CCC(C)=CCC1
REMARK SMILES IDX 3 1 4 2 5 3 9 4 10 5 11 6 12 7 13 8 6 10 7 11 8 12 2 13 1 14
REMARK SMILES IDX 15 15 14 16
REMARK H PARENT
REMARK Flexibility Score: 70.00
ROOT
ATOM      1  C   UNL     1      28.615  10.257  26.287  1.00  0.00    -0.001 C 
ATOM      2  C   UNL     1      28.760   8.917  26.203  1.00  0.00    -0.023 C 
ENDROOT
BRANCH   2   3
ATOM      3  C   UNL     1      30.009   8.039  26.294  1.00  0.00     0.014 C 
BRANCH   3   4
ATOM      4  C   UNL     1      30.673   7.923  27.686  1.00  0.00     0.012 C 
BRANCH   4   5
ATOM      5  C   UNL     1      29.639   7.965  28.827  1.00  0.00     0.031 C 
BRANCH   5   6
ATOM      6  C   UNL     1      30.087   8.888  29.939  1.00  0.00    -0.077 C 
ATOM      7  C   UNL     1      30.907   8.306  31.062  1.00  0.00     0.039 C 
ATOM      8  C   UNL     1      29.746  10.196  30.007  1.00  0.00    -0.028 CG0
ATOM      9  G   UNL     1      28.896  10.947  29.008  1.00  0.00     0.000 G0
ENDBRANCH   5   6
ENDBRANCH   4   5
ENDBRANCH   3   4
BRANCH   3  10
ATOM     10  C   UNL     1      29.844   6.659  25.587  1.00  0.00    -0.010 C 
ATOM     11  C   UNL     1      29.834   6.798  24.055  1.00  0.00     0.008 C 
ATOM     12  C   UNL     1      28.611   5.876  26.046  1.00  0.00     0.008 C 
ENDBRANCH   3  10
ENDBRANCH   2   3
BRANCH   1  13
ATOM     13  C   UNL     1      29.639  11.277  26.603  1.00  0.00    -0.055 C 
ATOM     14  C   UNL     1      30.650  11.490  25.754  1.00  0.00     0.012 C 
BRANCH  13  15
ATOM     15  C   UNL     1      29.776  11.751  28.033  1.00  0.00     0.039 C 
BRANCH  15  16
ATOM     16  C   UNL     1      28.908  10.967  29.022  1.00  0.00     0.032 CG0
ATOM     17  G   UNL     1      29.746  10.183  30.007  1.00  0.00     0.000 G0
ENDBRANCH  15  16
ENDBRANCH  13  15
ENDBRANCH   1  13
TORSDOF 1
ENDMDL
MODEL 5
REMARK VINA RESULT:    -3.243      2.604      4.474
REMARK INTER + INTRA:          -5.021
REMARK INTER:                  -4.714
REMARK INTRA:                  -0.307
REMARK UNBOUND:                -0.261
REMARK SMILES C=C1C=C[C@H](C(C)C)CCC(C)=CCC1
REMARK SMILES IDX 3 1 4 2 5 3 9 4 10 5 11 6 12 7 13 8 6 10 7 11 8 12 2 13 1 14
REMARK SMILES IDX 15 15 14 16
REMARK H PARENT
REMARK Flexibility Score: 70.00
ROOT
ATOM      1  C   UNL     1      28.816   9.467  25.824  1.00  0.00    -0.001 C 
ATOM      2  C   UNL     1      28.822   8.677  26.919  1.00  0.00    -0.023 C 
ENDROOT
BRANCH   2   3
ATOM      3  C   UNL     1      29.943   8.341  27.904  1.00  0.00     0.014 C 
BRANCH   3   4
ATOM      4  C   UNL     1      29.967   9.142  29.226  1.00  0.00     0.012 C 
BRANCH   4   5
ATOM      5  C   UNL     1      29.045  10.375  29.173  1.00  0.00     0.031 C 
BRANCH   5   6
ATOM      6  C   UNL     1      29.844  11.653  29.031  1.00  0.00    -0.077 C 
ATOM      7  C   UNL     1      30.712  12.082  30.186  1.00  0.00     0.039 C 
ATOM      8  C   UNL     1      29.779  12.457  27.946  1.00  0.00    -0.028 CG0
ATOM      9  G   UNL     1      28.934  12.223  26.714  1.00  0.00     0.000 G0
ENDBRANCH   5   6
ENDBRANCH   4   5
ENDBRANCH   3   4
BRANCH   3  10
ATOM     10  C   UNL     1      30.130   6.808  28.123  1.00  0.00    -0.010 C 
ATOM     11  C   UNL     1      31.559   6.352  27.786  1.00  0.00     0.008 C 
ATOM     12  C   UNL     1      29.116   5.950  27.361  1.00  0.00     0.008 C 
ENDBRANCH   3  10
ENDBRANCH   2   3
BRANCH   1  13
ATOM     13  C   UNL     1      29.897  10.337  25.310  1.00  0.00    -0.055 C 
ATOM     14  C   UNL     1      31.097   9.816  25.036  1.00  0.00     0.012 C 
BRANCH  13  15
ATOM     15  C   UNL     1      29.779  11.833  25.499  1.00  0.00     0.039 C 
BRANCH  15  16
ATOM     16  C   UNL     1      28.925  12.231  26.707  1.00  0.00     0.032 CG0
ATOM     17  G   UNL     1      29.766  12.449  27.944  1.00  0.00     0.000 G0
ENDBRANCH  15  16
ENDBRANCH  13  15
ENDBRANCH   1  13
TORSDOF 1
ENDMDL
MODEL 6
REMARK VINA RESULT:    -3.196      4.014      5.882
REMARK INTER + INTRA:          -4.951
REMARK INTER:                  -4.458
REMARK INTRA:                  -0.493
REMARK UNBOUND:                -0.261
REMARK SMILES C=C1C=C[C@H](C(C)C)CCC(C)=CCC1
REMARK SMILES IDX 3 1 4 2 5 3 9 4 10 5 11 6 12 7 13 8 6 10 7 11 8 12 2 13 1 14
REMARK SMILES IDX 15 15 14 16
REMARK H PARENT
REMARK Flexibility Score: 70.00
ROOT
ATOM      1  C   UNL     1      30.182   7.064  23.307  1.00  0.00    -0.001 C 
ATOM      2  C   UNL     1      30.058   7.009  24.650  1.00  0.00    -0.023 C 
ENDROOT
BRANCH   2   3
ATOM      3  C   UNL     1      29.973   8.125  25.693  1.00  0.00     0.014 C 
BRANCH   3   4
ATOM      4  C   UNL     1      28.615   8.854  25.818  1.00  0.00     0.012 C 
BRANCH   4   5
ATOM      5  C   UNL     1      28.561  10.130  24.957  1.00  0.00     0.031 C 
BRANCH   5   6
ATOM      6  C   UNL     1      29.794  10.984  25.162  1.00  0.00    -0.077 C 
ATOM      7  C   UNL     1      29.997  11.631  26.507  1.00  0.00     0.039 C 
ATOM      8  C   UNL     1      30.695  11.239  24.186  1.00  0.00    -0.028 CG0
ATOM      9  G   UNL     1      30.641  10.722  22.767  1.00  0.00     0.000 G0
ENDBRANCH   5   6
ENDBRANCH   4   5
ENDBRANCH   3   4
BRANCH   3  10
ATOM     10  C   UNL     1      30.573   7.723  27.075  1.00  0.00    -0.010 C 
ATOM     11  C   UNL     1      30.663   6.196  27.237  1.00  0.00     0.008 C 
ATOM     12  C   UNL     1      29.828   8.329  28.268  1.00  0.00     0.008 C 
ENDBRANCH   3  10
ENDBRANCH   2   3
BRANCH   1  13
ATOM     13  C   UNL     1      30.167   8.255  22.427  1.00  0.00    -0.055 C 
ATOM     14  C   UNL     1      29.494   8.220  21.273  1.00  0.00     0.012 C 
BRANCH  13  15
ATOM     15  C   UNL     1      31.226   9.316  22.622  1.00  0.00     0.039 C 
BRANCH  15  16
ATOM     16  C   UNL     1      30.656  10.733  22.743  1.00  0.00     0.032 CG0
ATOM     17  G   UNL     1      30.701  11.237  24.168  1.00  0.00     0.000 G0
ENDBRANCH  15  16
ENDBRANCH  13  15
ENDBRANCH   1  13
TORSDOF 1
ENDMDL
MODEL 7
REMARK VINA RESULT:    -3.150      4.246      7.232
REMARK INTER + INTRA:          -4.885
REMARK INTER:                  -4.676
REMARK INTRA:                  -0.209
REMARK UNBOUND:                -0.261
REMARK SMILES C=C1C=C[C@H](C(C)C)CCC(C)=CCC1
REMARK SMILES IDX 3 1 4 2 5 3 9 4 10 5 11 6 12 7 13 8 6 10 7 11 8 12 2 13 1 14
REMARK SMILES IDX 15 15 14 16
REMARK H PARENT
REMARK Flexibility Score: 70.00
ROOT
ATOM      1  C   UNL     1      31.954   9.785  37.081  1.00  0.00    -0.001 C 
ATOM      2  C   UNL     1      31.973   9.991  35.746  1.00  0.00    -0.023 C 
ENDROOT
BRANCH   2   3
ATOM      3  C   UNL     1      31.282   9.238  34.609  1.00  0.00     0.014 C 
BRANCH   3   4
ATOM      4  C   UNL     1      29.772   9.512  34.414  1.00  0.00     0.012 C 
BRANCH   4   5
ATOM      5  C   UNL     1      28.905   8.694  35.389  1.00  0.00     0.031 C 
BRANCH   5   6
ATOM      6  C   UNL     1      29.030   7.209  35.122  1.00  0.00    -0.077 C 
ATOM      7  C   UNL     1      28.601   6.689  33.775  1.00  0.00     0.039 C 
ATOM      8  C   UNL     1      29.457   6.318  36.047  1.00  0.00    -0.028 CG0
ATOM      9  G   UNL     1      29.884   6.639  37.461  1.00  0.00     0.000 G0
ENDBRANCH   5   6
ENDBRANCH   4   5
ENDBRANCH   3   4
BRANCH   3  10
ATOM     10  C   UNL     1      32.080   9.278  33.270  1.00  0.00    -0.010 C 
ATOM     11  C   UNL     1      32.793  10.626  33.069  1.00  0.00     0.008 C 
ATOM     12  C   UNL     1      31.232   8.949  32.038  1.00  0.00     0.008 C 
ENDBRANCH   3  10
ENDBRANCH   2   3
BRANCH   1  13
ATOM     13  C   UNL     1      31.152   8.808  37.851  1.00  0.00    -0.055 C 
ATOM     14  C   UNL     1      30.664   9.146  39.049  1.00  0.00     0.012 C 
BRANCH  13  15
ATOM     15  C   UNL     1      31.249   7.343  37.491  1.00  0.00     0.039 C 
BRANCH  15  16
ATOM     16  C   UNL     1      29.893   6.630  37.460  1.00  0.00     0.032 CG0
ATOM     17  G   UNL     1      29.446   6.333  36.046  1.00  0.00     0.000 G0
ENDBRANCH  15  16
ENDBRANCH  13  15
ENDBRANCH   1  13
TORSDOF 1
ENDMDL
MODEL 8
REMARK VINA RESULT:    -3.124      3.446      5.837
REMARK INTER + INTRA:          -4.846
REMARK INTER:                  -4.304
REMARK INTRA:                  -0.542
REMARK UNBOUND:                -0.261
REMARK SMILES C=C1C=C[C@H](C(C)C)CCC(C)=CCC1
REMARK SMILES IDX 3 1 4 2 5 3 9 4 10 5 11 6 12 7 13 8 6 10 7 11 8 12 2 13 1 14
REMARK SMILES IDX 15 15 14 16
REMARK H PARENT
REMARK Flexibility Score: 70.00
ROOT
ATOM      1  C   UNL     1      30.797  10.991  24.422  1.00  0.00    -0.001 C 
ATOM      2  C   UNL     1      30.497  11.215  25.720  1.00  0.00    -0.023 C 
ENDROOT
BRANCH   2   3
ATOM      3  C   UNL     1      29.437  10.584  26.624  1.00  0.00     0.014 C 
BRANCH   3   4
ATOM      4  C   UNL     1      29.798   9.226  27.270  1.00  0.00     0.012 C 
BRANCH   4   5
ATOM      5  C   UNL     1      28.919   8.079  26.737  1.00  0.00     0.031 C 
BRANCH   5   6
ATOM      6  C   UNL     1      29.760   6.894  26.314  1.00  0.00    -0.077 C 
ATOM      7  C   UNL     1      30.271   5.964  27.384  1.00  0.00     0.039 C 
ATOM      8  C   UNL     1      30.122   6.655  25.032  1.00  0.00    -0.028 CG0
ATOM      9  G   UNL     1      29.751   7.495  23.831  1.00  0.00     0.000 G0
ENDBRANCH   5   6
ENDBRANCH   4   5
ENDBRANCH   3   4
BRANCH   3  10
ATOM     10  C   UNL     1      28.818  11.591  27.641  1.00  0.00    -0.010 C 
ATOM     11  C   UNL     1      29.393  11.403  29.056  1.00  0.00     0.008 C 
ATOM     12  C   UNL     1      27.288  11.551  27.692  1.00  0.00     0.008 C 
ENDBRANCH   3  10
ENDBRANCH   2   3
BRANCH   1  13
ATOM     13  C   UNL     1      30.237   9.968  23.510  1.00  0.00    -0.055 C 
ATOM     14  C   UNL     1      29.039  10.161  22.950  1.00  0.00     0.012 C 
BRANCH  13  15
ATOM     15  C   UNL     1      30.804   8.567  23.553  1.00  0.00     0.039 C 
BRANCH  15  16
ATOM     16  C   UNL     1      29.751   7.489  23.829  1.00  0.00     0.032 CG0
ATOM     17  G   UNL     1      30.114   6.641  25.026  1.00  0.00     0.000 G0
ENDBRANCH  15  16
ENDBRANCH  13  15
ENDBRANCH   1  13
TORSDOF 1
ENDMDL
MODEL 9
REMARK VINA RESULT:    -3.038      3.069      5.222
REMARK INTER + INTRA:          -4.719
REMARK INTER:                  -4.210
REMARK INTRA:                  -0.509
REMARK UNBOUND:                -0.261
REMARK SMILES C=C1C=C[C@H](C(C)C)CCC(C)=CCC1
REMARK SMILES IDX 3 1 4 2 5 3 9 4 10 5 11 6 12 7 13 8 6 10 7 11 8 12 2 13 1 14
REMARK SMILES IDX 15 15 14 16
REMARK H PARENT
REMARK Flexibility Score: 70.00
ROOT
ATOM      1  C   UNL     1      30.673   8.774  23.721  1.00  0.00    -0.001 C 
ATOM      2  C   UNL     1      30.400   7.836  24.653  1.00  0.00    -0.023 C 
ENDROOT
BRANCH   2   3
ATOM      3  C   UNL     1      29.909   7.973  26.095  1.00  0.00     0.014 C 
BRANCH   3   4
ATOM      4  C   UNL     1      28.426   8.367  26.287  1.00  0.00     0.012 C 
BRANCH   4   5
ATOM      5  C   UNL     1      28.246   9.889  26.437  1.00  0.00     0.031 C 
BRANCH   5   6
ATOM      6  C   UNL     1      29.250  10.468  27.411  1.00  0.00    -0.077 C 
ATOM      7  C   UNL     1      29.162  10.051  28.857  1.00  0.00     0.039 C 
ATOM      8  C   UNL     1      30.187  11.379  27.063  1.00  0.00    -0.028 CG0
ATOM      9  G   UNL     1      30.401  11.953  25.681  1.00  0.00     0.000 G0
ENDBRANCH   5   6
ENDBRANCH   4   5
ENDBRANCH   3   4
BRANCH   3  10
ATOM     10  C   UNL     1      30.341   6.784  27.008  1.00  0.00    -0.010 C 
ATOM     11  C   UNL     1      29.212   6.352  27.958  1.00  0.00     0.008 C 
ATOM     12  C   UNL     1      31.619   7.056  27.807  1.00  0.00     0.008 C 
ENDBRANCH   3  10
ENDBRANCH   2   3
BRANCH   1  13
ATOM     13  C   UNL     1      30.469  10.238  23.799  1.00  0.00    -0.055 C 
ATOM     14  C   UNL     1      29.896  10.885  22.780  1.00  0.00     0.012 C 
BRANCH  13  15
ATOM     15  C   UNL     1      31.271  11.030  24.807  1.00  0.00     0.039 C 
BRANCH  15  16
ATOM     16  C   UNL     1      30.414  11.956  25.678  1.00  0.00     0.032 CG0
ATOM     17  G   UNL     1      30.183  11.378  27.056  1.00  0.00     0.000 G0
ENDBRANCH  15  16
ENDBRANCH  13  15
ENDBRANCH   1  13
TORSDOF 1
ENDMDL
