MODEL 1
REMARK VINA RESULT:    -4.668      0.000      0.000
REMARK INTER + INTRA:          -7.836
REMARK INTER:                  -7.396
REMARK INTRA:                  -0.440
REMARK UNBOUND:                -0.440
REMARK SMILES CCCCCCCCCCCC(=O)[O-]
REMARK SMILES IDX 7 1 8 2 9 3 10 4 11 5 12 6 13 7 14 8 6 9 5 10 4 11 3 12 2 13
REMARK SMILES IDX 1 14
REMARK H PARENT
REMARK Flexibility Score: inf
ROOT
ATOM      1  C   UNL     1      11.291   5.321  10.434  1.00  0.00     0.000 C 
ENDROOT
BRANCH   1   2
ATOM      2  C   UNL     1      11.934   6.720  10.540  1.00  0.00     0.000 C 
BRANCH   2   3
ATOM      3  C   UNL     1      11.375   7.526  11.725  1.00  0.00     0.000 C 
BRANCH   3   4
ATOM      4  C   UNL     1      11.322   9.041  11.454  1.00  0.00     0.006 C 
BRANCH   4   5
ATOM      5  C   UNL     1      12.174   9.491  10.256  1.00  0.00     0.053 C 
BRANCH   5   6
ATOM      6  C   UNL     1      12.421  10.969  10.249  1.00  0.00     0.041 C 
ATOM      7  O   UNL     1      12.449  11.602   9.160  1.00  0.00    -0.550 OA
ATOM      8  O   UNL     1      12.582  11.657  11.446  1.00  0.00    -0.550 OA
ENDBRANCH   5   6
ENDBRANCH   4   5
ENDBRANCH   3   4
ENDBRANCH   2   3
ENDBRANCH   1   2
BRANCH   1   9
ATOM      9  C   UNL     1      11.708   4.365  11.565  1.00  0.00     0.000 C 
BRANCH   9  10
ATOM     10  C   UNL     1      13.131   3.816  11.389  1.00  0.00    -0.000 C 
BRANCH  10  11
ATOM     11  C   UNL     1      13.196   2.330  11.761  1.00  0.00    -0.000 C 
BRANCH  11  12
ATOM     12  C   UNL     1      12.573   2.081  13.140  1.00  0.00    -0.000 C 
BRANCH  12  13
ATOM     13  C   UNL     1      13.629   2.178  14.247  1.00  0.00    -0.003 C 
ATOM     14  C   UNL     1      13.071   1.702  15.585  1.00  0.00     0.004 C 
ENDBRANCH  12  13
ENDBRANCH  11  12
ENDBRANCH  10  11
ENDBRANCH   9  10
ENDBRANCH   1   9
TORSDOF 10
ENDMDL
MODEL 2
REMARK VINA RESULT:    -4.622      1.927      3.380
REMARK INTER + INTRA:          -7.763
REMARK INTER:                  -6.661
REMARK INTRA:                  -1.102
REMARK UNBOUND:                -0.440
REMARK SMILES CCCCCCCCCCCC(=O)[O-]
REMARK SMILES IDX 7 1 8 2 9 3 10 4 11 5 12 6 13 7 14 8 6 9 5 10 4 11 3 12 2 13
REMARK SMILES IDX 1 14
REMARK H PARENT
REMARK Flexibility Score: inf
ROOT
ATOM      1  C   UNL     1      13.103   5.144  10.802  1.00  0.00     0.000 C 
ENDROOT
BRANCH   1   2
ATOM      2  C   UNL     1      12.085   6.178  10.277  1.00  0.00     0.000 C 
BRANCH   2   3
ATOM      3  C   UNL     1      11.254   6.802  11.411  1.00  0.00     0.000 C 
BRANCH   3   4
ATOM      4  C   UNL     1      11.508   8.309  11.589  1.00  0.00     0.006 C 
BRANCH   4   5
ATOM      5  C   UNL     1      11.999   9.014  10.314  1.00  0.00     0.053 C 
BRANCH   5   6
ATOM      6  C   UNL     1      12.310  10.463  10.541  1.00  0.00     0.041 C 
ATOM      7  O   UNL     1      12.113  10.984  11.670  1.00  0.00    -0.550 OA
ATOM      8  O   UNL     1      12.854  11.230   9.518  1.00  0.00    -0.550 OA
ENDBRANCH   5   6
ENDBRANCH   4   5
ENDBRANCH   3   4
ENDBRANCH   2   3
ENDBRANCH   1   2
BRANCH   1   9
ATOM      9  C   UNL     1      12.456   3.836  11.289  1.00  0.00     0.000 C 
BRANCH   9  10
ATOM     10  C   UNL     1      12.411   2.752  10.203  1.00  0.00    -0.000 C 
BRANCH  10  11
ATOM     11  C   UNL     1      10.997   2.607   9.630  1.00  0.00    -0.000 C 
BRANCH  11  12
ATOM     12  C   UNL     1       9.948   3.138  10.614  1.00  0.00    -0.000 C 
BRANCH  12  13
ATOM     13  C   UNL     1       8.960   4.076   9.912  1.00  0.00    -0.003 C 
ATOM     14  C   UNL     1       9.347   4.292   8.451  1.00  0.00     0.004 C 
ENDBRANCH  12  13
ENDBRANCH  11  12
ENDBRANCH  10  11
ENDBRANCH   9  10
ENDBRANCH   1   9
TORSDOF 10
ENDMDL
MODEL 3
REMARK VINA RESULT:    -4.577      3.780      7.412
REMARK INTER + INTRA:          -7.692
REMARK INTER:                  -6.831
REMARK INTRA:                  -0.861
REMARK UNBOUND:                -0.440
REMARK SMILES CCCCCCCCCCCC(=O)[O-]
REMARK SMILES IDX 7 1 8 2 9 3 10 4 11 5 12 6 13 7 14 8 6 9 5 10 4 11 3 12 2 13
REMARK SMILES IDX 1 14
REMARK H PARENT
REMARK Flexibility Score: inf
ROOT
ATOM      1  C   UNL     1      12.143   9.450  10.172  1.00  0.00     0.000 C 
ENDROOT
BRANCH   1   2
ATOM      2  C   UNL     1      11.566   9.043  11.545  1.00  0.00     0.000 C 
BRANCH   2   3
ATOM      3  C   UNL     1      11.306   7.530  11.639  1.00  0.00     0.000 C 
BRANCH   3   4
ATOM      4  C   UNL     1      11.993   6.728  10.519  1.00  0.00     0.006 C 
BRANCH   4   5
ATOM      5  C   UNL     1      12.191   5.239  10.849  1.00  0.00     0.053 C 
BRANCH   5   6
ATOM      6  C   UNL     1      11.554   4.336   9.836  1.00  0.00     0.041 C 
ATOM      7  O   UNL     1      12.064   3.213   9.579  1.00  0.00    -0.550 OA
ATOM      8  O   UNL     1      10.377   4.715   9.203  1.00  0.00    -0.550 OA
ENDBRANCH   5   6
ENDBRANCH   4   5
ENDBRANCH   3   4
ENDBRANCH   2   3
ENDBRANCH   1   2
BRANCH   1   9
ATOM      9  C   UNL     1      12.394  10.962  10.035  1.00  0.00     0.000 C 
BRANCH   9  10
ATOM     10  C   UNL     1      12.446  11.685  11.389  1.00  0.00    -0.000 C 
BRANCH  10  11
ATOM     11  C   UNL     1      11.493  12.885  11.407  1.00  0.00    -0.000 C 
BRANCH  11  12
ATOM     12  C   UNL     1      10.247  12.586  12.249  1.00  0.00    -0.000 C 
BRANCH  12  13
ATOM     13  C   UNL     1      10.632  12.001  13.612  1.00  0.00    -0.003 C 
ATOM     14  C   UNL     1       9.601  10.980  14.085  1.00  0.00     0.004 C 
ENDBRANCH  12  13
ENDBRANCH  11  12
ENDBRANCH  10  11
ENDBRANCH   9  10
ENDBRANCH   1   9
TORSDOF 10
ENDMDL
MODEL 4
REMARK VINA RESULT:    -4.573      3.362      7.038
REMARK INTER + INTRA:          -7.686
REMARK INTER:                  -6.931
REMARK INTRA:                  -0.754
REMARK UNBOUND:                -0.440
REMARK SMILES CCCCCCCCCCCC(=O)[O-]
REMARK SMILES IDX 7 1 8 2 9 3 10 4 11 5 12 6 13 7 14 8 6 9 5 10 4 11 3 12 2 13
REMARK SMILES IDX 1 14
REMARK H PARENT
REMARK Flexibility Score: inf
ROOT
ATOM      1  C   UNL     1      10.669   6.164  12.451  1.00  0.00     0.000 C 
ENDROOT
BRANCH   1   2
ATOM      2  C   UNL     1      10.097   5.406  11.234  1.00  0.00     0.000 C 
BRANCH   2   3
ATOM      3  C   UNL     1      10.381   3.896  11.305  1.00  0.00     0.000 C 
BRANCH   3   4
ATOM      4  C   UNL     1      11.136   3.364  10.074  1.00  0.00     0.006 C 
BRANCH   4   5
ATOM      5  C   UNL     1      12.388   2.540  10.418  1.00  0.00     0.053 C 
BRANCH   5   6
ATOM      6  C   UNL     1      13.168   3.127  11.555  1.00  0.00     0.041 C 
ATOM      7  O   UNL     1      13.305   2.483  12.628  1.00  0.00    -0.550 OA
ATOM      8  O   UNL     1      13.776   4.369  11.418  1.00  0.00    -0.550 OA
ENDBRANCH   5   6
ENDBRANCH   4   5
ENDBRANCH   3   4
ENDBRANCH   2   3
ENDBRANCH   1   2
BRANCH   1   9
ATOM      9  C   UNL     1      11.291   7.525  12.092  1.00  0.00     0.000 C 
BRANCH   9  10
ATOM     10  C   UNL     1      11.854   7.566  10.664  1.00  0.00    -0.000 C 
BRANCH  10  11
ATOM     11  C   UNL     1      12.085   9.010  10.206  1.00  0.00    -0.000 C 
BRANCH  11  12
ATOM     12  C   UNL     1      11.956   9.987  11.381  1.00  0.00    -0.000 C 
BRANCH  12  13
ATOM     13  C   UNL     1      12.455  11.383  10.993  1.00  0.00    -0.003 C 
ATOM     14  C   UNL     1      12.587  11.521   9.479  1.00  0.00     0.004 C 
ENDBRANCH  12  13
ENDBRANCH  11  12
ENDBRANCH  10  11
ENDBRANCH   9  10
ENDBRANCH   1   9
TORSDOF 10
ENDMDL
MODEL 5
REMARK VINA RESULT:    -4.541      4.269      7.355
REMARK INTER + INTRA:          -7.635
REMARK INTER:                  -6.769
REMARK INTRA:                  -0.867
REMARK UNBOUND:                -0.440
REMARK SMILES CCCCCCCCCCCC(=O)[O-]
REMARK SMILES IDX 7 1 8 2 9 3 10 4 11 5 12 6 13 7 14 8 6 9 5 10 4 11 3 12 2 13
REMARK SMILES IDX 1 14
REMARK H PARENT
REMARK Flexibility Score: inf
ROOT
ATOM      1  C   UNL     1      10.400   5.387  11.346  1.00  0.00     0.000 C 
ENDROOT
BRANCH   1   2
ATOM      2  C   UNL     1       9.422   4.667  10.393  1.00  0.00     0.000 C 
BRANCH   2   3
ATOM      3  C   UNL     1      10.110   4.208   9.096  1.00  0.00     0.000 C 
BRANCH   3   4
ATOM      4  C   UNL     1      10.370   2.691   9.053  1.00  0.00     0.006 C 
BRANCH   4   5
ATOM      5  C   UNL     1      11.830   2.299   9.336  1.00  0.00     0.053 C 
BRANCH   5   6
ATOM      6  C   UNL     1      11.986   1.558  10.629  1.00  0.00     0.041 C 
ATOM      7  O   UNL     1      11.588   2.074  11.707  1.00  0.00    -0.550 OA
ATOM      8  O   UNL     1      12.537   0.282  10.643  1.00  0.00    -0.550 OA
ENDBRANCH   5   6
ENDBRANCH   4   5
ENDBRANCH   3   4
ENDBRANCH   2   3
ENDBRANCH   1   2
BRANCH   1   9
ATOM      9  C   UNL     1      11.773   5.677  10.715  1.00  0.00     0.000 C 
BRANCH   9  10
ATOM     10  C   UNL     1      12.047   7.178  10.548  1.00  0.00    -0.000 C 
BRANCH  10  11
ATOM     11  C   UNL     1      11.374   7.988  11.662  1.00  0.00    -0.000 C 
BRANCH  11  12
ATOM     12  C   UNL     1      11.568   9.493  11.442  1.00  0.00    -0.000 C 
BRANCH  12  13
ATOM     13  C   UNL     1      12.054   9.783  10.018  1.00  0.00    -0.003 C 
ATOM     14  C   UNL     1      12.747  11.141   9.938  1.00  0.00     0.004 C 
ENDBRANCH  12  13
ENDBRANCH  11  12
ENDBRANCH  10  11
ENDBRANCH   9  10
ENDBRANCH   1   9
TORSDOF 10
ENDMDL
MODEL 6
REMARK VINA RESULT:    -4.539      3.316      7.758
REMARK INTER + INTRA:          -7.632
REMARK INTER:                  -6.969
REMARK INTRA:                  -0.663
REMARK UNBOUND:                -0.440
REMARK SMILES CCCCCCCCCCCC(=O)[O-]
REMARK SMILES IDX 7 1 8 2 9 3 10 4 11 5 12 6 13 7 14 8 6 9 5 10 4 11 3 12 2 13
REMARK SMILES IDX 1 14
REMARK H PARENT
REMARK Flexibility Score: inf
ROOT
ATOM      1  C   UNL     1      11.714   7.845  10.678  1.00  0.00     0.000 C 
ENDROOT
BRANCH   1   2
ATOM      2  C   UNL     1      11.319   7.752  12.167  1.00  0.00     0.000 C 
BRANCH   2   3
ATOM      3  C   UNL     1      10.518   6.476  12.475  1.00  0.00     0.000 C 
BRANCH   3   4
ATOM      4  C   UNL     1      10.734   5.360  11.437  1.00  0.00     0.006 C 
BRANCH   4   5
ATOM      5  C   UNL     1      11.436   4.112  11.998  1.00  0.00     0.053 C 
BRANCH   5   6
ATOM      6  C   UNL     1      12.822   3.939  11.456  1.00  0.00     0.041 C 
ATOM      7  O   UNL     1      13.469   4.937  11.040  1.00  0.00    -0.550 OA
ATOM      8  O   UNL     1      13.417   2.683  11.443  1.00  0.00    -0.550 OA
ENDBRANCH   5   6
ENDBRANCH   4   5
ENDBRANCH   3   4
ENDBRANCH   2   3
ENDBRANCH   1   2
BRANCH   1   9
ATOM      9  C   UNL     1      12.046   9.276  10.218  1.00  0.00     0.000 C 
BRANCH   9  10
ATOM     10  C   UNL     1      11.877  10.316  11.334  1.00  0.00    -0.000 C 
BRANCH  10  11
ATOM     11  C   UNL     1      12.505  11.657  10.934  1.00  0.00    -0.000 C 
BRANCH  11  12
ATOM     12  C   UNL     1      12.685  11.748   9.414  1.00  0.00    -0.000 C 
BRANCH  12  13
ATOM     13  C   UNL     1      12.523  13.192   8.927  1.00  0.00    -0.003 C 
ATOM     14  C   UNL     1      11.736  14.029   9.933  1.00  0.00     0.004 C 
ENDBRANCH  12  13
ENDBRANCH  11  12
ENDBRANCH  10  11
ENDBRANCH   9  10
ENDBRANCH   1   9
TORSDOF 10
ENDMDL
MODEL 7
REMARK VINA RESULT:    -4.518      1.671      2.641
REMARK INTER + INTRA:          -7.599
REMARK INTER:                  -6.984
REMARK INTRA:                  -0.615
REMARK UNBOUND:                -0.440
REMARK SMILES CCCCCCCCCCCC(=O)[O-]
REMARK SMILES IDX 7 1 8 2 9 3 10 4 11 5 12 6 13 7 14 8 6 9 5 10 4 11 3 12 2 13
REMARK SMILES IDX 1 14
REMARK H PARENT
REMARK Flexibility Score: inf
ROOT
ATOM      1  C   UNL     1      11.493   7.050  12.206  1.00  0.00     0.000 C 
ENDROOT
BRANCH   1   2
ATOM      2  C   UNL     1      11.204   8.477  11.694  1.00  0.00     0.000 C 
BRANCH   2   3
ATOM      3  C   UNL     1      11.979   8.800  10.405  1.00  0.00     0.000 C 
BRANCH   3   4
ATOM      4  C   UNL     1      12.323  10.294  10.263  1.00  0.00     0.006 C 
BRANCH   4   5
ATOM      5  C   UNL     1      12.076  11.115  11.540  1.00  0.00     0.053 C 
BRANCH   5   6
ATOM      6  C   UNL     1      12.276  12.584  11.326  1.00  0.00     0.041 C 
ATOM      7  O   UNL     1      12.631  13.322  12.283  1.00  0.00    -0.550 OA
ATOM      8  O   UNL     1      12.109  13.136  10.061  1.00  0.00    -0.550 OA
ENDBRANCH   5   6
ENDBRANCH   4   5
ENDBRANCH   3   4
ENDBRANCH   2   3
ENDBRANCH   1   2
BRANCH   1   9
ATOM      9  C   UNL     1      10.642   5.967  11.521  1.00  0.00     0.000 C 
BRANCH   9  10
ATOM     10  C   UNL     1      11.393   5.238  10.398  1.00  0.00    -0.000 C 
BRANCH  10  11
ATOM     11  C   UNL     1      12.899   5.193  10.683  1.00  0.00    -0.000 C 
BRANCH  11  12
ATOM     12  C   UNL     1      13.271   3.931  11.473  1.00  0.00    -0.000 C 
BRANCH  12  13
ATOM     13  C   UNL     1      12.678   2.679  10.820  1.00  0.00    -0.003 C 
ATOM     14  C   UNL     1      12.799   1.467  11.740  1.00  0.00     0.004 C 
ENDBRANCH  12  13
ENDBRANCH  11  12
ENDBRANCH  10  11
ENDBRANCH   9  10
ENDBRANCH   1   9
TORSDOF 10
ENDMDL
MODEL 8
REMARK VINA RESULT:    -4.470      3.867      6.028
REMARK INTER + INTRA:          -7.523
REMARK INTER:                  -6.129
REMARK INTRA:                  -1.394
REMARK UNBOUND:                -0.440
REMARK SMILES CCCCCCCCCCCC(=O)[O-]
REMARK SMILES IDX 7 1 8 2 9 3 10 4 11 5 12 6 13 7 14 8 6 9 5 10 4 11 3 12 2 13
REMARK SMILES IDX 1 14
REMARK H PARENT
REMARK Flexibility Score: inf
ROOT
ATOM      1  C   UNL     1      13.111   4.377  11.528  1.00  0.00     0.000 C 
ENDROOT
BRANCH   1   2
ATOM      2  C   UNL     1      13.126   2.847  11.330  1.00  0.00     0.000 C 
BRANCH   2   3
ATOM      3  C   UNL     1      12.261   2.408  10.136  1.00  0.00     0.000 C 
BRANCH   3   4
ATOM      4  C   UNL     1      10.869   1.900  10.552  1.00  0.00     0.006 C 
BRANCH   4   5
ATOM      5  C   UNL     1       9.741   2.923  10.336  1.00  0.00     0.053 C 
BRANCH   5   6
ATOM      6  C   UNL     1       9.522   3.241   8.889  1.00  0.00     0.041 C 
ATOM      7  O   UNL     1       9.765   4.396   8.450  1.00  0.00    -0.550 OA
ATOM      8  O   UNL     1       9.085   2.253   8.014  1.00  0.00    -0.550 OA
ENDBRANCH   5   6
ENDBRANCH   4   5
ENDBRANCH   3   4
ENDBRANCH   2   3
ENDBRANCH   1   2
BRANCH   1   9
ATOM      9  C   UNL     1      12.758   5.159  10.251  1.00  0.00     0.000 C 
BRANCH   9  10
ATOM     10  C   UNL     1      11.962   6.441  10.536  1.00  0.00    -0.000 C 
BRANCH  10  11
ATOM     11  C   UNL     1      10.806   6.166  11.504  1.00  0.00    -0.000 C 
BRANCH  11  12
ATOM     12  C   UNL     1      10.869   7.103  12.716  1.00  0.00    -0.000 C 
BRANCH  12  13
ATOM     13  C   UNL     1      10.233   6.452  13.949  1.00  0.00    -0.003 C 
ATOM     14  C   UNL     1      10.120   4.940  13.777  1.00  0.00     0.004 C 
ENDBRANCH  12  13
ENDBRANCH  11  12
ENDBRANCH  10  11
ENDBRANCH   9  10
ENDBRANCH   1   9
TORSDOF 10
ENDMDL
MODEL 9
REMARK VINA RESULT:    -4.443      3.337      4.293
REMARK INTER + INTRA:          -7.479
REMARK INTER:                  -6.621
REMARK INTRA:                  -0.858
REMARK UNBOUND:                -0.440
REMARK SMILES CCCCCCCCCCCC(=O)[O-]
REMARK SMILES IDX 7 1 8 2 9 3 10 4 11 5 12 6 13 7 14 8 6 9 5 10 4 11 3 12 2 13
REMARK SMILES IDX 1 14
REMARK H PARENT
REMARK Flexibility Score: inf
ROOT
ATOM      1  C   UNL     1      12.638   5.178  10.382  1.00  0.00     0.000 C 
ENDROOT
BRANCH   1   2
ATOM      2  C   UNL     1      11.831   6.318  11.041  1.00  0.00     0.000 C 
BRANCH   2   3
ATOM      3  C   UNL     1      10.659   5.786  11.883  1.00  0.00     0.000 C 
BRANCH   3   4
ATOM      4  C   UNL     1      10.484   6.535  13.217  1.00  0.00     0.006 C 
BRANCH   4   5
ATOM      5  C   UNL     1      10.140   5.622  14.406  1.00  0.00     0.053 C 
BRANCH   5   6
ATOM      6  C   UNL     1       9.796   6.394  15.643  1.00  0.00     0.041 C 
ATOM      7  O   UNL     1       9.560   5.790  16.722  1.00  0.00    -0.550 OA
ATOM      8  O   UNL     1       9.771   7.784  15.616  1.00  0.00    -0.550 OA
ENDBRANCH   5   6
ENDBRANCH   4   5
ENDBRANCH   3   4
ENDBRANCH   2   3
ENDBRANCH   1   2
BRANCH   1   9
ATOM      9  C   UNL     1      13.414   4.312  11.390  1.00  0.00     0.000 C 
BRANCH   9  10
ATOM     10  C   UNL     1      12.925   2.857  11.428  1.00  0.00    -0.000 C 
BRANCH  10  11
ATOM     11  C   UNL     1      13.186   2.226  12.800  1.00  0.00    -0.000 C 
BRANCH  11  12
ATOM     12  C   UNL     1      12.127   2.666  13.819  1.00  0.00    -0.000 C 
BRANCH  12  13
ATOM     13  C   UNL     1      12.480   2.175  15.226  1.00  0.00    -0.003 C 
ATOM     14  C   UNL     1      13.991   2.057  15.407  1.00  0.00     0.004 C 
ENDBRANCH  12  13
ENDBRANCH  11  12
ENDBRANCH  10  11
ENDBRANCH   9  10
ENDBRANCH   1   9
TORSDOF 10
ENDMDL
