MODEL 1
REMARK VINA RESULT:    -5.768      0.000      0.000
REMARK INTER + INTRA:         -10.331
REMARK INTER:                  -8.803
REMARK INTRA:                  -1.528
REMARK UNBOUND:                -1.528
REMARK SMILES OC[C@@H]1O[C@H](O[C@]2(CO)O[C@@H](CO)[C@@H](O)[C@H]2O)[C@@H](O)[C@H](O)[C@H]1O
REMARK SMILES IDX 6 1 5 2 3 3 22 4 4 5 20 6 18 7 2 8 1 9 23 11 21 13 19 15
REMARK SMILES IDX 7 17 16 18 10 19 14 20 11 21 8 22 9 23 17 25 15 27 12 29
REMARK SMILES IDX 13 30
REMARK H PARENT 1 10 23 12 21 14 19 16 9 24 17 26 15 28 13 31
REMARK Flexibility Score: inf
ROOT
ATOM      1  O   UNL     1      80.821 184.140 189.142  1.00  0.00    -0.313 OA
ENDROOT
BRANCH   1   2
ATOM      2  C   UNL     1      82.052 183.577 189.584  1.00  0.00     0.285 C 
ATOM      3  C   UNL     1      81.480 181.291 189.126  1.00  0.00     0.178 C 
ATOM      4  C   UNL     1      82.437 181.231 187.910  1.00  0.00     0.177 C 
ATOM      5  O   UNL     1      81.846 182.268 190.100  1.00  0.00    -0.341 OA
ATOM      6  C   UNL     1      82.720 182.625 187.326  1.00  0.00     0.179 C 
ATOM      7  C   UNL     1      83.092 183.608 188.445  1.00  0.00     0.202 C 
BRANCH   3   8
ATOM      8  C   UNL     1      79.990 181.352 188.735  1.00  0.00     0.191 C 
BRANCH   8   9
ATOM      9  O   UNL     1      79.213 181.624 189.868  1.00  0.00    -0.394 OA
ATOM     10  H   UNL     1      79.680 181.199 190.632  1.00  0.00     0.210 HD
ENDBRANCH   8   9
ENDBRANCH   3   8
BRANCH   4  11
ATOM     11  O   UNL     1      83.644 180.631 188.316  1.00  0.00    -0.387 OA
ATOM     12  H   UNL     1      83.530 179.649 188.211  1.00  0.00     0.211 HD
ENDBRANCH   4  11
BRANCH   6  13
ATOM     13  O   UNL     1      81.595 183.084 186.618  1.00  0.00    -0.387 OA
ATOM     14  H   UNL     1      81.890 183.865 186.081  1.00  0.00     0.211 HD
ENDBRANCH   6  13
BRANCH   7  15
ATOM     15  O   UNL     1      84.364 183.281 188.948  1.00  0.00    -0.385 OA
ATOM     16  H   UNL     1      84.937 183.065 188.166  1.00  0.00     0.211 HD
ENDBRANCH   7  15
ENDBRANCH   1   2
BRANCH   1  17
ATOM     17  C   UNL     1      80.441 185.364 189.776  1.00  0.00     0.224 C 
ATOM     18  C   UNL     1      79.219 186.004 189.084  1.00  0.00     0.208 C 
ATOM     19  O   UNL     1      80.021 185.025 191.082  1.00  0.00    -0.337 OA
ATOM     20  C   UNL     1      78.089 185.194 189.667  1.00  0.00     0.180 C 
ATOM     21  C   UNL     1      78.622 184.811 191.056  1.00  0.00     0.179 C 
BRANCH  17  22
ATOM     22  C   UNL     1      81.639 186.337 189.924  1.00  0.00     0.225 C 
BRANCH  22  23
ATOM     23  O   UNL     1      81.599 186.959 191.177  1.00  0.00    -0.391 OA
ATOM     24  H   UNL     1      80.655 186.911 191.480  1.00  0.00     0.210 HD
ENDBRANCH  22  23
ENDBRANCH  17  22
BRANCH  18  25
ATOM     25  O   UNL     1      79.073 187.355 189.456  1.00  0.00    -0.385 OA
ATOM     26  H   UNL     1      79.743 187.870 188.936  1.00  0.00     0.211 HD
ENDBRANCH  18  25
BRANCH  20  27
ATOM     27  O   UNL     1      76.884 185.917 189.715  1.00  0.00    -0.387 OA
ATOM     28  H   UNL     1      77.065 186.730 190.255  1.00  0.00     0.211 HD
ENDBRANCH  20  27
BRANCH  21  29
ATOM     29  C   UNL     1      77.977 185.599 192.205  1.00  0.00     0.191 C 
BRANCH  29  30
ATOM     30  O   UNL     1      78.156 186.972 191.992  1.00  0.00    -0.394 OA
ATOM     31  H   UNL     1      79.138 187.116 191.924  1.00  0.00     0.210 HD
ENDBRANCH  29  30
ENDBRANCH  21  29
ENDBRANCH   1  17
TORSDOF 13
ENDMDL
MODEL 2
REMARK VINA RESULT:    -5.692      1.039      2.373
REMARK INTER + INTRA:         -10.215
REMARK INTER:                  -8.691
REMARK INTRA:                  -1.524
REMARK UNBOUND:                -1.528
REMARK SMILES OC[C@@H]1O[C@H](O[C@]2(CO)O[C@@H](CO)[C@@H](O)[C@H]2O)[C@@H](O)[C@H](O)[C@H]1O
REMARK SMILES IDX 6 1 5 2 3 3 22 4 4 5 20 6 18 7 2 8 1 9 23 11 21 13 19 15
REMARK SMILES IDX 7 17 16 18 10 19 14 20 11 21 8 22 9 23 17 25 15 27 12 29
REMARK SMILES IDX 13 30
REMARK H PARENT 1 10 23 12 21 14 19 16 9 24 17 26 15 28 13 31
REMARK Flexibility Score: inf
ROOT
ATOM      1  O   UNL     1      81.113 183.719 189.776  1.00  0.00    -0.313 OA
ENDROOT
BRANCH   1   2
ATOM      2  C   UNL     1      80.957 183.320 188.419  1.00  0.00     0.285 C 
ATOM      3  C   UNL     1      83.241 182.675 188.065  1.00  0.00     0.178 C 
ATOM      4  C   UNL     1      82.879 181.169 188.053  1.00  0.00     0.177 C 
ATOM      5  O   UNL     1      82.162 183.531 187.693  1.00  0.00    -0.341 OA
ATOM      6  C   UNL     1      81.566 180.884 188.800  1.00  0.00     0.179 C 
ATOM      7  C   UNL     1      80.470 181.858 188.345  1.00  0.00     0.202 C 
BRANCH   3   8
ATOM      8  C   UNL     1      83.958 183.125 189.354  1.00  0.00     0.191 C 
BRANCH   8   9
ATOM      9  O   UNL     1      84.577 182.025 189.960  1.00  0.00    -0.394 OA
ATOM     10  H   UNL     1      85.361 181.802 189.395  1.00  0.00     0.210 HD
ENDBRANCH   8   9
ENDBRANCH   3   8
BRANCH   4  11
ATOM     11  O   UNL     1      82.769 180.743 186.716  1.00  0.00    -0.387 OA
ATOM     12  H   UNL     1      83.671 180.831 186.307  1.00  0.00     0.211 HD
ENDBRANCH   4  11
BRANCH   6  13
ATOM     13  O   UNL     1      81.773 180.984 190.187  1.00  0.00    -0.387 OA
ATOM     14  H   UNL     1      80.957 181.397 190.572  1.00  0.00     0.211 HD
ENDBRANCH   6  13
BRANCH   7  15
ATOM     15  O   UNL     1      80.086 181.545 187.029  1.00  0.00    -0.385 OA
ATOM     16  H   UNL     1      79.669 180.644 187.055  1.00  0.00     0.211 HD
ENDBRANCH   7  15
ENDBRANCH   1   2
BRANCH   1  17
ATOM     17  C   UNL     1      80.642 185.032 190.090  1.00  0.00     0.224 C 
ATOM     18  C   UNL     1      79.428 185.422 189.220  1.00  0.00     0.208 C 
ATOM     19  O   UNL     1      80.172 184.982 191.421  1.00  0.00    -0.337 OA
ATOM     20  C   UNL     1      78.310 184.704 189.931  1.00  0.00     0.180 C 
ATOM     21  C   UNL     1      78.788 184.686 191.391  1.00  0.00     0.179 C 
BRANCH  17  22
ATOM     22  C   UNL     1      81.783 186.082 190.052  1.00  0.00     0.225 C 
BRANCH  22  23
ATOM     23  O   UNL     1      81.667 186.954 191.140  1.00  0.00    -0.391 OA
ATOM     24  H   UNL     1      82.563 187.361 191.266  1.00  0.00     0.210 HD
ENDBRANCH  22  23
ENDBRANCH  17  22
BRANCH  18  25
ATOM     25  O   UNL     1      79.199 186.811 189.259  1.00  0.00    -0.385 OA
ATOM     26  H   UNL     1      78.302 186.966 188.864  1.00  0.00     0.211 HD
ENDBRANCH  18  25
BRANCH  20  27
ATOM     27  O   UNL     1      77.071 185.347 189.761  1.00  0.00    -0.387 OA
ATOM     28  H   UNL     1      76.612 184.881 189.014  1.00  0.00     0.211 HD
ENDBRANCH  20  27
BRANCH  21  29
ATOM     29  C   UNL     1      78.047 185.680 192.297  1.00  0.00     0.191 C 
BRANCH  29  30
ATOM     30  O   UNL     1      78.268 186.987 191.841  1.00  0.00    -0.394 OA
ATOM     31  H   UNL     1      77.373 187.418 191.794  1.00  0.00     0.210 HD
ENDBRANCH  29  30
ENDBRANCH  21  29
ENDBRANCH   1  17
TORSDOF 13
ENDMDL
MODEL 3
REMARK VINA RESULT:    -5.447      1.462      5.608
REMARK INTER + INTRA:          -9.840
REMARK INTER:                  -8.703
REMARK INTRA:                  -1.137
REMARK UNBOUND:                -1.528
REMARK SMILES OC[C@@H]1O[C@H](O[C@]2(CO)O[C@@H](CO)[C@@H](O)[C@H]2O)[C@@H](O)[C@H](O)[C@H]1O
REMARK SMILES IDX 6 1 5 2 3 3 22 4 4 5 20 6 18 7 2 8 1 9 23 11 21 13 19 15
REMARK SMILES IDX 7 17 16 18 10 19 14 20 11 21 8 22 9 23 17 25 15 27 12 29
REMARK SMILES IDX 13 30
REMARK H PARENT 1 10 23 12 21 14 19 16 9 24 17 26 15 28 13 31
REMARK Flexibility Score: inf
ROOT
ATOM      1  O   UNL     1      80.551 184.082 189.958  1.00  0.00    -0.313 OA
ENDROOT
BRANCH   1   2
ATOM      2  C   UNL     1      79.380 184.149 189.151  1.00  0.00     0.285 C 
ATOM      3  C   UNL     1      77.840 184.551 190.948  1.00  0.00     0.178 C 
ATOM      4  C   UNL     1      77.638 186.027 190.526  1.00  0.00     0.177 C 
ATOM      5  O   UNL     1      78.245 183.696 189.879  1.00  0.00    -0.341 OA
ATOM      6  C   UNL     1      78.826 186.563 189.710  1.00  0.00     0.179 C 
ATOM      7  C   UNL     1      79.196 185.576 188.594  1.00  0.00     0.202 C 
BRANCH   3   8
ATOM      8  C   UNL     1      78.698 184.384 192.218  1.00  0.00     0.191 C 
BRANCH   8   9
ATOM      9  O   UNL     1      78.579 185.524 193.023  1.00  0.00    -0.394 OA
ATOM     10  H   UNL     1      78.853 185.249 193.935  1.00  0.00     0.210 HD
ENDBRANCH   8   9
ENDBRANCH   3   8
BRANCH   4  11
ATOM     11  O   UNL     1      76.456 186.122 189.768  1.00  0.00    -0.387 OA
ATOM     12  H   UNL     1      76.614 186.811 189.069  1.00  0.00     0.211 HD
ENDBRANCH   4  11
BRANCH   6  13
ATOM     13  O   UNL     1      79.925 186.790 190.556  1.00  0.00    -0.387 OA
ATOM     14  H   UNL     1      79.752 187.644 191.033  1.00  0.00     0.211 HD
ENDBRANCH   6  13
BRANCH   7  15
ATOM     15  O   UNL     1      78.189 185.582 187.613  1.00  0.00    -0.385 OA
ATOM     16  H   UNL     1      77.725 186.458 187.681  1.00  0.00     0.211 HD
ENDBRANCH   7  15
ENDBRANCH   1   2
BRANCH   1  17
ATOM     17  C   UNL     1      81.729 183.615 189.296  1.00  0.00     0.224 C 
ATOM     18  C   UNL     1      82.344 182.400 190.022  1.00  0.00     0.208 C 
ATOM     19  O   UNL     1      81.318 183.148 188.028  1.00  0.00    -0.337 OA
ATOM     20  C   UNL     1      81.461 181.282 189.531  1.00  0.00     0.180 C 
ATOM     21  C   UNL     1      81.043 181.763 188.133  1.00  0.00     0.179 C 
BRANCH  17  22
ATOM     22  C   UNL     1      82.747 184.758 189.048  1.00  0.00     0.225 C 
BRANCH  22  23
ATOM     23  O   UNL     1      82.458 185.846 189.880  1.00  0.00    -0.391 OA
ATOM     24  H   UNL     1      81.525 186.113 189.673  1.00  0.00     0.210 HD
ENDBRANCH  22  23
ENDBRANCH  17  22
BRANCH  18  25
ATOM     25  O   UNL     1      83.670 182.175 189.604  1.00  0.00    -0.385 OA
ATOM     26  H   UNL     1      83.876 181.225 189.802  1.00  0.00     0.211 HD
ENDBRANCH  18  25
BRANCH  20  27
ATOM     27  O   UNL     1      82.128 180.044 189.515  1.00  0.00    -0.387 OA
ATOM     28  H   UNL     1      81.792 179.553 188.720  1.00  0.00     0.211 HD
ENDBRANCH  20  27
BRANCH  21  29
ATOM     29  C   UNL     1      81.753 181.027 186.988  1.00  0.00     0.191 C 
BRANCH  29  30
ATOM     30  O   UNL     1      83.087 181.449 186.913  1.00  0.00    -0.394 OA
ATOM     31  H   UNL     1      83.257 181.979 187.736  1.00  0.00     0.210 HD
ENDBRANCH  29  30
ENDBRANCH  21  29
ENDBRANCH   1  17
TORSDOF 13
ENDMDL
MODEL 4
REMARK VINA RESULT:    -5.360      1.427      5.551
REMARK INTER + INTRA:          -9.708
REMARK INTER:                  -8.058
REMARK INTRA:                  -1.650
REMARK UNBOUND:                -1.528
REMARK SMILES OC[C@@H]1O[C@H](O[C@]2(CO)O[C@@H](CO)[C@@H](O)[C@H]2O)[C@@H](O)[C@H](O)[C@H]1O
REMARK SMILES IDX 6 1 5 2 3 3 22 4 4 5 20 6 18 7 2 8 1 9 23 11 21 13 19 15
REMARK SMILES IDX 7 17 16 18 10 19 14 20 11 21 8 22 9 23 17 25 15 27 12 29
REMARK SMILES IDX 13 30
REMARK H PARENT 1 10 23 12 21 14 19 16 9 24 17 26 15 28 13 31
REMARK Flexibility Score: inf
ROOT
ATOM      1  O   UNL     1      80.621 184.590 189.645  1.00  0.00    -0.313 OA
ENDROOT
BRANCH   1   2
ATOM      2  C   UNL     1      79.733 185.503 189.010  1.00  0.00     0.285 C 
ATOM      3  C   UNL     1      77.718 184.285 189.476  1.00  0.00     0.178 C 
ATOM      4  C   UNL     1      77.264 185.320 190.535  1.00  0.00     0.177 C 
ATOM      5  O   UNL     1      78.600 184.819 188.489  1.00  0.00    -0.341 OA
ATOM      6  C   UNL     1      78.448 186.112 191.114  1.00  0.00     0.179 C 
ATOM      7  C   UNL     1      79.345 186.635 189.983  1.00  0.00     0.202 C 
BRANCH   3   8
ATOM      8  C   UNL     1      78.217 182.959 190.085  1.00  0.00     0.191 C 
BRANCH   8   9
ATOM      9  O   UNL     1      77.704 182.810 191.379  1.00  0.00    -0.394 OA
ATOM     10  H   UNL     1      76.749 183.069 191.330  1.00  0.00     0.210 HD
ENDBRANCH   8   9
ENDBRANCH   3   8
BRANCH   4  11
ATOM     11  O   UNL     1      76.345 186.203 189.938  1.00  0.00    -0.387 OA
ATOM     12  H   UNL     1      76.350 186.012 188.962  1.00  0.00     0.211 HD
ENDBRANCH   4  11
BRANCH   6  13
ATOM     13  O   UNL     1      79.183 185.299 191.994  1.00  0.00    -0.387 OA
ATOM     14  H   UNL     1      78.979 185.610 192.915  1.00  0.00     0.211 HD
ENDBRANCH   6  13
BRANCH   7  15
ATOM     15  O   UNL     1      78.671 187.655 189.288  1.00  0.00    -0.385 OA
ATOM     16  H   UNL     1      77.785 187.766 189.724  1.00  0.00     0.211 HD
ENDBRANCH   7  15
ENDBRANCH   1   2
BRANCH   1  17
ATOM     17  C   UNL     1      81.838 184.326 188.944  1.00  0.00     0.224 C 
ATOM     18  C   UNL     1      82.713 183.298 189.693  1.00  0.00     0.208 C 
ATOM     19  O   UNL     1      81.474 183.717 187.723  1.00  0.00    -0.337 OA
ATOM     20  C   UNL     1      82.048 182.003 189.302  1.00  0.00     0.180 C 
ATOM     21  C   UNL     1      81.484 182.314 187.908  1.00  0.00     0.179 C 
BRANCH  17  22
ATOM     22  C   UNL     1      82.599 185.631 188.590  1.00  0.00     0.225 C 
BRANCH  22  23
ATOM     23  O   UNL     1      83.210 186.155 189.735  1.00  0.00    -0.391 OA
ATOM     24  H   UNL     1      84.135 185.796 189.744  1.00  0.00     0.210 HD
ENDBRANCH  22  23
ENDBRANCH  17  22
BRANCH  18  25
ATOM     25  O   UNL     1      84.038 183.313 189.217  1.00  0.00    -0.385 OA
ATOM     26  H   UNL     1      84.254 184.256 188.999  1.00  0.00     0.211 HD
ENDBRANCH  18  25
BRANCH  20  27
ATOM     27  O   UNL     1      82.946 180.920 189.309  1.00  0.00    -0.387 OA
ATOM     28  H   UNL     1      83.255 180.805 188.373  1.00  0.00     0.211 HD
ENDBRANCH  20  27
BRANCH  21  29
ATOM     29  C   UNL     1      82.276 181.667 186.762  1.00  0.00     0.191 C 
BRANCH  29  30
ATOM     30  O   UNL     1      83.517 182.303 186.630  1.00  0.00    -0.394 OA
ATOM     31  H   UNL     1      84.129 181.853 187.272  1.00  0.00     0.210 HD
ENDBRANCH  29  30
ENDBRANCH  21  29
ENDBRANCH   1  17
TORSDOF 13
ENDMDL
MODEL 5
REMARK VINA RESULT:    -5.298      1.475      5.689
REMARK INTER + INTRA:          -9.614
REMARK INTER:                  -7.656
REMARK INTRA:                  -1.958
REMARK UNBOUND:                -1.528
REMARK SMILES OC[C@@H]1O[C@H](O[C@]2(CO)O[C@@H](CO)[C@@H](O)[C@H]2O)[C@@H](O)[C@H](O)[C@H]1O
REMARK SMILES IDX 6 1 5 2 3 3 22 4 4 5 20 6 18 7 2 8 1 9 23 11 21 13 19 15
REMARK SMILES IDX 7 17 16 18 10 19 14 20 11 21 8 22 9 23 17 25 15 27 12 29
REMARK SMILES IDX 13 30
REMARK H PARENT 1 10 23 12 21 14 19 16 9 24 17 26 15 28 13 31
REMARK Flexibility Score: inf
ROOT
ATOM      1  O   UNL     1      80.340 183.855 189.548  1.00  0.00    -0.313 OA
ENDROOT
BRANCH   1   2
ATOM      2  C   UNL     1      80.105 185.258 189.504  1.00  0.00     0.285 C 
ATOM      3  C   UNL     1      78.004 185.141 188.349  1.00  0.00     0.178 C 
ATOM      4  C   UNL     1      77.212 185.530 189.623  1.00  0.00     0.177 C 
ATOM      5  O   UNL     1      79.354 185.603 188.346  1.00  0.00    -0.341 OA
ATOM      6  C   UNL     1      77.990 185.205 190.909  1.00  0.00     0.179 C 
ATOM      7  C   UNL     1      79.430 185.727 190.809  1.00  0.00     0.202 C 
BRANCH   3   8
ATOM      8  C   UNL     1      77.869 183.653 187.971  1.00  0.00     0.191 C 
BRANCH   8   9
ATOM      9  O   UNL     1      78.771 183.342 186.946  1.00  0.00    -0.394 OA
ATOM     10  H   UNL     1      79.170 184.202 186.657  1.00  0.00     0.210 HD
ENDBRANCH   8   9
ENDBRANCH   3   8
BRANCH   4  11
ATOM     11  O   UNL     1      76.927 186.907 189.574  1.00  0.00    -0.387 OA
ATOM     12  H   UNL     1      77.768 187.370 189.315  1.00  0.00     0.211 HD
ENDBRANCH   4  11
BRANCH   6  13
ATOM     13  O   UNL     1      77.981 183.817 191.136  1.00  0.00    -0.387 OA
ATOM     14  H   UNL     1      77.143 183.610 191.627  1.00  0.00     0.211 HD
ENDBRANCH   6  13
BRANCH   7  15
ATOM     15  O   UNL     1      79.421 187.132 190.866  1.00  0.00    -0.385 OA
ATOM     16  H   UNL     1      78.514 187.427 190.587  1.00  0.00     0.211 HD
ENDBRANCH   7  15
ENDBRANCH   1   2
BRANCH   1  17
ATOM     17  C   UNL     1      81.676 183.444 189.251  1.00  0.00     0.224 C 
ATOM     18  C   UNL     1      82.090 182.212 190.084  1.00  0.00     0.208 C 
ATOM     19  O   UNL     1      81.677 183.025 187.902  1.00  0.00    -0.337 OA
ATOM     20  C   UNL     1      81.431 181.098 189.311  1.00  0.00     0.180 C 
ATOM     21  C   UNL     1      81.431 181.631 187.871  1.00  0.00     0.179 C 
BRANCH  17  22
ATOM     22  C   UNL     1      82.682 184.619 189.359  1.00  0.00     0.225 C 
BRANCH  22  23
ATOM     23  O   UNL     1      83.860 184.308 188.670  1.00  0.00    -0.391 OA
ATOM     24  H   UNL     1      84.531 184.983 188.948  1.00  0.00     0.210 HD
ENDBRANCH  22  23
ENDBRANCH  17  22
BRANCH  18  25
ATOM     25  O   UNL     1      83.487 182.035 190.072  1.00  0.00    -0.385 OA
ATOM     26  H   UNL     1      83.885 182.909 189.822  1.00  0.00     0.211 HD
ENDBRANCH  18  25
BRANCH  20  27
ATOM     27  O   UNL     1      82.115 179.876 189.451  1.00  0.00    -0.387 OA
ATOM     28  H   UNL     1      81.798 179.291 188.714  1.00  0.00     0.211 HD
ENDBRANCH  20  27
BRANCH  21  29
ATOM     29  C   UNL     1      82.474 180.962 186.964  1.00  0.00     0.191 C 
BRANCH  29  30
ATOM     30  O   UNL     1      83.744 181.484 187.242  1.00  0.00    -0.394 OA
ATOM     31  H   UNL     1      84.121 181.775 186.370  1.00  0.00     0.210 HD
ENDBRANCH  29  30
ENDBRANCH  21  29
ENDBRANCH   1  17
TORSDOF 13
ENDMDL
MODEL 6
REMARK VINA RESULT:    -5.298      1.548      6.001
REMARK INTER + INTRA:          -9.613
REMARK INTER:                  -8.036
REMARK INTRA:                  -1.577
REMARK UNBOUND:                -1.528
REMARK SMILES OC[C@@H]1O[C@H](O[C@]2(CO)O[C@@H](CO)[C@@H](O)[C@H]2O)[C@@H](O)[C@H](O)[C@H]1O
REMARK SMILES IDX 6 1 5 2 3 3 22 4 4 5 20 6 18 7 2 8 1 9 23 11 21 13 19 15
REMARK SMILES IDX 7 17 16 18 10 19 14 20 11 21 8 22 9 23 17 25 15 27 12 29
REMARK SMILES IDX 13 30
REMARK H PARENT 1 10 23 12 21 14 19 16 9 24 17 26 15 28 13 31
REMARK Flexibility Score: inf
ROOT
ATOM      1  O   UNL     1      80.550 183.375 188.829  1.00  0.00    -0.313 OA
ENDROOT
BRANCH   1   2
ATOM      2  C   UNL     1      79.980 183.711 190.089  1.00  0.00     0.285 C 
ATOM      3  C   UNL     1      80.758 185.980 190.140  1.00  0.00     0.178 C 
ATOM      4  C   UNL     1      79.337 186.539 189.883  1.00  0.00     0.177 C 
ATOM      5  O   UNL     1      80.770 184.691 190.751  1.00  0.00    -0.341 OA
ATOM      6  C   UNL     1      78.427 185.509 189.193  1.00  0.00     0.179 C 
ATOM      7  C   UNL     1      78.513 184.154 189.910  1.00  0.00     0.202 C 
BRANCH   3   8
ATOM      8  C   UNL     1      81.690 186.081 188.916  1.00  0.00     0.191 C 
BRANCH   8   9
ATOM      9  O   UNL     1      82.552 187.175 189.066  1.00  0.00    -0.394 OA
ATOM     10  H   UNL     1      83.472 186.807 189.048  1.00  0.00     0.210 HD
ENDBRANCH   8   9
ENDBRANCH   3   8
BRANCH   4  11
ATOM     11  O   UNL     1      78.774 186.923 191.115  1.00  0.00    -0.387 OA
ATOM     12  H   UNL     1      78.685 187.913 191.098  1.00  0.00     0.211 HD
ENDBRANCH   4  11
BRANCH   6  13
ATOM     13  O   UNL     1      78.791 185.379 187.841  1.00  0.00    -0.387 OA
ATOM     14  H   UNL     1      78.070 184.861 187.396  1.00  0.00     0.211 HD
ENDBRANCH   6  13
BRANCH   7  15
ATOM     15  O   UNL     1      77.884 184.250 191.164  1.00  0.00    -0.385 OA
ATOM     16  H   UNL     1      76.907 184.308 190.993  1.00  0.00     0.211 HD
ENDBRANCH   7  15
ENDBRANCH   1   2
BRANCH   1  17
ATOM     17  C   UNL     1      81.286 182.150 188.793  1.00  0.00     0.224 C 
ATOM     18  C   UNL     1      81.788 181.832 187.368  1.00  0.00     0.208 C 
ATOM     19  O   UNL     1      82.441 182.352 189.580  1.00  0.00    -0.337 OA
ATOM     20  C   UNL     1      83.002 182.722 187.276  1.00  0.00     0.180 C 
ATOM     21  C   UNL     1      83.484 182.797 188.733  1.00  0.00     0.179 C 
BRANCH  17  22
ATOM     22  C   UNL     1      80.498 180.980 189.437  1.00  0.00     0.225 C 
BRANCH  22  23
ATOM     23  O   UNL     1      81.371 180.149 190.149  1.00  0.00    -0.391 OA
ATOM     24  H   UNL     1      81.793 180.720 190.842  1.00  0.00     0.210 HD
ENDBRANCH  22  23
ENDBRANCH  17  22
BRANCH  18  25
ATOM     25  O   UNL     1      82.179 180.484 187.255  1.00  0.00    -0.385 OA
ATOM     26  H   UNL     1      81.983 180.054 188.127  1.00  0.00     0.211 HD
ENDBRANCH  18  25
BRANCH  20  27
ATOM     27  O   UNL     1      83.972 182.209 186.396  1.00  0.00    -0.387 OA
ATOM     28  H   UNL     1      83.592 182.285 185.483  1.00  0.00     0.211 HD
ENDBRANCH  20  27
BRANCH  21  29
ATOM     29  C   UNL     1      84.742 181.962 189.012  1.00  0.00     0.191 C 
BRANCH  29  30
ATOM     30  O   UNL     1      84.405 180.603 189.054  1.00  0.00    -0.394 OA
ATOM     31  H   UNL     1      83.528 180.521 188.593  1.00  0.00     0.210 HD
ENDBRANCH  29  30
ENDBRANCH  21  29
ENDBRANCH   1  17
TORSDOF 13
ENDMDL
MODEL 7
REMARK VINA RESULT:    -5.267     11.956     13.490
REMARK INTER + INTRA:          -9.565
REMARK INTER:                  -7.842
REMARK INTRA:                  -1.724
REMARK UNBOUND:                -1.528
REMARK SMILES OC[C@@H]1O[C@H](O[C@]2(CO)O[C@@H](CO)[C@@H](O)[C@H]2O)[C@@H](O)[C@H](O)[C@H]1O
REMARK SMILES IDX 6 1 5 2 3 3 22 4 4 5 20 6 18 7 2 8 1 9 23 11 21 13 19 15
REMARK SMILES IDX 7 17 16 18 10 19 14 20 11 21 8 22 9 23 17 25 15 27 12 29
REMARK SMILES IDX 13 30
REMARK H PARENT 1 10 23 12 21 14 19 16 9 24 17 26 15 28 13 31
REMARK Flexibility Score: inf
ROOT
ATOM      1  O   UNL     1      85.795 174.105 196.210  1.00  0.00    -0.313 OA
ENDROOT
BRANCH   1   2
ATOM      2  C   UNL     1      84.773 174.155 195.220  1.00  0.00     0.285 C 
ATOM      3  C   UNL     1      86.234 174.016 193.320  1.00  0.00     0.178 C 
ATOM      4  C   UNL     1      85.799 172.561 193.015  1.00  0.00     0.177 C 
ATOM      5  O   UNL     1      85.256 174.772 194.033  1.00  0.00    -0.341 OA
ATOM      6  C   UNL     1      85.240 171.851 194.259  1.00  0.00     0.179 C 
ATOM      7  C   UNL     1      84.209 172.742 194.965  1.00  0.00     0.202 C 
BRANCH   3   8
ATOM      8  C   UNL     1      87.646 174.121 193.929  1.00  0.00     0.191 C 
BRANCH   8   9
ATOM      9  O   UNL     1      87.942 175.461 194.210  1.00  0.00    -0.394 OA
ATOM     10  H   UNL     1      87.451 176.000 193.537  1.00  0.00     0.210 HD
ENDBRANCH   8   9
ENDBRANCH   3   8
BRANCH   4  11
ATOM     11  O   UNL     1      84.823 172.586 192.001  1.00  0.00    -0.387 OA
ATOM     12  H   UNL     1      84.017 172.129 192.362  1.00  0.00     0.211 HD
ENDBRANCH   4  11
BRANCH   6  13
ATOM     13  O   UNL     1      86.291 171.520 195.133  1.00  0.00    -0.387 OA
ATOM     14  H   UNL     1      86.580 172.364 195.570  1.00  0.00     0.211 HD
ENDBRANCH   6  13
BRANCH   7  15
ATOM     15  O   UNL     1      83.047 172.825 194.176  1.00  0.00    -0.385 OA
ATOM     16  H   UNL     1      83.170 172.199 193.414  1.00  0.00     0.211 HD
ENDBRANCH   7  15
ENDBRANCH   1   2
BRANCH   1  17
ATOM     17  C   UNL     1      85.612 174.976 197.328  1.00  0.00     0.224 C 
ATOM     18  C   UNL     1      84.197 174.836 197.930  1.00  0.00     0.208 C 
ATOM     19  O   UNL     1      86.509 174.539 198.328  1.00  0.00    -0.337 OA
ATOM     20  C   UNL     1      84.348 173.585 198.756  1.00  0.00     0.180 C 
ATOM     21  C   UNL     1      85.830 173.617 199.160  1.00  0.00     0.179 C 
BRANCH  17  22
ATOM     22  C   UNL     1      85.989 176.442 196.991  1.00  0.00     0.225 C 
BRANCH  22  23
ATOM     23  O   UNL     1      86.486 177.083 198.132  1.00  0.00    -0.391 OA
ATOM     24  H   UNL     1      87.392 177.410 197.893  1.00  0.00     0.210 HD
ENDBRANCH  22  23
ENDBRANCH  17  22
BRANCH  18  25
ATOM     25  O   UNL     1      83.891 175.924 198.770  1.00  0.00    -0.385 OA
ATOM     26  H   UNL     1      83.283 176.519 198.260  1.00  0.00     0.211 HD
ENDBRANCH  18  25
BRANCH  20  27
ATOM     27  O   UNL     1      83.473 173.564 199.857  1.00  0.00    -0.387 OA
ATOM     28  H   UNL     1      84.000 173.869 200.641  1.00  0.00     0.211 HD
ENDBRANCH  20  27
BRANCH  21  29
ATOM     29  C   UNL     1      86.062 174.007 200.628  1.00  0.00     0.191 C 
BRANCH  29  30
ATOM     30  O   UNL     1      86.095 175.403 200.744  1.00  0.00    -0.394 OA
ATOM     31  H   UNL     1      86.221 175.754 199.823  1.00  0.00     0.210 HD
ENDBRANCH  29  30
ENDBRANCH  21  29
ENDBRANCH   1  17
TORSDOF 13
ENDMDL
MODEL 8
REMARK VINA RESULT:    -5.162     11.901     13.747
REMARK INTER + INTRA:          -9.406
REMARK INTER:                  -7.601
REMARK INTRA:                  -1.805
REMARK UNBOUND:                -1.528
REMARK SMILES OC[C@@H]1O[C@H](O[C@]2(CO)O[C@@H](CO)[C@@H](O)[C@H]2O)[C@@H](O)[C@H](O)[C@H]1O
REMARK SMILES IDX 6 1 5 2 3 3 22 4 4 5 20 6 18 7 2 8 1 9 23 11 21 13 19 15
REMARK SMILES IDX 7 17 16 18 10 19 14 20 11 21 8 22 9 23 17 25 15 27 12 29
REMARK SMILES IDX 13 30
REMARK H PARENT 1 10 23 12 21 14 19 16 9 24 17 26 15 28 13 31
REMARK Flexibility Score: inf
ROOT
ATOM      1  O   UNL     1      84.672 173.748 196.474  1.00  0.00    -0.313 OA
ENDROOT
BRANCH   1   2
ATOM      2  C   UNL     1      85.371 173.786 195.235  1.00  0.00     0.285 C 
ATOM      3  C   UNL     1      85.602 171.410 194.985  1.00  0.00     0.178 C 
ATOM      4  C   UNL     1      84.553 171.365 193.847  1.00  0.00     0.177 C 
ATOM      5  O   UNL     1      86.251 172.674 195.122  1.00  0.00    -0.341 OA
ATOM      6  C   UNL     1      83.590 172.562 193.901  1.00  0.00     0.179 C 
ATOM      7  C   UNL     1      84.374 173.872 194.061  1.00  0.00     0.202 C 
BRANCH   3   8
ATOM      8  C   UNL     1      85.085 170.844 196.322  1.00  0.00     0.191 C 
BRANCH   8   9
ATOM      9  O   UNL     1      85.988 171.150 197.348  1.00  0.00    -0.394 OA
ATOM     10  H   UNL     1      86.249 170.284 197.755  1.00  0.00     0.210 HD
ENDBRANCH   8   9
ENDBRANCH   3   8
BRANCH   4  11
ATOM     11  O   UNL     1      85.228 171.352 192.612  1.00  0.00    -0.387 OA
ATOM     12  H   UNL     1      86.072 170.843 192.747  1.00  0.00     0.211 HD
ENDBRANCH   4  11
BRANCH   6  13
ATOM     13  O   UNL     1      82.679 172.397 194.960  1.00  0.00    -0.387 OA
ATOM     14  H   UNL     1      83.216 172.282 195.787  1.00  0.00     0.211 HD
ENDBRANCH   6  13
BRANCH   7  15
ATOM     15  O   UNL     1      85.061 174.153 192.867  1.00  0.00    -0.385 OA
ATOM     16  H   UNL     1      85.732 174.854 193.077  1.00  0.00     0.211 HD
ENDBRANCH   7  15
ENDBRANCH   1   2
BRANCH   1  17
ATOM     17  C   UNL     1      85.026 174.766 197.412  1.00  0.00     0.224 C 
ATOM     18  C   UNL     1      83.875 175.054 198.399  1.00  0.00     0.208 C 
ATOM     19  O   UNL     1      86.087 174.245 198.187  1.00  0.00    -0.337 OA
ATOM     20  C   UNL     1      84.027 173.913 199.373  1.00  0.00     0.180 C 
ATOM     21  C   UNL     1      85.535 173.627 199.335  1.00  0.00     0.179 C 
BRANCH  17  22
ATOM     22  C   UNL     1      85.562 176.041 196.711  1.00  0.00     0.225 C 
BRANCH  22  23
ATOM     23  O   UNL     1      86.296 176.814 197.618  1.00  0.00    -0.391 OA
ATOM     24  H   UNL     1      87.236 176.504 197.549  1.00  0.00     0.210 HD
ENDBRANCH  22  23
ENDBRANCH  17  22
BRANCH  18  25
ATOM     25  O   UNL     1      84.071 176.277 199.069  1.00  0.00    -0.385 OA
ATOM     26  H   UNL     1      84.798 176.129 199.728  1.00  0.00     0.211 HD
ENDBRANCH  18  25
BRANCH  20  27
ATOM     27  O   UNL     1      83.556 174.242 200.657  1.00  0.00    -0.387 OA
ATOM     28  H   UNL     1      83.820 173.494 201.253  1.00  0.00     0.211 HD
ENDBRANCH  20  27
BRANCH  21  29
ATOM     29  C   UNL     1      86.290 174.123 200.577  1.00  0.00     0.191 C 
BRANCH  29  30
ATOM     30  O   UNL     1      86.291 175.523 200.600  1.00  0.00    -0.394 OA
ATOM     31  H   UNL     1      85.337 175.801 200.556  1.00  0.00     0.210 HD
ENDBRANCH  29  30
ENDBRANCH  21  29
ENDBRANCH   1  17
TORSDOF 13
ENDMDL
MODEL 9
REMARK VINA RESULT:    -5.069      1.669      3.224
REMARK INTER + INTRA:          -9.264
REMARK INTER:                  -7.484
REMARK INTRA:                  -1.780
REMARK UNBOUND:                -1.528
REMARK SMILES OC[C@@H]1O[C@H](O[C@]2(CO)O[C@@H](CO)[C@@H](O)[C@H]2O)[C@@H](O)[C@H](O)[C@H]1O
REMARK SMILES IDX 6 1 5 2 3 3 22 4 4 5 20 6 18 7 2 8 1 9 23 11 21 13 19 15
REMARK SMILES IDX 7 17 16 18 10 19 14 20 11 21 8 22 9 23 17 25 15 27 12 29
REMARK SMILES IDX 13 30
REMARK H PARENT 1 10 23 12 21 14 19 16 9 24 17 26 15 28 13 31
REMARK Flexibility Score: inf
ROOT
ATOM      1  O   UNL     1      80.556 183.107 188.892  1.00  0.00    -0.313 OA
ENDROOT
BRANCH   1   2
ATOM      2  C   UNL     1      80.905 182.432 187.688  1.00  0.00     0.285 C 
ATOM      3  C   UNL     1      83.270 182.811 187.845  1.00  0.00     0.178 C 
ATOM      4  C   UNL     1      83.546 181.328 188.196  1.00  0.00     0.177 C 
ATOM      5  O   UNL     1      82.065 183.014 187.107  1.00  0.00    -0.341 OA
ATOM      6  C   UNL     1      82.314 180.638 188.803  1.00  0.00     0.179 C 
ATOM      7  C   UNL     1      81.069 180.921 187.951  1.00  0.00     0.202 C 
BRANCH   3   8
ATOM      8  C   UNL     1      83.414 183.766 189.047  1.00  0.00     0.191 C 
BRANCH   8   9
ATOM      9  O   UNL     1      82.859 185.012 188.732  1.00  0.00    -0.394 OA
ATOM     10  H   UNL     1      82.818 185.054 187.742  1.00  0.00     0.210 HD
ENDBRANCH   8   9
ENDBRANCH   3   8
BRANCH   4  11
ATOM     11  O   UNL     1      83.942 180.655 187.025  1.00  0.00    -0.387 OA
ATOM     12  H   UNL     1      83.534 179.749 187.058  1.00  0.00     0.211 HD
ENDBRANCH   4  11
BRANCH   6  13
ATOM     13  O   UNL     1      82.121 181.078 190.125  1.00  0.00    -0.387 OA
ATOM     14  H   UNL     1      81.818 180.292 190.650  1.00  0.00     0.211 HD
ENDBRANCH   6  13
BRANCH   7  15
ATOM     15  O   UNL     1      81.172 180.230 186.731  1.00  0.00    -0.385 OA
ATOM     16  H   UNL     1      82.058 180.458 186.344  1.00  0.00     0.211 HD
ENDBRANCH   7  15
ENDBRANCH   1   2
BRANCH   1  17
ATOM     17  C   UNL     1      79.394 183.936 188.819  1.00  0.00     0.224 C 
ATOM     18  C   UNL     1      78.418 183.650 189.980  1.00  0.00     0.208 C 
ATOM     19  O   UNL     1      79.838 185.265 188.998  1.00  0.00    -0.337 OA
ATOM     20  C   UNL     1      79.062 184.418 191.105  1.00  0.00     0.180 C 
ATOM     21  C   UNL     1      79.756 185.578 190.376  1.00  0.00     0.179 C 
BRANCH  17  22
ATOM     22  C   UNL     1      78.719 183.869 187.424  1.00  0.00     0.225 C 
BRANCH  22  23
ATOM     23  O   UNL     1      78.190 185.120 187.087  1.00  0.00    -0.391 OA
ATOM     24  H   UNL     1      77.644 184.979 186.270  1.00  0.00     0.210 HD
ENDBRANCH  22  23
ENDBRANCH  17  22
BRANCH  18  25
ATOM     25  O   UNL     1      77.141 184.180 189.715  1.00  0.00    -0.385 OA
ATOM     26  H   UNL     1      76.480 183.516 190.042  1.00  0.00     0.211 HD
ENDBRANCH  18  25
BRANCH  20  27
ATOM     27  O   UNL     1      78.125 184.846 192.063  1.00  0.00    -0.387 OA
ATOM     28  H   UNL     1      78.324 185.802 192.244  1.00  0.00     0.211 HD
ENDBRANCH  20  27
BRANCH  21  29
ATOM     29  C   UNL     1      79.041 186.927 190.538  1.00  0.00     0.191 C 
BRANCH  29  30
ATOM     30  O   UNL     1      78.518 187.334 189.304  1.00  0.00    -0.394 OA
ATOM     31  H   UNL     1      78.175 188.257 189.440  1.00  0.00     0.210 HD
ENDBRANCH  29  30
ENDBRANCH  21  29
ENDBRANCH   1  17
TORSDOF 13
ENDMDL
