MODEL 1
REMARK VINA RESULT:    -4.122      0.000      0.000
REMARK INTER + INTRA:         -10.082
REMARK INTER:                  -7.736
REMARK INTRA:                  -2.346
REMARK UNBOUND:                -2.346
REMARK SMILES CCCCCCCCC=CCCCCCCCC(=O)[O-]
REMARK SMILES IDX 10 1 9 2 11 3 12 4 13 5 14 6 15 7 16 8 17 9 18 10 19 11
REMARK SMILES IDX 20 12 8 13 7 14 6 15 5 16 4 17 3 18 2 19 1 20
REMARK H PARENT
REMARK Flexibility Score: inf
ROOT
ATOM      1  C   UNL     1       5.271  -0.588 404.245  1.00  0.00    -0.031 C 
ATOM      2  C   UNL     1       5.471   0.721 404.004  1.00  0.00    -0.031 C 
ENDROOT
BRANCH   1   3
ATOM      3  C   UNL     1       3.989  -1.326 403.953  1.00  0.00     0.027 C 
BRANCH   3   4
ATOM      4  C   UNL     1       3.337  -1.816 405.254  1.00  0.00     0.004 C 
BRANCH   4   5
ATOM      5  C   UNL     1       2.904  -3.288 405.181  1.00  0.00     0.000 C 
BRANCH   5   6
ATOM      6  C   UNL     1       3.268  -3.945 403.840  1.00  0.00     0.000 C 
BRANCH   6   7
ATOM      7  C   UNL     1       4.483  -4.873 403.997  1.00  0.00     0.000 C 
BRANCH   7   8
ATOM      8  C   UNL     1       5.002  -5.409 402.650  1.00  0.00     0.006 C 
BRANCH   8   9
ATOM      9  C   UNL     1       3.950  -6.163 401.821  1.00  0.00     0.053 C 
BRANCH   9  10
ATOM     10  C   UNL     1       4.049  -7.646 402.007  1.00  0.00     0.041 C 
ATOM     11  O   UNL     1       4.402  -8.124 403.118  1.00  0.00    -0.550 OA
ATOM     12  O   UNL     1       3.783  -8.500 400.944  1.00  0.00    -0.550 OA
ENDBRANCH   9  10
ENDBRANCH   8   9
ENDBRANCH   7   8
ENDBRANCH   6   7
ENDBRANCH   5   6
ENDBRANCH   4   5
ENDBRANCH   3   4
ENDBRANCH   1   3
BRANCH   2  13
ATOM     13  C   UNL     1       4.415   1.670 403.491  1.00  0.00     0.027 C 
BRANCH  13  14
ATOM     14  C   UNL     1       4.923   2.508 402.308  1.00  0.00     0.004 C 
BRANCH  14  15
ATOM     15  C   UNL     1       4.072   2.303 401.046  1.00  0.00     0.000 C 
BRANCH  15  16
ATOM     16  C   UNL     1       3.387   0.932 401.063  1.00  0.00     0.000 C 
BRANCH  16  17
ATOM     17  C   UNL     1       3.960   0.016 399.970  1.00  0.00    -0.000 C 
BRANCH  17  18
ATOM     18  C   UNL     1       5.226  -0.732 400.438  1.00  0.00    -0.000 C 
BRANCH  18  19
ATOM     19  C   UNL     1       5.034  -2.254 400.551  1.00  0.00    -0.003 C 
ATOM     20  C   UNL     1       3.580  -2.689 400.384  1.00  0.00     0.004 C 
ENDBRANCH  18  19
ENDBRANCH  17  18
ENDBRANCH  16  17
ENDBRANCH  15  16
ENDBRANCH  14  15
ENDBRANCH  13  14
ENDBRANCH   2  13
TORSDOF 15
ENDMDL
MODEL 2
REMARK VINA RESULT:    -4.096      1.019      3.895
REMARK INTER + INTRA:         -10.034
REMARK INTER:                  -7.795
REMARK INTRA:                  -2.240
REMARK UNBOUND:                -2.346
REMARK SMILES CCCCCCCCC=CCCCCCCCC(=O)[O-]
REMARK SMILES IDX 10 1 9 2 11 3 12 4 13 5 14 6 15 7 16 8 17 9 18 10 19 11
REMARK SMILES IDX 20 12 8 13 7 14 6 15 5 16 4 17 3 18 2 19 1 20
REMARK H PARENT
REMARK Flexibility Score: inf
ROOT
ATOM      1  C   UNL     1       4.150   1.542 400.532  1.00  0.00    -0.031 C 
ATOM      2  C   UNL     1       3.836   2.266 401.623  1.00  0.00    -0.031 C 
ENDROOT
BRANCH   1   3
ATOM      3  C   UNL     1       5.481   0.872 400.302  1.00  0.00     0.027 C 
BRANCH   3   4
ATOM      4  C   UNL     1       5.305  -0.647 400.156  1.00  0.00     0.004 C 
BRANCH   4   5
ATOM      5  C   UNL     1       3.831  -1.077 400.190  1.00  0.00     0.000 C 
BRANCH   5   6
ATOM      6  C   UNL     1       3.647  -2.581 399.936  1.00  0.00     0.000 C 
BRANCH   6   7
ATOM      7  C   UNL     1       3.454  -3.340 401.259  1.00  0.00     0.000 C 
BRANCH   7   8
ATOM      8  C   UNL     1       4.674  -4.201 401.636  1.00  0.00     0.006 C 
BRANCH   8   9
ATOM      9  C   UNL     1       4.480  -5.050 402.903  1.00  0.00     0.053 C 
BRANCH   9  10
ATOM     10  C   UNL     1       4.443  -6.516 402.593  1.00  0.00     0.041 C 
ATOM     11  O   UNL     1       4.426  -7.360 403.527  1.00  0.00    -0.550 OA
ATOM     12  O   UNL     1       4.458  -6.948 401.273  1.00  0.00    -0.550 OA
ENDBRANCH   9  10
ENDBRANCH   8   9
ENDBRANCH   7   8
ENDBRANCH   6   7
ENDBRANCH   5   6
ENDBRANCH   4   5
ENDBRANCH   3   4
ENDBRANCH   1   3
BRANCH   2  13
ATOM     13  C   UNL     1       4.798   2.594 402.739  1.00  0.00     0.027 C 
BRANCH  13  14
ATOM     14  C   UNL     1       4.675   1.608 403.911  1.00  0.00     0.004 C 
BRANCH  14  15
ATOM     15  C   UNL     1       5.963   0.800 404.125  1.00  0.00     0.000 C 
BRANCH  15  16
ATOM     16  C   UNL     1       5.774  -0.659 403.694  1.00  0.00     0.000 C 
BRANCH  16  17
ATOM     17  C   UNL     1       5.029  -1.461 404.773  1.00  0.00    -0.000 C 
BRANCH  17  18
ATOM     18  C   UNL     1       3.574  -1.774 404.368  1.00  0.00    -0.000 C 
BRANCH  18  19
ATOM     19  C   UNL     1       2.796  -2.568 405.432  1.00  0.00    -0.003 C 
ATOM     20  C   UNL     1       3.351  -2.381 406.843  1.00  0.00     0.004 C 
ENDBRANCH  18  19
ENDBRANCH  17  18
ENDBRANCH  16  17
ENDBRANCH  15  16
ENDBRANCH  14  15
ENDBRANCH  13  14
ENDBRANCH   2  13
TORSDOF 15
ENDMDL
MODEL 3
REMARK VINA RESULT:    -4.095      1.578      2.580
REMARK INTER + INTRA:         -10.033
REMARK INTER:                  -7.164
REMARK INTRA:                  -2.868
REMARK UNBOUND:                -2.346
REMARK SMILES CCCCCCCCC=CCCCCCCCC(=O)[O-]
REMARK SMILES IDX 10 1 9 2 11 3 12 4 13 5 14 6 15 7 16 8 17 9 18 10 19 11
REMARK SMILES IDX 20 12 8 13 7 14 6 15 5 16 4 17 3 18 2 19 1 20
REMARK H PARENT
REMARK Flexibility Score: inf
ROOT
ATOM      1  C   UNL     1       6.585   1.706 403.365  1.00  0.00    -0.031 C 
ATOM      2  C   UNL     1       5.659   2.585 402.936  1.00  0.00    -0.031 C 
ENDROOT
BRANCH   1   3
ATOM      3  C   UNL     1       6.374   0.216 403.456  1.00  0.00     0.027 C 
BRANCH   3   4
ATOM      4  C   UNL     1       6.282  -0.229 404.923  1.00  0.00     0.004 C 
BRANCH   4   5
ATOM      5  C   UNL     1       5.058  -1.117 405.194  1.00  0.00     0.000 C 
BRANCH   5   6
ATOM      6  C   UNL     1       4.086  -1.165 404.005  1.00  0.00     0.000 C 
BRANCH   6   7
ATOM      7  C   UNL     1       3.691  -2.614 403.679  1.00  0.00     0.000 C 
BRANCH   7   8
ATOM      8  C   UNL     1       4.578  -3.243 402.589  1.00  0.00     0.006 C 
BRANCH   8   9
ATOM      9  C   UNL     1       3.826  -4.171 401.620  1.00  0.00     0.053 C 
BRANCH   9  10
ATOM     10  C   UNL     1       4.379  -5.563 401.635  1.00  0.00     0.041 C 
ATOM     11  O   UNL     1       3.644  -6.534 401.956  1.00  0.00    -0.550 OA
ATOM     12  O   UNL     1       5.715  -5.784 401.325  1.00  0.00    -0.550 OA
ENDBRANCH   9  10
ENDBRANCH   8   9
ENDBRANCH   7   8
ENDBRANCH   6   7
ENDBRANCH   5   6
ENDBRANCH   4   5
ENDBRANCH   3   4
ENDBRANCH   1   3
BRANCH   2  13
ATOM     13  C   UNL     1       4.240   2.224 402.570  1.00  0.00     0.027 C 
BRANCH  13  14
ATOM     14  C   UNL     1       3.849   2.765 401.186  1.00  0.00     0.004 C 
BRANCH  14  15
ATOM     15  C   UNL     1       3.209   1.685 400.302  1.00  0.00     0.000 C 
BRANCH  15  16
ATOM     16  C   UNL     1       3.494   0.284 400.853  1.00  0.00     0.000 C 
BRANCH  16  17
ATOM     17  C   UNL     1       4.238  -0.575 399.818  1.00  0.00    -0.000 C 
BRANCH  17  18
ATOM     18  C   UNL     1       5.754  -0.640 400.093  1.00  0.00    -0.000 C 
BRANCH  18  19
ATOM     19  C   UNL     1       6.536   0.553 399.517  1.00  0.00    -0.003 C 
ATOM     20  C   UNL     1       7.968   0.639 400.040  1.00  0.00     0.004 C 
ENDBRANCH  18  19
ENDBRANCH  17  18
ENDBRANCH  16  17
ENDBRANCH  15  16
ENDBRANCH  14  15
ENDBRANCH  13  14
ENDBRANCH   2  13
TORSDOF 15
ENDMDL
MODEL 4
REMARK VINA RESULT:    -4.029      2.354      4.311
REMARK INTER + INTRA:          -9.908
REMARK INTER:                  -7.279
REMARK INTRA:                  -2.629
REMARK UNBOUND:                -2.346
REMARK SMILES CCCCCCCCC=CCCCCCCCC(=O)[O-]
REMARK SMILES IDX 10 1 9 2 11 3 12 4 13 5 14 6 15 7 16 8 17 9 18 10 19 11
REMARK SMILES IDX 20 12 8 13 7 14 6 15 5 16 4 17 3 18 2 19 1 20
REMARK H PARENT
REMARK Flexibility Score: inf
ROOT
ATOM      1  C   UNL     1       5.153   0.112 400.145  1.00  0.00    -0.031 C 
ATOM      2  C   UNL     1       5.165   1.434 400.400  1.00  0.00    -0.031 C 
ENDROOT
BRANCH   1   3
ATOM      3  C   UNL     1       3.926  -0.761 400.214  1.00  0.00     0.027 C 
BRANCH   3   4
ATOM      4  C   UNL     1       4.316  -2.247 400.194  1.00  0.00     0.004 C 
BRANCH   4   5
ATOM      5  C   UNL     1       3.252  -3.146 400.839  1.00  0.00     0.000 C 
BRANCH   5   6
ATOM      6  C   UNL     1       3.859  -4.367 401.548  1.00  0.00     0.000 C 
BRANCH   6   7
ATOM      7  C   UNL     1       4.171  -4.047 403.019  1.00  0.00     0.000 C 
BRANCH   7   8
ATOM      8  C   UNL     1       3.324  -2.886 403.570  1.00  0.00     0.006 C 
BRANCH   8   9
ATOM      9  C   UNL     1       2.508  -3.239 404.825  1.00  0.00     0.053 C 
BRANCH   9  10
ATOM     10  C   UNL     1       3.331  -3.142 406.073  1.00  0.00     0.041 C 
ATOM     11  O   UNL     1       4.050  -4.110 406.435  1.00  0.00    -0.550 OA
ATOM     12  O   UNL     1       3.279  -1.993 406.852  1.00  0.00    -0.550 OA
ENDBRANCH   9  10
ENDBRANCH   8   9
ENDBRANCH   7   8
ENDBRANCH   6   7
ENDBRANCH   5   6
ENDBRANCH   4   5
ENDBRANCH   3   4
ENDBRANCH   1   3
BRANCH   2  13
ATOM     13  C   UNL     1       3.974   2.226 400.882  1.00  0.00     0.027 C 
BRANCH  13  14
ATOM     14  C   UNL     1       3.963   2.371 402.412  1.00  0.00     0.004 C 
BRANCH  14  15
ATOM     15  C   UNL     1       5.376   2.546 402.986  1.00  0.00     0.000 C 
BRANCH  15  16
ATOM     16  C   UNL     1       5.542   1.752 404.286  1.00  0.00     0.000 C 
BRANCH  16  17
ATOM     17  C   UNL     1       5.068   0.300 404.111  1.00  0.00    -0.000 C 
BRANCH  17  18
ATOM     18  C   UNL     1       6.197  -0.719 404.367  1.00  0.00    -0.000 C 
BRANCH  18  19
ATOM     19  C   UNL     1       6.722  -1.391 403.087  1.00  0.00    -0.003 C 
ATOM     20  C   UNL     1       7.905  -0.652 402.465  1.00  0.00     0.004 C 
ENDBRANCH  18  19
ENDBRANCH  17  18
ENDBRANCH  16  17
ENDBRANCH  15  16
ENDBRANCH  14  15
ENDBRANCH  13  14
ENDBRANCH   2  13
TORSDOF 15
ENDMDL
MODEL 5
REMARK VINA RESULT:    -4.024      3.134      5.789
REMARK INTER + INTRA:          -9.898
REMARK INTER:                  -7.276
REMARK INTRA:                  -2.622
REMARK UNBOUND:                -2.346
REMARK SMILES CCCCCCCCC=CCCCCCCCC(=O)[O-]
REMARK SMILES IDX 10 1 9 2 11 3 12 4 13 5 14 6 15 7 16 8 17 9 18 10 19 11
REMARK SMILES IDX 20 12 8 13 7 14 6 15 5 16 4 17 3 18 2 19 1 20
REMARK H PARENT
REMARK Flexibility Score: inf
ROOT
ATOM      1  C   UNL     1       5.929   0.488 404.107  1.00  0.00    -0.031 C 
ATOM      2  C   UNL     1       5.431  -0.758 404.219  1.00  0.00    -0.031 C 
ENDROOT
BRANCH   1   3
ATOM      3  C   UNL     1       5.094   1.730 403.931  1.00  0.00     0.027 C 
BRANCH   3   4
ATOM      4  C   UNL     1       5.293   2.323 402.528  1.00  0.00     0.004 C 
BRANCH   4   5
ATOM      5  C   UNL     1       3.970   2.751 401.875  1.00  0.00     0.000 C 
BRANCH   5   6
ATOM      6  C   UNL     1       3.684   1.997 400.567  1.00  0.00     0.000 C 
BRANCH   6   7
ATOM      7  C   UNL     1       3.481   0.497 400.832  1.00  0.00     0.000 C 
BRANCH   7   8
ATOM      8  C   UNL     1       4.359  -0.392 399.932  1.00  0.00     0.006 C 
BRANCH   8   9
ATOM      9  C   UNL     1       5.725  -0.752 400.538  1.00  0.00     0.053 C 
BRANCH   9  10
ATOM     10  C   UNL     1       6.856  -0.136 399.774  1.00  0.00     0.041 C 
ATOM     11  O   UNL     1       6.693   0.959 399.173  1.00  0.00    -0.550 OA
ATOM     12  O   UNL     1       8.081  -0.786 399.701  1.00  0.00    -0.550 OA
ENDBRANCH   9  10
ENDBRANCH   8   9
ENDBRANCH   7   8
ENDBRANCH   6   7
ENDBRANCH   5   6
ENDBRANCH   4   5
ENDBRANCH   3   4
ENDBRANCH   1   3
BRANCH   2  13
ATOM     13  C   UNL     1       3.969  -1.112 404.095  1.00  0.00     0.027 C 
BRANCH  13  14
ATOM     14  C   UNL     1       3.631  -2.419 404.829  1.00  0.00     0.004 C 
BRANCH  14  15
ATOM     15  C   UNL     1       3.222  -3.538 403.859  1.00  0.00     0.000 C 
BRANCH  15  16
ATOM     16  C   UNL     1       3.237  -3.041 402.410  1.00  0.00     0.000 C 
BRANCH  16  17
ATOM     17  C   UNL     1       3.865  -4.086 401.474  1.00  0.00    -0.000 C 
BRANCH  17  18
ATOM     18  C   UNL     1       5.250  -4.555 401.968  1.00  0.00    -0.000 C 
BRANCH  18  19
ATOM     19  C   UNL     1       5.337  -6.072 402.206  1.00  0.00    -0.003 C 
ATOM     20  C   UNL     1       4.089  -6.823 401.746  1.00  0.00     0.004 C 
ENDBRANCH  18  19
ENDBRANCH  17  18
ENDBRANCH  16  17
ENDBRANCH  15  16
ENDBRANCH  14  15
ENDBRANCH  13  14
ENDBRANCH   2  13
TORSDOF 15
ENDMDL
MODEL 6
REMARK VINA RESULT:    -4.012      1.388      2.153
REMARK INTER + INTRA:          -9.876
REMARK INTER:                  -6.860
REMARK INTRA:                  -3.016
REMARK UNBOUND:                -2.346
REMARK SMILES CCCCCCCCC=CCCCCCCCC(=O)[O-]
REMARK SMILES IDX 10 1 9 2 11 3 12 4 13 5 14 6 15 7 16 8 17 9 18 10 19 11
REMARK SMILES IDX 20 12 8 13 7 14 6 15 5 16 4 17 3 18 2 19 1 20
REMARK H PARENT
REMARK Flexibility Score: inf
ROOT
ATOM      1  C   UNL     1       5.828  -0.205 404.615  1.00  0.00    -0.031 C 
ATOM      2  C   UNL     1       5.590   0.989 404.040  1.00  0.00    -0.031 C 
ENDROOT
BRANCH   1   3
ATOM      3  C   UNL     1       4.847  -1.350 404.649  1.00  0.00     0.027 C 
BRANCH   3   4
ATOM      4  C   UNL     1       5.026  -2.253 403.420  1.00  0.00     0.004 C 
BRANCH   4   5
ATOM      5  C   UNL     1       3.686  -2.675 402.797  1.00  0.00     0.000 C 
BRANCH   5   6
ATOM      6  C   UNL     1       3.864  -3.559 401.553  1.00  0.00     0.000 C 
BRANCH   6   7
ATOM      7  C   UNL     1       5.351  -3.851 401.297  1.00  0.00     0.000 C 
BRANCH   7   8
ATOM      8  C   UNL     1       5.696  -5.346 401.426  1.00  0.00     0.006 C 
BRANCH   8   9
ATOM      9  C   UNL     1       4.535  -6.222 401.923  1.00  0.00     0.053 C 
BRANCH   9  10
ATOM     10  C   UNL     1       4.759  -6.707 403.323  1.00  0.00     0.041 C 
ATOM     11  O   UNL     1       4.789  -7.942 403.569  1.00  0.00    -0.550 OA
ATOM     12  O   UNL     1       4.904  -5.795 404.360  1.00  0.00    -0.550 OA
ENDBRANCH   9  10
ENDBRANCH   8   9
ENDBRANCH   7   8
ENDBRANCH   6   7
ENDBRANCH   5   6
ENDBRANCH   4   5
ENDBRANCH   3   4
ENDBRANCH   1   3
BRANCH   2  13
ATOM     13  C   UNL     1       4.274   1.397 403.424  1.00  0.00     0.027 C 
BRANCH  13  14
ATOM     14  C   UNL     1       4.456   2.468 402.338  1.00  0.00     0.004 C 
BRANCH  14  15
ATOM     15  C   UNL     1       3.912   2.012 400.977  1.00  0.00     0.000 C 
BRANCH  15  16
ATOM     16  C   UNL     1       3.506   0.534 401.016  1.00  0.00     0.000 C 
BRANCH  16  17
ATOM     17  C   UNL     1       4.221  -0.263 399.914  1.00  0.00    -0.000 C 
BRANCH  17  18
ATOM     18  C   UNL     1       5.687   0.181 399.728  1.00  0.00    -0.000 C 
BRANCH  18  19
ATOM     19  C   UNL     1       6.652  -0.436 400.755  1.00  0.00    -0.003 C 
ATOM     20  C   UNL     1       7.827   0.478 401.095  1.00  0.00     0.004 C 
ENDBRANCH  18  19
ENDBRANCH  17  18
ENDBRANCH  16  17
ENDBRANCH  15  16
ENDBRANCH  14  15
ENDBRANCH  13  14
ENDBRANCH   2  13
TORSDOF 15
ENDMDL
MODEL 7
REMARK VINA RESULT:    -4.010      2.502      4.085
REMARK INTER + INTRA:          -9.872
REMARK INTER:                  -7.728
REMARK INTRA:                  -2.144
REMARK UNBOUND:                -2.346
REMARK SMILES CCCCCCCCC=CCCCCCCCC(=O)[O-]
REMARK SMILES IDX 10 1 9 2 11 3 12 4 13 5 14 6 15 7 16 8 17 9 18 10 19 11
REMARK SMILES IDX 20 12 8 13 7 14 6 15 5 16 4 17 3 18 2 19 1 20
REMARK H PARENT
REMARK Flexibility Score: inf
ROOT
ATOM      1  C   UNL     1       4.322   2.420 402.159  1.00  0.00    -0.031 C 
ATOM      2  C   UNL     1       5.539   2.546 402.720  1.00  0.00    -0.031 C 
ENDROOT
BRANCH   1   3
ATOM      3  C   UNL     1       3.657   1.104 401.843  1.00  0.00     0.027 C 
BRANCH   3   4
ATOM      4  C   UNL     1       3.439   0.956 400.330  1.00  0.00     0.004 C 
BRANCH   4   5
ATOM      5  C   UNL     1       3.691  -0.475 399.834  1.00  0.00     0.000 C 
BRANCH   5   6
ATOM      6  C   UNL     1       3.816  -1.487 400.984  1.00  0.00     0.000 C 
BRANCH   6   7
ATOM      7  C   UNL     1       4.166  -2.884 400.449  1.00  0.00     0.000 C 
BRANCH   7   8
ATOM      8  C   UNL     1       4.108  -3.972 401.537  1.00  0.00     0.006 C 
BRANCH   8   9
ATOM      9  C   UNL     1       5.339  -4.893 401.576  1.00  0.00     0.053 C 
BRANCH   9  10
ATOM     10  C   UNL     1       4.954  -6.338 401.654  1.00  0.00     0.041 C 
ATOM     11  O   UNL     1       5.826  -7.235 401.504  1.00  0.00    -0.550 OA
ATOM     12  O   UNL     1       3.628  -6.695 401.861  1.00  0.00    -0.550 OA
ENDBRANCH   9  10
ENDBRANCH   8   9
ENDBRANCH   7   8
ENDBRANCH   6   7
ENDBRANCH   5   6
ENDBRANCH   4   5
ENDBRANCH   3   4
ENDBRANCH   1   3
BRANCH   2  13
ATOM     13  C   UNL     1       6.462   1.394 403.035  1.00  0.00     0.027 C 
BRANCH  13  14
ATOM     14  C   UNL     1       7.336   1.015 401.830  1.00  0.00     0.004 C 
BRANCH  14  15
ATOM     15  C   UNL     1       7.160  -0.457 401.426  1.00  0.00     0.000 C 
BRANCH  15  16
ATOM     16  C   UNL     1       7.322  -0.634 399.912  1.00  0.00     0.000 C 
BRANCH  16  17
ATOM     17  C   UNL     1       6.991   0.669 399.166  1.00  0.00    -0.000 C 
BRANCH  17  18
ATOM     18  C   UNL     1       7.794   0.811 397.856  1.00  0.00    -0.000 C 
BRANCH  18  19
ATOM     19  C   UNL     1       8.536   2.153 397.732  1.00  0.00    -0.003 C 
ATOM     20  C   UNL     1      10.007   2.063 398.131  1.00  0.00     0.004 C 
ENDBRANCH  18  19
ENDBRANCH  17  18
ENDBRANCH  16  17
ENDBRANCH  15  16
ENDBRANCH  14  15
ENDBRANCH  13  14
ENDBRANCH   2  13
TORSDOF 15
ENDMDL
MODEL 8
REMARK VINA RESULT:    -3.972      2.522      3.645
REMARK INTER + INTRA:          -9.801
REMARK INTER:                  -7.223
REMARK INTRA:                  -2.578
REMARK UNBOUND:                -2.346
REMARK SMILES CCCCCCCCC=CCCCCCCCC(=O)[O-]
REMARK SMILES IDX 10 1 9 2 11 3 12 4 13 5 14 6 15 7 16 8 17 9 18 10 19 11
REMARK SMILES IDX 20 12 8 13 7 14 6 15 5 16 4 17 3 18 2 19 1 20
REMARK H PARENT
REMARK Flexibility Score: inf
ROOT
ATOM      1  C   UNL     1       6.443   2.356 403.344  1.00  0.00    -0.031 C 
ATOM      2  C   UNL     1       5.301   3.023 403.091  1.00  0.00    -0.031 C 
ENDROOT
BRANCH   1   3
ATOM      3  C   UNL     1       6.671   0.900 403.028  1.00  0.00     0.027 C 
BRANCH   3   4
ATOM      4  C   UNL     1       6.356   0.025 404.251  1.00  0.00     0.004 C 
BRANCH   4   5
ATOM      5  C   UNL     1       5.474  -1.183 403.901  1.00  0.00     0.000 C 
BRANCH   5   6
ATOM      6  C   UNL     1       3.993  -0.952 404.241  1.00  0.00     0.000 C 
BRANCH   6   7
ATOM      7  C   UNL     1       3.365  -2.220 404.841  1.00  0.00     0.000 C 
BRANCH   7   8
ATOM      8  C   UNL     1       3.244  -2.157 406.375  1.00  0.00     0.006 C 
BRANCH   8   9
ATOM      9  C   UNL     1       4.496  -2.637 407.128  1.00  0.00     0.053 C 
BRANCH   9  10
ATOM     10  C   UNL     1       4.952  -3.983 406.654  1.00  0.00     0.041 C 
ATOM     11  O   UNL     1       4.281  -5.012 406.927  1.00  0.00    -0.550 OA
ATOM     12  O   UNL     1       6.137  -4.103 405.938  1.00  0.00    -0.550 OA
ENDBRANCH   9  10
ENDBRANCH   8   9
ENDBRANCH   7   8
ENDBRANCH   6   7
ENDBRANCH   5   6
ENDBRANCH   4   5
ENDBRANCH   3   4
ENDBRANCH   1   3
BRANCH   2  13
ATOM     13  C   UNL     1       4.045   2.395 402.540  1.00  0.00     0.027 C 
BRANCH  13  14
ATOM     14  C   UNL     1       3.743   2.873 401.112  1.00  0.00     0.004 C 
BRANCH  14  15
ATOM     15  C   UNL     1       3.283   1.725 400.201  1.00  0.00     0.000 C 
BRANCH  15  16
ATOM     16  C   UNL     1       3.651   0.365 400.805  1.00  0.00     0.000 C 
BRANCH  16  17
ATOM     17  C   UNL     1       4.798  -0.293 400.022  1.00  0.00    -0.000 C 
BRANCH  17  18
ATOM     18  C   UNL     1       4.936  -1.796 400.342  1.00  0.00    -0.000 C 
BRANCH  18  19
ATOM     19  C   UNL     1       3.635  -2.591 400.138  1.00  0.00    -0.003 C 
ATOM     20  C   UNL     1       3.316  -3.525 401.304  1.00  0.00     0.004 C 
ENDBRANCH  18  19
ENDBRANCH  17  18
ENDBRANCH  16  17
ENDBRANCH  15  16
ENDBRANCH  14  15
ENDBRANCH  13  14
ENDBRANCH   2  13
TORSDOF 15
ENDMDL
MODEL 9
REMARK VINA RESULT:    -3.964      2.418      5.348
REMARK INTER + INTRA:          -9.787
REMARK INTER:                  -7.531
REMARK INTRA:                  -2.255
REMARK UNBOUND:                -2.346
REMARK SMILES CCCCCCCCC=CCCCCCCCC(=O)[O-]
REMARK SMILES IDX 10 1 9 2 11 3 12 4 13 5 14 6 15 7 16 8 17 9 18 10 19 11
REMARK SMILES IDX 20 12 8 13 7 14 6 15 5 16 4 17 3 18 2 19 1 20
REMARK H PARENT
REMARK Flexibility Score: inf
ROOT
ATOM      1  C   UNL     1       5.297   1.098 400.360  1.00  0.00    -0.031 C 
ATOM      2  C   UNL     1       5.237  -0.212 400.054  1.00  0.00    -0.031 C 
ENDROOT
BRANCH   1   3
ATOM      3  C   UNL     1       4.099   1.959 400.672  1.00  0.00     0.027 C 
BRANCH   3   4
ATOM      4  C   UNL     1       4.049   2.294 402.170  1.00  0.00     0.004 C 
BRANCH   4   5
ATOM      5  C   UNL     1       3.707   1.073 403.037  1.00  0.00     0.000 C 
BRANCH   5   6
ATOM      6  C   UNL     1       4.781   0.780 404.097  1.00  0.00     0.000 C 
BRANCH   6   7
ATOM      7  C   UNL     1       5.344  -0.640 403.929  1.00  0.00     0.000 C 
BRANCH   7   8
ATOM      8  C   UNL     1       5.646  -1.326 405.274  1.00  0.00     0.006 C 
BRANCH   8   9
ATOM      9  C   UNL     1       4.849  -2.618 405.517  1.00  0.00     0.053 C 
BRANCH   9  10
ATOM     10  C   UNL     1       3.426  -2.337 405.889  1.00  0.00     0.041 C 
ATOM     11  O   UNL     1       3.112  -2.140 407.093  1.00  0.00    -0.550 OA
ATOM     12  O   UNL     1       2.441  -2.323 404.910  1.00  0.00    -0.550 OA
ENDBRANCH   9  10
ENDBRANCH   8   9
ENDBRANCH   7   8
ENDBRANCH   6   7
ENDBRANCH   5   6
ENDBRANCH   4   5
ENDBRANCH   3   4
ENDBRANCH   1   3
BRANCH   2  13
ATOM     13  C   UNL     1       3.959  -0.997 399.886  1.00  0.00     0.027 C 
BRANCH  13  14
ATOM     14  C   UNL     1       3.903  -2.210 400.828  1.00  0.00     0.004 C 
BRANCH  14  15
ATOM     15  C   UNL     1       5.193  -3.042 400.777  1.00  0.00     0.000 C 
BRANCH  15  16
ATOM     16  C   UNL     1       5.334  -3.913 402.030  1.00  0.00     0.000 C 
BRANCH  16  17
ATOM     17  C   UNL     1       3.973  -4.483 402.462  1.00  0.00    -0.000 C 
BRANCH  17  18
ATOM     18  C   UNL     1       3.964  -6.025 402.480  1.00  0.00    -0.000 C 
BRANCH  18  19
ATOM     19  C   UNL     1       5.003  -6.658 401.537  1.00  0.00    -0.003 C 
ATOM     20  C   UNL     1       4.961  -8.184 401.539  1.00  0.00     0.004 C 
ENDBRANCH  18  19
ENDBRANCH  17  18
ENDBRANCH  16  17
ENDBRANCH  15  16
ENDBRANCH  14  15
ENDBRANCH  13  14
ENDBRANCH   2  13
TORSDOF 15
ENDMDL
