MODEL 1
REMARK VINA RESULT:    -3.933      0.000      0.000
REMARK INTER + INTRA:          -5.401
REMARK INTER:                  -4.853
REMARK INTRA:                  -0.548
REMARK UNBOUND:                -0.548
REMARK SMILES CCCCC=CC(C)=O
REMARK SMILES IDX 4 1 3 2 2 3 1 4 5 5 6 6 7 7 9 8 8 9
REMARK H PARENT
REMARK Flexibility Score: inf
ROOT
ATOM      1  C   UNL     1      47.620  19.209  20.935  1.00  0.00     0.027 C 
ENDROOT
BRANCH   1   2
ATOM      2  C   UNL     1      46.843  19.602  22.199  1.00  0.00     0.004 C 
BRANCH   2   3
ATOM      3  C   UNL     1      45.590  20.409  21.845  1.00  0.00    -0.003 C 
ATOM      4  C   UNL     1      45.516  20.682  20.346  1.00  0.00     0.004 C 
ENDBRANCH   2   3
ENDBRANCH   1   2
BRANCH   1   5
ATOM      5  C   UNL     1      49.087  19.512  21.077  1.00  0.00    -0.023 C 
ATOM      6  C   UNL     1      49.706  20.625  20.650  1.00  0.00     0.042 C 
BRANCH   6   7
ATOM      7  C   UNL     1      49.087  21.754  19.919  1.00  0.00     0.152 C 
ATOM      8  O   UNL     1      48.798  21.672  18.696  1.00  0.00    -0.295 OA
ATOM      9  C   UNL     1      48.861  23.049  20.632  1.00  0.00     0.093 C 
ENDBRANCH   6   7
ENDBRANCH   1   5
TORSDOF 4
ENDMDL
MODEL 2
REMARK VINA RESULT:    -3.873      1.668      3.364
REMARK INTER + INTRA:          -5.327
REMARK INTER:                  -4.770
REMARK INTRA:                  -0.557
REMARK UNBOUND:                -0.548
REMARK SMILES CCCCC=CC(C)=O
REMARK SMILES IDX 4 1 3 2 2 3 1 4 5 5 6 6 7 7 9 8 8 9
REMARK H PARENT
REMARK Flexibility Score: inf
ROOT
ATOM      1  C   UNL     1      48.104  19.194  20.837  1.00  0.00     0.027 C 
ENDROOT
BRANCH   1   2
ATOM      2  C   UNL     1      49.438  19.911  21.083  1.00  0.00     0.004 C 
BRANCH   2   3
ATOM      3  C   UNL     1      49.395  21.348  20.552  1.00  0.00    -0.003 C 
ATOM      4  C   UNL     1      48.707  21.412  19.192  1.00  0.00     0.004 C 
ENDBRANCH   2   3
ENDBRANCH   1   2
BRANCH   1   5
ATOM      5  C   UNL     1      47.187  19.322  22.023  1.00  0.00    -0.023 C 
ATOM      6  C   UNL     1      46.048  20.034  22.066  1.00  0.00     0.042 C 
BRANCH   6   7
ATOM      7  C   UNL     1      45.489  20.869  20.977  1.00  0.00     0.152 C 
ATOM      8  O   UNL     1      44.877  20.361  20.001  1.00  0.00    -0.295 OA
ATOM      9  C   UNL     1      45.716  22.346  21.001  1.00  0.00     0.093 C 
ENDBRANCH   6   7
ENDBRANCH   1   5
TORSDOF 4
ENDMDL
MODEL 3
REMARK VINA RESULT:    -3.864      1.812      4.119
REMARK INTER + INTRA:          -5.316
REMARK INTER:                  -5.018
REMARK INTRA:                  -0.298
REMARK UNBOUND:                -0.548
REMARK SMILES CCCCC=CC(C)=O
REMARK SMILES IDX 4 1 3 2 2 3 1 4 5 5 6 6 7 7 9 8 8 9
REMARK H PARENT
REMARK Flexibility Score: inf
ROOT
ATOM      1  C   UNL     1      49.487  21.412  20.764  1.00  0.00     0.027 C 
ENDROOT
BRANCH   1   2
ATOM      2  C   UNL     1      49.102  22.364  19.624  1.00  0.00     0.004 C 
BRANCH   2   3
ATOM      3  C   UNL     1      50.161  22.349  18.516  1.00  0.00    -0.003 C 
ATOM      4  C   UNL     1      50.132  23.643  17.709  1.00  0.00     0.004 C 
ENDBRANCH   2   3
ENDBRANCH   1   2
BRANCH   1   5
ATOM      5  C   UNL     1      49.394  19.974  20.331  1.00  0.00    -0.023 C 
ATOM      6  C   UNL     1      48.340  19.161  20.518  1.00  0.00     0.042 C 
BRANCH   6   7
ATOM      7  C   UNL     1      47.082  19.497  21.223  1.00  0.00     0.152 C 
ATOM      8  O   UNL     1      46.161  20.146  20.661  1.00  0.00    -0.295 OA
ATOM      9  C   UNL     1      46.926  19.116  22.660  1.00  0.00     0.093 C 
ENDBRANCH   6   7
ENDBRANCH   1   5
TORSDOF 4
ENDMDL
MODEL 4
REMARK VINA RESULT:    -3.851      2.139      4.209
REMARK INTER + INTRA:          -5.300
REMARK INTER:                  -5.006
REMARK INTRA:                  -0.294
REMARK UNBOUND:                -0.548
REMARK SMILES CCCCC=CC(C)=O
REMARK SMILES IDX 4 1 3 2 2 3 1 4 5 5 6 6 7 7 9 8 8 9
REMARK H PARENT
REMARK Flexibility Score: inf
ROOT
ATOM      1  C   UNL     1      49.367  21.234  20.761  1.00  0.00     0.027 C 
ENDROOT
BRANCH   1   2
ATOM      2  C   UNL     1      49.100  22.359  19.752  1.00  0.00     0.004 C 
BRANCH   2   3
ATOM      3  C   UNL     1      50.068  22.272  18.566  1.00  0.00    -0.003 C 
ATOM      4  C   UNL     1      50.067  23.566  17.759  1.00  0.00     0.004 C 
ENDBRANCH   2   3
ENDBRANCH   1   2
BRANCH   1   5
ATOM      5  C   UNL     1      48.903  19.903  20.234  1.00  0.00    -0.023 C 
ATOM      6  C   UNL     1      47.828  19.218  20.659  1.00  0.00     0.042 C 
BRANCH   6   7
ATOM      7  C   UNL     1      46.912  19.607  21.756  1.00  0.00     0.152 C 
ATOM      8  O   UNL     1      47.095  19.221  22.941  1.00  0.00    -0.295 OA
ATOM      9  C   UNL     1      45.699  20.422  21.440  1.00  0.00     0.093 C 
ENDBRANCH   6   7
ENDBRANCH   1   5
TORSDOF 4
ENDMDL
MODEL 5
REMARK VINA RESULT:    -3.822      2.023      3.166
REMARK INTER + INTRA:          -5.264
REMARK INTER:                  -4.913
REMARK INTRA:                  -0.351
REMARK UNBOUND:                -0.548
REMARK SMILES CCCCC=CC(C)=O
REMARK SMILES IDX 4 1 3 2 2 3 1 4 5 5 6 6 7 7 9 8 8 9
REMARK H PARENT
REMARK Flexibility Score: inf
ROOT
ATOM      1  C   UNL     1      49.379  21.214  20.744  1.00  0.00     0.027 C 
ENDROOT
BRANCH   1   2
ATOM      2  C   UNL     1      49.434  19.684  20.642  1.00  0.00     0.004 C 
BRANCH   2   3
ATOM      3  C   UNL     1      48.028  19.078  20.721  1.00  0.00    -0.003 C 
ATOM      4  C   UNL     1      47.381  19.362  22.072  1.00  0.00     0.004 C 
ENDBRANCH   2   3
ENDBRANCH   1   2
BRANCH   1   5
ATOM      5  C   UNL     1      49.048  21.840  19.416  1.00  0.00    -0.023 C 
ATOM      6  C   UNL     1      49.935  22.249  18.494  1.00  0.00     0.042 C 
BRANCH   6   7
ATOM      7  C   UNL     1      51.411  22.210  18.613  1.00  0.00     0.152 C 
ATOM      8  O   UNL     1      52.077  23.230  18.933  1.00  0.00    -0.295 OA
ATOM      9  C   UNL     1      52.137  20.947  18.278  1.00  0.00     0.093 C 
ENDBRANCH   6   7
ENDBRANCH   1   5
TORSDOF 4
ENDMDL
MODEL 6
REMARK VINA RESULT:    -3.812      1.241      1.790
REMARK INTER + INTRA:          -5.251
REMARK INTER:                  -4.770
REMARK INTRA:                  -0.481
REMARK UNBOUND:                -0.548
REMARK SMILES CCCCC=CC(C)=O
REMARK SMILES IDX 4 1 3 2 2 3 1 4 5 5 6 6 7 7 9 8 8 9
REMARK H PARENT
REMARK Flexibility Score: inf
ROOT
ATOM      1  C   UNL     1      49.425  19.917  21.009  1.00  0.00     0.027 C 
ENDROOT
BRANCH   1   2
ATOM      2  C   UNL     1      48.101  19.147  20.912  1.00  0.00     0.004 C 
BRANCH   2   3
ATOM      3  C   UNL     1      46.945  19.967  21.497  1.00  0.00    -0.003 C 
ATOM      4  C   UNL     1      46.018  20.475  20.398  1.00  0.00     0.004 C 
ENDBRANCH   2   3
ENDBRANCH   1   2
BRANCH   1   5
ATOM      5  C   UNL     1      49.742  20.624  19.719  1.00  0.00    -0.023 C 
ATOM      6  C   UNL     1      49.735  21.953  19.526  1.00  0.00     0.042 C 
BRANCH   6   7
ATOM      7  C   UNL     1      49.373  22.987  20.523  1.00  0.00     0.152 C 
ATOM      8  O   UNL     1      48.172  23.266  20.781  1.00  0.00    -0.295 OA
ATOM      9  C   UNL     1      50.458  23.769  21.190  1.00  0.00     0.093 C 
ENDBRANCH   6   7
ENDBRANCH   1   5
TORSDOF 4
ENDMDL
MODEL 7
REMARK VINA RESULT:    -3.749      1.583      2.440
REMARK INTER + INTRA:          -5.174
REMARK INTER:                  -4.876
REMARK INTRA:                  -0.298
REMARK UNBOUND:                -0.548
REMARK SMILES CCCCC=CC(C)=O
REMARK SMILES IDX 4 1 3 2 2 3 1 4 5 5 6 6 7 7 9 8 8 9
REMARK H PARENT
REMARK Flexibility Score: inf
ROOT
ATOM      1  C   UNL     1      49.590  20.180  20.000  1.00  0.00     0.027 C 
ENDROOT
BRANCH   1   2
ATOM      2  C   UNL     1      48.513  19.175  20.431  1.00  0.00     0.004 C 
BRANCH   2   3
ATOM      3  C   UNL     1      47.365  19.882  21.161  1.00  0.00    -0.003 C 
ATOM      4  C   UNL     1      47.039  19.188  22.479  1.00  0.00     0.004 C 
ENDBRANCH   2   3
ENDBRANCH   1   2
BRANCH   1   5
ATOM      5  C   UNL     1      49.420  21.500  20.701  1.00  0.00    -0.023 C 
ATOM      6  C   UNL     1      49.741  22.705  20.202  1.00  0.00     0.042 C 
BRANCH   6   7
ATOM      7  C   UNL     1      50.365  22.977  18.886  1.00  0.00     0.152 C 
ATOM      8  O   UNL     1      49.677  23.083  17.836  1.00  0.00    -0.295 OA
ATOM      9  C   UNL     1      51.854  23.058  18.788  1.00  0.00     0.093 C 
ENDBRANCH   6   7
ENDBRANCH   1   5
TORSDOF 4
ENDMDL
MODEL 8
REMARK VINA RESULT:    -3.573      2.231      4.563
REMARK INTER + INTRA:          -4.957
REMARK INTER:                  -4.824
REMARK INTRA:                  -0.133
REMARK UNBOUND:                -0.548
REMARK SMILES CCCCC=CC(C)=O
REMARK SMILES IDX 4 1 3 2 2 3 1 4 5 5 6 6 7 7 9 8 8 9
REMARK H PARENT
REMARK Flexibility Score: inf
ROOT
ATOM      1  C   UNL     1      49.090  22.038  20.658  1.00  0.00     0.027 C 
ENDROOT
BRANCH   1   2
ATOM      2  C   UNL     1      50.184  22.895  20.007  1.00  0.00     0.004 C 
BRANCH   2   3
ATOM      3  C   UNL     1      50.702  23.958  20.983  1.00  0.00    -0.003 C 
ATOM      4  C   UNL     1      51.880  24.723  20.389  1.00  0.00     0.004 C 
ENDBRANCH   2   3
ENDBRANCH   1   2
BRANCH   1   5
ATOM      5  C   UNL     1      49.275  20.580  20.338  1.00  0.00    -0.023 C 
ATOM      6  C   UNL     1      48.413  19.593  20.633  1.00  0.00     0.042 C 
BRANCH   6   7
ATOM      7  C   UNL     1      47.134  19.730  21.368  1.00  0.00     0.152 C 
ATOM      8  O   UNL     1      46.999  19.311  22.548  1.00  0.00    -0.295 OA
ATOM      9  C   UNL     1      45.950  20.317  20.669  1.00  0.00     0.093 C 
ENDBRANCH   6   7
ENDBRANCH   1   5
TORSDOF 4
ENDMDL
MODEL 9
REMARK VINA RESULT:    -3.478      2.467      4.833
REMARK INTER + INTRA:          -4.839
REMARK INTER:                  -4.555
REMARK INTRA:                  -0.284
REMARK UNBOUND:                -0.548
REMARK SMILES CCCCC=CC(C)=O
REMARK SMILES IDX 4 1 3 2 2 3 1 4 5 5 6 6 7 7 9 8 8 9
REMARK H PARENT
REMARK Flexibility Score: inf
ROOT
ATOM      1  C   UNL     1      49.785  22.175  18.842  1.00  0.00     0.027 C 
ENDROOT
BRANCH   1   2
ATOM      2  C   UNL     1      51.288  22.246  18.539  1.00  0.00     0.004 C 
BRANCH   2   3
ATOM      3  C   UNL     1      51.644  23.558  17.832  1.00  0.00    -0.003 C 
ATOM      4  C   UNL     1      50.391  24.277  17.343  1.00  0.00     0.004 C 
ENDBRANCH   2   3
ENDBRANCH   1   2
BRANCH   1   5
ATOM      5  C   UNL     1      49.529  22.071  20.321  1.00  0.00    -0.023 C 
ATOM      6  C   UNL     1      49.308  20.936  21.005  1.00  0.00     0.042 C 
BRANCH   6   7
ATOM      7  C   UNL     1      49.227  19.569  20.441  1.00  0.00     0.152 C 
ATOM      8  O   UNL     1      48.133  18.951  20.355  1.00  0.00    -0.295 OA
ATOM      9  C   UNL     1      50.485  18.875  20.027  1.00  0.00     0.093 C 
ENDBRANCH   6   7
ENDBRANCH   1   5
TORSDOF 4
ENDMDL
