MODEL 1
REMARK VINA RESULT:    -8.302      0.000      0.000
REMARK INTER + INTRA:          -9.864
REMARK INTER:                 -10.000
REMARK INTRA:                   0.137
REMARK UNBOUND:                 0.137
REMARK SMILES O=c1c(O)c(-c2ccc(O)c(O)c2)oc2cc(O)cc(O)c12
REMARK SMILES IDX 5 1 3 2 2 3 1 4 22 5 20 6 19 7 17 8 16 9 15 10 14 11 6 12
REMARK SMILES IDX 7 13 8 14 9 15 13 16 11 17 10 18 12 20 4 22 21 24 18 26
REMARK H PARENT 10 19 12 21 4 23 21 25 18 27
REMARK Flexibility Score: inf
ROOT
ATOM      1  C   UNL     1      24.259  23.711  35.006  1.00  0.00     0.180 A 
ATOM      2  C   UNL     1      25.548  24.261  35.107  1.00  0.00     0.208 A 
ATOM      3  C   UNL     1      25.752  25.596  34.722  1.00  0.00     0.238 A 
ATOM      4  O   UNL     1      26.896  26.099  34.865  1.00  0.00    -0.285 OA
ATOM      5  C   UNL     1      24.668  26.358  34.225  1.00  0.00     0.111 A 
ATOM      6  C   UNL     1      24.767  27.706  33.767  1.00  0.00     0.134 A 
ATOM      7  C   UNL     1      23.605  28.406  33.419  1.00  0.00     0.093 A 
ATOM      8  C   UNL     1      22.356  27.787  33.449  1.00  0.00     0.123 A 
ATOM      9  C   UNL     1      22.255  26.450  33.837  1.00  0.00     0.094 A 
ATOM     10  C   UNL     1      23.391  25.737  34.225  1.00  0.00     0.146 A 
ATOM     11  O   UNL     1      23.250  24.472  34.598  1.00  0.00    -0.452 OA
ENDROOT
BRANCH   1  12
ATOM     12  C   UNL     1      23.972  22.304  35.370  1.00  0.00     0.025 A 
ATOM     13  C   UNL     1      24.879  21.297  35.003  1.00  0.00     0.016 A 
ATOM     14  C   UNL     1      24.638  19.967  35.355  1.00  0.00     0.051 A 
ATOM     15  C   UNL     1      23.496  19.625  36.091  1.00  0.00     0.157 A 
ATOM     16  C   UNL     1      22.837  21.961  36.127  1.00  0.00     0.062 A 
ATOM     17  C   UNL     1      22.597  20.625  36.480  1.00  0.00     0.158 A 
BRANCH  15  18
ATOM     18  O   UNL     1      23.252  18.299  36.441  1.00  0.00    -0.504 OA
ATOM     19  H   UNL     1      23.709  17.868  37.236  1.00  0.00     0.293 HD
ENDBRANCH  15  18
BRANCH  17  20
ATOM     20  O   UNL     1      21.469  20.285  37.224  1.00  0.00    -0.504 OA
ATOM     21  H   UNL     1      20.659  20.893  37.269  1.00  0.00     0.293 HD
ENDBRANCH  17  20
ENDBRANCH   1  12
BRANCH   2  22
ATOM     22  O   UNL     1      26.600  23.497  35.621  1.00  0.00    -0.502 OA
ATOM     23  H   UNL     1      27.513  23.891  35.817  1.00  0.00     0.293 HD
ENDBRANCH   2  22
BRANCH   6  24
ATOM     24  O   UNL     1      25.977  28.391  33.612  1.00  0.00    -0.507 OA
ATOM     25  H   UNL     1      26.782  28.030  33.122  1.00  0.00     0.293 HD
ENDBRANCH   6  24
BRANCH   8  26
ATOM     26  O   UNL     1      21.222  28.508  33.082  1.00  0.00    -0.508 OA
ATOM     27  H   UNL     1      20.346  28.408  33.579  1.00  0.00     0.293 HD
ENDBRANCH   8  26
TORSDOF 6
ENDMDL
MODEL 2
REMARK VINA RESULT:    -7.936      2.492      7.057
REMARK INTER + INTRA:          -9.423
REMARK INTER:                  -9.405
REMARK INTRA:                  -0.018
REMARK UNBOUND:                 0.137
REMARK SMILES O=c1c(O)c(-c2ccc(O)c(O)c2)oc2cc(O)cc(O)c12
REMARK SMILES IDX 5 1 3 2 2 3 1 4 22 5 20 6 19 7 17 8 16 9 15 10 14 11 6 12
REMARK SMILES IDX 7 13 8 14 9 15 13 16 11 17 10 18 12 20 4 22 21 24 18 26
REMARK H PARENT 10 19 12 21 4 23 21 25 18 27
REMARK Flexibility Score: inf
ROOT
ATOM      1  C   UNL     1      26.162  24.380  33.632  1.00  0.00     0.180 A 
ATOM      2  C   UNL     1      27.368  24.324  32.913  1.00  0.00     0.208 A 
ATOM      3  C   UNL     1      28.150  23.160  32.983  1.00  0.00     0.238 A 
ATOM      4  O   UNL     1      29.201  23.094  32.294  1.00  0.00    -0.285 OA
ATOM      5  C   UNL     1      27.724  22.073  33.783  1.00  0.00     0.111 A 
ATOM      6  C   UNL     1      28.456  20.860  33.960  1.00  0.00     0.134 A 
ATOM      7  C   UNL     1      27.877  19.801  34.670  1.00  0.00     0.093 A 
ATOM      8  C   UNL     1      26.623  19.933  35.264  1.00  0.00     0.123 A 
ATOM      9  C   UNL     1      25.924  21.135  35.149  1.00  0.00     0.094 A 
ATOM     10  C   UNL     1      26.460  22.197  34.416  1.00  0.00     0.146 A 
ATOM     11  O   UNL     1      25.758  23.320  34.321  1.00  0.00    -0.452 OA
ENDROOT
BRANCH   1  12
ATOM     12  C   UNL     1      25.297  25.583  33.627  1.00  0.00     0.025 A 
ATOM     13  C   UNL     1      23.917  25.440  33.416  1.00  0.00     0.016 A 
ATOM     14  C   UNL     1      23.080  26.558  33.429  1.00  0.00     0.051 A 
ATOM     15  C   UNL     1      23.608  27.834  33.668  1.00  0.00     0.157 A 
ATOM     16  C   UNL     1      25.821  26.862  33.887  1.00  0.00     0.062 A 
ATOM     17  C   UNL     1      24.980  27.984  33.901  1.00  0.00     0.158 A 
BRANCH  15  18
ATOM     18  O   UNL     1      22.777  28.952  33.679  1.00  0.00    -0.504 OA
ATOM     19  H   UNL     1      22.363  29.312  32.828  1.00  0.00     0.293 HD
ENDBRANCH  15  18
BRANCH  17  20
ATOM     20  O   UNL     1      25.501  29.253  34.151  1.00  0.00    -0.504 OA
ATOM     21  H   UNL     1      24.906  30.026  34.427  1.00  0.00     0.293 HD
ENDBRANCH  17  20
ENDBRANCH   1  12
BRANCH   2  22
ATOM     22  O   UNL     1      27.760  25.400  32.110  1.00  0.00    -0.502 OA
ATOM     23  H   UNL     1      27.162  25.787  31.390  1.00  0.00     0.293 HD
ENDBRANCH   2  22
BRANCH   6  24
ATOM     24  O   UNL     1      29.755  20.656  33.486  1.00  0.00    -0.507 OA
ATOM     25  H   UNL     1      29.982  20.300  32.570  1.00  0.00     0.293 HD
ENDBRANCH   6  24
BRANCH   8  26
ATOM     26  O   UNL     1      26.083  18.864  35.977  1.00  0.00    -0.508 OA
ATOM     27  H   UNL     1      26.211  17.906  35.673  1.00  0.00     0.293 HD
ENDBRANCH   8  26
TORSDOF 6
ENDMDL
MODEL 3
REMARK VINA RESULT:    -7.827      2.728      7.130
REMARK INTER + INTRA:          -9.292
REMARK INTER:                  -9.416
REMARK INTRA:                   0.124
REMARK UNBOUND:                 0.137
REMARK SMILES O=c1c(O)c(-c2ccc(O)c(O)c2)oc2cc(O)cc(O)c12
REMARK SMILES IDX 5 1 3 2 2 3 1 4 22 5 20 6 19 7 17 8 16 9 15 10 14 11 6 12
REMARK SMILES IDX 7 13 8 14 9 15 13 16 11 17 10 18 12 20 4 22 21 24 18 26
REMARK H PARENT 10 19 12 21 4 23 21 25 18 27
REMARK Flexibility Score: inf
ROOT
ATOM      1  C   UNL     1      25.604  24.272  34.044  1.00  0.00     0.180 A 
ATOM      2  C   UNL     1      25.110  23.200  34.806  1.00  0.00     0.208 A 
ATOM      3  C   UNL     1      25.851  22.009  34.867  1.00  0.00     0.238 A 
ATOM      4  O   UNL     1      25.431  21.071  35.594  1.00  0.00    -0.285 OA
ATOM      5  C   UNL     1      27.068  21.899  34.152  1.00  0.00     0.111 A 
ATOM      6  C   UNL     1      27.880  20.727  34.109  1.00  0.00     0.134 A 
ATOM      7  C   UNL     1      29.129  20.774  33.477  1.00  0.00     0.093 A 
ATOM      8  C   UNL     1      29.566  21.929  32.831  1.00  0.00     0.123 A 
ATOM      9  C   UNL     1      28.753  23.063  32.815  1.00  0.00     0.094 A 
ATOM     10  C   UNL     1      27.518  23.058  33.468  1.00  0.00     0.146 A 
ATOM     11  O   UNL     1      26.781  24.162  33.439  1.00  0.00    -0.452 OA
ENDROOT
BRANCH   1  12
ATOM     12  C   UNL     1      24.867  25.551  33.912  1.00  0.00     0.025 A 
ATOM     13  C   UNL     1      23.478  25.529  33.714  1.00  0.00     0.016 A 
ATOM     14  C   UNL     1      22.760  26.723  33.609  1.00  0.00     0.051 A 
ATOM     15  C   UNL     1      23.418  27.955  33.715  1.00  0.00     0.157 A 
ATOM     16  C   UNL     1      25.522  26.789  34.039  1.00  0.00     0.062 A 
ATOM     17  C   UNL     1      24.801  27.987  33.934  1.00  0.00     0.158 A 
BRANCH  15  18
ATOM     18  O   UNL     1      22.706  29.148  33.607  1.00  0.00    -0.504 OA
ATOM     19  H   UNL     1      21.803  29.187  33.149  1.00  0.00     0.293 HD
ENDBRANCH  15  18
BRANCH  17  20
ATOM     20  O   UNL     1      25.451  29.214  34.052  1.00  0.00    -0.504 OA
ATOM     21  H   UNL     1      25.983  29.609  33.285  1.00  0.00     0.293 HD
ENDBRANCH  17  20
ENDBRANCH   1  12
BRANCH   2  22
ATOM     22  O   UNL     1      23.917  23.337  35.522  1.00  0.00    -0.502 OA
ATOM     23  H   UNL     1      23.871  23.226  36.528  1.00  0.00     0.293 HD
ENDBRANCH   2  22
BRANCH   6  24
ATOM     24  O   UNL     1      27.499  19.492  34.644  1.00  0.00    -0.507 OA
ATOM     25  H   UNL     1      27.941  19.048  35.435  1.00  0.00     0.293 HD
ENDBRANCH   6  24
BRANCH   8  26
ATOM     26  O   UNL     1      30.807  21.936  32.199  1.00  0.00    -0.508 OA
ATOM     27  H   UNL     1      31.035  21.271  31.470  1.00  0.00     0.293 HD
ENDBRANCH   8  26
TORSDOF 6
ENDMDL
MODEL 4
REMARK VINA RESULT:    -7.648      2.763      7.035
REMARK INTER + INTRA:          -9.076
REMARK INTER:                  -9.110
REMARK INTRA:                   0.034
REMARK UNBOUND:                 0.137
REMARK SMILES O=c1c(O)c(-c2ccc(O)c(O)c2)oc2cc(O)cc(O)c12
REMARK SMILES IDX 5 1 3 2 2 3 1 4 22 5 20 6 19 7 17 8 16 9 15 10 14 11 6 12
REMARK SMILES IDX 7 13 8 14 9 15 13 16 11 17 10 18 12 20 4 22 21 24 18 26
REMARK H PARENT 10 19 12 21 4 23 21 25 18 27
REMARK Flexibility Score: inf
ROOT
ATOM      1  C   UNL     1      26.277  24.208  33.610  1.00  0.00     0.180 A 
ATOM      2  C   UNL     1      25.105  24.970  33.751  1.00  0.00     0.208 A 
ATOM      3  C   UNL     1      23.976  24.381  34.344  1.00  0.00     0.238 A 
ATOM      4  O   UNL     1      22.947  25.084  34.517  1.00  0.00    -0.285 OA
ATOM      5  C   UNL     1      24.029  23.034  34.774  1.00  0.00     0.111 A 
ATOM      6  C   UNL     1      22.934  22.323  35.351  1.00  0.00     0.134 A 
ATOM      7  C   UNL     1      23.138  21.034  35.859  1.00  0.00     0.093 A 
ATOM      8  C   UNL     1      24.378  20.406  35.753  1.00  0.00     0.123 A 
ATOM      9  C   UNL     1      25.440  21.068  35.136  1.00  0.00     0.094 A 
ATOM     10  C   UNL     1      25.277  22.368  34.652  1.00  0.00     0.146 A 
ATOM     11  O   UNL     1      26.316  22.967  34.082  1.00  0.00    -0.452 OA
ENDROOT
BRANCH   1  12
ATOM     12  C   UNL     1      27.498  24.752  32.972  1.00  0.00     0.025 A 
ATOM     13  C   UNL     1      28.110  24.037  31.930  1.00  0.00     0.016 A 
ATOM     14  C   UNL     1      29.250  24.542  31.300  1.00  0.00     0.051 A 
ATOM     15  C   UNL     1      29.786  25.776  31.692  1.00  0.00     0.157 A 
ATOM     16  C   UNL     1      28.027  26.000  33.348  1.00  0.00     0.062 A 
ATOM     17  C   UNL     1      29.171  26.507  32.715  1.00  0.00     0.158 A 
BRANCH  15  18
ATOM     18  O   UNL     1      30.925  26.281  31.068  1.00  0.00    -0.504 OA
ATOM     19  H   UNL     1      31.315  27.180  31.325  1.00  0.00     0.293 HD
ENDBRANCH  15  18
BRANCH  17  20
ATOM     20  O   UNL     1      29.698  27.740  33.094  1.00  0.00    -0.504 OA
ATOM     21  H   UNL     1      30.628  28.029  32.812  1.00  0.00     0.293 HD
ENDBRANCH  17  20
ENDBRANCH   1  12
BRANCH   2  22
ATOM     22  O   UNL     1      25.081  26.306  33.340  1.00  0.00    -0.502 OA
ATOM     23  H   UNL     1      25.523  26.621  32.485  1.00  0.00     0.293 HD
ENDBRANCH   2  22
BRANCH   6  24
ATOM     24  O   UNL     1      21.631  22.823  35.424  1.00  0.00    -0.507 OA
ATOM     25  H   UNL     1      20.809  22.262  35.589  1.00  0.00     0.293 HD
ENDBRANCH   6  24
BRANCH   8  26
ATOM     26  O   UNL     1      24.541  19.117  36.256  1.00  0.00    -0.508 OA
ATOM     27  H   UNL     1      24.820  18.347  35.660  1.00  0.00     0.293 HD
ENDBRANCH   8  26
TORSDOF 6
ENDMDL
MODEL 5
REMARK VINA RESULT:    -7.571      1.316      1.831
REMARK INTER + INTRA:          -8.984
REMARK INTER:                  -8.704
REMARK INTRA:                  -0.280
REMARK UNBOUND:                 0.137
REMARK SMILES O=c1c(O)c(-c2ccc(O)c(O)c2)oc2cc(O)cc(O)c12
REMARK SMILES IDX 5 1 3 2 2 3 1 4 22 5 20 6 19 7 17 8 16 9 15 10 14 11 6 12
REMARK SMILES IDX 7 13 8 14 9 15 13 16 11 17 10 18 12 20 4 22 21 24 18 26
REMARK H PARENT 10 19 12 21 4 23 21 25 18 27
REMARK Flexibility Score: inf
ROOT
ATOM      1  C   UNL     1      25.145  23.792  35.064  1.00  0.00     0.180 A 
ATOM      2  C   UNL     1      26.319  24.566  35.049  1.00  0.00     0.208 A 
ATOM      3  C   UNL     1      26.254  25.894  34.600  1.00  0.00     0.238 A 
ATOM      4  O   UNL     1      27.296  26.598  34.640  1.00  0.00    -0.285 OA
ATOM      5  C   UNL     1      25.020  26.427  34.156  1.00  0.00     0.111 A 
ATOM      6  C   UNL     1      24.846  27.747  33.641  1.00  0.00     0.134 A 
ATOM      7  C   UNL     1      23.556  28.212  33.353  1.00  0.00     0.093 A 
ATOM      8  C   UNL     1      22.444  27.385  33.499  1.00  0.00     0.123 A 
ATOM      9  C   UNL     1      22.609  26.072  33.943  1.00  0.00     0.094 A 
ATOM     10  C   UNL     1      23.879  25.592  34.273  1.00  0.00     0.146 A 
ATOM     11  O   UNL     1      23.992  24.342  34.703  1.00  0.00    -0.452 OA
ENDROOT
BRANCH   1  12
ATOM     12  C   UNL     1      25.140  22.377  35.502  1.00  0.00     0.025 A 
ATOM     13  C   UNL     1      24.561  22.037  36.734  1.00  0.00     0.016 A 
ATOM     14  C   UNL     1      24.525  20.706  37.156  1.00  0.00     0.051 A 
ATOM     15  C   UNL     1      25.055  19.693  36.345  1.00  0.00     0.157 A 
ATOM     16  C   UNL     1      25.652  21.356  34.681  1.00  0.00     0.062 A 
ATOM     17  C   UNL     1      25.615  20.019  35.104  1.00  0.00     0.158 A 
BRANCH  15  18
ATOM     18  O   UNL     1      25.024  18.365  36.764  1.00  0.00    -0.504 OA
ATOM     19  H   UNL     1      24.726  18.110  37.698  1.00  0.00     0.293 HD
ENDBRANCH  15  18
BRANCH  17  20
ATOM     20  O   UNL     1      26.129  19.009  34.294  1.00  0.00    -0.504 OA
ATOM     21  H   UNL     1      26.369  19.177  33.323  1.00  0.00     0.293 HD
ENDBRANCH  17  20
ENDBRANCH   1  12
BRANCH   2  22
ATOM     22  O   UNL     1      27.522  24.027  35.514  1.00  0.00    -0.502 OA
ATOM     23  H   UNL     1      27.608  23.062  35.811  1.00  0.00     0.293 HD
ENDBRANCH   2  22
BRANCH   6  24
ATOM     24  O   UNL     1      25.900  28.626  33.371  1.00  0.00    -0.507 OA
ATOM     25  H   UNL     1      26.461  29.081  34.075  1.00  0.00     0.293 HD
ENDBRANCH   6  24
BRANCH   8  26
ATOM     26  O   UNL     1      21.177  27.875  33.188  1.00  0.00    -0.508 OA
ATOM     27  H   UNL     1      20.964  28.864  33.238  1.00  0.00     0.293 HD
ENDBRANCH   8  26
TORSDOF 6
ENDMDL
MODEL 6
REMARK VINA RESULT:    -7.561      1.301      6.830
REMARK INTER + INTRA:          -8.971
REMARK INTER:                  -9.155
REMARK INTRA:                   0.184
REMARK UNBOUND:                 0.137
REMARK SMILES O=c1c(O)c(-c2ccc(O)c(O)c2)oc2cc(O)cc(O)c12
REMARK SMILES IDX 5 1 3 2 2 3 1 4 22 5 20 6 19 7 17 8 16 9 15 10 14 11 6 12
REMARK SMILES IDX 7 13 8 14 9 15 13 16 11 17 10 18 12 20 4 22 21 24 18 26
REMARK H PARENT 10 19 12 21 4 23 21 25 18 27
REMARK Flexibility Score: inf
ROOT
ATOM      1  C   UNL     1      24.403  23.891  34.625  1.00  0.00     0.180 A 
ATOM      2  C   UNL     1      25.636  23.319  34.270  1.00  0.00     0.208 A 
ATOM      3  C   UNL     1      25.907  21.994  34.648  1.00  0.00     0.238 A 
ATOM      4  O   UNL     1      26.990  21.469  34.281  1.00  0.00    -0.285 OA
ATOM      5  C   UNL     1      24.948  21.265  35.391  1.00  0.00     0.111 A 
ATOM      6  C   UNL     1      25.132  19.930  35.864  1.00  0.00     0.134 A 
ATOM      7  C   UNL     1      24.065  19.261  36.476  1.00  0.00     0.093 A 
ATOM      8  C   UNL     1      22.844  19.897  36.691  1.00  0.00     0.123 A 
ATOM      9  C   UNL     1      22.672  21.222  36.288  1.00  0.00     0.094 A 
ATOM     10  C   UNL     1      23.706  21.905  35.642  1.00  0.00     0.146 A 
ATOM     11  O   UNL     1      23.498  23.160  35.265  1.00  0.00    -0.452 OA
ENDROOT
BRANCH   1  12
ATOM     12  C   UNL     1      24.056  25.290  34.282  1.00  0.00     0.025 A 
ATOM     13  C   UNL     1      22.717  25.627  34.027  1.00  0.00     0.016 A 
ATOM     14  C   UNL     1      22.365  26.945  33.724  1.00  0.00     0.051 A 
ATOM     15  C   UNL     1      23.343  27.947  33.685  1.00  0.00     0.157 A 
ATOM     16  C   UNL     1      25.032  26.303  34.263  1.00  0.00     0.062 A 
ATOM     17  C   UNL     1      24.678  27.625  33.959  1.00  0.00     0.158 A 
BRANCH  15  18
ATOM     18  O   UNL     1      22.996  29.261  33.380  1.00  0.00    -0.504 OA
ATOM     19  H   UNL     1      22.733  29.536  32.441  1.00  0.00     0.293 HD
ENDBRANCH  15  18
BRANCH  17  20
ATOM     20  O   UNL     1      25.647  28.627  33.933  1.00  0.00    -0.504 OA
ATOM     21  H   UNL     1      25.555  29.439  33.335  1.00  0.00     0.293 HD
ENDBRANCH  17  20
ENDBRANCH   1  12
BRANCH   2  22
ATOM     22  O   UNL     1      26.560  24.049  33.516  1.00  0.00    -0.502 OA
ATOM     23  H   UNL     1      26.599  23.998  32.505  1.00  0.00     0.293 HD
ENDBRANCH   2  22
BRANCH   6  24
ATOM     24  O   UNL     1      26.341  19.233  35.781  1.00  0.00    -0.507 OA
ATOM     25  H   UNL     1      26.514  18.456  35.161  1.00  0.00     0.293 HD
ENDBRANCH   6  24
BRANCH   8  26
ATOM     26  O   UNL     1      21.809  19.206  37.318  1.00  0.00    -0.508 OA
ATOM     27  H   UNL     1      21.013  19.689  37.715  1.00  0.00     0.293 HD
ENDBRANCH   8  26
TORSDOF 6
ENDMDL
MODEL 7
REMARK VINA RESULT:    -7.406      3.005      6.912
REMARK INTER + INTRA:          -8.784
REMARK INTER:                  -9.121
REMARK INTRA:                   0.336
REMARK UNBOUND:                 0.137
REMARK SMILES O=c1c(O)c(-c2ccc(O)c(O)c2)oc2cc(O)cc(O)c12
REMARK SMILES IDX 5 1 3 2 2 3 1 4 22 5 20 6 19 7 17 8 16 9 15 10 14 11 6 12
REMARK SMILES IDX 7 13 8 14 9 15 13 16 11 17 10 18 12 20 4 22 21 24 18 26
REMARK H PARENT 10 19 12 21 4 23 21 25 18 27
REMARK Flexibility Score: inf
ROOT
ATOM      1  C   UNL     1      26.884  22.754  33.747  1.00  0.00     0.180 A 
ATOM      2  C   UNL     1      27.281  21.433  34.016  1.00  0.00     0.208 A 
ATOM      3  C   UNL     1      26.395  20.578  34.691  1.00  0.00     0.238 A 
ATOM      4  O   UNL     1      26.734  19.382  34.881  1.00  0.00    -0.285 OA
ATOM      5  C   UNL     1      25.129  21.061  35.102  1.00  0.00     0.111 A 
ATOM      6  C   UNL     1      24.167  20.296  35.828  1.00  0.00     0.134 A 
ATOM      7  C   UNL     1      22.896  20.833  36.069  1.00  0.00     0.093 A 
ATOM      8  C   UNL     1      22.575  22.129  35.668  1.00  0.00     0.123 A 
ATOM      9  C   UNL     1      23.528  22.908  35.011  1.00  0.00     0.094 A 
ATOM     10  C   UNL     1      24.792  22.387  34.725  1.00  0.00     0.146 A 
ATOM     11  O   UNL     1      25.666  23.156  34.088  1.00  0.00    -0.452 OA
ENDROOT
BRANCH   1  12
ATOM     12  C   UNL     1      27.774  23.720  33.062  1.00  0.00     0.025 A 
ATOM     13  C   UNL     1      28.710  23.253  32.126  1.00  0.00     0.016 A 
ATOM     14  C   UNL     1      29.544  24.149  31.452  1.00  0.00     0.051 A 
ATOM     15  C   UNL     1      29.444  25.525  31.694  1.00  0.00     0.157 A 
ATOM     16  C   UNL     1      27.662  25.104  33.286  1.00  0.00     0.062 A 
ATOM     17  C   UNL     1      28.499  26.003  32.609  1.00  0.00     0.158 A 
BRANCH  15  18
ATOM     18  O   UNL     1      30.276  26.421  31.025  1.00  0.00    -0.504 OA
ATOM     19  H   UNL     1      30.372  27.383  31.329  1.00  0.00     0.293 HD
ENDBRANCH  15  18
BRANCH  17  20
ATOM     20  O   UNL     1      28.393  27.374  32.837  1.00  0.00    -0.504 OA
ATOM     21  H   UNL     1      29.195  27.988  32.761  1.00  0.00     0.293 HD
ENDBRANCH  17  20
ENDBRANCH   1  12
BRANCH   2  22
ATOM     22  O   UNL     1      28.527  20.970  33.581  1.00  0.00    -0.502 OA
ATOM     23  H   UNL     1      29.354  21.555  33.578  1.00  0.00     0.293 HD
ENDBRANCH   2  22
BRANCH   6  24
ATOM     24  O   UNL     1      24.416  19.024  36.354  1.00  0.00    -0.507 OA
ATOM     25  H   UNL     1      24.560  18.826  37.333  1.00  0.00     0.293 HD
ENDBRANCH   6  24
BRANCH   8  26
ATOM     26  O   UNL     1      21.306  22.637  35.938  1.00  0.00    -0.508 OA
ATOM     27  H   UNL     1      21.124  23.633  35.946  1.00  0.00     0.293 HD
ENDBRANCH   8  26
TORSDOF 6
ENDMDL
MODEL 8
REMARK VINA RESULT:    -7.214      1.633      7.582
REMARK INTER + INTRA:          -8.553
REMARK INTER:                  -8.847
REMARK INTRA:                   0.294
REMARK UNBOUND:                 0.137
REMARK SMILES O=c1c(O)c(-c2ccc(O)c(O)c2)oc2cc(O)cc(O)c12
REMARK SMILES IDX 5 1 3 2 2 3 1 4 22 5 20 6 19 7 17 8 16 9 15 10 14 11 6 12
REMARK SMILES IDX 7 13 8 14 9 15 13 16 11 17 10 18 12 20 4 22 21 24 18 26
REMARK H PARENT 10 19 12 21 4 23 21 25 18 27
REMARK Flexibility Score: inf
ROOT
ATOM      1  C   UNL     1      23.712  22.720  35.810  1.00  0.00     0.180 A 
ATOM      2  C   UNL     1      22.433  22.509  36.351  1.00  0.00     0.208 A 
ATOM      3  C   UNL     1      22.145  21.278  36.962  1.00  0.00     0.238 A 
ATOM      4  O   UNL     1      21.016  21.114  37.493  1.00  0.00    -0.285 OA
ATOM      5  C   UNL     1      23.136  20.267  37.010  1.00  0.00     0.111 A 
ATOM      6  C   UNL     1      22.942  18.968  37.567  1.00  0.00     0.134 A 
ATOM      7  C   UNL     1      24.031  18.094  37.678  1.00  0.00     0.093 A 
ATOM      8  C   UNL     1      25.289  18.447  37.193  1.00  0.00     0.123 A 
ATOM      9  C   UNL     1      25.476  19.692  36.590  1.00  0.00     0.094 A 
ATOM     10  C   UNL     1      24.418  20.599  36.498  1.00  0.00     0.146 A 
ATOM     11  O   UNL     1      24.640  21.777  35.929  1.00  0.00    -0.452 OA
ENDROOT
BRANCH   1  12
ATOM     12  C   UNL     1      24.081  23.982  35.129  1.00  0.00     0.025 A 
ATOM     13  C   UNL     1      23.096  24.711  34.444  1.00  0.00     0.016 A 
ATOM     14  C   UNL     1      23.418  25.915  33.813  1.00  0.00     0.051 A 
ATOM     15  C   UNL     1      24.725  26.416  33.870  1.00  0.00     0.157 A 
ATOM     16  C   UNL     1      25.388  24.499  35.202  1.00  0.00     0.062 A 
ATOM     17  C   UNL     1      25.710  25.708  34.569  1.00  0.00     0.158 A 
BRANCH  15  18
ATOM     18  O   UNL     1      25.050  27.615  33.239  1.00  0.00    -0.504 OA
ATOM     19  H   UNL     1      25.299  27.647  32.258  1.00  0.00     0.293 HD
ENDBRANCH  15  18
BRANCH  17  20
ATOM     20  O   UNL     1      27.006  26.215  34.636  1.00  0.00    -0.504 OA
ATOM     21  H   UNL     1      27.311  26.793  35.411  1.00  0.00     0.293 HD
ENDBRANCH  17  20
ENDBRANCH   1  12
BRANCH   2  22
ATOM     22  O   UNL     1      21.476  23.528  36.314  1.00  0.00    -0.502 OA
ATOM     23  H   UNL     1      21.695  24.488  36.551  1.00  0.00     0.293 HD
ENDBRANCH   2  22
BRANCH   6  24
ATOM     24  O   UNL     1      21.705  18.480  38.000  1.00  0.00    -0.507 OA
ATOM     25  H   UNL     1      20.902  18.343  37.404  1.00  0.00     0.293 HD
ENDBRANCH   6  24
BRANCH   8  26
ATOM     26  O   UNL     1      26.347  17.546  37.305  1.00  0.00    -0.508 OA
ATOM     27  H   UNL     1      26.382  16.861  38.049  1.00  0.00     0.293 HD
ENDBRANCH   8  26
TORSDOF 6
ENDMDL
MODEL 9
REMARK VINA RESULT:    -7.124      1.619      7.162
REMARK INTER + INTRA:          -8.445
REMARK INTER:                  -8.700
REMARK INTRA:                   0.256
REMARK UNBOUND:                 0.137
REMARK SMILES O=c1c(O)c(-c2ccc(O)c(O)c2)oc2cc(O)cc(O)c12
REMARK SMILES IDX 5 1 3 2 2 3 1 4 22 5 20 6 19 7 17 8 16 9 15 10 14 11 6 12
REMARK SMILES IDX 7 13 8 14 9 15 13 16 11 17 10 18 12 20 4 22 21 24 18 26
REMARK H PARENT 10 19 12 21 4 23 21 25 18 27
REMARK Flexibility Score: inf
ROOT
ATOM      1  C   UNL     1      24.168  23.974  34.638  1.00  0.00     0.180 A 
ATOM      2  C   UNL     1      23.247  23.152  35.308  1.00  0.00     0.208 A 
ATOM      3  C   UNL     1      23.603  21.825  35.601  1.00  0.00     0.238 A 
ATOM      4  O   UNL     1      22.795  21.110  36.249  1.00  0.00    -0.285 OA
ATOM      5  C   UNL     1      24.870  21.334  35.205  1.00  0.00     0.111 A 
ATOM      6  C   UNL     1      25.321  19.996  35.412  1.00  0.00     0.134 A 
ATOM      7  C   UNL     1      26.643  19.655  35.097  1.00  0.00     0.093 A 
ATOM      8  C   UNL     1      27.507  20.584  34.521  1.00  0.00     0.123 A 
ATOM      9  C   UNL     1      27.058  21.879  34.258  1.00  0.00     0.094 A 
ATOM     10  C   UNL     1      25.757  22.259  34.595  1.00  0.00     0.146 A 
ATOM     11  O   UNL     1      25.373  23.503  34.339  1.00  0.00    -0.452 OA
ENDROOT
BRANCH   1  12
ATOM     12  C   UNL     1      23.854  25.375  34.274  1.00  0.00     0.025 A 
ATOM     13  C   UNL     1      22.537  25.722  33.934  1.00  0.00     0.016 A 
ATOM     14  C   UNL     1      22.215  27.042  33.609  1.00  0.00     0.051 A 
ATOM     15  C   UNL     1      23.201  28.036  33.633  1.00  0.00     0.157 A 
ATOM     16  C   UNL     1      24.837  26.380  34.318  1.00  0.00     0.062 A 
ATOM     17  C   UNL     1      24.513  27.705  33.992  1.00  0.00     0.158 A 
BRANCH  15  18
ATOM     18  O   UNL     1      22.884  29.353  33.306  1.00  0.00    -0.504 OA
ATOM     19  H   UNL     1      22.504  29.597  32.399  1.00  0.00     0.293 HD
ENDBRANCH  15  18
BRANCH  17  20
ATOM     20  O   UNL     1      25.489  28.699  34.028  1.00  0.00    -0.504 OA
ATOM     21  H   UNL     1      26.430  28.532  33.689  1.00  0.00     0.293 HD
ENDBRANCH  17  20
ENDBRANCH   1  12
BRANCH   2  22
ATOM     22  O   UNL     1      22.009  23.664  35.711  1.00  0.00    -0.502 OA
ATOM     23  H   UNL     1      21.862  24.649  35.894  1.00  0.00     0.293 HD
ENDBRANCH   2  22
BRANCH   6  24
ATOM     24  O   UNL     1      24.510  18.965  35.897  1.00  0.00    -0.507 OA
ATOM     25  H   UNL     1      23.528  18.861  35.691  1.00  0.00     0.293 HD
ENDBRANCH   6  24
BRANCH   8  26
ATOM     26  O   UNL     1      28.811  20.207  34.205  1.00  0.00    -0.508 OA
ATOM     27  H   UNL     1      29.291  19.479  34.719  1.00  0.00     0.293 HD
ENDBRANCH   8  26
TORSDOF 6
ENDMDL
