MODEL 1
REMARK VINA RESULT:    -2.606      0.000      0.000
REMARK INTER + INTRA:          -6.004
REMARK INTER:                  -4.434
REMARK INTRA:                  -1.570
REMARK UNBOUND:                -1.570
REMARK SMILES CCCCCCCCCCCCCC(=O)[O-]
REMARK SMILES IDX 8 1 9 2 10 3 11 4 12 5 13 6 14 7 15 8 16 9 7 10 6 11 5 12
REMARK SMILES IDX 4 13 3 14 2 15 1 16
REMARK H PARENT
REMARK Flexibility Score: inf
ROOT
ATOM      1  C   UNL     1     146.006 151.693 155.103  1.00  0.00     0.000 C 
ENDROOT
BRANCH   1   2
ATOM      2  C   UNL     1     144.955 150.640 154.715  1.00  0.00     0.000 C 
BRANCH   2   3
ATOM      3  C   UNL     1     143.957 151.160 153.669  1.00  0.00     0.000 C 
BRANCH   3   4
ATOM      4  C   UNL     1     144.243 150.629 152.254  1.00  0.00     0.000 C 
BRANCH   4   5
ATOM      5  C   UNL     1     144.518 151.743 151.222  1.00  0.00     0.006 C 
BRANCH   5   6
ATOM      6  C   UNL     1     145.817 151.504 150.441  1.00  0.00     0.053 C 
BRANCH   6   7
ATOM      7  C   UNL     1     145.698 150.282 149.586  1.00  0.00     0.041 C 
ATOM      8  O   UNL     1     146.286 149.219 149.915  1.00  0.00    -0.550 OA
ATOM      9  O   UNL     1     144.975 150.331 148.401  1.00  0.00    -0.550 OA
ENDBRANCH   6   7
ENDBRANCH   5   6
ENDBRANCH   4   5
ENDBRANCH   3   4
ENDBRANCH   2   3
ENDBRANCH   1   2
BRANCH   1  10
ATOM     10  C   UNL     1     145.379 152.937 155.758  1.00  0.00     0.000 C 
BRANCH  10  11
ATOM     11  C   UNL     1     145.766 154.242 155.045  1.00  0.00    -0.000 C 
BRANCH  11  12
ATOM     12  C   UNL     1     146.730 154.008 153.870  1.00  0.00    -0.000 C 
BRANCH  12  13
ATOM     13  C   UNL     1     146.333 154.795 152.609  1.00  0.00    -0.000 C 
BRANCH  13  14
ATOM     14  C   UNL     1     145.765 156.199 152.907  1.00  0.00    -0.000 C 
BRANCH  14  15
ATOM     15  C   UNL     1     144.421 156.441 152.204  1.00  0.00    -0.003 C 
ATOM     16  C   UNL     1     143.512 155.220 152.317  1.00  0.00     0.004 C 
ENDBRANCH  14  15
ENDBRANCH  13  14
ENDBRANCH  12  13
ENDBRANCH  11  12
ENDBRANCH  10  11
ENDBRANCH   1  10
TORSDOF 12
ENDMDL
MODEL 2
REMARK VINA RESULT:    -2.592      7.161     11.135
REMARK INTER + INTRA:          -5.981
REMARK INTER:                  -3.762
REMARK INTRA:                  -2.219
REMARK UNBOUND:                -1.570
REMARK SMILES CCCCCCCCCCCCCC(=O)[O-]
REMARK SMILES IDX 8 1 9 2 10 3 11 4 12 5 13 6 14 7 15 8 16 9 7 10 6 11 5 12
REMARK SMILES IDX 4 13 3 14 2 15 1 16
REMARK H PARENT
REMARK Flexibility Score: inf
ROOT
ATOM      1  C   UNL     1     146.027 146.212 142.698  1.00  0.00     0.000 C 
ENDROOT
BRANCH   1   2
ATOM      2  C   UNL     1     144.924 146.386 143.754  1.00  0.00     0.000 C 
BRANCH   2   3
ATOM      3  C   UNL     1     143.646 147.012 143.175  1.00  0.00     0.000 C 
BRANCH   3   4
ATOM      4  C   UNL     1     143.256 148.327 143.871  1.00  0.00     0.000 C 
BRANCH   4   5
ATOM      5  C   UNL     1     144.240 148.753 144.981  1.00  0.00     0.006 C 
BRANCH   5   6
ATOM      6  C   UNL     1     144.503 150.265 144.977  1.00  0.00     0.053 C 
BRANCH   6   7
ATOM      7  C   UNL     1     144.474 150.805 146.371  1.00  0.00     0.041 C 
ATOM      8  O   UNL     1     144.641 150.034 147.353  1.00  0.00    -0.550 OA
ATOM      9  O   UNL     1     144.215 152.152 146.590  1.00  0.00    -0.550 OA
ENDBRANCH   6   7
ENDBRANCH   5   6
ENDBRANCH   4   5
ENDBRANCH   3   4
ENDBRANCH   2   3
ENDBRANCH   1   2
BRANCH   1  10
ATOM     10  C   UNL     1     147.331 146.935 143.084  1.00  0.00     0.000 C 
BRANCH  10  11
ATOM     11  C   UNL     1     147.256 148.454 142.859  1.00  0.00    -0.000 C 
BRANCH  11  12
ATOM     12  C   UNL     1     146.725 148.818 141.463  1.00  0.00    -0.000 C 
BRANCH  12  13
ATOM     13  C   UNL     1     145.675 149.942 141.501  1.00  0.00    -0.000 C 
BRANCH  13  14
ATOM     14  C   UNL     1     144.450 149.677 140.600  1.00  0.00    -0.000 C 
BRANCH  14  15
ATOM     15  C   UNL     1     144.586 148.369 139.807  1.00  0.00    -0.003 C 
ATOM     16  C   UNL     1     143.219 147.761 139.508  1.00  0.00     0.004 C 
ENDBRANCH  14  15
ENDBRANCH  13  14
ENDBRANCH  12  13
ENDBRANCH  11  12
ENDBRANCH  10  11
ENDBRANCH   1  10
TORSDOF 12
ENDMDL
MODEL 3
REMARK VINA RESULT:    -2.584      1.102      1.950
REMARK INTER + INTRA:          -5.967
REMARK INTER:                  -4.124
REMARK INTRA:                  -1.843
REMARK UNBOUND:                -1.570
REMARK SMILES CCCCCCCCCCCCCC(=O)[O-]
REMARK SMILES IDX 8 1 9 2 10 3 11 4 12 5 13 6 14 7 15 8 16 9 7 10 6 11 5 12
REMARK SMILES IDX 4 13 3 14 2 15 1 16
REMARK H PARENT
REMARK Flexibility Score: inf
ROOT
ATOM      1  C   UNL     1     145.567 151.442 154.602  1.00  0.00     0.000 C 
ENDROOT
BRANCH   1   2
ATOM      2  C   UNL     1     144.338 150.553 154.354  1.00  0.00     0.000 C 
BRANCH   2   3
ATOM      3  C   UNL     1     144.228 150.094 152.891  1.00  0.00     0.000 C 
BRANCH   3   4
ATOM      4  C   UNL     1     143.544 151.134 151.988  1.00  0.00     0.000 C 
BRANCH   4   5
ATOM      5  C   UNL     1     144.519 151.863 151.039  1.00  0.00     0.006 C 
BRANCH   5   6
ATOM      6  C   UNL     1     144.445 151.324 149.604  1.00  0.00     0.053 C 
BRANCH   6   7
ATOM      7  C   UNL     1     145.763 150.749 149.192  1.00  0.00     0.041 C 
ATOM      8  O   UNL     1     146.493 151.363 148.371  1.00  0.00    -0.550 OA
ATOM      9  O   UNL     1     146.163 149.510 149.678  1.00  0.00    -0.550 OA
ENDBRANCH   6   7
ENDBRANCH   5   6
ENDBRANCH   4   5
ENDBRANCH   3   4
ENDBRANCH   2   3
ENDBRANCH   1   2
BRANCH   1  10
ATOM     10  C   UNL     1     145.359 152.420 155.773  1.00  0.00     0.000 C 
BRANCH  10  11
ATOM     11  C   UNL     1     143.977 153.093 155.745  1.00  0.00    -0.000 C 
BRANCH  11  12
ATOM     12  C   UNL     1     144.011 154.483 155.087  1.00  0.00    -0.000 C 
BRANCH  12  13
ATOM     13  C   UNL     1     143.534 154.461 153.625  1.00  0.00    -0.000 C 
BRANCH  13  14
ATOM     14  C   UNL     1     144.533 155.101 152.637  1.00  0.00    -0.000 C 
BRANCH  14  15
ATOM     15  C   UNL     1     145.910 155.333 153.275  1.00  0.00    -0.003 C 
ATOM     16  C   UNL     1     146.951 154.374 152.703  1.00  0.00     0.004 C 
ENDBRANCH  14  15
ENDBRANCH  13  14
ENDBRANCH  12  13
ENDBRANCH  11  12
ENDBRANCH  10  11
ENDBRANCH   1  10
TORSDOF 12
ENDMDL
MODEL 4
REMARK VINA RESULT:    -2.546      9.693     12.419
REMARK INTER + INTRA:          -5.903
REMARK INTER:                  -4.048
REMARK INTRA:                  -1.855
REMARK UNBOUND:                -1.570
REMARK SMILES CCCCCCCCCCCCCC(=O)[O-]
REMARK SMILES IDX 8 1 9 2 10 3 11 4 12 5 13 6 14 7 15 8 16 9 7 10 6 11 5 12
REMARK SMILES IDX 4 13 3 14 2 15 1 16
REMARK H PARENT
REMARK Flexibility Score: inf
ROOT
ATOM      1  C   UNL     1     147.429 148.224 142.937  1.00  0.00     0.000 C 
ENDROOT
BRANCH   1   2
ATOM      2  C   UNL     1     146.798 149.063 141.814  1.00  0.00     0.000 C 
BRANCH   2   3
ATOM      3  C   UNL     1     146.458 148.225 140.571  1.00  0.00     0.000 C 
BRANCH   3   4
ATOM      4  C   UNL     1     144.960 148.251 140.225  1.00  0.00     0.000 C 
BRANCH   4   5
ATOM      5  C   UNL     1     144.338 149.662 140.278  1.00  0.00     0.006 C 
BRANCH   5   6
ATOM      6  C   UNL     1     143.183 149.827 139.280  1.00  0.00     0.053 C 
BRANCH   6   7
ATOM      7  C   UNL     1     143.683 150.396 137.991  1.00  0.00     0.041 C 
ATOM      8  O   UNL     1     143.609 151.634 137.774  1.00  0.00    -0.550 OA
ATOM      9  O   UNL     1     144.186 149.554 137.007  1.00  0.00    -0.550 OA
ENDBRANCH   6   7
ENDBRANCH   5   6
ENDBRANCH   4   5
ENDBRANCH   3   4
ENDBRANCH   2   3
ENDBRANCH   1   2
BRANCH   1  10
ATOM     10  C   UNL     1     147.475 146.723 142.595  1.00  0.00     0.000 C 
BRANCH  10  11
ATOM     11  C   UNL     1     146.605 145.873 143.535  1.00  0.00    -0.000 C 
BRANCH  11  12
ATOM     12  C   UNL     1     145.137 145.808 143.081  1.00  0.00    -0.000 C 
BRANCH  12  13
ATOM     13  C   UNL     1     144.172 146.448 144.094  1.00  0.00    -0.000 C 
BRANCH  13  14
ATOM     14  C   UNL     1     143.796 147.907 143.757  1.00  0.00    -0.000 C 
BRANCH  14  15
ATOM     15  C   UNL     1     144.051 148.857 144.936  1.00  0.00    -0.003 C 
ATOM     16  C   UNL     1     144.584 150.204 144.453  1.00  0.00     0.004 C 
ENDBRANCH  14  15
ENDBRANCH  13  14
ENDBRANCH  12  13
ENDBRANCH  11  12
ENDBRANCH  10  11
ENDBRANCH   1  10
TORSDOF 12
ENDMDL
MODEL 5
REMARK VINA RESULT:    -2.488      7.270     11.324
REMARK INTER + INTRA:          -5.804
REMARK INTER:                  -3.817
REMARK INTRA:                  -1.987
REMARK UNBOUND:                -1.570
REMARK SMILES CCCCCCCCCCCCCC(=O)[O-]
REMARK SMILES IDX 8 1 9 2 10 3 11 4 12 5 13 6 14 7 15 8 16 9 7 10 6 11 5 12
REMARK SMILES IDX 4 13 3 14 2 15 1 16
REMARK H PARENT
REMARK Flexibility Score: inf
ROOT
ATOM      1  C   UNL     1     145.761 148.488 140.969  1.00  0.00     0.000 C 
ENDROOT
BRANCH   1   2
ATOM      2  C   UNL     1     144.294 148.728 141.361  1.00  0.00     0.000 C 
BRANCH   2   3
ATOM      3  C   UNL     1     143.806 147.754 142.446  1.00  0.00     0.000 C 
BRANCH   3   4
ATOM      4  C   UNL     1     143.216 148.472 143.672  1.00  0.00     0.000 C 
BRANCH   4   5
ATOM      5  C   UNL     1     144.242 148.711 144.800  1.00  0.00     0.006 C 
BRANCH   5   6
ATOM      6  C   UNL     1     144.713 150.171 144.857  1.00  0.00     0.053 C 
BRANCH   6   7
ATOM      7  C   UNL     1     144.438 150.757 146.206  1.00  0.00     0.041 C 
ATOM      8  O   UNL     1     143.988 151.928 146.307  1.00  0.00    -0.550 OA
ATOM      9  O   UNL     1     144.724 150.027 147.353  1.00  0.00    -0.550 OA
ENDBRANCH   6   7
ENDBRANCH   5   6
ENDBRANCH   4   5
ENDBRANCH   3   4
ENDBRANCH   2   3
ENDBRANCH   1   2
BRANCH   1  10
ATOM     10  C   UNL     1     146.738 149.353 141.785  1.00  0.00     0.000 C 
BRANCH  10  11
ATOM     11  C   UNL     1     147.412 148.573 142.925  1.00  0.00    -0.000 C 
BRANCH  11  12
ATOM     12  C   UNL     1     147.603 147.085 142.587  1.00  0.00    -0.000 C 
BRANCH  12  13
ATOM     13  C   UNL     1     146.933 146.152 143.611  1.00  0.00    -0.000 C 
BRANCH  13  14
ATOM     14  C   UNL     1     146.180 144.967 142.971  1.00  0.00    -0.000 C 
BRANCH  14  15
ATOM     15  C   UNL     1     145.123 144.376 143.914  1.00  0.00    -0.003 C 
ATOM     16  C   UNL     1     145.062 145.148 145.229  1.00  0.00     0.004 C 
ENDBRANCH  14  15
ENDBRANCH  13  14
ENDBRANCH  12  13
ENDBRANCH  11  12
ENDBRANCH  10  11
ENDBRANCH   1  10
TORSDOF 12
ENDMDL
MODEL 6
REMARK VINA RESULT:    -2.484      6.661     11.180
REMARK INTER + INTRA:          -5.797
REMARK INTER:                  -4.005
REMARK INTRA:                  -1.792
REMARK UNBOUND:                -1.570
REMARK SMILES CCCCCCCCCCCCCC(=O)[O-]
REMARK SMILES IDX 8 1 9 2 10 3 11 4 12 5 13 6 14 7 15 8 16 9 7 10 6 11 5 12
REMARK SMILES IDX 4 13 3 14 2 15 1 16
REMARK H PARENT
REMARK Flexibility Score: inf
ROOT
ATOM      1  C   UNL     1     146.502 149.846 141.836  1.00  0.00     0.000 C 
ENDROOT
BRANCH   1   2
ATOM      2  C   UNL     1     146.333 149.691 143.356  1.00  0.00     0.000 C 
BRANCH   2   3
ATOM      3  C   UNL     1     144.916 150.051 143.831  1.00  0.00     0.000 C 
BRANCH   3   4
ATOM      4  C   UNL     1     144.382 149.086 144.904  1.00  0.00     0.000 C 
BRANCH   4   5
ATOM      5  C   UNL     1     143.573 149.787 146.016  1.00  0.00     0.006 C 
BRANCH   5   6
ATOM      6  C   UNL     1     144.339 149.845 147.344  1.00  0.00     0.053 C 
BRANCH   6   7
ATOM      7  C   UNL     1     144.505 151.263 147.791  1.00  0.00     0.041 C 
ATOM      8  O   UNL     1     144.550 151.538 149.019  1.00  0.00    -0.550 OA
ATOM      9  O   UNL     1     144.560 152.286 146.853  1.00  0.00    -0.550 OA
ENDBRANCH   6   7
ENDBRANCH   5   6
ENDBRANCH   4   5
ENDBRANCH   3   4
ENDBRANCH   2   3
ENDBRANCH   1   2
BRANCH   1  10
ATOM     10  C   UNL     1     145.163 149.751 141.082  1.00  0.00     0.000 C 
BRANCH  10  11
ATOM     11  C   UNL     1     144.910 148.353 140.495  1.00  0.00    -0.000 C 
BRANCH  11  12
ATOM     12  C   UNL     1     143.787 147.601 141.228  1.00  0.00    -0.000 C 
BRANCH  12  13
ATOM     13  C   UNL     1     144.322 146.542 142.208  1.00  0.00    -0.000 C 
BRANCH  13  14
ATOM     14  C   UNL     1     145.777 146.112 141.924  1.00  0.00    -0.000 C 
BRANCH  14  15
ATOM     15  C   UNL     1     146.633 146.088 143.198  1.00  0.00    -0.003 C 
ATOM     16  C   UNL     1     148.092 146.409 142.889  1.00  0.00     0.004 C 
ENDBRANCH  14  15
ENDBRANCH  13  14
ENDBRANCH  12  13
ENDBRANCH  11  12
ENDBRANCH  10  11
ENDBRANCH   1  10
TORSDOF 12
ENDMDL
MODEL 7
REMARK VINA RESULT:    -2.483      9.309     12.262
REMARK INTER + INTRA:          -5.795
REMARK INTER:                  -3.479
REMARK INTRA:                  -2.316
REMARK UNBOUND:                -1.570
REMARK SMILES CCCCCCCCCCCCCC(=O)[O-]
REMARK SMILES IDX 8 1 9 2 10 3 11 4 12 5 13 6 14 7 15 8 16 9 7 10 6 11 5 12
REMARK SMILES IDX 4 13 3 14 2 15 1 16
REMARK H PARENT
REMARK Flexibility Score: inf
ROOT
ATOM      1  C   UNL     1     147.033 148.811 142.992  1.00  0.00     0.000 C 
ENDROOT
BRANCH   1   2
ATOM      2  C   UNL     1     146.749 149.618 141.714  1.00  0.00     0.000 C 
BRANCH   2   3
ATOM      3  C   UNL     1     145.252 149.909 141.521  1.00  0.00     0.000 C 
BRANCH   3   4
ATOM      4  C   UNL     1     144.492 148.734 140.883  1.00  0.00     0.000 C 
BRANCH   4   5
ATOM      5  C   UNL     1     145.003 148.359 139.476  1.00  0.00     0.006 C 
BRANCH   5   6
ATOM      6  C   UNL     1     145.156 146.843 139.298  1.00  0.00     0.053 C 
BRANCH   6   7
ATOM      7  C   UNL     1     146.602 146.468 139.219  1.00  0.00     0.041 C 
ATOM      8  O   UNL     1     147.479 147.358 139.059  1.00  0.00    -0.550 OA
ATOM      9  O   UNL     1     146.978 145.132 139.273  1.00  0.00    -0.550 OA
ENDBRANCH   6   7
ENDBRANCH   5   6
ENDBRANCH   4   5
ENDBRANCH   3   4
ENDBRANCH   2   3
ENDBRANCH   1   2
BRANCH   1  10
ATOM     10  C   UNL     1     147.495 147.374 142.689  1.00  0.00     0.000 C 
BRANCH  10  11
ATOM     11  C   UNL     1     146.736 146.321 143.514  1.00  0.00    -0.000 C 
BRANCH  11  12
ATOM     12  C   UNL     1     145.566 145.696 142.738  1.00  0.00    -0.000 C 
BRANCH  12  13
ATOM     13  C   UNL     1     144.203 145.963 143.400  1.00  0.00    -0.000 C 
BRANCH  13  14
ATOM     14  C   UNL     1     144.283 146.886 144.634  1.00  0.00    -0.000 C 
BRANCH  14  15
ATOM     15  C   UNL     1     143.574 148.228 144.401  1.00  0.00    -0.003 C 
ATOM     16  C   UNL     1     144.243 149.350 145.190  1.00  0.00     0.004 C 
ENDBRANCH  14  15
ENDBRANCH  13  14
ENDBRANCH  12  13
ENDBRANCH  11  12
ENDBRANCH  10  11
ENDBRANCH   1  10
TORSDOF 12
ENDMDL
MODEL 8
REMARK VINA RESULT:    -2.469      5.899     10.071
REMARK INTER + INTRA:          -5.772
REMARK INTER:                  -4.083
REMARK INTRA:                  -1.689
REMARK UNBOUND:                -1.570
REMARK SMILES CCCCCCCCCCCCCC(=O)[O-]
REMARK SMILES IDX 8 1 9 2 10 3 11 4 12 5 13 6 14 7 15 8 16 9 7 10 6 11 5 12
REMARK SMILES IDX 4 13 3 14 2 15 1 16
REMARK H PARENT
REMARK Flexibility Score: inf
ROOT
ATOM      1  C   UNL     1     144.282 147.623 144.668  1.00  0.00     0.000 C 
ENDROOT
BRANCH   1   2
ATOM      2  C   UNL     1     143.264 148.555 143.992  1.00  0.00     0.000 C 
BRANCH   2   3
ATOM      3  C   UNL     1     143.593 150.042 144.205  1.00  0.00     0.000 C 
BRANCH   3   4
ATOM      4  C   UNL     1     144.650 150.269 145.298  1.00  0.00     0.000 C 
BRANCH   4   5
ATOM      5  C   UNL     1     144.062 150.793 146.626  1.00  0.00     0.006 C 
BRANCH   5   6
ATOM      6  C   UNL     1     145.132 151.426 147.526  1.00  0.00     0.053 C 
BRANCH   6   7
ATOM      7  C   UNL     1     145.397 150.558 148.714  1.00  0.00     0.041 C 
ATOM      8  O   UNL     1     146.029 151.013 149.703  1.00  0.00    -0.550 OA
ATOM      9  O   UNL     1     144.988 149.230 148.711  1.00  0.00    -0.550 OA
ENDBRANCH   6   7
ENDBRANCH   5   6
ENDBRANCH   4   5
ENDBRANCH   3   4
ENDBRANCH   2   3
ENDBRANCH   1   2
BRANCH   1  10
ATOM     10  C   UNL     1     144.206 146.181 144.131  1.00  0.00     0.000 C 
BRANCH  10  11
ATOM     11  C   UNL     1     145.316 145.867 143.116  1.00  0.00    -0.000 C 
BRANCH  11  12
ATOM     12  C   UNL     1     146.664 146.496 143.503  1.00  0.00    -0.000 C 
BRANCH  12  13
ATOM     13  C   UNL     1     147.212 147.444 142.422  1.00  0.00    -0.000 C 
BRANCH  13  14
ATOM     14  C   UNL     1     147.288 148.919 142.870  1.00  0.00    -0.000 C 
BRANCH  14  15
ATOM     15  C   UNL     1     146.450 149.841 141.974  1.00  0.00    -0.003 C 
ATOM     16  C   UNL     1     145.568 149.034 141.025  1.00  0.00     0.004 C 
ENDBRANCH  14  15
ENDBRANCH  13  14
ENDBRANCH  12  13
ENDBRANCH  11  12
ENDBRANCH  10  11
ENDBRANCH   1  10
TORSDOF 12
ENDMDL
MODEL 9
REMARK VINA RESULT:    -2.449      7.030     11.185
REMARK INTER + INTRA:          -5.738
REMARK INTER:                  -4.156
REMARK INTRA:                  -1.582
REMARK UNBOUND:                -1.570
REMARK SMILES CCCCCCCCCCCCCC(=O)[O-]
REMARK SMILES IDX 8 1 9 2 10 3 11 4 12 5 13 6 14 7 15 8 16 9 7 10 6 11 5 12
REMARK SMILES IDX 4 13 3 14 2 15 1 16
REMARK H PARENT
REMARK Flexibility Score: inf
ROOT
ATOM      1  C   UNL     1     147.060 149.132 142.445  1.00  0.00     0.000 C 
ENDROOT
BRANCH   1   2
ATOM      2  C   UNL     1     146.019 149.834 143.331  1.00  0.00     0.000 C 
BRANCH   2   3
ATOM      3  C   UNL     1     144.885 148.893 143.769  1.00  0.00     0.000 C 
BRANCH   3   4
ATOM      4  C   UNL     1     143.834 149.592 144.647  1.00  0.00     0.000 C 
BRANCH   4   5
ATOM      5  C   UNL     1     144.267 149.751 146.120  1.00  0.00     0.006 C 
BRANCH   5   6
ATOM      6  C   UNL     1     144.572 151.211 146.481  1.00  0.00     0.053 C 
BRANCH   6   7
ATOM      7  C   UNL     1     145.038 151.314 147.899  1.00  0.00     0.041 C 
ATOM      8  O   UNL     1     144.203 151.305 148.842  1.00  0.00    -0.550 OA
ATOM      9  O   UNL     1     146.390 151.467 148.178  1.00  0.00    -0.550 OA
ENDBRANCH   6   7
ENDBRANCH   5   6
ENDBRANCH   4   5
ENDBRANCH   3   4
ENDBRANCH   2   3
ENDBRANCH   1   2
BRANCH   1  10
ATOM     10  C   UNL     1     147.392 147.712 142.940  1.00  0.00     0.000 C 
BRANCH  10  11
ATOM     11  C   UNL     1     147.193 146.643 141.853  1.00  0.00    -0.000 C 
BRANCH  11  12
ATOM     12  C   UNL     1     146.375 147.162 140.659  1.00  0.00    -0.000 C 
BRANCH  12  13
ATOM     13  C   UNL     1     144.923 146.654 140.668  1.00  0.00    -0.000 C 
BRANCH  13  14
ATOM     14  C   UNL     1     143.881 147.748 140.352  1.00  0.00    -0.000 C 
BRANCH  14  15
ATOM     15  C   UNL     1     144.525 149.002 139.744  1.00  0.00    -0.003 C 
ATOM     16  C   UNL     1     143.874 150.273 140.285  1.00  0.00     0.004 C 
ENDBRANCH  14  15
ENDBRANCH  13  14
ENDBRANCH  12  13
ENDBRANCH  11  12
ENDBRANCH  10  11
ENDBRANCH   1  10
TORSDOF 12
ENDMDL
