MODEL 1
REMARK VINA RESULT:    -5.762      0.000      0.000
REMARK INTER + INTRA:          -6.500
REMARK INTER:                  -6.267
REMARK INTRA:                  -0.233
REMARK UNBOUND:                -0.233
REMARK SMILES O=C([O-])c1ccccc1O
REMARK SMILES IDX 4 1 9 2 5 3 8 4 6 5 7 6 2 7 1 8 3 9 10 10
REMARK H PARENT 10 11
REMARK Flexibility Score: inf
ROOT
ATOM      1  C   UNL     1     -23.883  17.834  20.096  1.00  0.00     0.039 A 
ATOM      2  C   UNL     1     -23.726  18.662  21.232  1.00  0.00     0.124 A 
ATOM      3  C   UNL     1     -23.194  18.167  18.913  1.00  0.00     0.014 A 
ATOM      4  C   UNL     1     -22.897  19.793  21.164  1.00  0.00     0.047 A 
ATOM      5  C   UNL     1     -22.372  19.295  18.860  1.00  0.00     0.001 A 
ATOM      6  C   UNL     1     -22.223  20.107  19.984  1.00  0.00     0.004 A 
ENDROOT
BRANCH   1   7
ATOM      7  C   UNL     1     -24.751  16.627  20.122  1.00  0.00     0.075 C 
ATOM      8  O   UNL     1     -25.986  16.737  20.341  1.00  0.00    -0.545 OA
ATOM      9  O   UNL     1     -24.225  15.359  19.907  1.00  0.00    -0.545 OA
ENDBRANCH   1   7
BRANCH   2  10
ATOM     10  O   UNL     1     -24.387  18.372  22.425  1.00  0.00    -0.507 OA
ATOM     11  H   UNL     1     -24.015  17.708  23.093  1.00  0.00     0.293 HD
ENDBRANCH   2  10
TORSDOF 2
ENDMDL
MODEL 2
REMARK VINA RESULT:    -5.280      1.800      3.429
REMARK INTER + INTRA:          -5.976
REMARK INTER:                  -5.750
REMARK INTRA:                  -0.226
REMARK UNBOUND:                -0.233
REMARK SMILES O=C([O-])c1ccccc1O
REMARK SMILES IDX 4 1 9 2 5 3 8 4 6 5 7 6 2 7 1 8 3 9 10 10
REMARK H PARENT 10 11
REMARK Flexibility Score: inf
ROOT
ATOM      1  C   UNL     1     -23.507  18.398  20.053  1.00  0.00     0.039 A 
ATOM      2  C   UNL     1     -24.408  17.893  21.019  1.00  0.00     0.124 A 
ATOM      3  C   UNL     1     -23.576  17.904  18.735  1.00  0.00     0.014 A 
ATOM      4  C   UNL     1     -25.349  16.917  20.654  1.00  0.00     0.047 A 
ATOM      5  C   UNL     1     -24.519  16.933  18.386  1.00  0.00     0.001 A 
ATOM      6  C   UNL     1     -25.404  16.440  19.344  1.00  0.00     0.004 A 
ENDROOT
BRANCH   1   7
ATOM      7  C   UNL     1     -22.493  19.431  20.394  1.00  0.00     0.075 C 
ATOM      8  O   UNL     1     -22.076  20.228  19.513  1.00  0.00    -0.545 OA
ATOM      9  O   UNL     1     -21.986  19.541  21.684  1.00  0.00    -0.545 OA
ENDBRANCH   1   7
BRANCH   2  10
ATOM     10  O   UNL     1     -24.377  18.351  22.335  1.00  0.00    -0.507 OA
ATOM     11  H   UNL     1     -23.550  18.255  22.914  1.00  0.00     0.293 HD
ENDBRANCH   2  10
TORSDOF 2
ENDMDL
MODEL 3
REMARK VINA RESULT:    -5.144      2.644      4.172
REMARK INTER + INTRA:          -5.829
REMARK INTER:                  -5.583
REMARK INTRA:                  -0.246
REMARK UNBOUND:                -0.233
REMARK SMILES O=C([O-])c1ccccc1O
REMARK SMILES IDX 4 1 9 2 5 3 8 4 6 5 7 6 2 7 1 8 3 9 10 10
REMARK H PARENT 10 11
REMARK Flexibility Score: inf
ROOT
ATOM      1  C   UNL     1     -23.239  17.390  18.865  1.00  0.00     0.039 A 
ATOM      2  C   UNL     1     -22.246  16.383  18.847  1.00  0.00     0.124 A 
ATOM      3  C   UNL     1     -24.496  17.115  18.292  1.00  0.00     0.014 A 
ATOM      4  C   UNL     1     -22.525  15.136  18.264  1.00  0.00     0.047 A 
ATOM      5  C   UNL     1     -24.760  15.869  17.716  1.00  0.00     0.001 A 
ATOM      6  C   UNL     1     -23.776  14.882  17.702  1.00  0.00     0.004 A 
ENDROOT
BRANCH   1   7
ATOM      7  C   UNL     1     -22.987  18.725  19.470  1.00  0.00     0.075 C 
ATOM      8  O   UNL     1     -22.023  19.431  19.074  1.00  0.00    -0.545 OA
ATOM      9  O   UNL     1     -23.804  19.220  20.479  1.00  0.00    -0.545 OA
ENDBRANCH   1   7
BRANCH   2  10
ATOM     10  O   UNL     1     -20.987  16.609  19.402  1.00  0.00    -0.507 OA
ATOM     11  H   UNL     1     -20.844  16.642  20.405  1.00  0.00     0.293 HD
ENDBRANCH   2  10
TORSDOF 2
ENDMDL
MODEL 4
REMARK VINA RESULT:    -5.066      2.208      3.667
REMARK INTER + INTRA:          -5.743
REMARK INTER:                  -5.488
REMARK INTRA:                  -0.255
REMARK UNBOUND:                -0.233
REMARK SMILES O=C([O-])c1ccccc1O
REMARK SMILES IDX 4 1 9 2 5 3 8 4 6 5 7 6 2 7 1 8 3 9 10 10
REMARK H PARENT 10 11
REMARK Flexibility Score: inf
ROOT
ATOM      1  C   UNL     1     -22.756  17.831  19.739  1.00  0.00     0.039 A 
ATOM      2  C   UNL     1     -23.985  17.430  20.314  1.00  0.00     0.124 A 
ATOM      3  C   UNL     1     -21.997  16.880  19.028  1.00  0.00     0.014 A 
ATOM      4  C   UNL     1     -24.426  16.105  20.170  1.00  0.00     0.047 A 
ATOM      5  C   UNL     1     -22.448  15.564  18.892  1.00  0.00     0.001 A 
ATOM      6  C   UNL     1     -23.661  15.178  19.462  1.00  0.00     0.004 A 
ENDROOT
BRANCH   1   7
ATOM      7  C   UNL     1     -22.250  19.223  19.867  1.00  0.00     0.075 C 
ATOM      8  O   UNL     1     -21.815  19.837  18.857  1.00  0.00    -0.545 OA
ATOM      9  O   UNL     1     -22.245  19.875  21.094  1.00  0.00    -0.545 OA
ENDBRANCH   1   7
BRANCH   2  10
ATOM     10  O   UNL     1     -24.770  18.337  21.026  1.00  0.00    -0.507 OA
ATOM     11  H   UNL     1     -25.645  18.062  21.455  1.00  0.00     0.293 HD
ENDBRANCH   2  10
TORSDOF 2
ENDMDL
MODEL 5
REMARK VINA RESULT:    -4.846      2.209      4.057
REMARK INTER + INTRA:          -5.504
REMARK INTER:                  -5.263
REMARK INTRA:                  -0.241
REMARK UNBOUND:                -0.233
REMARK SMILES O=C([O-])c1ccccc1O
REMARK SMILES IDX 4 1 9 2 5 3 8 4 6 5 7 6 2 7 1 8 3 9 10 10
REMARK H PARENT 10 11
REMARK Flexibility Score: inf
ROOT
ATOM      1  C   UNL     1     -23.239  17.806  20.034  1.00  0.00     0.039 A 
ATOM      2  C   UNL     1     -22.616  16.724  19.369  1.00  0.00     0.124 A 
ATOM      3  C   UNL     1     -24.573  17.661  20.464  1.00  0.00     0.014 A 
ATOM      4  C   UNL     1     -23.328  15.535  19.148  1.00  0.00     0.047 A 
ATOM      5  C   UNL     1     -25.270  16.471  20.238  1.00  0.00     0.001 A 
ATOM      6  C   UNL     1     -24.649  15.410  19.581  1.00  0.00     0.004 A 
ENDROOT
BRANCH   1   7
ATOM      7  C   UNL     1     -22.523  19.084  20.289  1.00  0.00     0.075 C 
ATOM      8  O   UNL     1     -22.416  19.531  21.461  1.00  0.00    -0.545 OA
ATOM      9  O   UNL     1     -21.959  19.810  19.247  1.00  0.00    -0.545 OA
ENDBRANCH   1   7
BRANCH   2  10
ATOM     10  O   UNL     1     -21.297  16.822  18.926  1.00  0.00    -0.507 OA
ATOM     11  H   UNL     1     -20.835  16.053  18.454  1.00  0.00     0.293 HD
ENDBRANCH   2  10
TORSDOF 2
ENDMDL
MODEL 6
REMARK VINA RESULT:    -4.792      1.326      2.397
REMARK INTER + INTRA:          -5.445
REMARK INTER:                  -5.222
REMARK INTRA:                  -0.223
REMARK UNBOUND:                -0.233
REMARK SMILES O=C([O-])c1ccccc1O
REMARK SMILES IDX 4 1 9 2 5 3 8 4 6 5 7 6 2 7 1 8 3 9 10 10
REMARK H PARENT 10 11
REMARK Flexibility Score: inf
ROOT
ATOM      1  C   UNL     1     -23.720  17.378  20.085  1.00  0.00     0.039 A 
ATOM      2  C   UNL     1     -22.509  17.600  19.388  1.00  0.00     0.124 A 
ATOM      3  C   UNL     1     -24.254  18.422  20.867  1.00  0.00     0.014 A 
ATOM      4  C   UNL     1     -21.863  18.843  19.484  1.00  0.00     0.047 A 
ATOM      5  C   UNL     1     -23.601  19.655  20.953  1.00  0.00     0.001 A 
ATOM      6  C   UNL     1     -22.408  19.865  20.262  1.00  0.00     0.004 A 
ENDROOT
BRANCH   1   7
ATOM      7  C   UNL     1     -24.437  16.078  20.013  1.00  0.00     0.075 C 
ATOM      8  O   UNL     1     -23.795  15.005  19.863  1.00  0.00    -0.545 OA
ATOM      9  O   UNL     1     -25.822  16.016  20.109  1.00  0.00    -0.545 OA
ENDBRANCH   1   7
BRANCH   2  10
ATOM     10  O   UNL     1     -21.943  16.596  18.602  1.00  0.00    -0.507 OA
ATOM     11  H   UNL     1     -21.653  16.767  17.646  1.00  0.00     0.293 HD
ENDBRANCH   2  10
TORSDOF 2
ENDMDL
MODEL 7
REMARK VINA RESULT:    -4.466      2.892      4.774
REMARK INTER + INTRA:          -5.091
REMARK INTER:                  -4.849
REMARK INTRA:                  -0.242
REMARK UNBOUND:                -0.233
REMARK SMILES O=C([O-])c1ccccc1O
REMARK SMILES IDX 4 1 9 2 5 3 8 4 6 5 7 6 2 7 1 8 3 9 10 10
REMARK H PARENT 10 11
REMARK Flexibility Score: inf
ROOT
ATOM      1  C   UNL     1     -23.573  16.400  18.665  1.00  0.00     0.039 A 
ATOM      2  C   UNL     1     -23.497  15.247  17.849  1.00  0.00     0.124 A 
ATOM      3  C   UNL     1     -24.842  16.881  19.045  1.00  0.00     0.014 A 
ATOM      4  C   UNL     1     -24.674  14.604  17.434  1.00  0.00     0.047 A 
ATOM      5  C   UNL     1     -26.006  16.231  18.625  1.00  0.00     0.001 A 
ATOM      6  C   UNL     1     -25.922  15.094  17.821  1.00  0.00     0.004 A 
ENDROOT
BRANCH   1   7
ATOM      7  C   UNL     1     -22.353  17.113  19.127  1.00  0.00     0.075 C 
ATOM      8  O   UNL     1     -21.335  16.464  19.486  1.00  0.00    -0.545 OA
ATOM      9  O   UNL     1     -22.306  18.501  19.172  1.00  0.00    -0.545 OA
ENDBRANCH   1   7
BRANCH   2  10
ATOM     10  O   UNL     1     -22.264  14.735  17.448  1.00  0.00    -0.507 OA
ATOM     11  H   UNL     1     -21.499  15.340  17.172  1.00  0.00     0.293 HD
ENDBRANCH   2  10
TORSDOF 2
ENDMDL
MODEL 8
REMARK VINA RESULT:    -4.389      2.289      3.225
REMARK INTER + INTRA:          -5.007
REMARK INTER:                  -4.789
REMARK INTRA:                  -0.218
REMARK UNBOUND:                -0.233
REMARK SMILES O=C([O-])c1ccccc1O
REMARK SMILES IDX 4 1 9 2 5 3 8 4 6 5 7 6 2 7 1 8 3 9 10 10
REMARK H PARENT 10 11
REMARK Flexibility Score: inf
ROOT
ATOM      1  C   UNL     1     -24.114  16.103  19.118  1.00  0.00     0.039 A 
ATOM      2  C   UNL     1     -22.760  16.122  18.710  1.00  0.00     0.124 A 
ATOM      3  C   UNL     1     -24.584  17.129  19.962  1.00  0.00     0.014 A 
ATOM      4  C   UNL     1     -21.913  17.153  19.146  1.00  0.00     0.047 A 
ATOM      5  C   UNL     1     -23.729  18.149  20.388  1.00  0.00     0.001 A 
ATOM      6  C   UNL     1     -22.396  18.161  19.980  1.00  0.00     0.004 A 
ENDROOT
BRANCH   1   7
ATOM      7  C   UNL     1     -25.047  15.031  18.681  1.00  0.00     0.075 C 
ATOM      8  O   UNL     1     -24.614  13.876  18.424  1.00  0.00    -0.545 OA
ATOM      9  O   UNL     1     -26.409  15.275  18.548  1.00  0.00    -0.545 OA
ENDBRANCH   1   7
BRANCH   2  10
ATOM     10  O   UNL     1     -22.251  15.128  17.875  1.00  0.00    -0.507 OA
ATOM     11  H   UNL     1     -22.731  14.246  17.742  1.00  0.00     0.293 HD
ENDBRANCH   2  10
TORSDOF 2
ENDMDL
MODEL 9
REMARK VINA RESULT:    -4.357      1.484      2.209
REMARK INTER + INTRA:          -4.972
REMARK INTER:                  -4.721
REMARK INTRA:                  -0.251
REMARK UNBOUND:                -0.233
REMARK SMILES O=C([O-])c1ccccc1O
REMARK SMILES IDX 4 1 9 2 5 3 8 4 6 5 7 6 2 7 1 8 3 9 10 10
REMARK H PARENT 10 11
REMARK Flexibility Score: inf
ROOT
ATOM      1  C   UNL     1     -23.938  16.571  19.267  1.00  0.00     0.039 A 
ATOM      2  C   UNL     1     -24.789  17.148  20.239  1.00  0.00     0.124 A 
ATOM      3  C   UNL     1     -22.651  17.115  19.083  1.00  0.00     0.014 A 
ATOM      4  C   UNL     1     -24.344  18.242  20.998  1.00  0.00     0.047 A 
ATOM      5  C   UNL     1     -22.221  18.204  19.845  1.00  0.00     0.001 A 
ATOM      6  C   UNL     1     -23.066  18.767  20.801  1.00  0.00     0.004 A 
ENDROOT
BRANCH   1   7
ATOM      7  C   UNL     1     -24.368  15.412  18.441  1.00  0.00     0.075 C 
ATOM      8  O   UNL     1     -24.876  14.397  18.985  1.00  0.00    -0.545 OA
ATOM      9  O   UNL     1     -24.221  15.423  17.059  1.00  0.00    -0.545 OA
ENDBRANCH   1   7
BRANCH   2  10
ATOM     10  O   UNL     1     -26.070  16.644  20.457  1.00  0.00    -0.507 OA
ATOM     11  H   UNL     1     -26.227  15.677  20.717  1.00  0.00     0.293 HD
ENDBRANCH   2  10
TORSDOF 2
ENDMDL
