MODEL 1
REMARK VINA RESULT:    -3.754      0.000      0.000
REMARK INTER + INTRA:          -6.815
REMARK INTER:                  -5.728
REMARK INTRA:                  -1.086
REMARK UNBOUND:                -1.086
REMARK SMILES CCCCCCCCCC=CC(=O)[O-]
REMARK SMILES IDX 7 1 8 2 9 3 10 4 11 5 12 6 13 7 14 8 6 9 5 10 4 11 3 12 2 13
REMARK SMILES IDX 1 14
REMARK H PARENT
REMARK Flexibility Score: inf
ROOT
ATOM      1  C   UNL     1      -2.457  16.392  -5.535  1.00  0.00     0.000 C 
ENDROOT
BRANCH   1   2
ATOM      2  C   UNL     1      -1.066  16.682  -6.124  1.00  0.00     0.004 C 
BRANCH   2   3
ATOM      3  C   UNL     1       0.036  16.638  -5.055  1.00  0.00     0.027 C 
BRANCH   3   4
ATOM      4  C   UNL     1      -0.522  16.649  -3.658  1.00  0.00    -0.025 C 
ATOM      5  C   UNL     1       0.050  15.948  -2.672  1.00  0.00     0.020 C 
BRANCH   5   6
ATOM      6  C   UNL     1      -0.482  15.940  -1.300  1.00  0.00     0.064 C 
ATOM      7  O   UNL     1      -1.723  15.929  -1.082  1.00  0.00    -0.545 OA
ATOM      8  O   UNL     1       0.399  15.946  -0.227  1.00  0.00    -0.545 OA
ENDBRANCH   5   6
ENDBRANCH   3   4
ENDBRANCH   2   3
ENDBRANCH   1   2
BRANCH   1   9
ATOM      9  C   UNL     1      -2.985  15.003  -5.924  1.00  0.00     0.000 C 
BRANCH   9  10
ATOM     10  C   UNL     1      -3.067  14.046  -4.722  1.00  0.00     0.000 C 
BRANCH  10  11
ATOM     11  C   UNL     1      -3.081  12.568  -5.144  1.00  0.00    -0.000 C 
BRANCH  11  12
ATOM     12  C   UNL     1      -1.862  11.792  -4.619  1.00  0.00    -0.000 C 
BRANCH  12  13
ATOM     13  C   UNL     1      -0.652  12.720  -4.456  1.00  0.00    -0.003 C 
ATOM     14  C   UNL     1       0.388  12.110  -3.522  1.00  0.00     0.004 C 
ENDBRANCH  12  13
ENDBRANCH  11  12
ENDBRANCH  10  11
ENDBRANCH   9  10
ENDBRANCH   1   9
TORSDOF 9
ENDMDL
MODEL 2
REMARK VINA RESULT:    -3.576      1.158      1.662
REMARK INTER + INTRA:          -6.544
REMARK INTER:                  -5.713
REMARK INTRA:                  -0.831
REMARK UNBOUND:                -1.086
REMARK SMILES CCCCCCCCCC=CC(=O)[O-]
REMARK SMILES IDX 7 1 8 2 9 3 10 4 11 5 12 6 13 7 14 8 6 9 5 10 4 11 3 12 2 13
REMARK SMILES IDX 1 14
REMARK H PARENT
REMARK Flexibility Score: inf
ROOT
ATOM      1  C   UNL     1      -1.500  17.774  -5.413  1.00  0.00     0.000 C 
ENDROOT
BRANCH   1   2
ATOM      2  C   UNL     1      -0.107  17.524  -6.014  1.00  0.00     0.004 C 
BRANCH   2   3
ATOM      3  C   UNL     1       0.841  16.846  -5.014  1.00  0.00     0.027 C 
BRANCH   3   4
ATOM      4  C   UNL     1       0.335  16.927  -3.601  1.00  0.00    -0.025 C 
ATOM      5  C   UNL     1      -0.036  15.832  -2.927  1.00  0.00     0.020 C 
BRANCH   5   6
ATOM      6  C   UNL     1      -0.539  15.889  -1.545  1.00  0.00     0.064 C 
ATOM      7  O   UNL     1      -1.772  15.973  -1.304  1.00  0.00    -0.545 OA
ATOM      8  O   UNL     1       0.362  15.850  -0.489  1.00  0.00    -0.545 OA
ENDBRANCH   5   6
ENDBRANCH   3   4
ENDBRANCH   2   3
ENDBRANCH   1   2
BRANCH   1   9
ATOM      9  C   UNL     1      -2.602  16.975  -6.125  1.00  0.00     0.000 C 
BRANCH   9  10
ATOM     10  C   UNL     1      -2.475  15.459  -5.892  1.00  0.00     0.000 C 
BRANCH  10  11
ATOM     11  C   UNL     1      -3.005  15.027  -4.515  1.00  0.00    -0.000 C 
BRANCH  11  12
ATOM     12  C   UNL     1      -3.447  13.555  -4.489  1.00  0.00    -0.000 C 
BRANCH  12  13
ATOM     13  C   UNL     1      -2.346  12.642  -5.040  1.00  0.00    -0.003 C 
ATOM     14  C   UNL     1      -2.407  11.257  -4.404  1.00  0.00     0.004 C 
ENDBRANCH  12  13
ENDBRANCH  11  12
ENDBRANCH  10  11
ENDBRANCH   9  10
ENDBRANCH   1   9
TORSDOF 9
ENDMDL
MODEL 3
REMARK VINA RESULT:    -3.398      1.499      3.667
REMARK INTER + INTRA:          -6.272
REMARK INTER:                  -4.952
REMARK INTRA:                  -1.321
REMARK UNBOUND:                -1.086
REMARK SMILES CCCCCCCCCC=CC(=O)[O-]
REMARK SMILES IDX 7 1 8 2 9 3 10 4 11 5 12 6 13 7 14 8 6 9 5 10 4 11 3 12 2 13
REMARK SMILES IDX 1 14
REMARK H PARENT
REMARK Flexibility Score: inf
ROOT
ATOM      1  C   UNL     1      -2.699  15.320  -5.250  1.00  0.00     0.000 C 
ENDROOT
BRANCH   1   2
ATOM      2  C   UNL     1      -1.665  14.186  -5.351  1.00  0.00     0.004 C 
BRANCH   2   3
ATOM      3  C   UNL     1      -0.321  14.572  -4.715  1.00  0.00     0.027 C 
BRANCH   3   4
ATOM      4  C   UNL     1      -0.402  14.662  -3.216  1.00  0.00    -0.025 C 
ATOM      5  C   UNL     1      -0.446  15.842  -2.588  1.00  0.00     0.020 C 
BRANCH   5   6
ATOM      6  C   UNL     1      -0.520  15.953  -1.122  1.00  0.00     0.064 C 
ATOM      7  O   UNL     1      -1.599  16.250  -0.545  1.00  0.00    -0.545 OA
ATOM      8  O   UNL     1       0.620  15.727  -0.363  1.00  0.00    -0.545 OA
ENDBRANCH   5   6
ENDBRANCH   3   4
ENDBRANCH   2   3
ENDBRANCH   1   2
BRANCH   1   9
ATOM      9  C   UNL     1      -2.336  16.530  -6.125  1.00  0.00     0.000 C 
BRANCH   9  10
ATOM     10  C   UNL     1      -2.437  17.861  -5.360  1.00  0.00     0.000 C 
BRANCH  10  11
ATOM     11  C   UNL     1      -1.203  18.755  -5.565  1.00  0.00    -0.000 C 
BRANCH  11  12
ATOM     12  C   UNL     1       0.074  17.945  -5.840  1.00  0.00    -0.000 C 
BRANCH  12  13
ATOM     13  C   UNL     1       1.210  18.382  -4.907  1.00  0.00    -0.003 C 
ATOM     14  C   UNL     1       2.226  17.260  -4.713  1.00  0.00     0.004 C 
ENDBRANCH  12  13
ENDBRANCH  11  12
ENDBRANCH  10  11
ENDBRANCH   9  10
ENDBRANCH   1   9
TORSDOF 9
ENDMDL
MODEL 4
REMARK VINA RESULT:    -3.387      3.968      6.061
REMARK INTER + INTRA:          -6.256
REMARK INTER:                  -5.718
REMARK INTRA:                  -0.537
REMARK UNBOUND:                -1.086
REMARK SMILES CCCCCCCCCC=CC(=O)[O-]
REMARK SMILES IDX 7 1 8 2 9 3 10 4 11 5 12 6 13 7 14 8 6 9 5 10 4 11 3 12 2 13
REMARK SMILES IDX 1 14
REMARK H PARENT
REMARK Flexibility Score: inf
ROOT
ATOM      1  C   UNL     1       0.309  12.458  -3.885  1.00  0.00     0.000 C 
ENDROOT
BRANCH   1   2
ATOM      2  C   UNL     1       1.100  11.278  -3.295  1.00  0.00     0.004 C 
BRANCH   2   3
ATOM      3  C   UNL     1       0.488  10.770  -1.981  1.00  0.00     0.027 C 
BRANCH   3   4
ATOM      4  C   UNL     1       1.441   9.909  -1.200  1.00  0.00    -0.025 C 
ATOM      5  C   UNL     1       1.026   9.164  -0.169  1.00  0.00     0.020 C 
BRANCH   5   6
ATOM      6  C   UNL     1       1.942   8.318   0.612  1.00  0.00     0.064 C 
ATOM      7  O   UNL     1       1.532   7.282   1.199  1.00  0.00    -0.545 OA
ATOM      8  O   UNL     1       3.282   8.670   0.704  1.00  0.00    -0.545 OA
ENDBRANCH   5   6
ENDBRANCH   3   4
ENDBRANCH   2   3
ENDBRANCH   1   2
BRANCH   1   9
ATOM      9  C   UNL     1      -1.123  12.069  -4.281  1.00  0.00     0.000 C 
BRANCH   9  10
ATOM     10  C   UNL     1      -1.958  13.279  -4.734  1.00  0.00     0.000 C 
BRANCH  10  11
ATOM     11  C   UNL     1      -1.139  14.579  -4.777  1.00  0.00    -0.000 C 
BRANCH  11  12
ATOM     12  C   UNL     1      -1.549  15.571  -3.677  1.00  0.00    -0.000 C 
BRANCH  12  13
ATOM     13  C   UNL     1      -0.320  16.076  -2.910  1.00  0.00    -0.003 C 
ATOM     14  C   UNL     1      -0.517  15.939  -1.404  1.00  0.00     0.004 C 
ENDBRANCH  12  13
ENDBRANCH  11  12
ENDBRANCH  10  11
ENDBRANCH   9  10
ENDBRANCH   1   9
TORSDOF 9
ENDMDL
MODEL 5
REMARK VINA RESULT:    -3.370      2.964      3.812
REMARK INTER + INTRA:          -6.229
REMARK INTER:                  -4.977
REMARK INTRA:                  -1.251
REMARK UNBOUND:                -1.086
REMARK SMILES CCCCCCCCCC=CC(=O)[O-]
REMARK SMILES IDX 7 1 8 2 9 3 10 4 11 5 12 6 13 7 14 8 6 9 5 10 4 11 3 12 2 13
REMARK SMILES IDX 1 14
REMARK H PARENT
REMARK Flexibility Score: inf
ROOT
ATOM      1  C   UNL     1      -2.586  17.474  -5.590  1.00  0.00     0.000 C 
ENDROOT
BRANCH   1   2
ATOM      2  C   UNL     1      -1.209  17.979  -6.054  1.00  0.00     0.004 C 
BRANCH   2   3
ATOM      3  C   UNL     1      -0.320  18.401  -4.875  1.00  0.00     0.027 C 
BRANCH   3   4
ATOM      4  C   UNL     1       1.145  18.291  -5.193  1.00  0.00    -0.025 C 
ATOM      5  C   UNL     1       1.862  17.223  -4.827  1.00  0.00     0.020 C 
BRANCH   5   6
ATOM      6  C   UNL     1       3.298  17.097  -5.124  1.00  0.00     0.064 C 
ATOM      7  O   UNL     1       3.853  15.968  -5.191  1.00  0.00    -0.545 OA
ATOM      8  O   UNL     1       4.053  18.243  -5.332  1.00  0.00    -0.545 OA
ENDBRANCH   5   6
ENDBRANCH   3   4
ENDBRANCH   2   3
ENDBRANCH   1   2
BRANCH   1   9
ATOM      9  C   UNL     1      -2.910  16.071  -6.124  1.00  0.00     0.000 C 
BRANCH   9  10
ATOM     10  C   UNL     1      -1.749  15.081  -5.924  1.00  0.00     0.000 C 
BRANCH  10  11
ATOM     11  C   UNL     1      -1.757  14.436  -4.529  1.00  0.00    -0.000 C 
BRANCH  11  12
ATOM     12  C   UNL     1      -0.617  14.947  -3.635  1.00  0.00    -0.000 C 
BRANCH  12  13
ATOM     13  C   UNL     1      -1.155  15.868  -2.534  1.00  0.00    -0.003 C 
ATOM     14  C   UNL     1      -0.207  15.913  -1.340  1.00  0.00     0.004 C 
ENDBRANCH  12  13
ENDBRANCH  11  12
ENDBRANCH  10  11
ENDBRANCH   9  10
ENDBRANCH   1   9
TORSDOF 9
ENDMDL
MODEL 6
REMARK VINA RESULT:    -3.338      4.166      6.378
REMARK INTER + INTRA:          -6.181
REMARK INTER:                  -5.710
REMARK INTRA:                  -0.471
REMARK UNBOUND:                -1.086
REMARK SMILES CCCCCCCCCC=CC(=O)[O-]
REMARK SMILES IDX 7 1 8 2 9 3 10 4 11 5 12 6 13 7 14 8 6 9 5 10 4 11 3 12 2 13
REMARK SMILES IDX 1 14
REMARK H PARENT
REMARK Flexibility Score: inf
ROOT
ATOM      1  C   UNL     1       1.859  10.610  -2.987  1.00  0.00     0.000 C 
ENDROOT
BRANCH   1   2
ATOM      2  C   UNL     1       0.493  11.311  -3.085  1.00  0.00     0.004 C 
BRANCH   2   3
ATOM      3  C   UNL     1       0.533  12.527  -4.022  1.00  0.00     0.027 C 
BRANCH   3   4
ATOM      4  C   UNL     1      -0.836  13.083  -4.297  1.00  0.00    -0.025 C 
ATOM      5  C   UNL     1      -1.008  14.341  -4.720  1.00  0.00     0.020 C 
BRANCH   5   6
ATOM      6  C   UNL     1      -2.339  14.907  -4.990  1.00  0.00     0.064 C 
ATOM      7  O   UNL     1      -3.379  14.202  -4.892  1.00  0.00    -0.545 OA
ATOM      8  O   UNL     1      -2.451  16.240  -5.361  1.00  0.00    -0.545 OA
ENDBRANCH   5   6
ENDBRANCH   3   4
ENDBRANCH   2   3
ENDBRANCH   1   2
BRANCH   1   9
ATOM      9  C   UNL     1       2.003   9.774  -1.707  1.00  0.00     0.000 C 
BRANCH   9  10
ATOM     10  C   UNL     1       0.754   9.847  -0.811  1.00  0.00     0.000 C 
BRANCH  10  11
ATOM     11  C   UNL     1       0.775   8.806   0.319  1.00  0.00    -0.000 C 
BRANCH  11  12
ATOM     12  C   UNL     1       1.628   7.576  -0.027  1.00  0.00    -0.000 C 
BRANCH  12  13
ATOM     13  C   UNL     1       2.261   6.976   1.234  1.00  0.00    -0.003 C 
ATOM     14  C   UNL     1       3.696   7.459   1.414  1.00  0.00     0.004 C 
ENDBRANCH  12  13
ENDBRANCH  11  12
ENDBRANCH  10  11
ENDBRANCH   9  10
ENDBRANCH   1   9
TORSDOF 9
ENDMDL
MODEL 7
REMARK VINA RESULT:    -3.172      4.470      6.606
REMARK INTER + INTRA:          -5.928
REMARK INTER:                  -5.420
REMARK INTRA:                  -0.508
REMARK UNBOUND:                -1.086
REMARK SMILES CCCCCCCCCC=CC(=O)[O-]
REMARK SMILES IDX 7 1 8 2 9 3 10 4 11 5 12 6 13 7 14 8 6 9 5 10 4 11 3 12 2 13
REMARK SMILES IDX 1 14
REMARK H PARENT
REMARK Flexibility Score: inf
ROOT
ATOM      1  C   UNL     1       0.080  11.730  -3.410  1.00  0.00     0.000 C 
ENDROOT
BRANCH   1   2
ATOM      2  C   UNL     1       1.249  11.024  -2.701  1.00  0.00     0.004 C 
BRANCH   2   3
ATOM      3  C   UNL     1       0.801  10.314  -1.415  1.00  0.00     0.027 C 
BRANCH   3   4
ATOM      4  C   UNL     1       1.857   9.392  -0.873  1.00  0.00    -0.025 C 
ATOM      5  C   UNL     1       1.587   8.514   0.101  1.00  0.00     0.020 C 
BRANCH   5   6
ATOM      6  C   UNL     1       2.607   7.607   0.649  1.00  0.00     0.064 C 
ATOM      7  O   UNL     1       2.351   6.853   1.626  1.00  0.00    -0.545 OA
ATOM      8  O   UNL     1       3.874   7.582   0.081  1.00  0.00    -0.545 OA
ENDBRANCH   5   6
ENDBRANCH   3   4
ENDBRANCH   2   3
ENDBRANCH   1   2
BRANCH   1   9
ATOM      9  C   UNL     1       0.542  12.913  -4.274  1.00  0.00     0.000 C 
BRANCH   9  10
ATOM     10  C   UNL     1      -0.099  14.244  -3.841  1.00  0.00     0.000 C 
BRANCH  10  11
ATOM     11  C   UNL     1      -1.064  14.806  -4.897  1.00  0.00    -0.000 C 
BRANCH  11  12
ATOM     12  C   UNL     1      -2.530  14.763  -4.439  1.00  0.00    -0.000 C 
BRANCH  12  13
ATOM     13  C   UNL     1      -3.388  13.957  -5.422  1.00  0.00    -0.003 C 
ATOM     14  C   UNL     1      -3.002  12.481  -5.408  1.00  0.00     0.004 C 
ENDBRANCH  12  13
ENDBRANCH  11  12
ENDBRANCH  10  11
ENDBRANCH   9  10
ENDBRANCH   1   9
TORSDOF 9
ENDMDL
MODEL 8
REMARK VINA RESULT:    -3.140      2.724      4.845
REMARK INTER + INTRA:          -5.878
REMARK INTER:                  -5.015
REMARK INTRA:                  -0.864
REMARK UNBOUND:                -1.086
REMARK SMILES CCCCCCCCCC=CC(=O)[O-]
REMARK SMILES IDX 7 1 8 2 9 3 10 4 11 5 12 6 13 7 14 8 6 9 5 10 4 11 3 12 2 13
REMARK SMILES IDX 1 14
REMARK H PARENT
REMARK Flexibility Score: inf
ROOT
ATOM      1  C   UNL     1      -0.899  17.426  -5.040  1.00  0.00     0.000 C 
ENDROOT
BRANCH   1   2
ATOM      2  C   UNL     1      -2.326  17.610  -5.583  1.00  0.00     0.004 C 
BRANCH   2   3
ATOM      3  C   UNL     1      -2.912  16.298  -6.125  1.00  0.00     0.027 C 
BRANCH   3   4
ATOM      4  C   UNL     1      -2.466  15.101  -5.332  1.00  0.00    -0.025 C 
ATOM      5  C   UNL     1      -2.827  13.859  -5.676  1.00  0.00     0.020 C 
BRANCH   5   6
ATOM      6  C   UNL     1      -2.406  12.675  -4.912  1.00  0.00     0.064 C 
ATOM      7  O   UNL     1      -3.227  11.770  -4.608  1.00  0.00    -0.545 OA
ATOM      8  O   UNL     1      -1.080  12.554  -4.518  1.00  0.00    -0.545 OA
ENDBRANCH   5   6
ENDBRANCH   3   4
ENDBRANCH   2   3
ENDBRANCH   1   2
BRANCH   1   9
ATOM      9  C   UNL     1       0.141  18.240  -5.825  1.00  0.00     0.000 C 
BRANCH   9  10
ATOM     10  C   UNL     1       1.450  18.436  -5.040  1.00  0.00     0.000 C 
BRANCH  10  11
ATOM     11  C   UNL     1       2.078  17.105  -4.598  1.00  0.00    -0.000 C 
BRANCH  11  12
ATOM     12  C   UNL     1       3.133  16.591  -5.590  1.00  0.00    -0.000 C 
BRANCH  12  13
ATOM     13  C   UNL     1       2.967  15.086  -5.835  1.00  0.00    -0.003 C 
ATOM     14  C   UNL     1       1.497  14.681  -5.803  1.00  0.00     0.004 C 
ENDBRANCH  12  13
ENDBRANCH  11  12
ENDBRANCH  10  11
ENDBRANCH   9  10
ENDBRANCH   1   9
TORSDOF 9
ENDMDL
