MODEL 1
REMARK VINA RESULT:    -6.661      0.000      0.000
REMARK INTER + INTRA:         -17.794
REMARK INTER:                 -15.228
REMARK INTRA:                  -2.566
REMARK UNBOUND:                -2.566
REMARK SMILES CCCCCCCCCCCCCCCCCCCCCCCC(=O)[O-]
REMARK SMILES IDX 13 1 14 2 15 3 16 4 17 5 18 6 19 7 20 8 21 9 22 10 23 11
REMARK SMILES IDX 24 12 25 13 26 14 12 15 11 16 10 17 9 18 8 19 7 20 6 21 5 22
REMARK SMILES IDX 4 23 3 24 2 25 1 26
REMARK H PARENT
REMARK Flexibility Score: inf
ROOT
ATOM      1  C   UNL     1      83.932  -2.987   3.246  1.00  0.00     0.000 C 
ENDROOT
BRANCH   1   2
ATOM      2  C   UNL     1      84.924  -2.433   2.207  1.00  0.00     0.000 C 
BRANCH   2   3
ATOM      3  C   UNL     1      86.390  -2.631   2.625  1.00  0.00     0.000 C 
BRANCH   3   4
ATOM      4  C   UNL     1      87.370  -1.820   1.760  1.00  0.00     0.000 C 
BRANCH   4   5
ATOM      5  C   UNL     1      88.597  -2.642   1.335  1.00  0.00     0.000 C 
BRANCH   5   6
ATOM      6  C   UNL     1      89.745  -2.557   2.356  1.00  0.00     0.000 C 
BRANCH   6   7
ATOM      7  C   UNL     1      90.229  -1.115   2.595  1.00  0.00     0.000 C 
BRANCH   7   8
ATOM      8  C   UNL     1      90.791  -0.842   4.006  1.00  0.00     0.000 C 
BRANCH   8   9
ATOM      9  C   UNL     1      90.306  -1.808   5.102  1.00  0.00     0.000 C 
BRANCH   9  10
ATOM     10  C   UNL     1      88.921  -1.440   5.655  1.00  0.00     0.006 C 
BRANCH  10  11
ATOM     11  C   UNL     1      88.079  -2.695   5.905  1.00  0.00     0.053 C 
BRANCH  11  12
ATOM     12  C   UNL     1      86.677  -2.322   6.269  1.00  0.00     0.041 C 
ATOM     13  O   UNL     1      86.294  -1.125   6.178  1.00  0.00    -0.550 OA
ATOM     14  O   UNL     1      85.775  -3.302   6.667  1.00  0.00    -0.550 OA
ENDBRANCH  11  12
ENDBRANCH  10  11
ENDBRANCH   9  10
ENDBRANCH   8   9
ENDBRANCH   7   8
ENDBRANCH   6   7
ENDBRANCH   5   6
ENDBRANCH   4   5
ENDBRANCH   3   4
ENDBRANCH   2   3
ENDBRANCH   1   2
BRANCH   1  15
ATOM     15  C   UNL     1      82.924  -3.981   2.631  1.00  0.00     0.000 C 
BRANCH  15  16
ATOM     16  C   UNL     1      81.447  -3.640   2.917  1.00  0.00     0.000 C 
BRANCH  16  17
ATOM     17  C   UNL     1      80.659  -3.074   1.723  1.00  0.00     0.000 C 
BRANCH  17  18
ATOM     18  C   UNL     1      81.350  -3.332   0.372  1.00  0.00    -0.000 C 
BRANCH  18  19
ATOM     19  C   UNL     1      82.016  -2.070  -0.208  1.00  0.00    -0.000 C 
BRANCH  19  20
ATOM     20  C   UNL     1      82.015  -0.845   0.724  1.00  0.00    -0.000 C 
BRANCH  20  21
ATOM     21  C   UNL     1      82.982   0.257   0.266  1.00  0.00    -0.000 C 
BRANCH  21  22
ATOM     22  C   UNL     1      82.388   1.061  -0.897  1.00  0.00    -0.000 C 
BRANCH  22  23
ATOM     23  C   UNL     1      81.417   2.135  -0.385  1.00  0.00    -0.000 C 
BRANCH  23  24
ATOM     24  C   UNL     1      81.919   2.842   0.886  1.00  0.00    -0.000 C 
BRANCH  24  25
ATOM     25  C   UNL     1      80.946   2.803   2.077  1.00  0.00    -0.003 C 
ATOM     26  C   UNL     1      81.636   2.487   3.404  1.00  0.00     0.004 C 
ENDBRANCH  24  25
ENDBRANCH  23  24
ENDBRANCH  22  23
ENDBRANCH  21  22
ENDBRANCH  20  21
ENDBRANCH  19  20
ENDBRANCH  18  19
ENDBRANCH  17  18
ENDBRANCH  16  17
ENDBRANCH  15  16
ENDBRANCH   1  15
TORSDOF 22
ENDMDL
MODEL 2
REMARK VINA RESULT:    -6.655      7.366     11.849
REMARK INTER + INTRA:         -17.782
REMARK INTER:                 -15.036
REMARK INTRA:                  -2.746
REMARK UNBOUND:                -2.566
REMARK SMILES CCCCCCCCCCCCCCCCCCCCCCCC(=O)[O-]
REMARK SMILES IDX 13 1 14 2 15 3 16 4 17 5 18 6 19 7 20 8 21 9 22 10 23 11
REMARK SMILES IDX 24 12 25 13 26 14 12 15 11 16 10 17 9 18 8 19 7 20 6 21 5 22
REMARK SMILES IDX 4 23 3 24 2 25 1 26
REMARK H PARENT
REMARK Flexibility Score: inf
ROOT
ATOM      1  C   UNL     1      94.817  -5.038  10.426  1.00  0.00     0.000 C 
ENDROOT
BRANCH   1   2
ATOM      2  C   UNL     1      96.197  -4.526  10.878  1.00  0.00     0.000 C 
BRANCH   2   3
ATOM      3  C   UNL     1      96.284  -2.992  10.890  1.00  0.00     0.000 C 
BRANCH   3   4
ATOM      4  C   UNL     1      97.111  -2.433   9.719  1.00  0.00     0.000 C 
BRANCH   4   5
ATOM      5  C   UNL     1      97.406  -3.494   8.648  1.00  0.00     0.000 C 
BRANCH   5   6
ATOM      6  C   UNL     1      97.363  -2.920   7.221  1.00  0.00     0.000 C 
BRANCH   6   7
ATOM      7  C   UNL     1      98.544  -3.385   6.351  1.00  0.00     0.000 C 
BRANCH   7   8
ATOM      8  C   UNL     1      99.473  -4.423   7.014  1.00  0.00     0.000 C 
BRANCH   8   9
ATOM      9  C   UNL     1      99.422  -5.834   6.399  1.00  0.00     0.000 C 
BRANCH   9  10
ATOM     10  C   UNL     1      98.436  -5.940   5.226  1.00  0.00     0.006 C 
BRANCH  10  11
ATOM     11  C   UNL     1      97.350  -6.982   5.515  1.00  0.00     0.053 C 
BRANCH  11  12
ATOM     12  C   UNL     1      97.209  -7.926   4.362  1.00  0.00     0.041 C 
ATOM     13  O   UNL     1      97.813  -9.032   4.370  1.00  0.00    -0.550 OA
ATOM     14  O   UNL     1      96.374  -7.608   3.298  1.00  0.00    -0.550 OA
ENDBRANCH  11  12
ENDBRANCH  10  11
ENDBRANCH   9  10
ENDBRANCH   8   9
ENDBRANCH   7   8
ENDBRANCH   6   7
ENDBRANCH   5   6
ENDBRANCH   4   5
ENDBRANCH   3   4
ENDBRANCH   2   3
ENDBRANCH   1   2
BRANCH   1  15
ATOM     15  C   UNL     1      93.835  -3.890  10.111  1.00  0.00     0.000 C 
BRANCH  15  16
ATOM     16  C   UNL     1      93.189  -3.979   8.713  1.00  0.00     0.000 C 
BRANCH  16  17
ATOM     17  C   UNL     1      93.647  -2.910   7.707  1.00  0.00     0.000 C 
BRANCH  17  18
ATOM     18  C   UNL     1      92.485  -2.054   7.172  1.00  0.00    -0.000 C 
BRANCH  18  19
ATOM     19  C   UNL     1      92.919  -1.091   6.052  1.00  0.00    -0.000 C 
BRANCH  19  20
ATOM     20  C   UNL     1      91.824  -0.748   5.025  1.00  0.00    -0.000 C 
BRANCH  20  21
ATOM     21  C   UNL     1      90.419  -0.693   5.643  1.00  0.00    -0.000 C 
BRANCH  21  22
ATOM     22  C   UNL     1      89.440  -1.577   4.861  1.00  0.00    -0.000 C 
BRANCH  22  23
ATOM     23  C   UNL     1      89.331  -2.973   5.493  1.00  0.00    -0.000 C 
BRANCH  23  24
ATOM     24  C   UNL     1      90.099  -4.050   4.707  1.00  0.00    -0.000 C 
BRANCH  24  25
ATOM     25  C   UNL     1      90.840  -5.082   5.576  1.00  0.00    -0.003 C 
ATOM     26  C   UNL     1      90.146  -5.347   6.911  1.00  0.00     0.004 C 
ENDBRANCH  24  25
ENDBRANCH  23  24
ENDBRANCH  22  23
ENDBRANCH  21  22
ENDBRANCH  20  21
ENDBRANCH  19  20
ENDBRANCH  18  19
ENDBRANCH  17  18
ENDBRANCH  16  17
ENDBRANCH  15  16
ENDBRANCH   1  15
TORSDOF 22
ENDMDL
MODEL 3
REMARK VINA RESULT:    -6.548      5.119      7.475
REMARK INTER + INTRA:         -17.535
REMARK INTER:                 -15.695
REMARK INTRA:                  -1.840
REMARK UNBOUND:                -2.566
REMARK SMILES CCCCCCCCCCCCCCCCCCCCCCCC(=O)[O-]
REMARK SMILES IDX 13 1 14 2 15 3 16 4 17 5 18 6 19 7 20 8 21 9 22 10 23 11
REMARK SMILES IDX 24 12 25 13 26 14 12 15 11 16 10 17 9 18 8 19 7 20 6 21 5 22
REMARK SMILES IDX 4 23 3 24 2 25 1 26
REMARK H PARENT
REMARK Flexibility Score: inf
ROOT
ATOM      1  C   UNL     1      89.506  -4.175   6.347  1.00  0.00     0.000 C 
ENDROOT
BRANCH   1   2
ATOM      2  C   UNL     1      91.027  -3.993   6.198  1.00  0.00     0.000 C 
BRANCH   2   3
ATOM      3  C   UNL     1      91.470  -2.534   6.392  1.00  0.00     0.000 C 
BRANCH   3   4
ATOM      4  C   UNL     1      92.628  -2.392   7.396  1.00  0.00     0.000 C 
BRANCH   4   5
ATOM      5  C   UNL     1      93.038  -3.737   8.015  1.00  0.00     0.000 C 
BRANCH   5   6
ATOM      6  C   UNL     1      93.429  -3.608   9.498  1.00  0.00     0.000 C 
BRANCH   6   7
ATOM      7  C   UNL     1      94.053  -4.896  10.067  1.00  0.00     0.000 C 
BRANCH   7   8
ATOM      8  C   UNL     1      95.384  -4.697  10.821  1.00  0.00     0.000 C 
BRANCH   8   9
ATOM      9  C   UNL     1      95.793  -3.231  11.053  1.00  0.00     0.000 C 
BRANCH   9  10
ATOM     10  C   UNL     1      96.715  -2.685   9.953  1.00  0.00     0.006 C 
BRANCH  10  11
ATOM     11  C   UNL     1      97.326  -3.825   9.133  1.00  0.00     0.053 C 
BRANCH  11  12
ATOM     12  C   UNL     1      96.778  -3.822   7.740  1.00  0.00     0.041 C 
ATOM     13  O   UNL     1      96.701  -4.896   7.086  1.00  0.00    -0.550 OA
ATOM     14  O   UNL     1      96.309  -2.641   7.178  1.00  0.00    -0.550 OA
ENDBRANCH  11  12
ENDBRANCH  10  11
ENDBRANCH   9  10
ENDBRANCH   8   9
ENDBRANCH   7   8
ENDBRANCH   6   7
ENDBRANCH   5   6
ENDBRANCH   4   5
ENDBRANCH   3   4
ENDBRANCH   2   3
ENDBRANCH   1   2
BRANCH   1  15
ATOM     15  C   UNL     1      88.716  -2.920   5.919  1.00  0.00     0.000 C 
BRANCH  15  16
ATOM     16  C   UNL     1      87.197  -3.016   6.167  1.00  0.00     0.000 C 
BRANCH  16  17
ATOM     17  C   UNL     1      86.311  -2.359   5.095  1.00  0.00     0.000 C 
BRANCH  17  18
ATOM     18  C   UNL     1      86.890  -2.493   3.675  1.00  0.00    -0.000 C 
BRANCH  18  19
ATOM     19  C   UNL     1      85.804  -2.722   2.607  1.00  0.00    -0.000 C 
BRANCH  19  20
ATOM     20  C   UNL     1      84.362  -2.454   3.075  1.00  0.00    -0.000 C 
BRANCH  20  21
ATOM     21  C   UNL     1      83.455  -3.689   2.961  1.00  0.00    -0.000 C 
BRANCH  21  22
ATOM     22  C   UNL     1      82.030  -3.288   2.560  1.00  0.00    -0.000 C 
BRANCH  22  23
ATOM     23  C   UNL     1      81.716  -3.733   1.123  1.00  0.00    -0.000 C 
BRANCH  23  24
ATOM     24  C   UNL     1      81.773  -2.576   0.111  1.00  0.00    -0.000 C 
BRANCH  24  25
ATOM     25  C   UNL     1      81.753  -1.168   0.733  1.00  0.00    -0.003 C 
ATOM     26  C   UNL     1      82.965  -0.324   0.344  1.00  0.00     0.004 C 
ENDBRANCH  24  25
ENDBRANCH  23  24
ENDBRANCH  22  23
ENDBRANCH  21  22
ENDBRANCH  20  21
ENDBRANCH  19  20
ENDBRANCH  18  19
ENDBRANCH  17  18
ENDBRANCH  16  17
ENDBRANCH  15  16
ENDBRANCH   1  15
TORSDOF 22
ENDMDL
MODEL 4
REMARK VINA RESULT:    -6.490      5.684      9.638
REMARK INTER + INTRA:         -17.403
REMARK INTER:                 -14.485
REMARK INTRA:                  -2.918
REMARK UNBOUND:                -2.566
REMARK SMILES CCCCCCCCCCCCCCCCCCCCCCCC(=O)[O-]
REMARK SMILES IDX 13 1 14 2 15 3 16 4 17 5 18 6 19 7 20 8 21 9 22 10 23 11
REMARK SMILES IDX 24 12 25 13 26 14 12 15 11 16 10 17 9 18 8 19 7 20 6 21 5 22
REMARK SMILES IDX 4 23 3 24 2 25 1 26
REMARK H PARENT
REMARK Flexibility Score: inf
ROOT
ATOM      1  C   UNL     1      92.574  -0.647   5.683  1.00  0.00     0.000 C 
ENDROOT
BRANCH   1   2
ATOM      2  C   UNL     1      93.393  -1.639   6.530  1.00  0.00     0.000 C 
BRANCH   2   3
ATOM      3  C   UNL     1      92.521  -2.439   7.511  1.00  0.00     0.000 C 
BRANCH   3   4
ATOM      4  C   UNL     1      93.227  -3.698   8.044  1.00  0.00     0.000 C 
BRANCH   4   5
ATOM      5  C   UNL     1      93.555  -3.598   9.542  1.00  0.00     0.000 C 
BRANCH   5   6
ATOM      6  C   UNL     1      94.086  -4.922  10.118  1.00  0.00     0.000 C 
BRANCH   6   7
ATOM      7  C   UNL     1      95.492  -4.788  10.732  1.00  0.00     0.000 C 
BRANCH   7   8
ATOM      8  C   UNL     1      95.903  -3.351  11.113  1.00  0.00     0.000 C 
BRANCH   8   9
ATOM      9  C   UNL     1      96.783  -2.626  10.078  1.00  0.00     0.000 C 
BRANCH   9  10
ATOM     10  C   UNL     1      97.266  -3.550   8.950  1.00  0.00     0.006 C 
BRANCH  10  11
ATOM     11  C   UNL     1      96.730  -3.085   7.593  1.00  0.00     0.053 C 
BRANCH  11  12
ATOM     12  C   UNL     1      97.857  -2.704   6.685  1.00  0.00     0.041 C 
ATOM     13  O   UNL     1      98.024  -1.501   6.352  1.00  0.00    -0.550 OA
ATOM     14  O   UNL     1      98.753  -3.670   6.244  1.00  0.00    -0.550 OA
ENDBRANCH  11  12
ENDBRANCH  10  11
ENDBRANCH   9  10
ENDBRANCH   8   9
ENDBRANCH   7   8
ENDBRANCH   6   7
ENDBRANCH   5   6
ENDBRANCH   4   5
ENDBRANCH   3   4
ENDBRANCH   2   3
ENDBRANCH   1   2
BRANCH   1  15
ATOM     15  C   UNL     1      91.219  -1.232   5.234  1.00  0.00     0.000 C 
BRANCH  15  16
ATOM     16  C   UNL     1      90.438  -0.333   4.254  1.00  0.00     0.000 C 
BRANCH  16  17
ATOM     17  C   UNL     1      90.448  -0.795   2.787  1.00  0.00     0.000 C 
BRANCH  17  18
ATOM     18  C   UNL     1      90.144  -2.296   2.629  1.00  0.00    -0.000 C 
BRANCH  18  19
ATOM     19  C   UNL     1      88.876  -2.564   1.799  1.00  0.00    -0.000 C 
BRANCH  19  20
ATOM     20  C   UNL     1      87.585  -1.936   2.357  1.00  0.00    -0.000 C 
BRANCH  20  21
ATOM     21  C   UNL     1      86.984  -2.736   3.521  1.00  0.00    -0.000 C 
BRANCH  21  22
ATOM     22  C   UNL     1      87.148  -1.984   4.848  1.00  0.00    -0.000 C 
BRANCH  22  23
ATOM     23  C   UNL     1      87.810  -2.876   5.909  1.00  0.00    -0.000 C 
BRANCH  23  24
ATOM     24  C   UNL     1      88.882  -3.813   5.322  1.00  0.00    -0.000 C 
BRANCH  24  25
ATOM     25  C   UNL     1      89.749  -4.539   6.365  1.00  0.00    -0.003 C 
ATOM     26  C   UNL     1      90.938  -5.274   5.747  1.00  0.00     0.004 C 
ENDBRANCH  24  25
ENDBRANCH  23  24
ENDBRANCH  22  23
ENDBRANCH  21  22
ENDBRANCH  20  21
ENDBRANCH  19  20
ENDBRANCH  18  19
ENDBRANCH  17  18
ENDBRANCH  16  17
ENDBRANCH  15  16
ENDBRANCH   1  15
TORSDOF 22
ENDMDL
MODEL 5
REMARK VINA RESULT:    -6.478      6.348     13.037
REMARK INTER + INTRA:         -17.376
REMARK INTER:                 -14.774
REMARK INTRA:                  -2.602
REMARK UNBOUND:                -2.566
REMARK SMILES CCCCCCCCCCCCCCCCCCCCCCCC(=O)[O-]
REMARK SMILES IDX 13 1 14 2 15 3 16 4 17 5 18 6 19 7 20 8 21 9 22 10 23 11
REMARK SMILES IDX 24 12 25 13 26 14 12 15 11 16 10 17 9 18 8 19 7 20 6 21 5 22
REMARK SMILES IDX 4 23 3 24 2 25 1 26
REMARK H PARENT
REMARK Flexibility Score: inf
ROOT
ATOM      1  C   UNL     1      93.040  -4.578   9.284  1.00  0.00     0.000 C 
ENDROOT
BRANCH   1   2
ATOM      2  C   UNL     1      93.482  -4.133   7.878  1.00  0.00     0.000 C 
BRANCH   2   3
ATOM      3  C   UNL     1      93.593  -2.605   7.749  1.00  0.00     0.000 C 
BRANCH   3   4
ATOM      4  C   UNL     1      92.360  -1.974   7.077  1.00  0.00     0.000 C 
BRANCH   4   5
ATOM      5  C   UNL     1      92.735  -0.854   6.094  1.00  0.00     0.000 C 
BRANCH   5   6
ATOM      6  C   UNL     1      91.671  -0.649   5.002  1.00  0.00     0.000 C 
BRANCH   6   7
ATOM      7  C   UNL     1      90.352  -0.077   5.550  1.00  0.00     0.000 C 
BRANCH   7   8
ATOM      8  C   UNL     1      89.168  -1.066   5.565  1.00  0.00     0.000 C 
BRANCH   8   9
ATOM      9  C   UNL     1      89.037  -1.948   4.309  1.00  0.00     0.000 C 
BRANCH   9  10
ATOM     10  C   UNL     1      89.167  -3.448   4.614  1.00  0.00     0.006 C 
BRANCH  10  11
ATOM     11  C   UNL     1      89.663  -3.676   6.046  1.00  0.00     0.053 C 
BRANCH  11  12
ATOM     12  C   UNL     1      90.207  -5.061   6.199  1.00  0.00     0.041 C 
ATOM     13  O   UNL     1      90.779  -5.629   5.231  1.00  0.00    -0.550 OA
ATOM     14  O   UNL     1      90.124  -5.711   7.425  1.00  0.00    -0.550 OA
ENDBRANCH  11  12
ENDBRANCH  10  11
ENDBRANCH   9  10
ENDBRANCH   8   9
ENDBRANCH   7   8
ENDBRANCH   6   7
ENDBRANCH   5   6
ENDBRANCH   4   5
ENDBRANCH   3   4
ENDBRANCH   2   3
ENDBRANCH   1   2
BRANCH   1  15
ATOM     15  C   UNL     1      94.235  -4.923  10.198  1.00  0.00     0.000 C 
BRANCH  15  16
ATOM     16  C   UNL     1      94.727  -3.747  11.065  1.00  0.00     0.000 C 
BRANCH  16  17
ATOM     17  C   UNL     1      96.252  -3.648  11.238  1.00  0.00     0.000 C 
BRANCH  17  18
ATOM     18  C   UNL     1      96.821  -2.293  10.783  1.00  0.00    -0.000 C 
BRANCH  18  19
ATOM     19  C   UNL     1      97.547  -2.375   9.428  1.00  0.00    -0.000 C 
BRANCH  19  20
ATOM     20  C   UNL     1      97.320  -3.681   8.644  1.00  0.00    -0.000 C 
BRANCH  20  21
ATOM     21  C   UNL     1      97.092  -3.448   7.143  1.00  0.00    -0.000 C 
BRANCH  21  22
ATOM     22  C   UNL     1      98.368  -2.930   6.468  1.00  0.00    -0.000 C 
BRANCH  22  23
ATOM     23  C   UNL     1      99.425  -4.039   6.362  1.00  0.00    -0.000 C 
BRANCH  23  24
ATOM     24  C   UNL     1      99.070  -5.108   5.312  1.00  0.00    -0.000 C 
BRANCH  24  25
ATOM     25  C   UNL     1      98.795  -6.510   5.884  1.00  0.00    -0.003 C 
ATOM     26  C   UNL     1      97.464  -7.096   5.415  1.00  0.00     0.004 C 
ENDBRANCH  24  25
ENDBRANCH  23  24
ENDBRANCH  22  23
ENDBRANCH  21  22
ENDBRANCH  20  21
ENDBRANCH  19  20
ENDBRANCH  18  19
ENDBRANCH  17  18
ENDBRANCH  16  17
ENDBRANCH  15  16
ENDBRANCH   1  15
TORSDOF 22
ENDMDL
MODEL 6
REMARK VINA RESULT:    -6.468      4.615     11.577
REMARK INTER + INTRA:         -17.353
REMARK INTER:                 -15.625
REMARK INTRA:                  -1.728
REMARK UNBOUND:                -2.566
REMARK SMILES CCCCCCCCCCCCCCCCCCCCCCCC(=O)[O-]
REMARK SMILES IDX 13 1 14 2 15 3 16 4 17 5 18 6 19 7 20 8 21 9 22 10 23 11
REMARK SMILES IDX 24 12 25 13 26 14 12 15 11 16 10 17 9 18 8 19 7 20 6 21 5 22
REMARK SMILES IDX 4 23 3 24 2 25 1 26
REMARK H PARENT
REMARK Flexibility Score: inf
ROOT
ATOM      1  C   UNL     1      88.959  -3.242   5.606  1.00  0.00     0.000 C 
ENDROOT
BRANCH   1   2
ATOM      2  C   UNL     1      87.481  -3.204   6.033  1.00  0.00     0.000 C 
BRANCH   2   3
ATOM      3  C   UNL     1      86.636  -2.265   5.157  1.00  0.00     0.000 C 
BRANCH   3   4
ATOM      4  C   UNL     1      87.091  -2.254   3.687  1.00  0.00     0.000 C 
BRANCH   4   5
ATOM      5  C   UNL     1      86.033  -2.839   2.739  1.00  0.00     0.000 C 
BRANCH   5   6
ATOM      6  C   UNL     1      84.597  -2.576   3.224  1.00  0.00     0.000 C 
BRANCH   6   7
ATOM      7  C   UNL     1      83.615  -3.692   2.825  1.00  0.00     0.000 C 
BRANCH   7   8
ATOM      8  C   UNL     1      82.125  -3.359   3.044  1.00  0.00     0.000 C 
BRANCH   8   9
ATOM      9  C   UNL     1      81.214  -3.604   1.827  1.00  0.00     0.000 C 
BRANCH   9  10
ATOM     10  C   UNL     1      80.878  -2.315   1.062  1.00  0.00     0.006 C 
BRANCH  10  11
ATOM     11  C   UNL     1      82.053  -1.877   0.182  1.00  0.00     0.053 C 
BRANCH  11  12
ATOM     12  C   UNL     1      82.529  -0.516   0.582  1.00  0.00     0.041 C 
ATOM     13  O   UNL     1      83.746  -0.211   0.469  1.00  0.00    -0.550 OA
ATOM     14  O   UNL     1      81.622   0.434   1.037  1.00  0.00    -0.550 OA
ENDBRANCH  11  12
ENDBRANCH  10  11
ENDBRANCH   9  10
ENDBRANCH   8   9
ENDBRANCH   7   8
ENDBRANCH   6   7
ENDBRANCH   5   6
ENDBRANCH   4   5
ENDBRANCH   3   4
ENDBRANCH   2   3
ENDBRANCH   1   2
BRANCH   1  15
ATOM     15  C   UNL     1      89.704  -4.474   6.163  1.00  0.00     0.000 C 
BRANCH  15  16
ATOM     16  C   UNL     1      91.177  -4.205   6.534  1.00  0.00     0.000 C 
BRANCH  16  17
ATOM     17  C   UNL     1      91.557  -2.723   6.687  1.00  0.00     0.000 C 
BRANCH  17  18
ATOM     18  C   UNL     1      92.860  -2.517   7.481  1.00  0.00    -0.000 C 
BRANCH  18  19
ATOM     19  C   UNL     1      93.408  -3.826   8.078  1.00  0.00    -0.000 C 
BRANCH  19  20
ATOM     20  C   UNL     1      93.487  -3.859   9.616  1.00  0.00    -0.000 C 
BRANCH  20  21
ATOM     21  C   UNL     1      94.758  -4.547  10.136  1.00  0.00    -0.000 C 
BRANCH  21  22
ATOM     22  C   UNL     1      95.615  -3.572  10.953  1.00  0.00    -0.000 C 
BRANCH  22  23
ATOM     23  C   UNL     1      96.546  -2.759  10.040  1.00  0.00    -0.000 C 
BRANCH  23  24
ATOM     24  C   UNL     1      97.112  -3.586   8.871  1.00  0.00    -0.000 C 
BRANCH  24  25
ATOM     25  C   UNL     1      96.970  -2.930   7.486  1.00  0.00    -0.003 C 
ATOM     26  C   UNL     1      98.286  -2.878   6.711  1.00  0.00     0.004 C 
ENDBRANCH  24  25
ENDBRANCH  23  24
ENDBRANCH  22  23
ENDBRANCH  21  22
ENDBRANCH  20  21
ENDBRANCH  19  20
ENDBRANCH  18  19
ENDBRANCH  17  18
ENDBRANCH  16  17
ENDBRANCH  15  16
ENDBRANCH   1  15
TORSDOF 22
ENDMDL
MODEL 7
REMARK VINA RESULT:    -6.441      2.116      7.567
REMARK INTER + INTRA:         -17.291
REMARK INTER:                 -14.743
REMARK INTRA:                  -2.548
REMARK UNBOUND:                -2.566
REMARK SMILES CCCCCCCCCCCCCCCCCCCCCCCC(=O)[O-]
REMARK SMILES IDX 13 1 14 2 15 3 16 4 17 5 18 6 19 7 20 8 21 9 22 10 23 11
REMARK SMILES IDX 24 12 25 13 26 14 12 15 11 16 10 17 9 18 8 19 7 20 6 21 5 22
REMARK SMILES IDX 4 23 3 24 2 25 1 26
REMARK H PARENT
REMARK Flexibility Score: inf
ROOT
ATOM      1  C   UNL     1      81.968  -3.770   1.632  1.00  0.00     0.000 C 
ENDROOT
BRANCH   1   2
ATOM      2  C   UNL     1      81.679  -2.754   0.511  1.00  0.00     0.000 C 
BRANCH   2   3
ATOM      3  C   UNL     1      81.711  -1.300   1.009  1.00  0.00     0.000 C 
BRANCH   3   4
ATOM      4  C   UNL     1      82.866  -0.486   0.399  1.00  0.00     0.000 C 
BRANCH   4   5
ATOM      5  C   UNL     1      82.386   0.500  -0.678  1.00  0.00     0.000 C 
BRANCH   5   6
ATOM      6  C   UNL     1      82.192   1.924  -0.128  1.00  0.00     0.000 C 
BRANCH   6   7
ATOM      7  C   UNL     1      80.722   2.247   0.193  1.00  0.00     0.000 C 
BRANCH   7   8
ATOM      8  C   UNL     1      80.441   2.614   1.665  1.00  0.00     0.000 C 
BRANCH   8   9
ATOM      9  C   UNL     1      81.683   2.995   2.493  1.00  0.00     0.000 C 
BRANCH   9  10
ATOM     10  C   UNL     1      81.779   2.225   3.818  1.00  0.00     0.006 C 
BRANCH  10  11
ATOM     11  C   UNL     1      81.227   3.059   4.978  1.00  0.00     0.053 C 
BRANCH  11  12
ATOM     12  C   UNL     1      82.229   4.080   5.415  1.00  0.00     0.041 C 
ATOM     13  O   UNL     1      81.865   5.258   5.671  1.00  0.00    -0.550 OA
ATOM     14  O   UNL     1      83.561   3.721   5.585  1.00  0.00    -0.550 OA
ENDBRANCH  11  12
ENDBRANCH  10  11
ENDBRANCH   9  10
ENDBRANCH   8   9
ENDBRANCH   7   8
ENDBRANCH   6   7
ENDBRANCH   5   6
ENDBRANCH   4   5
ENDBRANCH   3   4
ENDBRANCH   2   3
ENDBRANCH   1   2
BRANCH   1  15
ATOM     15  C   UNL     1      82.417  -3.092   2.943  1.00  0.00     0.000 C 
BRANCH  15  16
ATOM     16  C   UNL     1      83.909  -3.295   3.279  1.00  0.00     0.000 C 
BRANCH  16  17
ATOM     17  C   UNL     1      84.884  -2.369   2.533  1.00  0.00     0.000 C 
BRANCH  17  18
ATOM     18  C   UNL     1      86.354  -2.798   2.686  1.00  0.00    -0.000 C 
BRANCH  18  19
ATOM     19  C   UNL     1      87.314  -1.957   1.825  1.00  0.00    -0.000 C 
BRANCH  19  20
ATOM     20  C   UNL     1      88.808  -2.283   2.005  1.00  0.00    -0.000 C 
BRANCH  20  21
ATOM     21  C   UNL     1      89.075  -3.249   3.169  1.00  0.00    -0.000 C 
BRANCH  21  22
ATOM     22  C   UNL     1      89.782  -2.533   4.327  1.00  0.00    -0.000 C 
BRANCH  22  23
ATOM     23  C   UNL     1      88.972  -2.653   5.626  1.00  0.00    -0.000 C 
BRANCH  23  24
ATOM     24  C   UNL     1      88.171  -1.380   5.954  1.00  0.00    -0.000 C 
BRANCH  24  25
ATOM     25  C   UNL     1      86.650  -1.585   6.073  1.00  0.00    -0.003 C 
ATOM     26  C   UNL     1      86.271  -2.976   6.579  1.00  0.00     0.004 C 
ENDBRANCH  24  25
ENDBRANCH  23  24
ENDBRANCH  22  23
ENDBRANCH  21  22
ENDBRANCH  20  21
ENDBRANCH  19  20
ENDBRANCH  18  19
ENDBRANCH  17  18
ENDBRANCH  16  17
ENDBRANCH  15  16
ENDBRANCH   1  15
TORSDOF 22
ENDMDL
MODEL 8
REMARK VINA RESULT:    -6.412      6.306     13.090
REMARK INTER + INTRA:         -17.224
REMARK INTER:                 -14.726
REMARK INTRA:                  -2.498
REMARK UNBOUND:                -2.566
REMARK SMILES CCCCCCCCCCCCCCCCCCCCCCCC(=O)[O-]
REMARK SMILES IDX 13 1 14 2 15 3 16 4 17 5 18 6 19 7 20 8 21 9 22 10 23 11
REMARK SMILES IDX 24 12 25 13 26 14 12 15 11 16 10 17 9 18 8 19 7 20 6 21 5 22
REMARK SMILES IDX 4 23 3 24 2 25 1 26
REMARK H PARENT
REMARK Flexibility Score: inf
ROOT
ATOM      1  C   UNL     1      93.713  -4.129  10.043  1.00  0.00     0.000 C 
ENDROOT
BRANCH   1   2
ATOM      2  C   UNL     1      93.549  -4.087   8.512  1.00  0.00     0.000 C 
BRANCH   2   3
ATOM      3  C   UNL     1      93.575  -2.656   7.953  1.00  0.00     0.000 C 
BRANCH   3   4
ATOM      4  C   UNL     1      92.311  -2.309   7.145  1.00  0.00     0.000 C 
BRANCH   4   5
ATOM      5  C   UNL     1      92.548  -1.166   6.146  1.00  0.00     0.000 C 
BRANCH   5   6
ATOM      6  C   UNL     1      91.239  -0.485   5.710  1.00  0.00     0.000 C 
BRANCH   6   7
ATOM      7  C   UNL     1      90.920  -0.696   4.219  1.00  0.00     0.000 C 
BRANCH   7   8
ATOM      8  C   UNL     1      89.697  -1.592   3.934  1.00  0.00     0.000 C 
BRANCH   8   9
ATOM      9  C   UNL     1      89.814  -3.040   4.443  1.00  0.00     0.000 C 
BRANCH   9  10
ATOM     10  C   UNL     1      88.867  -3.342   5.615  1.00  0.00     0.006 C 
BRANCH  10  11
ATOM     11  C   UNL     1      87.884  -2.187   5.836  1.00  0.00     0.053 C 
BRANCH  11  12
ATOM     12  C   UNL     1      86.475  -2.690   5.830  1.00  0.00     0.041 C 
ATOM     13  O   UNL     1      85.993  -3.238   6.857  1.00  0.00    -0.550 OA
ATOM     14  O   UNL     1      85.675  -2.512   4.707  1.00  0.00    -0.550 OA
ENDBRANCH  11  12
ENDBRANCH  10  11
ENDBRANCH   9  10
ENDBRANCH   8   9
ENDBRANCH   7   8
ENDBRANCH   6   7
ENDBRANCH   5   6
ENDBRANCH   4   5
ENDBRANCH   3   4
ENDBRANCH   2   3
ENDBRANCH   1   2
BRANCH   1  15
ATOM     15  C   UNL     1      94.768  -5.160  10.496  1.00  0.00     0.000 C 
BRANCH  15  16
ATOM     16  C   UNL     1      96.059  -4.534  11.063  1.00  0.00     0.000 C 
BRANCH  16  17
ATOM     17  C   UNL     1      96.209  -3.019  10.840  1.00  0.00     0.000 C 
BRANCH  17  18
ATOM     18  C   UNL     1      97.214  -2.673   9.727  1.00  0.00    -0.000 C 
BRANCH  18  19
ATOM     19  C   UNL     1      97.253  -3.730   8.608  1.00  0.00    -0.000 C 
BRANCH  19  20
ATOM     20  C   UNL     1      97.066  -3.178   7.183  1.00  0.00    -0.000 C 
BRANCH  20  21
ATOM     21  C   UNL     1      98.319  -2.473   6.643  1.00  0.00    -0.000 C 
BRANCH  21  22
ATOM     22  C   UNL     1      99.548  -3.385   6.743  1.00  0.00    -0.000 C 
BRANCH  22  23
ATOM     23  C   UNL     1      99.432  -4.575   5.779  1.00  0.00    -0.000 C 
BRANCH  23  24
ATOM     24  C   UNL     1      99.564  -5.935   6.486  1.00  0.00    -0.000 C 
BRANCH  24  25
ATOM     25  C   UNL     1      98.748  -7.077   5.854  1.00  0.00    -0.003 C 
ATOM     26  C   UNL     1      97.265  -6.739   5.703  1.00  0.00     0.004 C 
ENDBRANCH  24  25
ENDBRANCH  23  24
ENDBRANCH  22  23
ENDBRANCH  21  22
ENDBRANCH  20  21
ENDBRANCH  19  20
ENDBRANCH  18  19
ENDBRANCH  17  18
ENDBRANCH  16  17
ENDBRANCH  15  16
ENDBRANCH   1  15
TORSDOF 22
ENDMDL
MODEL 9
REMARK VINA RESULT:    -6.375      2.014      3.651
REMARK INTER + INTRA:         -17.141
REMARK INTER:                 -14.817
REMARK INTRA:                  -2.324
REMARK UNBOUND:                -2.566
REMARK SMILES CCCCCCCCCCCCCCCCCCCCCCCC(=O)[O-]
REMARK SMILES IDX 13 1 14 2 15 3 16 4 17 5 18 6 19 7 20 8 21 9 22 10 23 11
REMARK SMILES IDX 24 12 25 13 26 14 12 15 11 16 10 17 9 18 8 19 7 20 6 21 5 22
REMARK SMILES IDX 4 23 3 24 2 25 1 26
REMARK H PARENT
REMARK Flexibility Score: inf
ROOT
ATOM      1  C   UNL     1      81.768  -3.691   1.140  1.00  0.00     0.000 C 
ENDROOT
BRANCH   1   2
ATOM      2  C   UNL     1      81.378  -3.755   2.628  1.00  0.00     0.000 C 
BRANCH   2   3
ATOM      3  C   UNL     1      82.542  -3.384   3.561  1.00  0.00     0.000 C 
BRANCH   3   4
ATOM      4  C   UNL     1      83.920  -3.649   2.928  1.00  0.00     0.000 C 
BRANCH   4   5
ATOM      5  C   UNL     1      84.977  -2.625   3.370  1.00  0.00     0.000 C 
BRANCH   5   6
ATOM      6  C   UNL     1      85.975  -2.289   2.249  1.00  0.00     0.000 C 
BRANCH   6   7
ATOM      7  C   UNL     1      87.443  -2.465   2.681  1.00  0.00     0.000 C 
BRANCH   7   8
ATOM      8  C   UNL     1      87.669  -2.546   4.205  1.00  0.00     0.000 C 
BRANCH   8   9
ATOM      9  C   UNL     1      88.936  -1.836   4.717  1.00  0.00     0.000 C 
BRANCH   9  10
ATOM     10  C   UNL     1      89.655  -2.619   5.825  1.00  0.00     0.006 C 
BRANCH  10  11
ATOM     11  C   UNL     1      89.099  -4.042   5.941  1.00  0.00     0.053 C 
BRANCH  11  12
ATOM     12  C   UNL     1      90.192  -5.007   6.279  1.00  0.00     0.041 C 
ATOM     13  O   UNL     1      91.125  -5.221   5.460  1.00  0.00    -0.550 OA
ATOM     14  O   UNL     1      90.207  -5.637   7.517  1.00  0.00    -0.550 OA
ENDBRANCH  11  12
ENDBRANCH  10  11
ENDBRANCH   9  10
ENDBRANCH   8   9
ENDBRANCH   7   8
ENDBRANCH   6   7
ENDBRANCH   5   6
ENDBRANCH   4   5
ENDBRANCH   3   4
ENDBRANCH   2   3
ENDBRANCH   1   2
BRANCH   1  15
ATOM     15  C   UNL     1      81.071  -2.533   0.395  1.00  0.00     0.000 C 
BRANCH  15  16
ATOM     16  C   UNL     1      81.586  -1.132   0.786  1.00  0.00     0.000 C 
BRANCH  16  17
ATOM     17  C   UNL     1      83.086  -0.891   0.543  1.00  0.00     0.000 C 
BRANCH  17  18
ATOM     18  C   UNL     1      83.382   0.502  -0.043  1.00  0.00    -0.000 C 
BRANCH  18  19
ATOM     19  C   UNL     1      82.141   1.160  -0.675  1.00  0.00    -0.000 C 
BRANCH  19  20
ATOM     20  C   UNL     1      81.701   2.483  -0.022  1.00  0.00    -0.000 C 
BRANCH  20  21
ATOM     21  C   UNL     1      80.311   2.398   0.626  1.00  0.00    -0.000 C 
BRANCH  21  22
ATOM     22  C   UNL     1      80.371   2.786   2.108  1.00  0.00    -0.000 C 
BRANCH  22  23
ATOM     23  C   UNL     1      81.704   2.354   2.737  1.00  0.00    -0.000 C 
BRANCH  23  24
ATOM     24  C   UNL     1      81.787   2.668   4.242  1.00  0.00    -0.000 C 
BRANCH  24  25
ATOM     25  C   UNL     1      80.428   2.787   4.955  1.00  0.00    -0.003 C 
ATOM     26  C   UNL     1      80.424   3.840   6.063  1.00  0.00     0.004 C 
ENDBRANCH  24  25
ENDBRANCH  23  24
ENDBRANCH  22  23
ENDBRANCH  21  22
ENDBRANCH  20  21
ENDBRANCH  19  20
ENDBRANCH  18  19
ENDBRANCH  17  18
ENDBRANCH  16  17
ENDBRANCH  15  16
ENDBRANCH   1  15
TORSDOF 22
ENDMDL
