MODEL 1
REMARK VINA RESULT:    -6.073      0.000      0.000
REMARK INTER + INTRA:          -7.245
REMARK INTER:                  -7.139
REMARK INTRA:                  -0.107
REMARK UNBOUND:                -0.107
REMARK SMILES O=c1c(O)c(-c2ccc(O)cc2)oc2cc(O)cc(O)c12
REMARK SMILES IDX 5 1 3 2 2 3 1 4 21 5 19 6 18 7 16 8 15 9 14 10 13 11 6 12
REMARK SMILES IDX 7 13 8 14 9 15 12 16 11 17 10 18 4 20 20 22 17 24
REMARK H PARENT 10 19 4 21 20 23 17 25
REMARK Flexibility Score: inf
ROOT
ATOM      1  C   UNL     1     -11.155  -8.296  -5.864  1.00  0.00     0.180 A 
ATOM      2  C   UNL     1      -9.855  -8.678  -5.492  1.00  0.00     0.208 A 
ATOM      3  C   UNL     1      -9.626 -10.000  -5.075  1.00  0.00     0.238 A 
ATOM      4  O   UNL     1      -8.450 -10.349  -4.795  1.00  0.00    -0.285 OA
ATOM      5  C   UNL     1     -10.702 -10.917  -5.022  1.00  0.00     0.111 A 
ATOM      6  C   UNL     1     -10.592 -12.270  -4.578  1.00  0.00     0.134 A 
ATOM      7  C   UNL     1     -11.695 -13.125  -4.690  1.00  0.00     0.093 A 
ATOM      8  C   UNL     1     -12.920 -12.662  -5.169  1.00  0.00     0.123 A 
ATOM      9  C   UNL     1     -13.055 -11.327  -5.549  1.00  0.00     0.094 A 
ATOM     10  C   UNL     1     -11.963 -10.458  -5.483  1.00  0.00     0.146 A 
ATOM     11  O   UNL     1     -12.130  -9.198  -5.865  1.00  0.00    -0.452 OA
ENDROOT
BRANCH   1  12
ATOM     12  C   UNL     1     -11.480  -6.915  -6.290  1.00  0.00     0.021 A 
ATOM     13  C   UNL     1     -10.904  -6.349  -7.442  1.00  0.00     0.016 A 
ATOM     14  C   UNL     1     -11.207  -5.035  -7.810  1.00  0.00     0.047 A 
ATOM     15  C   UNL     1     -12.078  -4.266  -7.026  1.00  0.00     0.115 A 
ATOM     16  C   UNL     1     -12.335  -6.131  -5.498  1.00  0.00     0.016 A 
ATOM     17  C   UNL     1     -12.637  -4.817  -5.870  1.00  0.00     0.047 A 
BRANCH  15  18
ATOM     18  O   UNL     1     -12.388  -2.957  -7.385  1.00  0.00    -0.508 OA
ATOM     19  H   UNL     1     -12.855  -2.328  -6.741  1.00  0.00     0.293 HD
ENDBRANCH  15  18
ENDBRANCH   1  12
BRANCH   2  20
ATOM     20  O   UNL     1      -8.803  -7.761  -5.574  1.00  0.00    -0.502 OA
ATOM     21  H   UNL     1      -8.680  -7.014  -4.902  1.00  0.00     0.293 HD
ENDBRANCH   2  20
BRANCH   6  22
ATOM     22  O   UNL     1      -9.441 -12.810  -3.997  1.00  0.00    -0.507 OA
ATOM     23  H   UNL     1      -9.005 -12.463  -3.155  1.00  0.00     0.293 HD
ENDBRANCH   6  22
BRANCH   8  24
ATOM     24  O   UNL     1     -14.001 -13.538  -5.252  1.00  0.00    -0.508 OA
ATOM     25  H   UNL     1     -14.608 -13.555  -6.063  1.00  0.00     0.293 HD
ENDBRANCH   8  24
TORSDOF 5
ENDMDL
MODEL 2
REMARK VINA RESULT:    -5.913      1.709      7.086
REMARK INTER + INTRA:          -7.057
REMARK INTER:                  -7.083
REMARK INTRA:                   0.025
REMARK UNBOUND:                -0.107
REMARK SMILES O=c1c(O)c(-c2ccc(O)cc2)oc2cc(O)cc(O)c12
REMARK SMILES IDX 5 1 3 2 2 3 1 4 21 5 19 6 18 7 16 8 15 9 14 10 13 11 6 12
REMARK SMILES IDX 7 13 8 14 9 15 12 16 11 17 10 18 4 20 20 22 17 24
REMARK H PARENT 10 19 4 21 20 23 17 25
REMARK Flexibility Score: inf
ROOT
ATOM      1  C   UNL     1     -11.884  -8.028  -5.869  1.00  0.00     0.180 A 
ATOM      2  C   UNL     1     -12.562  -7.092  -5.070  1.00  0.00     0.208 A 
ATOM      3  C   UNL     1     -12.519  -5.734  -5.426  1.00  0.00     0.238 A 
ATOM      4  O   UNL     1     -13.173  -4.908  -4.738  1.00  0.00    -0.285 OA
ATOM      5  C   UNL     1     -11.785  -5.329  -6.566  1.00  0.00     0.111 A 
ATOM      6  C   UNL     1     -11.640  -3.975  -6.998  1.00  0.00     0.134 A 
ATOM      7  C   UNL     1     -11.000  -3.702  -8.213  1.00  0.00     0.093 A 
ATOM      8  C   UNL     1     -10.445  -4.725  -8.980  1.00  0.00     0.123 A 
ATOM      9  C   UNL     1     -10.528  -6.046  -8.538  1.00  0.00     0.094 A 
ATOM     10  C   UNL     1     -11.192  -6.354  -7.348  1.00  0.00     0.146 A 
ATOM     11  O   UNL     1     -11.259  -7.624  -6.968  1.00  0.00    -0.452 OA
ENDROOT
BRANCH   1  12
ATOM     12  C   UNL     1     -11.862  -9.473  -5.544  1.00  0.00     0.021 A 
ATOM     13  C   UNL     1     -13.050 -10.187  -5.298  1.00  0.00     0.016 A 
ATOM     14  C   UNL     1     -13.002 -11.545  -4.970  1.00  0.00     0.047 A 
ATOM     15  C   UNL     1     -11.769 -12.203  -4.868  1.00  0.00     0.115 A 
ATOM     16  C   UNL     1     -10.630 -10.135  -5.419  1.00  0.00     0.016 A 
ATOM     17  C   UNL     1     -10.586 -11.494  -5.092  1.00  0.00     0.047 A 
BRANCH  15  18
ATOM     18  O   UNL     1     -11.711 -13.557  -4.544  1.00  0.00    -0.508 OA
ATOM     19  H   UNL     1     -12.395 -13.984  -3.929  1.00  0.00     0.293 HD
ENDBRANCH  15  18
ENDBRANCH   1  12
BRANCH   2  20
ATOM     20  O   UNL     1     -13.299  -7.518  -3.961  1.00  0.00    -0.502 OA
ATOM     21  H   UNL     1     -12.978  -8.253  -3.344  1.00  0.00     0.293 HD
ENDBRANCH   2  20
BRANCH   6  22
ATOM     22  O   UNL     1     -12.078  -2.870  -6.261  1.00  0.00    -0.507 OA
ATOM     23  H   UNL     1     -12.378  -2.904  -5.298  1.00  0.00     0.293 HD
ENDBRANCH   6  22
BRANCH   8  24
ATOM     24  O   UNL     1      -9.801  -4.416 -10.176  1.00  0.00    -0.508 OA
ATOM     25  H   UNL     1      -8.790  -4.387 -10.243  1.00  0.00     0.293 HD
ENDBRANCH   8  24
TORSDOF 5
ENDMDL
MODEL 3
REMARK VINA RESULT:    -5.172      4.648      5.799
REMARK INTER + INTRA:          -6.185
REMARK INTER:                  -6.441
REMARK INTRA:                   0.256
REMARK UNBOUND:                -0.107
REMARK SMILES O=c1c(O)c(-c2ccc(O)cc2)oc2cc(O)cc(O)c12
REMARK SMILES IDX 5 1 3 2 2 3 1 4 21 5 19 6 18 7 16 8 15 9 14 10 13 11 6 12
REMARK SMILES IDX 7 13 8 14 9 15 12 16 11 17 10 18 4 20 20 22 17 24
REMARK H PARENT 10 19 4 21 20 23 17 25
REMARK Flexibility Score: inf
ROOT
ATOM      1  C   UNL     1      -9.371 -12.100  -5.897  1.00  0.00     0.180 A 
ATOM      2  C   UNL     1     -10.169 -12.728  -6.868  1.00  0.00     0.208 A 
ATOM      3  C   UNL     1     -11.468 -13.135  -6.525  1.00  0.00     0.238 A 
ATOM      4  O   UNL     1     -12.196 -13.648  -7.414  1.00  0.00    -0.285 OA
ATOM      5  C   UNL     1     -11.947 -12.924  -5.210  1.00  0.00     0.111 A 
ATOM      6  C   UNL     1     -13.232 -13.331  -4.739  1.00  0.00     0.134 A 
ATOM      7  C   UNL     1     -13.651 -12.955  -3.457  1.00  0.00     0.093 A 
ATOM      8  C   UNL     1     -12.808 -12.242  -2.606  1.00  0.00     0.123 A 
ATOM      9  C   UNL     1     -11.527 -11.890  -3.032  1.00  0.00     0.094 A 
ATOM     10  C   UNL     1     -11.095 -12.220  -4.319  1.00  0.00     0.146 A 
ATOM     11  O   UNL     1      -9.873 -11.857  -4.691  1.00  0.00    -0.452 OA
ENDROOT
BRANCH   1  12
ATOM     12  C   UNL     1      -7.983 -11.666  -6.176  1.00  0.00     0.021 A 
ATOM     13  C   UNL     1      -7.168 -12.360  -7.090  1.00  0.00     0.016 A 
ATOM     14  C   UNL     1      -5.854 -11.945  -7.320  1.00  0.00     0.047 A 
ATOM     15  C   UNL     1      -5.331 -10.843  -6.630  1.00  0.00     0.115 A 
ATOM     16  C   UNL     1      -7.445 -10.575  -5.473  1.00  0.00     0.016 A 
ATOM     17  C   UNL     1      -6.130 -10.162  -5.706  1.00  0.00     0.047 A 
BRANCH  15  18
ATOM     18  O   UNL     1      -4.023 -10.420  -6.852  1.00  0.00    -0.508 OA
ATOM     19  H   UNL     1      -3.388 -10.949  -7.439  1.00  0.00     0.293 HD
ENDBRANCH  15  18
ENDBRANCH   1  12
BRANCH   2  20
ATOM     20  O   UNL     1      -9.684 -12.907  -8.167  1.00  0.00    -0.502 OA
ATOM     21  H   UNL     1      -9.365 -13.805  -8.509  1.00  0.00     0.293 HD
ENDBRANCH   2  20
BRANCH   6  22
ATOM     22  O   UNL     1     -14.117 -14.125  -5.476  1.00  0.00    -0.507 OA
ATOM     23  H   UNL     1     -13.838 -14.851  -6.120  1.00  0.00     0.293 HD
ENDBRANCH   6  22
BRANCH   8  24
ATOM     24  O   UNL     1     -13.251 -11.897  -1.330  1.00  0.00    -0.508 OA
ATOM     25  H   UNL     1     -12.684 -11.335  -0.706  1.00  0.00     0.293 HD
ENDBRANCH   8  24
TORSDOF 5
ENDMDL
MODEL 4
REMARK VINA RESULT:    -5.156      1.788      3.479
REMARK INTER + INTRA:          -6.167
REMARK INTER:                  -5.905
REMARK INTRA:                  -0.263
REMARK UNBOUND:                -0.107
REMARK SMILES O=c1c(O)c(-c2ccc(O)cc2)oc2cc(O)cc(O)c12
REMARK SMILES IDX 5 1 3 2 2 3 1 4 21 5 19 6 18 7 16 8 15 9 14 10 13 11 6 12
REMARK SMILES IDX 7 13 8 14 9 15 12 16 11 17 10 18 4 20 20 22 17 24
REMARK H PARENT 10 19 4 21 20 23 17 25
REMARK Flexibility Score: inf
ROOT
ATOM      1  C   UNL     1     -10.491  -7.722  -5.657  1.00  0.00     0.180 A 
ATOM      2  C   UNL     1     -11.435  -8.760  -5.595  1.00  0.00     0.208 A 
ATOM      3  C   UNL     1     -10.984 -10.089  -5.524  1.00  0.00     0.238 A 
ATOM      4  O   UNL     1     -11.833 -11.010  -5.414  1.00  0.00    -0.285 OA
ATOM      5  C   UNL     1      -9.595 -10.361  -5.531  1.00  0.00     0.111 A 
ATOM      6  C   UNL     1      -9.026 -11.670  -5.503  1.00  0.00     0.134 A 
ATOM      7  C   UNL     1      -7.639 -11.818  -5.383  1.00  0.00     0.093 A 
ATOM      8  C   UNL     1      -6.796 -10.708  -5.355  1.00  0.00     0.123 A 
ATOM      9  C   UNL     1      -7.337  -9.425  -5.442  1.00  0.00     0.094 A 
ATOM     10  C   UNL     1      -8.719  -9.244  -5.526  1.00  0.00     0.146 A 
ATOM     11  O   UNL     1      -9.195  -8.006  -5.597  1.00  0.00    -0.452 OA
ENDROOT
BRANCH   1  12
ATOM     12  C   UNL     1     -10.889  -6.299  -5.760  1.00  0.00     0.021 A 
ATOM     13  C   UNL     1     -10.855  -5.615  -6.990  1.00  0.00     0.016 A 
ATOM     14  C   UNL     1     -11.213  -4.266  -7.057  1.00  0.00     0.047 A 
ATOM     15  C   UNL     1     -11.594  -3.578  -5.897  1.00  0.00     0.115 A 
ATOM     16  C   UNL     1     -11.252  -5.597  -4.598  1.00  0.00     0.016 A 
ATOM     17  C   UNL     1     -11.610  -4.247  -4.670  1.00  0.00     0.047 A 
BRANCH  15  18
ATOM     18  O   UNL     1     -11.954  -2.234  -5.953  1.00  0.00    -0.508 OA
ATOM     19  H   UNL     1     -12.516  -1.868  -6.713  1.00  0.00     0.293 HD
ENDBRANCH  15  18
ENDBRANCH   1  12
BRANCH   2  20
ATOM     20  O   UNL     1     -12.802  -8.467  -5.566  1.00  0.00    -0.502 OA
ATOM     21  H   UNL     1     -13.359  -8.392  -6.408  1.00  0.00     0.293 HD
ENDBRANCH   2  20
BRANCH   6  22
ATOM     22  O   UNL     1      -9.771 -12.848  -5.618  1.00  0.00    -0.507 OA
ATOM     23  H   UNL     1     -10.618 -12.942  -6.159  1.00  0.00     0.293 HD
ENDBRANCH   6  22
BRANCH   8  24
ATOM     24  O   UNL     1      -5.419 -10.893  -5.250  1.00  0.00    -0.508 OA
ATOM     25  H   UNL     1      -4.765 -10.306  -5.755  1.00  0.00     0.293 HD
ENDBRANCH   8  24
TORSDOF 5
ENDMDL
MODEL 5
REMARK VINA RESULT:    -5.054      3.895      6.544
REMARK INTER + INTRA:          -6.048
REMARK INTER:                  -5.748
REMARK INTRA:                  -0.300
REMARK UNBOUND:                -0.107
REMARK SMILES O=c1c(O)c(-c2ccc(O)cc2)oc2cc(O)cc(O)c12
REMARK SMILES IDX 5 1 3 2 2 3 1 4 21 5 19 6 18 7 16 8 15 9 14 10 13 11 6 12
REMARK SMILES IDX 7 13 8 14 9 15 12 16 11 17 10 18 4 20 20 22 17 24
REMARK H PARENT 10 19 4 21 20 23 17 25
REMARK Flexibility Score: inf
ROOT
ATOM      1  C   UNL     1      -9.372 -12.005  -6.087  1.00  0.00     0.180 A 
ATOM      2  C   UNL     1      -9.320 -12.980  -7.097  1.00  0.00     0.208 A 
ATOM      3  C   UNL     1      -8.103 -13.213  -7.758  1.00  0.00     0.238 A 
ATOM      4  O   UNL     1      -8.051 -14.125  -8.624  1.00  0.00    -0.285 OA
ATOM      5  C   UNL     1      -6.958 -12.458  -7.411  1.00  0.00     0.111 A 
ATOM      6  C   UNL     1      -5.683 -12.582  -8.042  1.00  0.00     0.134 A 
ATOM      7  C   UNL     1      -4.588 -11.876  -7.530  1.00  0.00     0.093 A 
ATOM      8  C   UNL     1      -4.733 -11.002  -6.453  1.00  0.00     0.123 A 
ATOM      9  C   UNL     1      -5.987 -10.828  -5.867  1.00  0.00     0.094 A 
ATOM     10  C   UNL     1      -7.091 -11.545  -6.332  1.00  0.00     0.146 A 
ATOM     11  O   UNL     1      -8.265 -11.359  -5.739  1.00  0.00    -0.452 OA
ENDROOT
BRANCH   1  12
ATOM     12  C   UNL     1     -10.624 -11.685  -5.363  1.00  0.00     0.021 A 
ATOM     13  C   UNL     1     -11.520 -10.711  -5.843  1.00  0.00     0.016 A 
ATOM     14  C   UNL     1     -12.683 -10.410  -5.129  1.00  0.00     0.047 A 
ATOM     15  C   UNL     1     -12.959 -11.064  -3.922  1.00  0.00     0.115 A 
ATOM     16  C   UNL     1     -10.897 -12.321  -4.141  1.00  0.00     0.016 A 
ATOM     17  C   UNL     1     -12.063 -12.017  -3.430  1.00  0.00     0.047 A 
BRANCH  15  18
ATOM     18  O   UNL     1     -14.117 -10.772  -3.203  1.00  0.00    -0.508 OA
ATOM     19  H   UNL     1     -14.311 -11.212  -2.311  1.00  0.00     0.293 HD
ENDBRANCH  15  18
ENDBRANCH   1  12
BRANCH   2  20
ATOM     20  O   UNL     1     -10.458 -13.731  -7.408  1.00  0.00    -0.502 OA
ATOM     21  H   UNL     1     -10.893 -13.705  -8.322  1.00  0.00     0.293 HD
ENDBRANCH   2  20
BRANCH   6  22
ATOM     22  O   UNL     1      -5.449 -13.356  -9.182  1.00  0.00    -0.507 OA
ATOM     23  H   UNL     1      -5.586 -14.355  -9.236  1.00  0.00     0.293 HD
ENDBRANCH   6  22
BRANCH   8  24
ATOM     24  O   UNL     1      -3.624 -10.304  -5.980  1.00  0.00    -0.508 OA
ATOM     25  H   UNL     1      -3.107 -10.618  -5.166  1.00  0.00     0.293 HD
ENDBRANCH   8  24
TORSDOF 5
ENDMDL
MODEL 6
REMARK VINA RESULT:    -4.829      3.940      6.512
REMARK INTER + INTRA:          -5.783
REMARK INTER:                  -5.534
REMARK INTRA:                  -0.249
REMARK UNBOUND:                -0.107
REMARK SMILES O=c1c(O)c(-c2ccc(O)cc2)oc2cc(O)cc(O)c12
REMARK SMILES IDX 5 1 3 2 2 3 1 4 21 5 19 6 18 7 16 8 15 9 14 10 13 11 6 12
REMARK SMILES IDX 7 13 8 14 9 15 12 16 11 17 10 18 4 20 20 22 17 24
REMARK H PARENT 10 19 4 21 20 23 17 25
REMARK Flexibility Score: inf
ROOT
ATOM      1  C   UNL     1      -8.828 -11.669  -5.737  1.00  0.00     0.180 A 
ATOM      2  C   UNL     1      -7.973 -10.659  -5.266  1.00  0.00     0.208 A 
ATOM      3  C   UNL     1      -6.680 -10.554  -5.804  1.00  0.00     0.238 A 
ATOM      4  O   UNL     1      -5.938  -9.614  -5.417  1.00  0.00    -0.285 OA
ATOM      5  C   UNL     1      -6.253 -11.472  -6.793  1.00  0.00     0.111 A 
ATOM      6  C   UNL     1      -4.951 -11.486  -7.379  1.00  0.00     0.134 A 
ATOM      7  C   UNL     1      -4.681 -12.356  -8.442  1.00  0.00     0.093 A 
ATOM      8  C   UNL     1      -5.642 -13.257  -8.897  1.00  0.00     0.123 A 
ATOM      9  C   UNL     1      -6.899 -13.295  -8.292  1.00  0.00     0.094 A 
ATOM     10  C   UNL     1      -7.211 -12.414  -7.254  1.00  0.00     0.146 A 
ATOM     11  O   UNL     1      -8.421 -12.474  -6.712  1.00  0.00    -0.452 OA
ENDROOT
BRANCH   1  12
ATOM     12  C   UNL     1     -10.196 -11.858  -5.201  1.00  0.00     0.021 A 
ATOM     13  C   UNL     1     -10.491 -12.890  -4.291  1.00  0.00     0.016 A 
ATOM     14  C   UNL     1     -11.794 -13.063  -3.818  1.00  0.00     0.047 A 
ATOM     15  C   UNL     1     -12.822 -12.219  -4.258  1.00  0.00     0.115 A 
ATOM     16  C   UNL     1     -11.236 -11.029  -5.653  1.00  0.00     0.016 A 
ATOM     17  C   UNL     1     -12.539 -11.205  -5.177  1.00  0.00     0.047 A 
BRANCH  15  18
ATOM     18  O   UNL     1     -14.125 -12.381  -3.791  1.00  0.00    -0.508 OA
ATOM     19  H   UNL     1     -14.586 -13.284  -3.813  1.00  0.00     0.293 HD
ENDBRANCH  15  18
ENDBRANCH   1  12
BRANCH   2  20
ATOM     20  O   UNL     1      -8.423  -9.749  -4.305  1.00  0.00    -0.502 OA
ATOM     21  H   UNL     1      -9.396  -9.483  -4.221  1.00  0.00     0.293 HD
ENDBRANCH   2  20
BRANCH   6  22
ATOM     22  O   UNL     1      -3.889 -10.691  -6.939  1.00  0.00    -0.507 OA
ATOM     23  H   UNL     1      -3.736  -9.731  -7.214  1.00  0.00     0.293 HD
ENDBRANCH   6  22
BRANCH   8  24
ATOM     24  O   UNL     1      -5.334 -14.120  -9.947  1.00  0.00    -0.508 OA
ATOM     25  H   UNL     1      -4.721 -13.837 -10.704  1.00  0.00     0.293 HD
ENDBRANCH   8  24
TORSDOF 5
ENDMDL
MODEL 7
REMARK VINA RESULT:    -4.822      1.494      3.073
REMARK INTER + INTRA:          -5.775
REMARK INTER:                  -6.007
REMARK INTRA:                   0.231
REMARK UNBOUND:                -0.107
REMARK SMILES O=c1c(O)c(-c2ccc(O)cc2)oc2cc(O)cc(O)c12
REMARK SMILES IDX 5 1 3 2 2 3 1 4 21 5 19 6 18 7 16 8 15 9 14 10 13 11 6 12
REMARK SMILES IDX 7 13 8 14 9 15 12 16 11 17 10 18 4 20 20 22 17 24
REMARK H PARENT 10 19 4 21 20 23 17 25
REMARK Flexibility Score: inf
ROOT
ATOM      1  C   UNL     1     -11.883  -8.466  -5.598  1.00  0.00     0.180 A 
ATOM      2  C   UNL     1     -13.048  -9.089  -5.120  1.00  0.00     0.208 A 
ATOM      3  C   UNL     1     -13.100 -10.492  -5.068  1.00  0.00     0.238 A 
ATOM      4  O   UNL     1     -14.125 -11.042  -4.588  1.00  0.00    -0.285 OA
ATOM      5  C   UNL     1     -11.991 -11.253  -5.508  1.00  0.00     0.111 A 
ATOM      6  C   UNL     1     -11.947 -12.680  -5.537  1.00  0.00     0.134 A 
ATOM      7  C   UNL     1     -10.751 -13.328  -5.870  1.00  0.00     0.093 A 
ATOM      8  C   UNL     1      -9.618 -12.604  -6.237  1.00  0.00     0.123 A 
ATOM      9  C   UNL     1      -9.666 -11.210  -6.270  1.00  0.00     0.094 A 
ATOM     10  C   UNL     1     -10.834 -10.534  -5.908  1.00  0.00     0.146 A 
ATOM     11  O   UNL     1     -10.836  -9.206  -5.943  1.00  0.00    -0.452 OA
ENDROOT
BRANCH   1  12
ATOM     12  C   UNL     1     -11.764  -6.994  -5.707  1.00  0.00     0.021 A 
ATOM     13  C   UNL     1     -12.342  -6.139  -4.750  1.00  0.00     0.016 A 
ATOM     14  C   UNL     1     -12.237  -4.752  -4.887  1.00  0.00     0.047 A 
ATOM     15  C   UNL     1     -11.566  -4.201  -5.987  1.00  0.00     0.115 A 
ATOM     16  C   UNL     1     -11.111  -6.434  -6.817  1.00  0.00     0.016 A 
ATOM     17  C   UNL     1     -11.006  -5.045  -6.950  1.00  0.00     0.047 A 
BRANCH  15  18
ATOM     18  O   UNL     1     -11.453  -2.820  -6.132  1.00  0.00    -0.508 OA
ATOM     19  H   UNL     1     -12.266  -2.237  -6.294  1.00  0.00     0.293 HD
ENDBRANCH  15  18
ENDBRANCH   1  12
BRANCH   2  20
ATOM     20  O   UNL     1     -14.123  -8.317  -4.669  1.00  0.00    -0.502 OA
ATOM     21  H   UNL     1     -13.995  -7.448  -4.166  1.00  0.00     0.293 HD
ENDBRANCH   2  20
BRANCH   6  22
ATOM     22  O   UNL     1     -13.049 -13.500  -5.278  1.00  0.00    -0.507 OA
ATOM     23  H   UNL     1     -13.300 -14.314  -5.819  1.00  0.00     0.293 HD
ENDBRANCH   6  22
BRANCH   8  24
ATOM     24  O   UNL     1      -8.449 -13.282  -6.577  1.00  0.00    -0.508 OA
ATOM     25  H   UNL     1      -8.446 -14.016  -7.276  1.00  0.00     0.293 HD
ENDBRANCH   8  24
TORSDOF 5
ENDMDL
MODEL 8
REMARK VINA RESULT:    -4.694      4.862      6.049
REMARK INTER + INTRA:          -5.625
REMARK INTER:                  -5.643
REMARK INTRA:                   0.019
REMARK UNBOUND:                -0.107
REMARK SMILES O=c1c(O)c(-c2ccc(O)cc2)oc2cc(O)cc(O)c12
REMARK SMILES IDX 5 1 3 2 2 3 1 4 21 5 19 6 18 7 16 8 15 9 14 10 13 11 6 12
REMARK SMILES IDX 7 13 8 14 9 15 12 16 11 17 10 18 4 20 20 22 17 24
REMARK H PARENT 10 19 4 21 20 23 17 25
REMARK Flexibility Score: inf
ROOT
ATOM      1  C   UNL     1      -9.271 -12.453  -6.581  1.00  0.00     0.180 A 
ATOM      2  C   UNL     1      -9.916 -12.747  -5.368  1.00  0.00     0.208 A 
ATOM      3  C   UNL     1     -11.234 -13.233  -5.396  1.00  0.00     0.238 A 
ATOM      4  O   UNL     1     -11.787 -13.545  -4.310  1.00  0.00    -0.285 OA
ATOM      5  C   UNL     1     -11.894 -13.404  -6.637  1.00  0.00     0.111 A 
ATOM      6  C   UNL     1     -13.242 -13.852  -6.783  1.00  0.00     0.134 A 
ATOM      7  C   UNL     1     -13.750 -14.108  -8.062  1.00  0.00     0.093 A 
ATOM      8  C   UNL     1     -12.983 -13.873  -9.202  1.00  0.00     0.123 A 
ATOM      9  C   UNL     1     -11.685 -13.378  -9.074  1.00  0.00     0.094 A 
ATOM     10  C   UNL     1     -11.138 -13.147  -7.810  1.00  0.00     0.146 A 
ATOM     11  O   UNL     1      -9.894 -12.686  -7.730  1.00  0.00    -0.452 OA
ENDROOT
BRANCH   1  12
ATOM     12  C   UNL     1      -7.893 -11.914  -6.631  1.00  0.00     0.021 A 
ATOM     13  C   UNL     1      -6.885 -12.548  -7.382  1.00  0.00     0.016 A 
ATOM     14  C   UNL     1      -5.585 -12.033  -7.394  1.00  0.00     0.047 A 
ATOM     15  C   UNL     1      -5.272 -10.891  -6.647  1.00  0.00     0.115 A 
ATOM     16  C   UNL     1      -7.565 -10.782  -5.868  1.00  0.00     0.016 A 
ATOM     17  C   UNL     1      -6.264 -10.269  -5.883  1.00  0.00     0.047 A 
BRANCH  15  18
ATOM     18  O   UNL     1      -3.980 -10.369  -6.653  1.00  0.00    -0.508 OA
ATOM     19  H   UNL     1      -3.521 -10.104  -7.517  1.00  0.00     0.293 HD
ENDBRANCH  15  18
ENDBRANCH   1  12
BRANCH   2  20
ATOM     20  O   UNL     1      -9.238 -12.592  -4.156  1.00  0.00    -0.502 OA
ATOM     21  H   UNL     1      -9.710 -12.334  -3.298  1.00  0.00     0.293 HD
ENDBRANCH   2  20
BRANCH   6  22
ATOM     22  O   UNL     1     -14.125 -14.031  -5.714  1.00  0.00    -0.507 OA
ATOM     23  H   UNL     1     -13.890 -13.883  -4.743  1.00  0.00     0.293 HD
ENDBRANCH   6  22
BRANCH   8  24
ATOM     24  O   UNL     1     -13.526 -14.124 -10.460  1.00  0.00    -0.508 OA
ATOM     25  H   UNL     1     -13.554 -13.410 -11.179  1.00  0.00     0.293 HD
ENDBRANCH   8  24
TORSDOF 5
ENDMDL
MODEL 9
REMARK VINA RESULT:    -4.691      5.027      7.442
REMARK INTER + INTRA:          -5.621
REMARK INTER:                  -5.364
REMARK INTRA:                  -0.257
REMARK UNBOUND:                -0.107
REMARK SMILES O=c1c(O)c(-c2ccc(O)cc2)oc2cc(O)cc(O)c12
REMARK SMILES IDX 5 1 3 2 2 3 1 4 21 5 19 6 18 7 16 8 15 9 14 10 13 11 6 12
REMARK SMILES IDX 7 13 8 14 9 15 12 16 11 17 10 18 4 20 20 22 17 24
REMARK H PARENT 10 19 4 21 20 23 17 25
REMARK Flexibility Score: inf
ROOT
ATOM      1  C   UNL     1      -6.590 -12.354  -7.530  1.00  0.00     0.180 A 
ATOM      2  C   UNL     1      -6.383 -11.256  -6.678  1.00  0.00     0.208 A 
ATOM      3  C   UNL     1      -7.432 -10.832  -5.845  1.00  0.00     0.238 A 
ATOM      4  O   UNL     1      -7.223  -9.883  -5.046  1.00  0.00    -0.285 OA
ATOM      5  C   UNL     1      -8.679 -11.501  -5.888  1.00  0.00     0.111 A 
ATOM      6  C   UNL     1      -9.823 -11.132  -5.118  1.00  0.00     0.134 A 
ATOM      7  C   UNL     1     -10.964 -11.944  -5.143  1.00  0.00     0.093 A 
ATOM      8  C   UNL     1     -11.025 -13.074  -5.957  1.00  0.00     0.123 A 
ATOM      9  C   UNL     1      -9.935 -13.411  -6.759  1.00  0.00     0.094 A 
ATOM     10  C   UNL     1      -8.769 -12.641  -6.729  1.00  0.00     0.146 A 
ATOM     11  O   UNL     1      -7.749 -13.001  -7.499  1.00  0.00    -0.452 OA
ENDROOT
BRANCH   1  12
ATOM     12  C   UNL     1      -5.541 -12.844  -8.454  1.00  0.00     0.021 A 
ATOM     13  C   UNL     1      -4.490 -13.664  -8.001  1.00  0.00     0.016 A 
ATOM     14  C   UNL     1      -3.499 -14.094  -8.887  1.00  0.00     0.047 A 
ATOM     15  C   UNL     1      -3.536 -13.700 -10.231  1.00  0.00     0.115 A 
ATOM     16  C   UNL     1      -5.559 -12.437  -9.798  1.00  0.00     0.016 A 
ATOM     17  C   UNL     1      -4.566 -12.870 -10.682  1.00  0.00     0.047 A 
BRANCH  15  18
ATOM     18  O   UNL     1      -2.553 -14.125 -11.123  1.00  0.00    -0.508 OA
ATOM     19  H   UNL     1      -2.002 -14.957 -10.947  1.00  0.00     0.293 HD
ENDBRANCH  15  18
ENDBRANCH   1  12
BRANCH   2  20
ATOM     20  O   UNL     1      -5.137 -10.624  -6.636  1.00  0.00    -0.502 OA
ATOM     21  H   UNL     1      -4.293 -11.063  -6.984  1.00  0.00     0.293 HD
ENDBRANCH   2  20
BRANCH   6  22
ATOM     22  O   UNL     1      -9.900  -9.972  -4.342  1.00  0.00    -0.507 OA
ATOM     23  H   UNL     1      -9.104  -9.445  -4.014  1.00  0.00     0.293 HD
ENDBRANCH   6  22
BRANCH   8  24
ATOM     24  O   UNL     1     -12.182 -13.850  -5.969  1.00  0.00    -0.508 OA
ATOM     25  H   UNL     1     -12.724 -13.983  -6.815  1.00  0.00     0.293 HD
ENDBRANCH   8  24
TORSDOF 5
ENDMDL
