MODEL 1
REMARK VINA RESULT:    -4.058      0.000      0.000
REMARK INTER + INTRA:          -9.348
REMARK INTER:                  -7.379
REMARK INTRA:                  -1.970
REMARK UNBOUND:                -1.970
REMARK SMILES CCCCCCCCCCCCCC[C@H](C)C(=O)[O-]
REMARK SMILES IDX 9 1 10 2 11 3 12 4 13 5 14 6 15 7 16 8 17 9 18 10 19 11 8 12
REMARK SMILES IDX 7 13 6 14 5 15 4 16 3 17 2 18 1 19
REMARK H PARENT
REMARK Flexibility Score: inf
ROOT
ATOM      1  C   UNL     1       3.367  -5.976  -0.240  1.00  0.00     0.000 C 
ENDROOT
BRANCH   1   2
ATOM      2  C   UNL     1       4.637  -5.128  -0.408  1.00  0.00     0.000 C 
BRANCH   2   3
ATOM      3  C   UNL     1       5.467  -5.119   0.881  1.00  0.00     0.000 C 
BRANCH   3   4
ATOM      4  C   UNL     1       5.724  -3.682   1.360  1.00  0.00     0.000 C 
BRANCH   4   5
ATOM      5  C   UNL     1       4.790  -2.658   0.695  1.00  0.00     0.001 C 
BRANCH   5   6
ATOM      6  C   UNL     1       5.550  -1.452   0.114  1.00  0.00     0.009 C 
BRANCH   6   7
ATOM      7  C   UNL     1       5.682  -1.534  -1.422  1.00  0.00     0.032 C 
ATOM      8  C   UNL     1       6.888  -2.394  -1.814  1.00  0.00     0.014 C 
BRANCH   7   9
ATOM      9  C   UNL     1       5.815  -0.166  -2.035  1.00  0.00     0.044 C 
ATOM     10  O   UNL     1       4.930   0.262  -2.822  1.00  0.00    -0.550 OA
ATOM     11  O   UNL     1       6.916   0.631  -1.743  1.00  0.00    -0.550 OA
ENDBRANCH   7   9
ENDBRANCH   6   7
ENDBRANCH   5   6
ENDBRANCH   4   5
ENDBRANCH   3   4
ENDBRANCH   2   3
ENDBRANCH   1   2
BRANCH   1  12
ATOM     12  C   UNL     1       2.144  -5.137   0.161  1.00  0.00     0.000 C 
BRANCH  12  13
ATOM     13  C   UNL     1       1.374  -5.745   1.347  1.00  0.00    -0.000 C 
BRANCH  13  14
ATOM     14  C   UNL     1       1.295  -4.792   2.551  1.00  0.00    -0.000 C 
BRANCH  14  15
ATOM     15  C   UNL     1       2.653  -4.602   3.244  1.00  0.00    -0.000 C 
BRANCH  15  16
ATOM     16  C   UNL     1       3.231  -5.949   3.696  1.00  0.00    -0.000 C 
BRANCH  16  17
ATOM     17  C   UNL     1       4.498  -5.799   4.555  1.00  0.00    -0.000 C 
BRANCH  17  18
ATOM     18  C   UNL     1       4.305  -6.225   6.025  1.00  0.00    -0.003 C 
ATOM     19  C   UNL     1       5.195  -5.431   6.983  1.00  0.00     0.004 C 
ENDBRANCH  17  18
ENDBRANCH  16  17
ENDBRANCH  15  16
ENDBRANCH  14  15
ENDBRANCH  13  14
ENDBRANCH  12  13
ENDBRANCH   1  12
TORSDOF 14
ENDMDL
MODEL 2
REMARK VINA RESULT:    -3.900      3.159      6.186
REMARK INTER + INTRA:          -9.061
REMARK INTER:                  -7.069
REMARK INTRA:                  -1.992
REMARK UNBOUND:                -1.970
REMARK SMILES CCCCCCCCCCCCCC[C@H](C)C(=O)[O-]
REMARK SMILES IDX 9 1 10 2 11 3 12 4 13 5 14 6 15 7 16 8 17 9 18 10 19 11 8 12
REMARK SMILES IDX 7 13 6 14 5 15 4 16 3 17 2 18 1 19
REMARK H PARENT
REMARK Flexibility Score: inf
ROOT
ATOM      1  C   UNL     1       7.008  -2.820  -2.353  1.00  0.00     0.000 C 
ENDROOT
BRANCH   1   2
ATOM      2  C   UNL     1       7.021  -4.077  -1.469  1.00  0.00     0.000 C 
BRANCH   2   3
ATOM      3  C   UNL     1       5.607  -4.426  -0.988  1.00  0.00     0.000 C 
BRANCH   3   4
ATOM      4  C   UNL     1       5.651  -5.161   0.361  1.00  0.00     0.000 C 
BRANCH   4   5
ATOM      5  C   UNL     1       5.087  -4.317   1.515  1.00  0.00     0.001 C 
BRANCH   5   6
ATOM      6  C   UNL     1       3.828  -3.528   1.112  1.00  0.00     0.009 C 
BRANCH   6   7
ATOM      7  C   UNL     1       2.563  -4.052   1.824  1.00  0.00     0.032 C 
ATOM      8  C   UNL     1       2.939  -4.824   3.093  1.00  0.00     0.014 C 
BRANCH   7   9
ATOM      9  C   UNL     1       1.749  -4.936   0.917  1.00  0.00     0.044 C 
ATOM     10  O   UNL     1       1.738  -4.726  -0.325  1.00  0.00    -0.550 OA
ATOM     11  O   UNL     1       1.004  -5.984   1.442  1.00  0.00    -0.550 OA
ENDBRANCH   7   9
ENDBRANCH   6   7
ENDBRANCH   5   6
ENDBRANCH   4   5
ENDBRANCH   3   4
ENDBRANCH   2   3
ENDBRANCH   1   2
BRANCH   1  12
ATOM     12  C   UNL     1       5.620  -2.166  -2.430  1.00  0.00     0.000 C 
BRANCH  12  13
ATOM     13  C   UNL     1       5.628  -0.703  -1.952  1.00  0.00    -0.000 C 
BRANCH  13  14
ATOM     14  C   UNL     1       6.698  -0.440  -0.879  1.00  0.00    -0.000 C 
BRANCH  14  15
ATOM     15  C   UNL     1       6.245  -0.873   0.524  1.00  0.00    -0.000 C 
BRANCH  15  16
ATOM     16  C   UNL     1       7.433  -1.385   1.350  1.00  0.00    -0.000 C 
BRANCH  16  17
ATOM     17  C   UNL     1       7.788  -0.459   2.525  1.00  0.00    -0.000 C 
BRANCH  17  18
ATOM     18  C   UNL     1       8.131   0.983   2.097  1.00  0.00    -0.003 C 
ATOM     19  C   UNL     1       7.711   2.016   3.144  1.00  0.00     0.004 C 
ENDBRANCH  17  18
ENDBRANCH  16  17
ENDBRANCH  15  16
ENDBRANCH  14  15
ENDBRANCH  13  14
ENDBRANCH  12  13
ENDBRANCH   1  12
TORSDOF 14
ENDMDL
MODEL 3
REMARK VINA RESULT:    -3.890      3.714      6.884
REMARK INTER + INTRA:          -9.044
REMARK INTER:                  -6.582
REMARK INTRA:                  -2.461
REMARK UNBOUND:                -1.970
REMARK SMILES CCCCCCCCCCCCCC[C@H](C)C(=O)[O-]
REMARK SMILES IDX 9 1 10 2 11 3 12 4 13 5 14 6 15 7 16 8 17 9 18 10 19 11 8 12
REMARK SMILES IDX 7 13 6 14 5 15 4 16 3 17 2 18 1 19
REMARK H PARENT
REMARK Flexibility Score: inf
ROOT
ATOM      1  C   UNL     1       7.811  -4.514   1.067  1.00  0.00     0.000 C 
ENDROOT
BRANCH   1   2
ATOM      2  C   UNL     1       6.877  -5.541   0.408  1.00  0.00     0.000 C 
BRANCH   2   3
ATOM      3  C   UNL     1       5.443  -5.396   0.930  1.00  0.00     0.000 C 
BRANCH   3   4
ATOM      4  C   UNL     1       4.453  -5.204  -0.228  1.00  0.00     0.000 C 
BRANCH   4   5
ATOM      5  C   UNL     1       3.282  -4.277   0.139  1.00  0.00     0.001 C 
BRANCH   5   6
ATOM      6  C   UNL     1       1.929  -5.013   0.162  1.00  0.00     0.009 C 
BRANCH   6   7
ATOM      7  C   UNL     1       1.366  -5.145   1.592  1.00  0.00     0.032 C 
ATOM      8  C   UNL     1       2.239  -4.375   2.589  1.00  0.00     0.014 C 
BRANCH   7   9
ATOM      9  C   UNL     1       1.269  -6.587   2.014  1.00  0.00     0.044 C 
ATOM     10  O   UNL     1       2.314  -7.278   2.143  1.00  0.00    -0.550 OA
ATOM     11  O   UNL     1       0.029  -7.165   2.258  1.00  0.00    -0.550 OA
ENDBRANCH   7   9
ENDBRANCH   6   7
ENDBRANCH   5   6
ENDBRANCH   4   5
ENDBRANCH   3   4
ENDBRANCH   2   3
ENDBRANCH   1   2
BRANCH   1  12
ATOM     12  C   UNL     1       7.045  -3.416   1.821  1.00  0.00     0.000 C 
BRANCH  12  13
ATOM     13  C   UNL     1       7.664  -2.021   1.622  1.00  0.00    -0.000 C 
BRANCH  13  14
ATOM     14  C   UNL     1       6.628  -0.973   1.183  1.00  0.00    -0.000 C 
BRANCH  14  15
ATOM     15  C   UNL     1       5.503  -1.577   0.328  1.00  0.00    -0.000 C 
BRANCH  15  16
ATOM     16  C   UNL     1       5.404  -0.869  -1.029  1.00  0.00    -0.000 C 
BRANCH  16  17
ATOM     17  C   UNL     1       5.616  -1.821  -2.218  1.00  0.00    -0.000 C 
BRANCH  17  18
ATOM     18  C   UNL     1       6.875  -2.704  -2.089  1.00  0.00    -0.003 C 
ATOM     19  C   UNL     1       6.772  -3.989  -2.911  1.00  0.00     0.004 C 
ENDBRANCH  17  18
ENDBRANCH  16  17
ENDBRANCH  15  16
ENDBRANCH  14  15
ENDBRANCH  13  14
ENDBRANCH  12  13
ENDBRANCH   1  12
TORSDOF 14
ENDMDL
MODEL 4
REMARK VINA RESULT:    -3.870      3.515      6.802
REMARK INTER + INTRA:          -9.007
REMARK INTER:                  -6.834
REMARK INTRA:                  -2.173
REMARK UNBOUND:                -1.970
REMARK SMILES CCCCCCCCCCCCCC[C@H](C)C(=O)[O-]
REMARK SMILES IDX 9 1 10 2 11 3 12 4 13 5 14 6 15 7 16 8 17 9 18 10 19 11 8 12
REMARK SMILES IDX 7 13 6 14 5 15 4 16 3 17 2 18 1 19
REMARK H PARENT
REMARK Flexibility Score: inf
ROOT
ATOM      1  C   UNL     1       5.499  -3.891   1.034  1.00  0.00     0.000 C 
ENDROOT
BRANCH   1   2
ATOM      2  C   UNL     1       5.732  -5.331   1.517  1.00  0.00     0.000 C 
BRANCH   2   3
ATOM      3  C   UNL     1       5.364  -5.481   2.998  1.00  0.00     0.000 C 
BRANCH   3   4
ATOM      4  C   UNL     1       3.912  -5.953   3.159  1.00  0.00     0.000 C 
BRANCH   4   5
ATOM      5  C   UNL     1       2.959  -4.818   3.566  1.00  0.00     0.001 C 
BRANCH   5   6
ATOM      6  C   UNL     1       1.878  -4.541   2.505  1.00  0.00     0.009 C 
BRANCH   6   7
ATOM      7  C   UNL     1       1.971  -5.519   1.315  1.00  0.00     0.032 C 
ATOM      8  C   UNL     1       1.940  -4.756  -0.014  1.00  0.00     0.014 C 
BRANCH   7   9
ATOM      9  C   UNL     1       0.855  -6.528   1.345  1.00  0.00     0.044 C 
ATOM     10  O   UNL     1       0.197  -6.710   2.404  1.00  0.00    -0.550 OA
ATOM     11  O   UNL     1       0.546  -7.268   0.210  1.00  0.00    -0.550 OA
ENDBRANCH   7   9
ENDBRANCH   6   7
ENDBRANCH   5   6
ENDBRANCH   4   5
ENDBRANCH   3   4
ENDBRANCH   2   3
ENDBRANCH   1   2
BRANCH   1  12
ATOM     12  C   UNL     1       6.647  -2.945   1.418  1.00  0.00     0.000 C 
BRANCH  12  13
ATOM     13  C   UNL     1       6.373  -1.486   1.008  1.00  0.00    -0.000 C 
BRANCH  13  14
ATOM     14  C   UNL     1       5.148  -1.352   0.089  1.00  0.00    -0.000 C 
BRANCH  14  15
ATOM     15  C   UNL     1       5.470  -0.614  -1.219  1.00  0.00    -0.000 C 
BRANCH  15  16
ATOM     16  C   UNL     1       6.455  -1.420  -2.076  1.00  0.00    -0.000 C 
BRANCH  16  17
ATOM     17  C   UNL     1       5.902  -2.794  -2.491  1.00  0.00    -0.000 C 
BRANCH  17  18
ATOM     18  C   UNL     1       6.990  -3.874  -2.665  1.00  0.00    -0.003 C 
ATOM     19  C   UNL     1       8.245  -3.574  -1.844  1.00  0.00     0.004 C 
ENDBRANCH  17  18
ENDBRANCH  16  17
ENDBRANCH  15  16
ENDBRANCH  14  15
ENDBRANCH  13  14
ENDBRANCH  12  13
ENDBRANCH   1  12
TORSDOF 14
ENDMDL
MODEL 5
REMARK VINA RESULT:    -3.862      3.058      6.770
REMARK INTER + INTRA:          -8.992
REMARK INTER:                  -6.662
REMARK INTRA:                  -2.330
REMARK UNBOUND:                -1.970
REMARK SMILES CCCCCCCCCCCCCC[C@H](C)C(=O)[O-]
REMARK SMILES IDX 9 1 10 2 11 3 12 4 13 5 14 6 15 7 16 8 17 9 18 10 19 11 8 12
REMARK SMILES IDX 7 13 6 14 5 15 4 16 3 17 2 18 1 19
REMARK H PARENT
REMARK Flexibility Score: inf
ROOT
ATOM      1  C   UNL     1       4.086  -5.135  -0.101  1.00  0.00     0.000 C 
ENDROOT
BRANCH   1   2
ATOM      2  C   UNL     1       2.643  -4.639   0.072  1.00  0.00     0.000 C 
BRANCH   2   3
ATOM      3  C   UNL     1       1.694  -5.802   0.383  1.00  0.00     0.000 C 
BRANCH   3   4
ATOM      4  C   UNL     1       1.317  -5.822   1.872  1.00  0.00     0.000 C 
BRANCH   4   5
ATOM      5  C   UNL     1       1.763  -4.552   2.614  1.00  0.00     0.001 C 
BRANCH   5   6
ATOM      6  C   UNL     1       2.832  -4.835   3.685  1.00  0.00     0.009 C 
BRANCH   6   7
ATOM      7  C   UNL     1       3.250  -6.320   3.709  1.00  0.00     0.032 C 
ATOM      8  C   UNL     1       3.011  -6.926   5.096  1.00  0.00     0.014 C 
BRANCH   7   9
ATOM      9  C   UNL     1       4.695  -6.490   3.324  1.00  0.00     0.044 C 
ATOM     10  O   UNL     1       5.033  -7.405   2.528  1.00  0.00    -0.550 OA
ATOM     11  O   UNL     1       5.666  -5.644   3.848  1.00  0.00    -0.550 OA
ENDBRANCH   7   9
ENDBRANCH   6   7
ENDBRANCH   5   6
ENDBRANCH   4   5
ENDBRANCH   3   4
ENDBRANCH   2   3
ENDBRANCH   1   2
BRANCH   1  12
ATOM     12  C   UNL     1       5.117  -4.193   0.540  1.00  0.00     0.000 C 
BRANCH  12  13
ATOM     13  C   UNL     1       4.510  -2.833   0.933  1.00  0.00    -0.000 C 
BRANCH  13  14
ATOM     14  C   UNL     1       5.391  -1.648   0.507  1.00  0.00    -0.000 C 
BRANCH  14  15
ATOM     15  C   UNL     1       5.191  -1.264  -0.967  1.00  0.00    -0.000 C 
BRANCH  15  16
ATOM     16  C   UNL     1       6.538  -0.994  -1.651  1.00  0.00    -0.000 C 
BRANCH  16  17
ATOM     17  C   UNL     1       7.260  -2.282  -2.080  1.00  0.00    -0.000 C 
BRANCH  17  18
ATOM     18  C   UNL     1       6.347  -3.295  -2.801  1.00  0.00    -0.003 C 
ATOM     19  C   UNL     1       6.859  -4.731  -2.678  1.00  0.00     0.004 C 
ENDBRANCH  17  18
ENDBRANCH  16  17
ENDBRANCH  15  16
ENDBRANCH  14  15
ENDBRANCH  13  14
ENDBRANCH  12  13
ENDBRANCH   1  12
TORSDOF 14
ENDMDL
MODEL 6
REMARK VINA RESULT:    -3.838      3.833      6.760
REMARK INTER + INTRA:          -8.949
REMARK INTER:                  -7.171
REMARK INTRA:                  -1.778
REMARK UNBOUND:                -1.970
REMARK SMILES CCCCCCCCCCCCCC[C@H](C)C(=O)[O-]
REMARK SMILES IDX 9 1 10 2 11 3 12 4 13 5 14 6 15 7 16 8 17 9 18 10 19 11 8 12
REMARK SMILES IDX 7 13 6 14 5 15 4 16 3 17 2 18 1 19
REMARK H PARENT
REMARK Flexibility Score: inf
ROOT
ATOM      1  C   UNL     1       6.039  -2.341  -2.384  1.00  0.00     0.000 C 
ENDROOT
BRANCH   1   2
ATOM      2  C   UNL     1       5.762  -3.395  -1.301  1.00  0.00     0.000 C 
BRANCH   2   3
ATOM      3  C   UNL     1       4.622  -2.950  -0.378  1.00  0.00     0.000 C 
BRANCH   3   4
ATOM      4  C   UNL     1       4.988  -3.176   1.097  1.00  0.00     0.000 C 
BRANCH   4   5
ATOM      5  C   UNL     1       4.261  -4.383   1.712  1.00  0.00     0.001 C 
BRANCH   5   6
ATOM      6  C   UNL     1       2.729  -4.246   1.651  1.00  0.00     0.009 C 
BRANCH   6   7
ATOM      7  C   UNL     1       2.069  -5.439   0.929  1.00  0.00     0.032 C 
ATOM      8  C   UNL     1       1.449  -4.989  -0.399  1.00  0.00     0.014 C 
BRANCH   7   9
ATOM      9  C   UNL     1       1.013  -6.084   1.787  1.00  0.00     0.044 C 
ATOM     10  O   UNL     1       0.393  -7.098   1.369  1.00  0.00    -0.550 OA
ATOM     11  O   UNL     1       0.713  -5.565   3.041  1.00  0.00    -0.550 OA
ENDBRANCH   7   9
ENDBRANCH   6   7
ENDBRANCH   5   6
ENDBRANCH   4   5
ENDBRANCH   3   4
ENDBRANCH   2   3
ENDBRANCH   1   2
BRANCH   1  12
ATOM     12  C   UNL     1       5.435  -0.970  -2.042  1.00  0.00     0.000 C 
BRANCH  12  13
ATOM     13  C   UNL     1       6.499   0.052  -1.603  1.00  0.00    -0.000 C 
BRANCH  13  14
ATOM     14  C   UNL     1       7.924  -0.521  -1.656  1.00  0.00    -0.000 C 
BRANCH  14  15
ATOM     15  C   UNL     1       8.680  -0.348  -0.329  1.00  0.00    -0.000 C 
BRANCH  15  16
ATOM     16  C   UNL     1       8.598  -1.624   0.519  1.00  0.00    -0.000 C 
BRANCH  16  17
ATOM     17  C   UNL     1       7.837  -1.417   1.839  1.00  0.00    -0.000 C 
BRANCH  17  18
ATOM     18  C   UNL     1       7.552   0.064   2.165  1.00  0.00    -0.003 C 
ATOM     19  C   UNL     1       8.516   0.626   3.211  1.00  0.00     0.004 C 
ENDBRANCH  17  18
ENDBRANCH  16  17
ENDBRANCH  15  16
ENDBRANCH  14  15
ENDBRANCH  13  14
ENDBRANCH  12  13
ENDBRANCH   1  12
TORSDOF 14
ENDMDL
MODEL 7
REMARK VINA RESULT:    -3.825      1.749      3.449
REMARK INTER + INTRA:          -8.926
REMARK INTER:                  -6.631
REMARK INTRA:                  -2.295
REMARK UNBOUND:                -1.970
REMARK SMILES CCCCCCCCCCCCCC[C@H](C)C(=O)[O-]
REMARK SMILES IDX 9 1 10 2 11 3 12 4 13 5 14 6 15 7 16 8 17 9 18 10 19 11 8 12
REMARK SMILES IDX 7 13 6 14 5 15 4 16 3 17 2 18 1 19
REMARK H PARENT
REMARK Flexibility Score: inf
ROOT
ATOM      1  C   UNL     1       5.690  -5.954   2.487  1.00  0.00     0.000 C 
ENDROOT
BRANCH   1   2
ATOM      2  C   UNL     1       5.331  -4.515   2.085  1.00  0.00     0.000 C 
BRANCH   2   3
ATOM      3  C   UNL     1       6.427  -3.899   1.208  1.00  0.00     0.000 C 
BRANCH   3   4
ATOM      4  C   UNL     1       6.010  -3.891  -0.271  1.00  0.00     0.000 C 
BRANCH   4   5
ATOM      5  C   UNL     1       4.883  -2.887  -0.564  1.00  0.00     0.001 C 
BRANCH   5   6
ATOM      6  C   UNL     1       5.167  -1.490   0.019  1.00  0.00     0.009 C 
BRANCH   6   7
ATOM      7  C   UNL     1       5.696  -0.512  -1.050  1.00  0.00     0.032 C 
ATOM      8  C   UNL     1       5.279  -0.968  -2.452  1.00  0.00     0.014 C 
BRANCH   7   9
ATOM      9  C   UNL     1       7.195  -0.385  -0.985  1.00  0.00     0.044 C 
ATOM     10  O   UNL     1       7.723   0.505  -0.267  1.00  0.00    -0.550 OA
ATOM     11  O   UNL     1       8.005  -1.245  -1.717  1.00  0.00    -0.550 OA
ENDBRANCH   7   9
ENDBRANCH   6   7
ENDBRANCH   5   6
ENDBRANCH   4   5
ENDBRANCH   3   4
ENDBRANCH   2   3
ENDBRANCH   1   2
BRANCH   1  12
ATOM     12  C   UNL     1       4.587  -6.627   3.318  1.00  0.00     0.000 C 
BRANCH  12  13
ATOM     13  C   UNL     1       3.445  -5.660   3.680  1.00  0.00    -0.000 C 
BRANCH  13  14
ATOM     14  C   UNL     1       2.065  -6.334   3.637  1.00  0.00    -0.000 C 
BRANCH  14  15
ATOM     15  C   UNL     1       1.143  -5.724   2.570  1.00  0.00    -0.000 C 
BRANCH  15  16
ATOM     16  C   UNL     1       1.810  -4.520   1.892  1.00  0.00    -0.000 C 
BRANCH  16  17
ATOM     17  C   UNL     1       1.877  -4.655   0.362  1.00  0.00    -0.000 C 
BRANCH  17  18
ATOM     18  C   UNL     1       1.952  -6.116  -0.129  1.00  0.00    -0.003 C 
ATOM     19  C   UNL     1       3.392  -6.589  -0.332  1.00  0.00     0.004 C 
ENDBRANCH  17  18
ENDBRANCH  16  17
ENDBRANCH  15  16
ENDBRANCH  14  15
ENDBRANCH  13  14
ENDBRANCH  12  13
ENDBRANCH   1  12
TORSDOF 14
ENDMDL
MODEL 8
REMARK VINA RESULT:    -3.819      3.732      7.100
REMARK INTER + INTRA:          -8.915
REMARK INTER:                  -6.626
REMARK INTRA:                  -2.289
REMARK UNBOUND:                -1.970
REMARK SMILES CCCCCCCCCCCCCC[C@H](C)C(=O)[O-]
REMARK SMILES IDX 9 1 10 2 11 3 12 4 13 5 14 6 15 7 16 8 17 9 18 10 19 11 8 12
REMARK SMILES IDX 7 13 6 14 5 15 4 16 3 17 2 18 1 19
REMARK H PARENT
REMARK Flexibility Score: inf
ROOT
ATOM      1  C   UNL     1       4.103  -4.481   0.011  1.00  0.00     0.000 C 
ENDROOT
BRANCH   1   2
ATOM      2  C   UNL     1       2.588  -4.544   0.260  1.00  0.00     0.000 C 
BRANCH   2   3
ATOM      3  C   UNL     1       2.252  -4.163   1.707  1.00  0.00     0.000 C 
BRANCH   3   4
ATOM      4  C   UNL     1       1.469  -5.286   2.404  1.00  0.00     0.000 C 
BRANCH   4   5
ATOM      5  C   UNL     1       2.331  -6.086   3.392  1.00  0.00     0.001 C 
BRANCH   5   6
ATOM      6  C   UNL     1       3.426  -5.229   4.054  1.00  0.00     0.009 C 
BRANCH   6   7
ATOM      7  C   UNL     1       4.823  -5.870   3.924  1.00  0.00     0.032 C 
ATOM      8  C   UNL     1       4.844  -6.888   2.778  1.00  0.00     0.014 C 
BRANCH   7   9
ATOM      9  C   UNL     1       5.240  -6.542   5.205  1.00  0.00     0.044 C 
ATOM     10  O   UNL     1       4.662  -6.253   6.286  1.00  0.00    -0.550 OA
ATOM     11  O   UNL     1       6.266  -7.479   5.205  1.00  0.00    -0.550 OA
ENDBRANCH   7   9
ENDBRANCH   6   7
ENDBRANCH   5   6
ENDBRANCH   4   5
ENDBRANCH   3   4
ENDBRANCH   2   3
ENDBRANCH   1   2
BRANCH   1  12
ATOM     12  C   UNL     1       4.828  -3.559   1.004  1.00  0.00     0.000 C 
BRANCH  12  13
ATOM     13  C   UNL     1       6.360  -3.651   0.886  1.00  0.00    -0.000 C 
BRANCH  13  14
ATOM     14  C   UNL     1       7.077  -2.476   1.571  1.00  0.00    -0.000 C 
BRANCH  14  15
ATOM     15  C   UNL     1       6.502  -1.113   1.158  1.00  0.00    -0.000 C 
BRANCH  15  16
ATOM     16  C   UNL     1       7.488  -0.351   0.262  1.00  0.00    -0.000 C 
BRANCH  16  17
ATOM     17  C   UNL     1       6.934  -0.086  -1.148  1.00  0.00    -0.000 C 
BRANCH  17  18
ATOM     18  C   UNL     1       5.565  -0.747  -1.411  1.00  0.00    -0.003 C 
ATOM     19  C   UNL     1       5.666  -1.937  -2.366  1.00  0.00     0.004 C 
ENDBRANCH  17  18
ENDBRANCH  16  17
ENDBRANCH  15  16
ENDBRANCH  14  15
ENDBRANCH  13  14
ENDBRANCH  12  13
ENDBRANCH   1  12
TORSDOF 14
ENDMDL
MODEL 9
REMARK VINA RESULT:    -3.792      1.403      2.228
REMARK INTER + INTRA:          -8.866
REMARK INTER:                  -6.835
REMARK INTRA:                  -2.031
REMARK UNBOUND:                -1.970
REMARK SMILES CCCCCCCCCCCCCC[C@H](C)C(=O)[O-]
REMARK SMILES IDX 9 1 10 2 11 3 12 4 13 5 14 6 15 7 16 8 17 9 18 10 19 11 8 12
REMARK SMILES IDX 7 13 6 14 5 15 4 16 3 17 2 18 1 19
REMARK H PARENT
REMARK Flexibility Score: inf
ROOT
ATOM      1  C   UNL     1       2.008  -5.079   0.564  1.00  0.00     0.000 C 
ENDROOT
BRANCH   1   2
ATOM      2  C   UNL     1       3.299  -4.421   0.055  1.00  0.00     0.000 C 
BRANCH   2   3
ATOM      3  C   UNL     1       3.874  -3.456   1.098  1.00  0.00     0.000 C 
BRANCH   3   4
ATOM      4  C   UNL     1       5.402  -3.593   1.192  1.00  0.00     0.000 C 
BRANCH   4   5
ATOM      5  C   UNL     1       6.145  -2.416   0.540  1.00  0.00     0.001 C 
BRANCH   5   6
ATOM      6  C   UNL     1       5.188  -1.346  -0.017  1.00  0.00     0.009 C 
BRANCH   6   7
ATOM      7  C   UNL     1       5.334  -1.176  -1.544  1.00  0.00     0.032 C 
ATOM      8  C   UNL     1       6.137  -2.336  -2.141  1.00  0.00     0.014 C 
BRANCH   7   9
ATOM      9  C   UNL     1       5.999   0.130  -1.889  1.00  0.00     0.044 C 
ATOM     10  O   UNL     1       5.433   0.939  -2.671  1.00  0.00    -0.550 OA
ATOM     11  O   UNL     1       7.241   0.449  -1.353  1.00  0.00    -0.550 OA
ENDBRANCH   7   9
ENDBRANCH   6   7
ENDBRANCH   5   6
ENDBRANCH   4   5
ENDBRANCH   3   4
ENDBRANCH   2   3
ENDBRANCH   1   2
BRANCH   1  12
ATOM     12  C   UNL     1       1.713  -4.742   2.034  1.00  0.00     0.000 C 
BRANCH  12  13
ATOM     13  C   UNL     1       0.957  -5.871   2.759  1.00  0.00    -0.000 C 
BRANCH  13  14
ATOM     14  C   UNL     1       1.852  -6.646   3.739  1.00  0.00    -0.000 C 
BRANCH  14  15
ATOM     15  C   UNL     1       3.250  -6.025   3.880  1.00  0.00    -0.000 C 
BRANCH  15  16
ATOM     16  C   UNL     1       4.343  -7.084   3.683  1.00  0.00    -0.000 C 
BRANCH  16  17
ATOM     17  C   UNL     1       5.729  -6.471   3.420  1.00  0.00    -0.000 C 
BRANCH  17  18
ATOM     18  C   UNL     1       6.398  -6.983   2.128  1.00  0.00    -0.003 C 
ATOM     19  C   UNL     1       5.377  -7.375   1.059  1.00  0.00     0.004 C 
ENDBRANCH  17  18
ENDBRANCH  16  17
ENDBRANCH  15  16
ENDBRANCH  14  15
ENDBRANCH  13  14
ENDBRANCH  12  13
ENDBRANCH   1  12
TORSDOF 14
ENDMDL
