MODEL 1
REMARK VINA RESULT:     1.911      0.000      0.000
REMARK INTER + INTRA:           3.446
REMARK INTER:                   2.693
REMARK INTRA:                   0.753
REMARK UNBOUND:                 0.753
REMARK SMILES CC1=CCC(=C(C)C)C(=O)CC(C)=CCC1
REMARK SMILES IDX 12 1 14 2 13 3 15 4 16 5 2 6 1 7 3 8 11 10 9 11 10 12 5 13
REMARK SMILES IDX 6 14 7 15 8 16 4 17
REMARK H PARENT
REMARK Flexibility Score: 60.00
ROOT
ATOM      1  C   UNL     1      26.944  28.130  26.900  1.00  0.00    -0.070 C 
ATOM      2  C   UNL     1      25.886  28.529  27.642  1.00  0.00    -0.027 C 
ATOM      3  C   UNL     1      28.281  28.762  27.189  1.00  0.00     0.039 C 
ENDROOT
BRANCH   2   4
ATOM      4  C   UNL     1      24.444  28.163  27.389  1.00  0.00     0.032 C 
BRANCH   4   5
ATOM      5  C   UNL     1      23.816  27.339  28.530  1.00  0.00     0.034 C 
BRANCH   5   6
ATOM      6  C   UNL     1      23.154  26.074  28.018  1.00  0.00    -0.077 C 
ATOM      7  C   UNL     1      21.649  26.028  27.936  1.00  0.00     0.039 C 
ATOM      8  C   UNL     1      23.845  24.984  27.618  1.00  0.00    -0.023 CG0
ATOM      9  G   UNL     1      25.336  24.813  27.754  1.00  0.00     0.000 G0
ENDBRANCH   5   6
ENDBRANCH   4   5
ENDBRANCH   2   4
BRANCH   1  10
ATOM     10  C   UNL     1      26.843  27.150  25.745  1.00  0.00     0.111 C 
BRANCH  10  11
ATOM     11  C   UNL     1      27.176  25.733  26.148  1.00  0.00     0.163 C 
ATOM     12  O   UNL     1      28.387  25.390  26.199  1.00  0.00    -0.294 OA
BRANCH  11  13
ATOM     13  C   UNL     1      26.133  24.708  26.426  1.00  0.00    -0.002 C 
ATOM     14  C   UNL     1      25.676  23.910  25.419  1.00  0.00    -0.069 C 
ATOM     15  C   UNL     1      26.228  24.018  24.016  1.00  0.00     0.039 C 
ATOM     16  C   UNL     1      24.569  22.907  25.654  1.00  0.00     0.039 C 
BRANCH  13  17
ATOM     17  C   UNL     1      25.354  24.783  27.735  1.00  0.00     0.066 CG0
ATOM     18  G   UNL     1      23.875  25.040  27.589  1.00  0.00     0.000 G0
ENDBRANCH  13  17
ENDBRANCH  11  13
ENDBRANCH  10  11
ENDBRANCH   1  10
TORSDOF 0
ENDMDL
MODEL 2
REMARK VINA RESULT:     3.059      1.790      4.333
REMARK INTER + INTRA:           5.064
REMARK INTER:                   1.984
REMARK INTRA:                   3.080
REMARK UNBOUND:                 0.753
REMARK SMILES CC1=CCC(=C(C)C)C(=O)CC(C)=CCC1
REMARK SMILES IDX 12 1 14 2 13 3 15 4 16 5 2 6 1 7 3 8 11 10 9 11 10 12 5 13
REMARK SMILES IDX 6 14 7 15 8 16 4 17
REMARK H PARENT
REMARK Flexibility Score: 60.00
ROOT
ATOM      1  C   UNL     1      23.657  25.262  27.887  1.00  0.00    -0.070 C 
ATOM      2  C   UNL     1      22.864  24.272  27.420  1.00  0.00    -0.027 C 
ATOM      3  C   UNL     1      23.003  26.568  28.259  1.00  0.00     0.039 C 
ENDROOT
BRANCH   2   4
ATOM      4  C   UNL     1      23.339  22.970  26.821  1.00  0.00     0.032 C 
BRANCH   4   5
ATOM      5  C   UNL     1      24.859  22.939  26.566  1.00  0.00     0.034 C 
BRANCH   5   6
ATOM      6  C   UNL     1      25.203  23.344  25.145  1.00  0.00    -0.077 C 
ATOM      7  C   UNL     1      24.309  22.877  24.023  1.00  0.00     0.039 C 
ATOM      8  C   UNL     1      26.267  24.114  24.830  1.00  0.00    -0.023 CG0
ATOM      9  G   UNL     1      27.329  24.555  25.805  1.00  0.00     0.000 G0
ENDBRANCH   5   6
ENDBRANCH   4   5
ENDBRANCH   2   4
BRANCH   1  10
ATOM     10  C   UNL     1      25.169  25.161  27.977  1.00  0.00     0.111 C 
BRANCH  10  11
ATOM     11  C   UNL     1      25.876  26.237  27.188  1.00  0.00     0.163 C 
ATOM     12  O   UNL     1      25.376  27.394  27.164  1.00  0.00    -0.294 OA
BRANCH  11  13
ATOM     13  C   UNL     1      27.103  25.975  26.386  1.00  0.00    -0.002 C 
ATOM     14  C   UNL     1      27.854  27.017  25.929  1.00  0.00    -0.069 C 
ATOM     15  C   UNL     1      27.488  28.450  26.243  1.00  0.00     0.039 C 
ATOM     16  C   UNL     1      29.067  26.786  25.055  1.00  0.00     0.039 C 
BRANCH  13  17
ATOM     17  C   UNL     1      27.322  24.582  25.806  1.00  0.00     0.066 CG0
ATOM     18  G   UNL     1      26.254  24.107  24.854  1.00  0.00     0.000 G0
ENDBRANCH  13  17
ENDBRANCH  11  13
ENDBRANCH  10  11
ENDBRANCH   1  10
TORSDOF 0
ENDMDL
MODEL 3
REMARK VINA RESULT:     3.652      1.742      3.944
REMARK INTER + INTRA:           5.900
REMARK INTER:                   5.573
REMARK INTRA:                   0.328
REMARK UNBOUND:                 0.753
REMARK SMILES CC1=CCC(=C(C)C)C(=O)CC(C)=CCC1
REMARK SMILES IDX 12 1 14 2 13 3 15 4 16 5 2 6 1 7 3 8 11 10 9 11 10 12 5 13
REMARK SMILES IDX 6 14 7 15 8 16 4 17
REMARK H PARENT
REMARK Flexibility Score: 60.00
ROOT
ATOM      1  C   UNL     1      23.995  27.619  28.002  1.00  0.00    -0.070 C 
ATOM      2  C   UNL     1      23.538  26.394  28.345  1.00  0.00    -0.027 C 
ATOM      3  C   UNL     1      23.508  28.799  28.803  1.00  0.00     0.039 C 
ENDROOT
BRANCH   2   4
ATOM      4  C   UNL     1      23.752  25.122  27.562  1.00  0.00     0.032 C 
BRANCH   4   5
ATOM      5  C   UNL     1      25.173  24.545  27.718  1.00  0.00     0.034 C 
BRANCH   5   6
ATOM      6  C   UNL     1      25.820  24.262  26.374  1.00  0.00    -0.077 C 
ATOM      7  C   UNL     1      25.199  23.221  25.477  1.00  0.00     0.039 C 
ATOM      8  C   UNL     1      26.922  24.906  25.931  1.00  0.00    -0.023 CG0
ATOM      9  G   UNL     1      27.739  25.875  26.748  1.00  0.00     0.000 G0
ENDBRANCH   5   6
ENDBRANCH   4   5
ENDBRANCH   2   4
BRANCH   1  10
ATOM     10  C   UNL     1      24.900  27.879  26.811  1.00  0.00     0.111 C 
BRANCH  10  11
ATOM     11  C   UNL     1      26.348  28.052  27.202  1.00  0.00     0.163 C 
ATOM     12  O   UNL     1      26.629  28.845  28.140  1.00  0.00    -0.294 OA
BRANCH  11  13
ATOM     13  C   UNL     1      27.464  27.374  26.485  1.00  0.00    -0.002 C 
ATOM     14  C   UNL     1      28.037  27.968  25.400  1.00  0.00    -0.069 C 
ATOM     15  C   UNL     1      27.586  29.328  24.915  1.00  0.00     0.039 C 
ATOM     16  C   UNL     1      29.124  27.275  24.610  1.00  0.00     0.039 C 
BRANCH  13  17
ATOM     17  C   UNL     1      27.726  25.897  26.757  1.00  0.00     0.066 CG0
ATOM     18  G   UNL     1      26.911  24.935  25.930  1.00  0.00     0.000 G0
ENDBRANCH  13  17
ENDBRANCH  11  13
ENDBRANCH  10  11
ENDBRANCH   1  10
TORSDOF 0
ENDMDL
