MODEL 1
REMARK VINA RESULT:    -5.843      0.000      0.000
REMARK INTER + INTRA:          -6.353
REMARK INTER:                  -6.184
REMARK INTRA:                  -0.169
REMARK UNBOUND:                -0.169
REMARK SMILES CC(C)[C@@H]1CC[C@@H](C)CC1=O
REMARK SMILES IDX 8 1 7 2 6 3 5 4 4 5 10 6 11 7 9 8 2 9 1 10 3 11
REMARK H PARENT
REMARK Flexibility Score: inf
ROOT
ATOM      1  C   UNL     1       9.524  21.586  19.817  1.00  0.00     0.008 C 
ATOM      2  C   UNL     1      10.384  21.461  18.555  1.00  0.00    -0.007 C 
ATOM      3  C   UNL     1      10.045  20.162  17.796  1.00  0.00     0.004 C 
ATOM      4  C   UNL     1      10.879  20.050  16.512  1.00  0.00     0.012 C 
ATOM      5  C   UNL     1      12.393  20.056  16.817  1.00  0.00     0.058 C 
ATOM      6  C   UNL     1      12.729  21.250  17.698  1.00  0.00     0.136 C 
ATOM      7  O   UNL     1      13.721  21.935  17.504  1.00  0.00    -0.299 OA
ATOM      8  C   UNL     1      11.880  21.510  18.914  1.00  0.00     0.079 C 
ENDROOT
BRANCH   5   9
ATOM      9  C   UNL     1      13.243  19.906  15.515  1.00  0.00    -0.007 C 
ATOM     10  C   UNL     1      14.076  18.612  15.444  1.00  0.00     0.008 C 
ATOM     11  C   UNL     1      12.387  20.065  14.248  1.00  0.00     0.008 C 
ENDBRANCH   5   9
TORSDOF 1
ENDMDL
MODEL 2
REMARK VINA RESULT:    -5.421      1.865      4.167
REMARK INTER + INTRA:          -5.907
REMARK INTER:                  -5.734
REMARK INTRA:                  -0.173
REMARK UNBOUND:                -0.169
REMARK SMILES CC(C)[C@@H]1CC[C@@H](C)CC1=O
REMARK SMILES IDX 8 1 7 2 6 3 5 4 4 5 10 6 11 7 9 8 2 9 1 10 3 11
REMARK H PARENT
REMARK Flexibility Score: inf
ROOT
ATOM      1  C   UNL     1      15.553  18.590  18.197  1.00  0.00     0.008 C 
ATOM      2  C   UNL     1      14.277  19.434  18.124  1.00  0.00    -0.007 C 
ATOM      3  C   UNL     1      13.221  18.906  19.117  1.00  0.00     0.004 C 
ATOM      4  C   UNL     1      11.954  19.771  19.073  1.00  0.00     0.012 C 
ATOM      5  C   UNL     1      11.328  19.788  17.660  1.00  0.00     0.058 C 
ATOM      6  C   UNL     1      12.394  20.159  16.639  1.00  0.00     0.136 C 
ATOM      7  O   UNL     1      12.166  20.935  15.725  1.00  0.00    -0.299 OA
ATOM      8  C   UNL     1      13.719  19.447  16.690  1.00  0.00     0.079 C 
ENDROOT
BRANCH   5   9
ATOM      9  C   UNL     1      10.018  20.638  17.622  1.00  0.00    -0.007 C 
ATOM     10  C   UNL     1       8.723  19.807  17.557  1.00  0.00     0.008 C 
ATOM     11  C   UNL     1       9.953  21.648  18.780  1.00  0.00     0.008 C 
ENDBRANCH   5   9
TORSDOF 1
ENDMDL
MODEL 3
REMARK VINA RESULT:    -5.184      8.584     10.732
REMARK INTER + INTRA:          -5.655
REMARK INTER:                  -5.491
REMARK INTRA:                  -0.165
REMARK UNBOUND:                -0.169
REMARK SMILES CC(C)[C@@H]1CC[C@@H](C)CC1=O
REMARK SMILES IDX 8 1 7 2 6 3 5 4 4 5 10 6 11 7 9 8 2 9 1 10 3 11
REMARK H PARENT
REMARK Flexibility Score: inf
ROOT
ATOM      1  C   UNL     1      10.466  20.381   9.568  1.00  0.00     0.008 C 
ATOM      2  C   UNL     1       9.612  21.299   8.689  1.00  0.00    -0.007 C 
ATOM      3  C   UNL     1      10.360  22.614   8.392  1.00  0.00     0.004 C 
ATOM      4  C   UNL     1       9.523  23.523   7.481  1.00  0.00     0.012 C 
ATOM      5  C   UNL     1       8.162  23.871   8.124  1.00  0.00     0.058 C 
ATOM      6  C   UNL     1       7.469  22.591   8.567  1.00  0.00     0.136 C 
ATOM      7  O   UNL     1       6.275  22.411   8.388  1.00  0.00    -0.299 OA
ATOM      8  C   UNL     1       8.256  21.581   9.359  1.00  0.00     0.079 C 
ENDROOT
BRANCH   5   9
ATOM      9  C   UNL     1       7.324  24.824   7.214  1.00  0.00    -0.007 C 
ATOM     10  C   UNL     1       6.753  26.057   7.941  1.00  0.00     0.008 C 
ATOM     11  C   UNL     1       8.100  25.251   5.958  1.00  0.00     0.008 C 
ENDBRANCH   5   9
TORSDOF 1
ENDMDL
MODEL 4
REMARK VINA RESULT:    -5.155      1.558      4.335
REMARK INTER + INTRA:          -5.625
REMARK INTER:                  -5.478
REMARK INTRA:                  -0.147
REMARK UNBOUND:                -0.169
REMARK SMILES CC(C)[C@@H]1CC[C@@H](C)CC1=O
REMARK SMILES IDX 8 1 7 2 6 3 5 4 4 5 10 6 11 7 9 8 2 9 1 10 3 11
REMARK H PARENT
REMARK Flexibility Score: inf
ROOT
ATOM      1  C   UNL     1      14.475  19.246  14.638  1.00  0.00     0.008 C 
ATOM      2  C   UNL     1      13.376  19.252  15.705  1.00  0.00    -0.007 C 
ATOM      3  C   UNL     1      12.369  20.389  15.439  1.00  0.00     0.004 C 
ATOM      4  C   UNL     1      11.246  20.376  16.485  1.00  0.00     0.012 C 
ATOM      5  C   UNL     1      11.804  20.544  17.916  1.00  0.00     0.058 C 
ATOM      6  C   UNL     1      12.911  19.527  18.151  1.00  0.00     0.136 C 
ATOM      7  O   UNL     1      13.004  18.907  19.199  1.00  0.00    -0.299 OA
ATOM      8  C   UNL     1      13.989  19.382  17.111  1.00  0.00     0.079 C 
ENDROOT
BRANCH   5   9
ATOM      9  C   UNL     1      10.660  20.567  18.980  1.00  0.00    -0.007 C 
ATOM     10  C   UNL     1      10.903  21.534  20.154  1.00  0.00     0.008 C 
ATOM     11  C   UNL     1       9.286  20.830  18.342  1.00  0.00     0.008 C 
ENDBRANCH   5   9
TORSDOF 1
ENDMDL
MODEL 5
REMARK VINA RESULT:    -5.144      1.846      2.710
REMARK INTER + INTRA:          -5.613
REMARK INTER:                  -5.446
REMARK INTRA:                  -0.167
REMARK UNBOUND:                -0.169
REMARK SMILES CC(C)[C@@H]1CC[C@@H](C)CC1=O
REMARK SMILES IDX 8 1 7 2 6 3 5 4 4 5 10 6 11 7 9 8 2 9 1 10 3 11
REMARK H PARENT
REMARK Flexibility Score: inf
ROOT
ATOM      1  C   UNL     1       8.445  21.804  20.456  1.00  0.00     0.008 C 
ATOM      2  C   UNL     1       9.452  21.053  19.580  1.00  0.00    -0.007 C 
ATOM      3  C   UNL     1      10.796  21.807  19.530  1.00  0.00     0.004 C 
ATOM      4  C   UNL     1      11.820  21.040  18.682  1.00  0.00     0.012 C 
ATOM      5  C   UNL     1      11.319  20.840  17.234  1.00  0.00     0.058 C 
ATOM      6  C   UNL     1       9.923  20.234  17.259  1.00  0.00     0.136 C 
ATOM      7  O   UNL     1       9.596  19.339  16.496  1.00  0.00    -0.299 OA
ATOM      8  C   UNL     1       8.887  20.848  18.163  1.00  0.00     0.079 C 
ENDROOT
BRANCH   5   9
ATOM      9  C   UNL     1      12.374  20.090  16.359  1.00  0.00    -0.007 C 
ATOM     10  C   UNL     1      12.829  20.865  15.108  1.00  0.00     0.008 C 
ATOM     11  C   UNL     1      13.590  19.639  17.185  1.00  0.00     0.008 C 
ENDBRANCH   5   9
TORSDOF 1
ENDMDL
MODEL 6
REMARK VINA RESULT:    -4.873      2.076      2.687
REMARK INTER + INTRA:          -5.326
REMARK INTER:                  -5.245
REMARK INTRA:                  -0.081
REMARK UNBOUND:                -0.169
REMARK SMILES CC(C)[C@@H]1CC[C@@H](C)CC1=O
REMARK SMILES IDX 8 1 7 2 6 3 5 4 4 5 10 6 11 7 9 8 2 9 1 10 3 11
REMARK H PARENT
REMARK Flexibility Score: inf
ROOT
ATOM      1  C   UNL     1      10.408  22.485  19.038  1.00  0.00     0.008 C 
ATOM      2  C   UNL     1      11.660  21.624  18.843  1.00  0.00    -0.007 C 
ATOM      3  C   UNL     1      12.129  21.674  17.375  1.00  0.00     0.004 C 
ATOM      4  C   UNL     1      13.405  20.842  17.183  1.00  0.00     0.012 C 
ATOM      5  C   UNL     1      13.181  19.364  17.574  1.00  0.00     0.058 C 
ATOM      6  C   UNL     1      12.573  19.294  18.967  1.00  0.00     0.136 C 
ATOM      7  O   UNL     1      12.947  18.477  19.793  1.00  0.00    -0.299 OA
ATOM      8  C   UNL     1      11.393  20.174  19.283  1.00  0.00     0.079 C 
ENDROOT
BRANCH   5   9
ATOM      9  C   UNL     1      14.468  18.508  17.345  1.00  0.00    -0.007 C 
ATOM     10  C   UNL     1      14.805  18.249  15.865  1.00  0.00     0.008 C 
ATOM     11  C   UNL     1      15.685  19.091  18.081  1.00  0.00     0.008 C 
ENDBRANCH   5   9
TORSDOF 1
ENDMDL
MODEL 7
REMARK VINA RESULT:    -4.869      1.894      2.376
REMARK INTER + INTRA:          -5.323
REMARK INTER:                  -5.308
REMARK INTRA:                  -0.014
REMARK UNBOUND:                -0.169
REMARK SMILES CC(C)[C@@H]1CC[C@@H](C)CC1=O
REMARK SMILES IDX 8 1 7 2 6 3 5 4 4 5 10 6 11 7 9 8 2 9 1 10 3 11
REMARK H PARENT
REMARK Flexibility Score: inf
ROOT
ATOM      1  C   UNL     1       9.450  21.466  18.557  1.00  0.00     0.008 C 
ATOM      2  C   UNL     1      10.694  20.697  18.100  1.00  0.00    -0.007 C 
ATOM      3  C   UNL     1      11.392  20.033  19.303  1.00  0.00     0.004 C 
ATOM      4  C   UNL     1      12.619  19.231  18.845  1.00  0.00     0.012 C 
ATOM      5  C   UNL     1      13.646  20.132  18.122  1.00  0.00     0.058 C 
ATOM      6  C   UNL     1      12.946  20.918  17.024  1.00  0.00     0.136 C 
ATOM      7  O   UNL     1      13.447  21.069  15.921  1.00  0.00    -0.299 OA
ATOM      8  C   UNL     1      11.663  21.633  17.354  1.00  0.00     0.079 C 
ENDROOT
BRANCH   5   9
ATOM      9  C   UNL     1      14.911  19.326  17.687  1.00  0.00    -0.007 C 
ATOM     10  C   UNL     1      15.755  18.787  18.857  1.00  0.00     0.008 C 
ATOM     11  C   UNL     1      14.564  18.194  16.707  1.00  0.00     0.008 C 
ENDBRANCH   5   9
TORSDOF 1
ENDMDL
MODEL 8
REMARK VINA RESULT:    -4.771     15.725     17.043
REMARK INTER + INTRA:          -5.218
REMARK INTER:                  -5.046
REMARK INTRA:                  -0.172
REMARK UNBOUND:                -0.169
REMARK SMILES CC(C)[C@@H]1CC[C@@H](C)CC1=O
REMARK SMILES IDX 8 1 7 2 6 3 5 4 4 5 10 6 11 7 9 8 2 9 1 10 3 11
REMARK H PARENT
REMARK Flexibility Score: inf
ROOT
ATOM      1  C   UNL     1      19.074  11.975   2.911  1.00  0.00     0.008 C 
ATOM      2  C   UNL     1      19.517  13.437   3.025  1.00  0.00    -0.007 C 
ATOM      3  C   UNL     1      21.053  13.546   2.954  1.00  0.00     0.004 C 
ATOM      4  C   UNL     1      21.499  15.012   3.031  1.00  0.00     0.012 C 
ATOM      5  C   UNL     1      21.023  15.680   4.341  1.00  0.00     0.058 C 
ATOM      6  C   UNL     1      19.529  15.454   4.511  1.00  0.00     0.136 C 
ATOM      7  O   UNL     1      18.783  16.342   4.892  1.00  0.00    -0.299 OA
ATOM      8  C   UNL     1      18.984  14.063   4.326  1.00  0.00     0.079 C 
ENDROOT
BRANCH   5   9
ATOM      9  C   UNL     1      21.507  17.163   4.438  1.00  0.00    -0.007 C 
ATOM     10  C   UNL     1      22.645  17.395   5.450  1.00  0.00     0.008 C 
ATOM     11  C   UNL     1      21.884  17.737   3.063  1.00  0.00     0.008 C 
ENDBRANCH   5   9
TORSDOF 1
ENDMDL
MODEL 9
REMARK VINA RESULT:    -4.754     15.208     17.982
REMARK INTER + INTRA:          -5.201
REMARK INTER:                  -5.041
REMARK INTRA:                  -0.159
REMARK UNBOUND:                -0.169
REMARK SMILES CC(C)[C@@H]1CC[C@@H](C)CC1=O
REMARK SMILES IDX 8 1 7 2 6 3 5 4 4 5 10 6 11 7 9 8 2 9 1 10 3 11
REMARK H PARENT
REMARK Flexibility Score: inf
ROOT
ATOM      1  C   UNL     1      23.312  12.120   1.878  1.00  0.00     0.008 C 
ATOM      2  C   UNL     1      22.516  12.978   2.866  1.00  0.00    -0.007 C 
ATOM      3  C   UNL     1      21.043  13.087   2.425  1.00  0.00     0.004 C 
ATOM      4  C   UNL     1      20.233  13.916   3.432  1.00  0.00     0.012 C 
ATOM      5  C   UNL     1      20.805  15.344   3.578  1.00  0.00     0.058 C 
ATOM      6  C   UNL     1      22.297  15.266   3.864  1.00  0.00     0.136 C 
ATOM      7  O   UNL     1      22.831  15.980   4.698  1.00  0.00    -0.299 OA
ATOM      8  C   UNL     1      23.150  14.374   3.002  1.00  0.00     0.079 C 
ENDROOT
BRANCH   5   9
ATOM      9  C   UNL     1      19.961  16.201   4.575  1.00  0.00    -0.007 C 
ATOM     10  C   UNL     1      19.731  17.656   4.126  1.00  0.00     0.008 C 
ATOM     11  C   UNL     1      18.624  15.527   4.925  1.00  0.00     0.008 C 
ENDBRANCH   5   9
TORSDOF 1
ENDMDL
