MODEL 1
REMARK VINA RESULT:    -7.236      0.000      0.000
REMARK INTER + INTRA:          -9.678
REMARK INTER:                  -8.928
REMARK INTRA:                  -0.750
REMARK UNBOUND:                -0.750
REMARK SMILES CC(C)=CCC[C@@H](C)c1ccc(C)cc1
REMARK SMILES IDX 6 1 7 2 8 3 9 4 13 5 12 6 11 7 14 8 10 9 15 10 5 11 4 12
REMARK SMILES IDX 2 13 1 14 3 15
REMARK H PARENT
REMARK Flexibility Score: inf
ROOT
ATOM      1  C   UNL     1      -9.354 -17.751  19.197  1.00  0.00     0.012 C 
ENDROOT
BRANCH   1   2
ATOM      2  C   UNL     1     -10.821 -18.123  18.882  1.00  0.00     0.016 C 
ATOM      3  C   UNL     1     -10.933 -19.448  18.110  1.00  0.00     0.013 C 
BRANCH   2   4
ATOM      4  C   UNL     1     -11.637 -18.191  20.161  1.00  0.00    -0.045 A 
ATOM      5  C   UNL     1     -13.924 -18.394  23.821  1.00  0.00     0.044 C 
ATOM      6  C   UNL     1     -13.149 -18.342  22.537  1.00  0.00    -0.051 A 
ATOM      7  C   UNL     1     -13.446 -17.370  21.571  1.00  0.00     0.004 A 
ATOM      8  C   UNL     1     -12.079 -19.223  22.322  1.00  0.00     0.004 A 
ATOM      9  C   UNL     1     -12.701 -17.297  20.391  1.00  0.00     0.004 A 
ATOM     10  C   UNL     1     -11.333 -19.152  21.141  1.00  0.00     0.004 A 
ENDBRANCH   2   4
ENDBRANCH   1   2
BRANCH   1  11
ATOM     11  C   UNL     1      -8.908 -16.460  18.495  1.00  0.00     0.028 C 
BRANCH  11  12
ATOM     12  C   UNL     1      -9.815 -15.313  18.867  1.00  0.00    -0.028 C 
ATOM     13  C   UNL     1      -9.381 -14.094  19.258  1.00  0.00    -0.080 C 
ATOM     14  C   UNL     1      -7.916 -13.736  19.292  1.00  0.00     0.039 C 
ATOM     15  C   UNL     1     -10.379 -13.026  19.631  1.00  0.00     0.039 C 
ENDBRANCH  11  12
ENDBRANCH   1  11
TORSDOF 4
ENDMDL
MODEL 2
REMARK VINA RESULT:    -6.508      1.772      3.301
REMARK INTER + INTRA:          -8.780
REMARK INTER:                  -8.090
REMARK INTRA:                  -0.690
REMARK UNBOUND:                -0.750
REMARK SMILES CC(C)=CCC[C@@H](C)c1ccc(C)cc1
REMARK SMILES IDX 6 1 7 2 8 3 9 4 13 5 12 6 11 7 14 8 10 9 15 10 5 11 4 12
REMARK SMILES IDX 2 13 1 14 3 15
REMARK H PARENT
REMARK Flexibility Score: inf
ROOT
ATOM      1  C   UNL     1     -10.383 -14.390  19.956  1.00  0.00     0.012 C 
ENDROOT
BRANCH   1   2
ATOM      2  C   UNL     1     -10.006 -15.381  18.831  1.00  0.00     0.016 C 
ATOM      3  C   UNL     1      -8.486 -15.474  18.622  1.00  0.00     0.013 C 
BRANCH   2   4
ATOM      4  C   UNL     1     -10.581 -16.756  19.122  1.00  0.00    -0.045 A 
ATOM      5  C   UNL     1     -12.180 -20.682  19.955  1.00  0.00     0.044 C 
ATOM      6  C   UNL     1     -11.640 -19.319  19.640  1.00  0.00    -0.051 A 
ATOM      7  C   UNL     1     -12.324 -18.172  20.068  1.00  0.00     0.004 A 
ATOM      8  C   UNL     1     -10.414 -19.181  18.973  1.00  0.00     0.004 A 
ATOM      9  C   UNL     1     -11.803 -16.901  19.807  1.00  0.00     0.004 A 
ATOM     10  C   UNL     1      -9.892 -17.910  18.711  1.00  0.00     0.004 A 
ENDBRANCH   2   4
ENDBRANCH   1   2
BRANCH   1  11
ATOM     11  C   UNL     1     -10.000 -12.941  19.620  1.00  0.00     0.028 C 
BRANCH  11  12
ATOM     12  C   UNL     1     -10.357 -12.615  18.190  1.00  0.00    -0.028 C 
ATOM     13  C   UNL     1      -9.475 -12.170  17.267  1.00  0.00    -0.080 C 
ATOM     14  C   UNL     1      -8.004 -12.022  17.568  1.00  0.00     0.039 C 
ATOM     15  C   UNL     1      -9.948 -11.851  15.871  1.00  0.00     0.039 C 
ENDBRANCH  11  12
ENDBRANCH   1  11
TORSDOF 4
ENDMDL
MODEL 3
REMARK VINA RESULT:    -6.298      1.281      5.946
REMARK INTER + INTRA:          -8.521
REMARK INTER:                  -7.712
REMARK INTRA:                  -0.808
REMARK UNBOUND:                -0.750
REMARK SMILES CC(C)=CCC[C@@H](C)c1ccc(C)cc1
REMARK SMILES IDX 6 1 7 2 8 3 9 4 13 5 12 6 11 7 14 8 10 9 15 10 5 11 4 12
REMARK SMILES IDX 2 13 1 14 3 15
REMARK H PARENT
REMARK Flexibility Score: inf
ROOT
ATOM      1  C   UNL     1     -11.118 -17.539  18.214  1.00  0.00     0.012 C 
ENDROOT
BRANCH   1   2
ATOM      2  C   UNL     1     -10.162 -17.004  19.306  1.00  0.00     0.016 C 
ATOM      3  C   UNL     1      -8.955 -17.929  19.526  1.00  0.00     0.013 C 
BRANCH   2   4
ATOM      4  C   UNL     1      -9.693 -15.602  18.958  1.00  0.00    -0.045 A 
ATOM      5  C   UNL     1      -8.374 -11.601  18.002  1.00  0.00     0.044 C 
ATOM      6  C   UNL     1      -8.846 -12.992  18.307  1.00  0.00    -0.051 A 
ATOM      7  C   UNL     1      -8.068 -14.099  17.941  1.00  0.00     0.004 A 
ATOM      8  C   UNL     1     -10.037 -13.193  19.020  1.00  0.00     0.004 A 
ATOM      9  C   UNL     1      -8.489 -15.394  18.258  1.00  0.00     0.004 A 
ATOM     10  C   UNL     1     -10.460 -14.487  19.337  1.00  0.00     0.004 A 
ENDBRANCH   2   4
ENDBRANCH   1   2
BRANCH   1  11
ATOM     11  C   UNL     1     -11.866 -18.806  18.654  1.00  0.00     0.028 C 
BRANCH  11  12
ATOM     12  C   UNL     1     -12.971 -18.462  19.623  1.00  0.00    -0.028 C 
ATOM     13  C   UNL     1     -12.953 -18.770  20.939  1.00  0.00    -0.080 C 
ATOM     14  C   UNL     1     -11.768 -19.439  21.591  1.00  0.00     0.039 C 
ATOM     15  C   UNL     1     -14.125 -18.399  21.813  1.00  0.00     0.039 C 
ENDBRANCH  11  12
ENDBRANCH   1  11
TORSDOF 4
ENDMDL
MODEL 4
REMARK VINA RESULT:    -6.183      1.026      5.403
REMARK INTER + INTRA:          -8.378
REMARK INTER:                  -7.430
REMARK INTRA:                  -0.948
REMARK UNBOUND:                -0.750
REMARK SMILES CC(C)=CCC[C@@H](C)c1ccc(C)cc1
REMARK SMILES IDX 6 1 7 2 8 3 9 4 13 5 12 6 11 7 14 8 10 9 15 10 5 11 4 12
REMARK SMILES IDX 2 13 1 14 3 15
REMARK H PARENT
REMARK Flexibility Score: inf
ROOT
ATOM      1  C   UNL     1      -9.952 -18.764  20.211  1.00  0.00     0.012 C 
ENDROOT
BRANCH   1   2
ATOM      2  C   UNL     1     -10.088 -18.125  18.810  1.00  0.00     0.016 C 
ATOM      3  C   UNL     1     -11.467 -18.387  18.182  1.00  0.00     0.013 C 
BRANCH   2   4
ATOM      4  C   UNL     1      -9.819 -16.632  18.880  1.00  0.00    -0.045 A 
ATOM      5  C   UNL     1      -9.032 -12.388  19.047  1.00  0.00     0.044 C 
ATOM      6  C   UNL     1      -9.294 -13.865  19.017  1.00  0.00    -0.051 A 
ATOM      7  C   UNL     1     -10.513 -14.376  19.482  1.00  0.00     0.004 A 
ATOM      8  C   UNL     1      -8.347 -14.738  18.461  1.00  0.00     0.004 A 
ATOM      9  C   UNL     1     -10.773 -15.748  19.420  1.00  0.00     0.004 A 
ATOM     10  C   UNL     1      -8.605 -16.111  18.399  1.00  0.00     0.004 A 
ENDBRANCH   2   4
ENDBRANCH   1   2
BRANCH   1  11
ATOM     11  C   UNL     1     -11.113 -19.712  20.544  1.00  0.00     0.028 C 
BRANCH  11  12
ATOM     12  C   UNL     1     -11.553 -19.532  21.976  1.00  0.00    -0.028 C 
ATOM     13  C   UNL     1     -12.493 -18.647  22.379  1.00  0.00    -0.080 C 
ATOM     14  C   UNL     1     -13.259 -17.789  21.404  1.00  0.00     0.039 C 
ATOM     15  C   UNL     1     -12.836 -18.534  23.844  1.00  0.00     0.039 C 
ENDBRANCH  11  12
ENDBRANCH   1  11
TORSDOF 4
ENDMDL
MODEL 5
REMARK VINA RESULT:    -6.106      1.871      6.154
REMARK INTER + INTRA:          -8.284
REMARK INTER:                  -7.726
REMARK INTRA:                  -0.558
REMARK UNBOUND:                -0.750
REMARK SMILES CC(C)=CCC[C@@H](C)c1ccc(C)cc1
REMARK SMILES IDX 6 1 7 2 8 3 9 4 13 5 12 6 11 7 14 8 10 9 15 10 5 11 4 12
REMARK SMILES IDX 2 13 1 14 3 15
REMARK H PARENT
REMARK Flexibility Score: inf
ROOT
ATOM      1  C   UNL     1      -9.899 -17.992  19.236  1.00  0.00     0.012 C 
ENDROOT
BRANCH   1   2
ATOM      2  C   UNL     1     -10.789 -16.741  19.055  1.00  0.00     0.016 C 
ATOM      3  C   UNL     1     -11.739 -16.526  20.245  1.00  0.00     0.013 C 
BRANCH   2   4
ATOM      4  C   UNL     1      -9.930 -15.507  18.839  1.00  0.00    -0.045 A 
ATOM      5  C   UNL     1      -7.504 -11.981  18.256  1.00  0.00     0.044 C 
ATOM      6  C   UNL     1      -8.357 -13.202  18.430  1.00  0.00    -0.051 A 
ATOM      7  C   UNL     1      -7.848 -14.471  18.115  1.00  0.00     0.004 A 
ATOM      8  C   UNL     1      -9.646 -13.093  18.972  1.00  0.00     0.004 A 
ATOM      9  C   UNL     1      -8.629 -15.613  18.312  1.00  0.00     0.004 A 
ATOM     10  C   UNL     1     -10.428 -14.235  19.169  1.00  0.00     0.004 A 
ENDBRANCH   2   4
ENDBRANCH   1   2
BRANCH   1  11
ATOM     11  C   UNL     1     -10.363 -19.177  18.376  1.00  0.00     0.028 C 
BRANCH  11  12
ATOM     12  C   UNL     1     -11.854 -19.373  18.502  1.00  0.00    -0.028 C 
ATOM     13  C   UNL     1     -12.454 -20.021  19.525  1.00  0.00    -0.080 C 
ATOM     14  C   UNL     1     -11.676 -20.558  20.702  1.00  0.00     0.039 C 
ATOM     15  C   UNL     1     -13.954 -20.181  19.536  1.00  0.00     0.039 C 
ENDBRANCH  11  12
ENDBRANCH   1  11
TORSDOF 4
ENDMDL
MODEL 6
REMARK VINA RESULT:    -5.971      3.041      7.123
REMARK INTER + INTRA:          -8.118
REMARK INTER:                  -7.664
REMARK INTRA:                  -0.454
REMARK UNBOUND:                -0.750
REMARK SMILES CC(C)=CCC[C@@H](C)c1ccc(C)cc1
REMARK SMILES IDX 6 1 7 2 8 3 9 4 13 5 12 6 11 7 14 8 10 9 15 10 5 11 4 12
REMARK SMILES IDX 2 13 1 14 3 15
REMARK H PARENT
REMARK Flexibility Score: inf
ROOT
ATOM      1  C   UNL     1     -11.936 -18.626  24.882  1.00  0.00     0.012 C 
ENDROOT
BRANCH   1   2
ATOM      2  C   UNL     1     -13.057 -18.786  23.829  1.00  0.00     0.016 C 
ATOM      3  C   UNL     1     -14.114 -17.673  23.931  1.00  0.00     0.013 C 
BRANCH   2   4
ATOM      4  C   UNL     1     -12.469 -18.825  22.430  1.00  0.00    -0.045 A 
ATOM      5  C   UNL     1     -10.805 -18.897  18.443  1.00  0.00     0.044 C 
ATOM      6  C   UNL     1     -11.400 -18.896  19.821  1.00  0.00    -0.051 A 
ATOM      7  C   UNL     1     -10.786 -19.616  20.856  1.00  0.00     0.004 A 
ATOM      8  C   UNL     1     -12.536 -18.122  20.100  1.00  0.00     0.004 A 
ATOM      9  C   UNL     1     -11.318 -19.586  22.148  1.00  0.00     0.004 A 
ATOM     10  C   UNL     1     -13.069 -18.091  21.391  1.00  0.00     0.004 A 
ENDBRANCH   2   4
ENDBRANCH   1   2
BRANCH   1  11
ATOM     11  C   UNL     1     -12.355 -19.124  26.272  1.00  0.00     0.028 C 
BRANCH  11  12
ATOM     12  C   UNL     1     -11.564 -18.422  27.349  1.00  0.00    -0.028 C 
ATOM     13  C   UNL     1     -11.884 -18.438  28.662  1.00  0.00    -0.080 C 
ATOM     14  C   UNL     1     -13.048 -19.237  29.196  1.00  0.00     0.039 C 
ATOM     15  C   UNL     1     -11.034 -17.679  29.650  1.00  0.00     0.039 C 
ENDBRANCH  11  12
ENDBRANCH   1  11
TORSDOF 4
ENDMDL
MODEL 7
REMARK VINA RESULT:    -5.653      1.896      4.143
REMARK INTER + INTRA:          -7.725
REMARK INTER:                  -6.890
REMARK INTRA:                  -0.835
REMARK UNBOUND:                -0.750
REMARK SMILES CC(C)=CCC[C@@H](C)c1ccc(C)cc1
REMARK SMILES IDX 6 1 7 2 8 3 9 4 13 5 12 6 11 7 14 8 10 9 15 10 5 11 4 12
REMARK SMILES IDX 2 13 1 14 3 15
REMARK H PARENT
REMARK Flexibility Score: inf
ROOT
ATOM      1  C   UNL     1     -11.861 -19.991  21.884  1.00  0.00     0.012 C 
ENDROOT
BRANCH   1   2
ATOM      2  C   UNL     1     -12.474 -18.583  22.067  1.00  0.00     0.016 C 
ATOM      3  C   UNL     1     -13.787 -18.415  21.285  1.00  0.00     0.013 C 
BRANCH   2   4
ATOM      4  C   UNL     1     -12.698 -18.290  23.539  1.00  0.00    -0.045 A 
ATOM      5  C   UNL     1     -13.299 -17.449  27.734  1.00  0.00     0.044 C 
ATOM      6  C   UNL     1     -13.103 -17.768  26.281  1.00  0.00    -0.051 A 
ATOM      7  C   UNL     1     -14.083 -17.414  25.342  1.00  0.00     0.004 A 
ATOM      8  C   UNL     1     -11.911 -18.361  25.842  1.00  0.00     0.004 A 
ATOM      9  C   UNL     1     -13.886 -17.677  23.983  1.00  0.00     0.004 A 
ATOM     10  C   UNL     1     -11.713 -18.626  24.484  1.00  0.00     0.004 A 
ENDBRANCH   2   4
ENDBRANCH   1   2
BRANCH   1  11
ATOM     11  C   UNL     1     -11.110 -20.141  20.554  1.00  0.00     0.028 C 
BRANCH  11  12
ATOM     12  C   UNL     1     -10.334 -18.885  20.237  1.00  0.00    -0.028 C 
ATOM     13  C   UNL     1     -10.473 -18.170  19.098  1.00  0.00    -0.080 C 
ATOM     14  C   UNL     1     -11.493 -18.528  18.045  1.00  0.00     0.039 C 
ATOM     15  C   UNL     1      -9.626 -16.943  18.875  1.00  0.00     0.039 C 
ENDBRANCH  11  12
ENDBRANCH   1  11
TORSDOF 4
ENDMDL
MODEL 8
REMARK VINA RESULT:    -5.428      1.928      3.648
REMARK INTER + INTRA:          -7.447
REMARK INTER:                  -7.487
REMARK INTRA:                   0.041
REMARK UNBOUND:                -0.750
REMARK SMILES CC(C)=CCC[C@@H](C)c1ccc(C)cc1
REMARK SMILES IDX 6 1 7 2 8 3 9 4 13 5 12 6 11 7 14 8 10 9 15 10 5 11 4 12
REMARK SMILES IDX 2 13 1 14 3 15
REMARK H PARENT
REMARK Flexibility Score: inf
ROOT
ATOM      1  C   UNL     1      -8.971 -14.685  17.868  1.00  0.00     0.012 C 
ENDROOT
BRANCH   1   2
ATOM      2  C   UNL     1      -9.517 -15.013  19.276  1.00  0.00     0.016 C 
ATOM      3  C   UNL     1     -10.523 -13.960  19.770  1.00  0.00     0.013 C 
BRANCH   2   4
ATOM      4  C   UNL     1     -10.153 -16.392  19.290  1.00  0.00    -0.045 A 
ATOM      5  C   UNL     1     -11.925 -20.332  19.336  1.00  0.00     0.044 C 
ATOM      6  C   UNL     1     -11.322 -18.959  19.293  1.00  0.00    -0.051 A 
ATOM      7  C   UNL     1     -12.022 -17.863  19.819  1.00  0.00     0.004 A 
ATOM      8  C   UNL     1     -10.028 -18.771  18.788  1.00  0.00     0.004 A 
ATOM      9  C   UNL     1     -11.446 -16.589  19.813  1.00  0.00     0.004 A 
ATOM     10  C   UNL     1      -9.450 -17.498  18.781  1.00  0.00     0.004 A 
ENDBRANCH   2   4
ENDBRANCH   1   2
BRANCH   1  11
ATOM     11  C   UNL     1      -7.858 -13.628  17.897  1.00  0.00     0.028 C 
BRANCH  11  12
ATOM     12  C   UNL     1      -8.435 -12.254  18.131  1.00  0.00    -0.028 C 
ATOM     13  C   UNL     1      -9.335 -11.657  17.318  1.00  0.00    -0.080 C 
ATOM     14  C   UNL     1      -9.914 -12.353  16.111  1.00  0.00     0.039 C 
ATOM     15  C   UNL     1      -9.827 -10.267  17.636  1.00  0.00     0.039 C 
ENDBRANCH  11  12
ENDBRANCH   1  11
TORSDOF 4
ENDMDL
MODEL 9
REMARK VINA RESULT:    -5.320      2.895      5.627
REMARK INTER + INTRA:          -7.314
REMARK INTER:                  -6.586
REMARK INTRA:                  -0.729
REMARK UNBOUND:                -0.750
REMARK SMILES CC(C)=CCC[C@@H](C)c1ccc(C)cc1
REMARK SMILES IDX 6 1 7 2 8 3 9 4 13 5 12 6 11 7 14 8 10 9 15 10 5 11 4 12
REMARK SMILES IDX 2 13 1 14 3 15
REMARK H PARENT
REMARK Flexibility Score: inf
ROOT
ATOM      1  C   UNL     1     -11.412 -19.110  23.244  1.00  0.00     0.012 C 
ENDROOT
BRANCH   1   2
ATOM      2  C   UNL     1     -12.419 -18.044  23.734  1.00  0.00     0.016 C 
ATOM      3  C   UNL     1     -13.869 -18.404  23.370  1.00  0.00     0.013 C 
BRANCH   2   4
ATOM      4  C   UNL     1     -12.289 -17.843  25.233  1.00  0.00    -0.045 A 
ATOM      5  C   UNL     1     -11.950 -17.243  29.498  1.00  0.00     0.044 C 
ATOM      6  C   UNL     1     -12.039 -17.443  28.014  1.00  0.00    -0.051 A 
ATOM      7  C   UNL     1     -11.747 -18.694  27.450  1.00  0.00     0.004 A 
ATOM      8  C   UNL     1     -12.479 -16.400  27.186  1.00  0.00     0.004 A 
ATOM      9  C   UNL     1     -11.865 -18.892  26.072  1.00  0.00     0.004 A 
ATOM     10  C   UNL     1     -12.597 -16.596  25.806  1.00  0.00     0.004 A 
ENDBRANCH   2   4
ENDBRANCH   1   2
BRANCH   1  11
ATOM     11  C   UNL     1     -11.851 -19.781  21.935  1.00  0.00     0.028 C 
BRANCH  11  12
ATOM     12  C   UNL     1     -11.149 -19.155  20.754  1.00  0.00    -0.028 C 
ATOM     13  C   UNL     1     -11.782 -18.622  19.686  1.00  0.00    -0.080 C 
ATOM     14  C   UNL     1     -13.286 -18.536  19.604  1.00  0.00     0.039 C 
ATOM     15  C   UNL     1     -10.977 -18.044  18.549  1.00  0.00     0.039 C 
ENDBRANCH  11  12
ENDBRANCH   1  11
TORSDOF 4
ENDMDL
