MODEL 1
REMARK VINA RESULT:    -7.777      0.000      0.000
REMARK INTER + INTRA:         -12.013
REMARK INTER:                 -10.277
REMARK INTRA:                  -1.736
REMARK UNBOUND:                -1.736
REMARK SMILES C=C(CC[C@@H](C)[C@@H]1CC[C@@]2(C)[C@H]3CC[C@@H]4C(C)(C)[C@H](O)CC[C@@]45C[C@@]35CC[C@@]12C)C(C)C
REMARK SMILES IDX 4 1 3 2 2 3 1 4 30 5 31 6 32 7 5 8 6 9 7 10 8 11 28 12 9 13
REMARK SMILES IDX 10 14 27 15 29 16 11 17 12 18 26 19 25 20 13 21 23 22 24 23
REMARK SMILES IDX 14 24 15 25 22 26 16 27 21 28 19 29 17 30 18 31 20 32
REMARK H PARENT 20 33
REMARK Flexibility Score: inf
ROOT
ATOM      1  C   UNL     1     111.825 119.069 127.413  1.00  0.00     0.008 C 
ENDROOT
BRANCH   1   2
ATOM      2  C   UNL     1     112.349 118.622 128.797  1.00  0.00     0.031 C 
BRANCH   2   3
ATOM      3  C   UNL     1     112.607 117.125 128.908  1.00  0.00    -0.075 C 
ATOM      4  C   UNL     1     111.601 116.264 128.677  1.00  0.00     0.008 C 
BRANCH   3   5
ATOM      5  C   UNL     1     113.968 116.576 129.334  1.00  0.00     0.008 C 
ATOM      6  C   UNL     1     113.865 115.598 130.512  1.00  0.00     0.012 C 
ATOM      7  C   UNL     1     114.952 117.708 129.647  1.00  0.00     0.012 C 
ENDBRANCH   3   5
ENDBRANCH   2   3
ENDBRANCH   1   2
BRANCH   1   8
ATOM      8  C   UNL     1     112.612 118.594 126.159  1.00  0.00    -0.010 C 
ATOM      9  C   UNL     1     111.623 118.096 125.075  1.00  0.00     0.008 C 
BRANCH   8  10
ATOM     10  C   UNL     1     113.521 119.747 125.565  1.00  0.00    -0.002 C 
ATOM     11  C   UNL     1     113.485 119.759 124.037  1.00  0.00     0.005 C 
ATOM     12  C   UNL     1     115.068 119.793 125.888  1.00  0.00    -0.024 C 
ATOM     13  C   UNL     1     114.557 120.732 123.624  1.00  0.00     0.008 C 
ATOM     14  C   UNL     1     115.721 120.575 124.634  1.00  0.00    -0.024 C 
ATOM     15  C   UNL     1     115.397 120.533 127.224  1.00  0.00     0.008 C 
ATOM     16  C   UNL     1     115.613 118.343 126.055  1.00  0.00     0.012 C 
ATOM     17  C   UNL     1     116.848 119.755 123.930  1.00  0.00     0.012 C 
ATOM     18  C   UNL     1     116.314 122.001 125.021  1.00  0.00     0.002 C 
ATOM     19  C   UNL     1     114.954 121.993 127.271  1.00  0.00     0.008 C 
ATOM     20  C   UNL     1     115.378 122.754 126.004  1.00  0.00    -0.020 C 
ATOM     21  C   UNL     1     116.714 122.872 123.803  1.00  0.00     0.005 C 
ATOM     22  C   UNL     1     115.592 124.267 126.211  1.00  0.00    -0.020 C 
ATOM     23  C   UNL     1     114.390 123.762 125.400  1.00  0.00     0.015 C 
ATOM     24  C   UNL     1     117.353 124.204 124.205  1.00  0.00     0.005 C 
ATOM     25  C   UNL     1     116.748 124.973 125.432  1.00  0.00     0.004 C 
ATOM     26  C   UNL     1     115.046 125.032 127.442  1.00  0.00     0.010 C 
ATOM     27  C   UNL     1     117.868 125.475 126.436  1.00  0.00    -0.006 C 
ATOM     28  C   UNL     1     116.168 125.473 128.368  1.00  0.00     0.033 C 
ATOM     29  C   UNL     1     117.210 126.294 127.600  1.00  0.00     0.120 C 
ATOM     30  C   UNL     1     118.850 126.427 125.705  1.00  0.00     0.014 C 
ATOM     31  C   UNL     1     118.675 124.280 127.025  1.00  0.00     0.014 C 
BRANCH  29  32
ATOM     32  O   UNL     1     118.182 126.743 128.518  1.00  0.00    -0.393 OA
ATOM     33  H   UNL     1     118.375 127.694 128.310  1.00  0.00     0.210 HD
ENDBRANCH  29  32
ENDBRANCH   8  10
ENDBRANCH   1   8
TORSDOF 6
ENDMDL
MODEL 2
REMARK VINA RESULT:    -7.648      2.202      4.022
REMARK INTER + INTRA:         -11.842
REMARK INTER:                  -9.445
REMARK INTRA:                  -2.398
REMARK UNBOUND:                -1.736
REMARK SMILES C=C(CC[C@@H](C)[C@@H]1CC[C@@]2(C)[C@H]3CC[C@@H]4C(C)(C)[C@H](O)CC[C@@]45C[C@@]35CC[C@@]12C)C(C)C
REMARK SMILES IDX 4 1 3 2 2 3 1 4 30 5 31 6 32 7 5 8 6 9 7 10 8 11 28 12 9 13
REMARK SMILES IDX 10 14 27 15 29 16 11 17 12 18 26 19 25 20 13 21 23 22 24 23
REMARK SMILES IDX 14 24 15 25 22 26 16 27 21 28 19 29 17 30 18 31 20 32
REMARK H PARENT 20 33
REMARK Flexibility Score: inf
ROOT
ATOM      1  C   UNL     1     112.682 115.523 125.019  1.00  0.00     0.008 C 
ENDROOT
BRANCH   1   2
ATOM      2  C   UNL     1     112.139 116.961 125.185  1.00  0.00     0.031 C 
BRANCH   2   3
ATOM      3  C   UNL     1     111.939 117.703 123.871  1.00  0.00    -0.075 C 
ATOM      4  C   UNL     1     111.973 117.018 122.714  1.00  0.00     0.008 C 
BRANCH   3   5
ATOM      5  C   UNL     1     111.758 119.220 123.827  1.00  0.00     0.008 C 
ATOM      6  C   UNL     1     110.962 119.751 125.027  1.00  0.00     0.012 C 
ATOM      7  C   UNL     1     111.122 119.667 122.507  1.00  0.00     0.012 C 
ENDBRANCH   3   5
ENDBRANCH   2   3
ENDBRANCH   1   2
BRANCH   1   8
ATOM      8  C   UNL     1     114.211 115.307 125.195  1.00  0.00    -0.010 C 
ATOM      9  C   UNL     1     114.677 114.113 124.325  1.00  0.00     0.008 C 
BRANCH   8  10
ATOM     10  C   UNL     1     115.035 116.603 124.809  1.00  0.00    -0.002 C 
ATOM     11  C   UNL     1     115.966 116.345 123.625  1.00  0.00     0.005 C 
ATOM     12  C   UNL     1     115.985 117.292 125.869  1.00  0.00    -0.024 C 
ATOM     13  C   UNL     1     116.835 117.571 123.531  1.00  0.00     0.008 C 
ATOM     14  C   UNL     1     117.106 118.043 124.981  1.00  0.00    -0.024 C 
ATOM     15  C   UNL     1     115.243 118.314 126.789  1.00  0.00     0.008 C 
ATOM     16  C   UNL     1     116.581 116.212 126.821  1.00  0.00     0.012 C 
ATOM     17  C   UNL     1     118.560 117.613 125.352  1.00  0.00     0.012 C 
ATOM     18  C   UNL     1     117.021 119.631 125.071  1.00  0.00     0.002 C 
ATOM     19  C   UNL     1     114.586 119.478 126.051  1.00  0.00     0.008 C 
ATOM     20  C   UNL     1     115.549 120.120 125.038  1.00  0.00    -0.020 C 
ATOM     21  C   UNL     1     117.912 120.372 124.041  1.00  0.00     0.005 C 
ATOM     22  C   UNL     1     115.275 121.611 124.756  1.00  0.00    -0.020 C 
ATOM     23  C   UNL     1     114.983 120.556 123.679  1.00  0.00     0.015 C 
ATOM     24  C   UNL     1     117.871 121.893 124.201  1.00  0.00     0.005 C 
ATOM     25  C   UNL     1     116.490 122.566 124.526  1.00  0.00     0.004 C 
ATOM     26  C   UNL     1     113.936 122.302 125.117  1.00  0.00     0.010 C 
ATOM     27  C   UNL     1     116.599 123.619 125.706  1.00  0.00    -0.006 C 
ATOM     28  C   UNL     1     114.108 123.288 126.261  1.00  0.00     0.033 C 
ATOM     29  C   UNL     1     115.208 124.305 125.936  1.00  0.00     0.120 C 
ATOM     30  C   UNL     1     117.605 124.737 125.330  1.00  0.00     0.014 C 
ATOM     31  C   UNL     1     117.076 122.941 127.025  1.00  0.00     0.014 C 
BRANCH  29  32
ATOM     32  O   UNL     1     115.271 125.239 126.991  1.00  0.00    -0.393 OA
ATOM     33  H   UNL     1     116.229 125.394 127.199  1.00  0.00     0.210 HD
ENDBRANCH  29  32
ENDBRANCH   8  10
ENDBRANCH   1   8
TORSDOF 6
ENDMDL
MODEL 3
REMARK VINA RESULT:    -7.350      1.417      1.860
REMARK INTER + INTRA:         -11.449
REMARK INTER:                  -9.678
REMARK INTRA:                  -1.771
REMARK UNBOUND:                -1.736
REMARK SMILES C=C(CC[C@@H](C)[C@@H]1CC[C@@]2(C)[C@H]3CC[C@@H]4C(C)(C)[C@H](O)CC[C@@]45C[C@@]35CC[C@@]12C)C(C)C
REMARK SMILES IDX 4 1 3 2 2 3 1 4 30 5 31 6 32 7 5 8 6 9 7 10 8 11 28 12 9 13
REMARK SMILES IDX 10 14 27 15 29 16 11 17 12 18 26 19 25 20 13 21 23 22 24 23
REMARK SMILES IDX 14 24 15 25 22 26 16 27 21 28 19 29 17 30 18 31 20 32
REMARK H PARENT 20 33
REMARK Flexibility Score: inf
ROOT
ATOM      1  C   UNL     1     112.274 116.858 127.891  1.00  0.00     0.008 C 
ENDROOT
BRANCH   1   2
ATOM      2  C   UNL     1     112.453 116.078 129.214  1.00  0.00     0.031 C 
BRANCH   2   3
ATOM      3  C   UNL     1     113.513 116.661 130.138  1.00  0.00    -0.075 C 
ATOM      4  C   UNL     1     113.141 117.496 131.125  1.00  0.00     0.008 C 
BRANCH   3   5
ATOM      5  C   UNL     1     114.999 116.368 129.938  1.00  0.00     0.008 C 
ATOM      6  C   UNL     1     115.356 114.907 130.247  1.00  0.00     0.012 C 
ATOM      7  C   UNL     1     115.871 117.328 130.754  1.00  0.00     0.012 C 
ENDBRANCH   3   5
ENDBRANCH   2   3
ENDBRANCH   1   2
BRANCH   1   8
ATOM      8  C   UNL     1     113.182 116.462 126.694  1.00  0.00    -0.010 C 
ATOM      9  C   UNL     1     112.374 115.623 125.674  1.00  0.00     0.008 C 
BRANCH   8  10
ATOM     10  C   UNL     1     113.794 117.734 125.975  1.00  0.00    -0.002 C 
ATOM     11  C   UNL     1     113.649 117.646 124.457  1.00  0.00     0.005 C 
ATOM     12  C   UNL     1     115.318 118.108 126.169  1.00  0.00    -0.024 C 
ATOM     13  C   UNL     1     114.469 118.785 123.913  1.00  0.00     0.008 C 
ATOM     14  C   UNL     1     115.709 118.926 124.832  1.00  0.00    -0.024 C 
ATOM     15  C   UNL     1     115.583 118.980 127.438  1.00  0.00     0.008 C 
ATOM     16  C   UNL     1     116.157 116.809 126.359  1.00  0.00     0.012 C 
ATOM     17  C   UNL     1     116.926 118.305 124.077  1.00  0.00     0.012 C 
ATOM     18  C   UNL     1     116.025 120.463 125.104  1.00  0.00     0.002 C 
ATOM     19  C   UNL     1     114.856 120.322 127.454  1.00  0.00     0.008 C 
ATOM     20  C   UNL     1     115.026 121.073 126.123  1.00  0.00    -0.020 C 
ATOM     21  C   UNL     1     116.152 121.319 123.817  1.00  0.00     0.005 C 
ATOM     22  C   UNL     1     114.942 122.608 126.242  1.00  0.00    -0.020 C 
ATOM     23  C   UNL     1     113.814 121.825 125.556  1.00  0.00     0.015 C 
ATOM     24  C   UNL     1     116.533 122.774 124.105  1.00  0.00     0.005 C 
ATOM     25  C   UNL     1     115.873 123.481 125.340  1.00  0.00     0.004 C 
ATOM     26  C   UNL     1     114.340 123.323 127.477  1.00  0.00     0.010 C 
ATOM     27  C   UNL     1     116.934 124.257 126.226  1.00  0.00    -0.006 C 
ATOM     28  C   UNL     1     115.411 124.035 128.288  1.00  0.00     0.033 C 
ATOM     29  C   UNL     1     116.207 124.998 127.400  1.00  0.00     0.120 C 
ATOM     30  C   UNL     1     117.648 125.339 125.374  1.00  0.00     0.014 C 
ATOM     31  C   UNL     1     118.007 123.285 126.801  1.00  0.00     0.014 C 
BRANCH  29  32
ATOM     32  O   UNL     1     117.129 125.688 128.214  1.00  0.00    -0.393 OA
ATOM     33  H   UNL     1     117.897 125.081 128.380  1.00  0.00     0.210 HD
ENDBRANCH  29  32
ENDBRANCH   8  10
ENDBRANCH   1   8
TORSDOF 6
ENDMDL
MODEL 4
REMARK VINA RESULT:    -7.252      1.991      3.501
REMARK INTER + INTRA:         -11.319
REMARK INTER:                  -8.966
REMARK INTRA:                  -2.353
REMARK UNBOUND:                -1.736
REMARK SMILES C=C(CC[C@@H](C)[C@@H]1CC[C@@]2(C)[C@H]3CC[C@@H]4C(C)(C)[C@H](O)CC[C@@]45C[C@@]35CC[C@@]12C)C(C)C
REMARK SMILES IDX 4 1 3 2 2 3 1 4 30 5 31 6 32 7 5 8 6 9 7 10 8 11 28 12 9 13
REMARK SMILES IDX 10 14 27 15 29 16 11 17 12 18 26 19 25 20 13 21 23 22 24 23
REMARK SMILES IDX 14 24 15 25 22 26 16 27 21 28 19 29 17 30 18 31 20 32
REMARK H PARENT 20 33
REMARK Flexibility Score: inf
ROOT
ATOM      1  C   UNL     1     112.958 115.404 125.134  1.00  0.00     0.008 C 
ENDROOT
BRANCH   1   2
ATOM      2  C   UNL     1     112.409 116.849 125.087  1.00  0.00     0.031 C 
BRANCH   2   3
ATOM      3  C   UNL     1     111.931 117.374 126.434  1.00  0.00    -0.075 C 
ATOM      4  C   UNL     1     112.139 116.639 127.540  1.00  0.00     0.008 C 
BRANCH   3   5
ATOM      5  C   UNL     1     111.169 118.693 126.555  1.00  0.00     0.008 C 
ATOM      6  C   UNL     1     111.303 119.566 125.300  1.00  0.00     0.012 C 
ATOM      7  C   UNL     1     111.591 119.467 127.808  1.00  0.00     0.012 C 
ENDBRANCH   3   5
ENDBRANCH   2   3
ENDBRANCH   1   2
BRANCH   1   8
ATOM      8  C   UNL     1     114.501 115.224 125.187  1.00  0.00    -0.010 C 
ATOM      9  C   UNL     1     114.927 114.062 124.256  1.00  0.00     0.008 C 
BRANCH   8  10
ATOM     10  C   UNL     1     115.262 116.549 124.772  1.00  0.00    -0.002 C 
ATOM     11  C   UNL     1     116.119 116.338 123.524  1.00  0.00     0.005 C 
ATOM     12  C   UNL     1     116.261 117.248 125.779  1.00  0.00    -0.024 C 
ATOM     13  C   UNL     1     116.946 117.589 123.395  1.00  0.00     0.008 C 
ATOM     14  C   UNL     1     117.300 118.045 124.833  1.00  0.00    -0.024 C 
ATOM     15  C   UNL     1     115.554 118.233 126.765  1.00  0.00     0.008 C 
ATOM     16  C   UNL     1     116.948 116.169 126.669  1.00  0.00     0.012 C 
ATOM     17  C   UNL     1     118.786 117.650 125.099  1.00  0.00     0.012 C 
ATOM     18  C   UNL     1     117.177 119.628 124.958  1.00  0.00     0.002 C 
ATOM     19  C   UNL     1     114.818 119.389 126.094  1.00  0.00     0.008 C 
ATOM     20  C   UNL     1     115.693 120.075 125.031  1.00  0.00    -0.020 C 
ATOM     21  C   UNL     1     117.977 120.411 123.885  1.00  0.00     0.005 C 
ATOM     22  C   UNL     1     115.360 121.562 124.795  1.00  0.00    -0.020 C 
ATOM     23  C   UNL     1     115.026 120.518 123.721  1.00  0.00     0.015 C 
ATOM     24  C   UNL     1     117.905 121.928 124.076  1.00  0.00     0.005 C 
ATOM     25  C   UNL     1     116.531 122.555 124.504  1.00  0.00     0.004 C 
ATOM     26  C   UNL     1     114.030 122.209 125.257  1.00  0.00     0.010 C 
ATOM     27  C   UNL     1     116.689 123.591 125.693  1.00  0.00    -0.006 C 
ATOM     28  C   UNL     1     114.251 123.181 126.405  1.00  0.00     0.033 C 
ATOM     29  C   UNL     1     115.299 124.233 126.027  1.00  0.00     0.120 C 
ATOM     30  C   UNL     1     117.636 124.744 125.271  1.00  0.00     0.014 C 
ATOM     31  C   UNL     1     117.271 122.905 126.965  1.00  0.00     0.014 C 
BRANCH  29  32
ATOM     32  O   UNL     1     115.406 125.151 127.093  1.00  0.00    -0.393 OA
ATOM     33  H   UNL     1     116.045 125.858 126.817  1.00  0.00     0.210 HD
ENDBRANCH  29  32
ENDBRANCH   8  10
ENDBRANCH   1   8
TORSDOF 6
ENDMDL
MODEL 5
REMARK VINA RESULT:    -7.178      2.754      4.573
REMARK INTER + INTRA:         -11.221
REMARK INTER:                  -9.435
REMARK INTRA:                  -1.786
REMARK UNBOUND:                -1.736
REMARK SMILES C=C(CC[C@@H](C)[C@@H]1CC[C@@]2(C)[C@H]3CC[C@@H]4C(C)(C)[C@H](O)CC[C@@]45C[C@@]35CC[C@@]12C)C(C)C
REMARK SMILES IDX 4 1 3 2 2 3 1 4 30 5 31 6 32 7 5 8 6 9 7 10 8 11 28 12 9 13
REMARK SMILES IDX 10 14 27 15 29 16 11 17 12 18 26 19 25 20 13 21 23 22 24 23
REMARK SMILES IDX 14 24 15 25 22 26 16 27 21 28 19 29 17 30 18 31 20 32
REMARK H PARENT 20 33
REMARK Flexibility Score: inf
ROOT
ATOM      1  C   UNL     1     113.875 115.725 130.018  1.00  0.00     0.008 C 
ENDROOT
BRANCH   1   2
ATOM      2  C   UNL     1     114.907 116.309 131.009  1.00  0.00     0.031 C 
BRANCH   2   3
ATOM      3  C   UNL     1     116.325 116.376 130.458  1.00  0.00    -0.075 C 
ATOM      4  C   UNL     1     117.098 117.436 130.752  1.00  0.00     0.008 C 
BRANCH   3   5
ATOM      5  C   UNL     1     116.876 115.294 129.530  1.00  0.00     0.008 C 
ATOM      6  C   UNL     1     117.178 113.983 130.269  1.00  0.00     0.012 C 
ATOM      7  C   UNL     1     118.110 115.789 128.768  1.00  0.00     0.012 C 
ENDBRANCH   3   5
ENDBRANCH   2   3
ENDBRANCH   1   2
BRANCH   1   8
ATOM      8  C   UNL     1     112.606 116.572 129.719  1.00  0.00    -0.010 C 
ATOM      9  C   UNL     1     112.079 117.209 131.027  1.00  0.00     0.008 C 
BRANCH   8  10
ATOM     10  C   UNL     1     112.896 117.705 128.650  1.00  0.00    -0.002 C 
ATOM     11  C   UNL     1     111.674 118.596 128.431  1.00  0.00     0.005 C 
ATOM     12  C   UNL     1     113.333 117.325 127.179  1.00  0.00    -0.024 C 
ATOM     13  C   UNL     1     112.019 119.455 127.244  1.00  0.00     0.008 C 
ATOM     14  C   UNL     1     112.850 118.576 126.277  1.00  0.00    -0.024 C 
ATOM     15  C   UNL     1     114.873 117.107 127.029  1.00  0.00     0.008 C 
ATOM     16  C   UNL     1     112.667 115.979 126.764  1.00  0.00     0.012 C 
ATOM     17  C   UNL     1     111.912 118.149 125.104  1.00  0.00     0.012 C 
ATOM     18  C   UNL     1     114.058 119.414 125.665  1.00  0.00     0.002 C 
ATOM     19  C   UNL     1     115.726 118.323 127.379  1.00  0.00     0.008 C 
ATOM     20  C   UNL     1     115.199 119.599 126.702  1.00  0.00    -0.020 C 
ATOM     21  C   UNL     1     113.631 120.754 125.013  1.00  0.00     0.005 C 
ATOM     22  C   UNL     1     116.276 120.667 126.427  1.00  0.00    -0.020 C 
ATOM     23  C   UNL     1     115.212 120.905 127.508  1.00  0.00     0.015 C 
ATOM     24  C   UNL     1     114.800 121.501 124.365  1.00  0.00     0.005 C 
ATOM     25  C   UNL     1     116.179 121.509 125.114  1.00  0.00     0.004 C 
ATOM     26  C   UNL     1     117.661 120.660 127.120  1.00  0.00     0.010 C 
ATOM     27  C   UNL     1     117.389 121.171 124.148  1.00  0.00    -0.006 C 
ATOM     28  C   UNL     1     118.774 120.317 126.141  1.00  0.00     0.033 C 
ATOM     29  C   UNL     1     118.741 121.263 124.936  1.00  0.00     0.120 C 
ATOM     30  C   UNL     1     117.457 122.209 122.998  1.00  0.00     0.014 C 
ATOM     31  C   UNL     1     117.236 119.749 123.529  1.00  0.00     0.014 C 
BRANCH  29  32
ATOM     32  O   UNL     1     119.836 120.953 124.103  1.00  0.00    -0.393 OA
ATOM     33  H   UNL     1     119.606 121.244 123.182  1.00  0.00     0.210 HD
ENDBRANCH  29  32
ENDBRANCH   8  10
ENDBRANCH   1   8
TORSDOF 6
ENDMDL
MODEL 6
REMARK VINA RESULT:    -7.121      2.584      6.547
REMARK INTER + INTRA:         -11.147
REMARK INTER:                  -8.722
REMARK INTRA:                  -2.424
REMARK UNBOUND:                -1.736
REMARK SMILES C=C(CC[C@@H](C)[C@@H]1CC[C@@]2(C)[C@H]3CC[C@@H]4C(C)(C)[C@H](O)CC[C@@]45C[C@@]35CC[C@@]12C)C(C)C
REMARK SMILES IDX 4 1 3 2 2 3 1 4 30 5 31 6 32 7 5 8 6 9 7 10 8 11 28 12 9 13
REMARK SMILES IDX 10 14 27 15 29 16 11 17 12 18 26 19 25 20 13 21 23 22 24 23
REMARK SMILES IDX 14 24 15 25 22 26 16 27 21 28 19 29 17 30 18 31 20 32
REMARK H PARENT 20 33
REMARK Flexibility Score: inf
ROOT
ATOM      1  C   UNL     1     112.287 120.506 124.462  1.00  0.00     0.008 C 
ENDROOT
BRANCH   1   2
ATOM      2  C   UNL     1     113.759 120.506 123.990  1.00  0.00     0.031 C 
BRANCH   2   3
ATOM      3  C   UNL     1     114.632 121.541 124.685  1.00  0.00    -0.075 C 
ATOM      4  C   UNL     1     114.055 122.485 125.450  1.00  0.00     0.008 C 
BRANCH   3   5
ATOM      5  C   UNL     1     116.148 121.571 124.491  1.00  0.00     0.008 C 
ATOM      6  C   UNL     1     116.728 120.185 124.178  1.00  0.00     0.012 C 
ATOM      7  C   UNL     1     116.852 122.199 125.699  1.00  0.00     0.012 C 
ENDBRANCH   3   5
ENDBRANCH   2   3
ENDBRANCH   1   2
BRANCH   1   8
ATOM      8  C   UNL     1     111.654 119.138 124.843  1.00  0.00    -0.010 C 
ATOM      9  C   UNL     1     111.247 118.371 123.560  1.00  0.00     0.008 C 
BRANCH   8  10
ATOM     10  C   UNL     1     112.645 118.252 125.704  1.00  0.00    -0.002 C 
ATOM     11  C   UNL     1     112.377 116.760 125.511  1.00  0.00     0.005 C 
ATOM     12  C   UNL     1     112.696 118.407 127.277  1.00  0.00    -0.024 C 
ATOM     13  C   UNL     1     113.219 116.069 126.550  1.00  0.00     0.008 C 
ATOM     14  C   UNL     1     113.210 116.971 127.809  1.00  0.00    -0.024 C 
ATOM     15  C   UNL     1     113.658 119.542 127.754  1.00  0.00     0.008 C 
ATOM     16  C   UNL     1     111.284 118.788 127.813  1.00  0.00     0.012 C 
ATOM     17  C   UNL     1     112.236 116.325 128.844  1.00  0.00     0.012 C 
ATOM     18  C   UNL     1     114.662 117.025 128.462  1.00  0.00     0.002 C 
ATOM     19  C   UNL     1     115.116 119.359 127.341  1.00  0.00     0.008 C 
ATOM     20  C   UNL     1     115.615 117.936 127.644  1.00  0.00    -0.020 C 
ATOM     21  C   UNL     1     115.279 115.631 128.748  1.00  0.00     0.005 C 
ATOM     22  C   UNL     1     117.132 117.835 127.903  1.00  0.00    -0.020 C 
ATOM     23  C   UNL     1     116.529 117.255 126.616  1.00  0.00     0.015 C 
ATOM     24  C   UNL     1     116.639 115.713 129.446  1.00  0.00     0.005 C 
ATOM     25  C   UNL     1     117.642 116.828 128.984  1.00  0.00     0.004 C 
ATOM     26  C   UNL     1     118.129 118.949 127.499  1.00  0.00     0.010 C 
ATOM     27  C   UNL     1     118.281 117.605 130.208  1.00  0.00    -0.006 C 
ATOM     28  C   UNL     1     118.695 119.661 128.718  1.00  0.00     0.033 C 
ATOM     29  C   UNL     1     119.323 118.654 129.687  1.00  0.00     0.120 C 
ATOM     30  C   UNL     1     119.047 116.616 131.125  1.00  0.00     0.014 C 
ATOM     31  C   UNL     1     117.187 118.324 131.053  1.00  0.00     0.014 C 
BRANCH  29  32
ATOM     32  O   UNL     1     119.899 119.372 130.756  1.00  0.00    -0.393 OA
ATOM     33  H   UNL     1     119.230 119.413 131.487  1.00  0.00     0.210 HD
ENDBRANCH  29  32
ENDBRANCH   8  10
ENDBRANCH   1   8
TORSDOF 6
ENDMDL
MODEL 7
REMARK VINA RESULT:    -7.093      2.493      4.295
REMARK INTER + INTRA:         -11.109
REMARK INTER:                  -9.258
REMARK INTRA:                  -1.852
REMARK UNBOUND:                -1.736
REMARK SMILES C=C(CC[C@@H](C)[C@@H]1CC[C@@]2(C)[C@H]3CC[C@@H]4C(C)(C)[C@H](O)CC[C@@]45C[C@@]35CC[C@@]12C)C(C)C
REMARK SMILES IDX 4 1 3 2 2 3 1 4 30 5 31 6 32 7 5 8 6 9 7 10 8 11 28 12 9 13
REMARK SMILES IDX 10 14 27 15 29 16 11 17 12 18 26 19 25 20 13 21 23 22 24 23
REMARK SMILES IDX 14 24 15 25 22 26 16 27 21 28 19 29 17 30 18 31 20 32
REMARK H PARENT 20 33
REMARK Flexibility Score: inf
ROOT
ATOM      1  C   UNL     1     115.459 115.634 123.207  1.00  0.00     0.008 C 
ENDROOT
BRANCH   1   2
ATOM      2  C   UNL     1     114.791 115.834 124.587  1.00  0.00     0.031 C 
BRANCH   2   3
ATOM      3  C   UNL     1     113.345 116.302 124.513  1.00  0.00    -0.075 C 
ATOM      4  C   UNL     1     112.396 115.626 125.185  1.00  0.00     0.008 C 
BRANCH   3   5
ATOM      5  C   UNL     1     112.931 117.491 123.646  1.00  0.00     0.008 C 
ATOM      6  C   UNL     1     112.480 118.698 124.481  1.00  0.00     0.012 C 
ATOM      7  C   UNL     1     111.852 117.093 122.633  1.00  0.00     0.012 C 
ENDBRANCH   3   5
ENDBRANCH   2   3
ENDBRANCH   1   2
BRANCH   1   8
ATOM      8  C   UNL     1     116.971 115.974 123.084  1.00  0.00    -0.010 C 
ATOM      9  C   UNL     1     117.541 115.372 121.775  1.00  0.00     0.008 C 
BRANCH   8  10
ATOM     10  C   UNL     1     117.225 117.538 123.109  1.00  0.00    -0.002 C 
ATOM     11  C   UNL     1     118.012 117.998 121.882  1.00  0.00     0.005 C 
ATOM     12  C   UNL     1     118.010 118.202 124.310  1.00  0.00    -0.024 C 
ATOM     13  C   UNL     1     118.373 119.433 122.160  1.00  0.00     0.008 C 
ATOM     14  C   UNL     1     118.660 119.539 123.679  1.00  0.00    -0.024 C 
ATOM     15  C   UNL     1     117.092 118.561 125.522  1.00  0.00     0.008 C 
ATOM     16  C   UNL     1     119.074 117.204 124.857  1.00  0.00     0.012 C 
ATOM     17  C   UNL     1     120.209 119.603 123.861  1.00  0.00     0.012 C 
ATOM     18  C   UNL     1     118.036 120.881 124.268  1.00  0.00     0.002 C 
ATOM     19  C   UNL     1     115.973 119.549 125.205  1.00  0.00     0.008 C 
ATOM     20  C   UNL     1     116.496 120.766 124.425  1.00  0.00    -0.020 C 
ATOM     21  C   UNL     1     118.457 122.163 123.504  1.00  0.00     0.005 C 
ATOM     22  C   UNL     1     115.680 122.057 124.634  1.00  0.00    -0.020 C 
ATOM     23  C   UNL     1     115.630 121.323 123.287  1.00  0.00     0.015 C 
ATOM     24  C   UNL     1     117.907 123.443 124.138  1.00  0.00     0.005 C 
ATOM     25  C   UNL     1     116.438 123.422 124.690  1.00  0.00     0.004 C 
ATOM     26  C   UNL     1     114.248 122.059 125.226  1.00  0.00     0.010 C 
ATOM     27  C   UNL     1     116.333 124.056 126.140  1.00  0.00    -0.006 C 
ATOM     28  C   UNL     1     114.220 122.667 126.619  1.00  0.00     0.033 C 
ATOM     29  C   UNL     1     114.837 124.070 126.607  1.00  0.00     0.120 C 
ATOM     30  C   UNL     1     116.819 125.528 126.113  1.00  0.00     0.014 C 
ATOM     31  C   UNL     1     117.197 123.263 127.166  1.00  0.00     0.014 C 
BRANCH  29  32
ATOM     32  O   UNL     1     114.713 124.617 127.901  1.00  0.00    -0.393 OA
ATOM     33  H   UNL     1     114.814 123.876 128.552  1.00  0.00     0.210 HD
ENDBRANCH  29  32
ENDBRANCH   8  10
ENDBRANCH   1   8
TORSDOF 6
ENDMDL
MODEL 8
REMARK VINA RESULT:    -7.029      2.529      4.805
REMARK INTER + INTRA:         -11.025
REMARK INTER:                  -8.882
REMARK INTRA:                  -2.143
REMARK UNBOUND:                -1.736
REMARK SMILES C=C(CC[C@@H](C)[C@@H]1CC[C@@]2(C)[C@H]3CC[C@@H]4C(C)(C)[C@H](O)CC[C@@]45C[C@@]35CC[C@@]12C)C(C)C
REMARK SMILES IDX 4 1 3 2 2 3 1 4 30 5 31 6 32 7 5 8 6 9 7 10 8 11 28 12 9 13
REMARK SMILES IDX 10 14 27 15 29 16 11 17 12 18 26 19 25 20 13 21 23 22 24 23
REMARK SMILES IDX 14 24 15 25 22 26 16 27 21 28 19 29 17 30 18 31 20 32
REMARK H PARENT 20 33
REMARK Flexibility Score: inf
ROOT
ATOM      1  C   UNL     1     112.182 116.178 128.683  1.00  0.00     0.008 C 
ENDROOT
BRANCH   1   2
ATOM      2  C   UNL     1     111.621 117.251 127.721  1.00  0.00     0.031 C 
BRANCH   2   3
ATOM      3  C   UNL     1     112.055 117.073 126.273  1.00  0.00    -0.075 C 
ATOM      4  C   UNL     1     112.462 115.862 125.850  1.00  0.00     0.008 C 
BRANCH   3   5
ATOM      5  C   UNL     1     112.095 118.248 125.298  1.00  0.00     0.008 C 
ATOM      6  C   UNL     1     110.964 119.256 125.546  1.00  0.00     0.012 C 
ATOM      7  C   UNL     1     112.089 117.766 123.843  1.00  0.00     0.012 C 
ENDBRANCH   3   5
ENDBRANCH   2   3
ENDBRANCH   1   2
BRANCH   1   8
ATOM      8  C   UNL     1     113.490 116.515 129.451  1.00  0.00    -0.010 C 
ATOM      9  C   UNL     1     113.917 115.306 130.320  1.00  0.00     0.008 C 
BRANCH   8  10
ATOM     10  C   UNL     1     114.667 116.907 128.465  1.00  0.00    -0.002 C 
ATOM     11  C   UNL     1     115.615 115.732 128.227  1.00  0.00     0.005 C 
ATOM     12  C   UNL     1     115.648 118.094 128.822  1.00  0.00    -0.024 C 
ATOM     13  C   UNL     1     116.784 116.313 127.477  1.00  0.00     0.008 C 
ATOM     14  C   UNL     1     117.016 117.738 128.040  1.00  0.00    -0.024 C 
ATOM     15  C   UNL     1     115.113 119.492 128.375  1.00  0.00     0.008 C 
ATOM     16  C   UNL     1     115.831 118.178 130.367  1.00  0.00     0.012 C 
ATOM     17  C   UNL     1     118.255 117.674 128.987  1.00  0.00     0.012 C 
ATOM     18  C   UNL     1     117.348 118.752 126.857  1.00  0.00     0.002 C 
ATOM     19  C   UNL     1     114.871 119.634 126.874  1.00  0.00     0.008 C 
ATOM     20  C   UNL     1     116.071 119.124 126.058  1.00  0.00    -0.020 C 
ATOM     21  C   UNL     1     118.508 118.293 125.937  1.00  0.00     0.005 C 
ATOM     22  C   UNL     1     116.236 119.796 124.680  1.00  0.00    -0.020 C 
ATOM     23  C   UNL     1     115.789 118.331 124.775  1.00  0.00     0.015 C 
ATOM     24  C   UNL     1     118.857 119.322 124.859  1.00  0.00     0.005 C 
ATOM     25  C   UNL     1     117.679 120.083 124.154  1.00  0.00     0.004 C 
ATOM     26  C   UNL     1     115.100 120.595 123.994  1.00  0.00     0.010 C 
ATOM     27  C   UNL     1     117.939 121.645 124.070  1.00  0.00    -0.006 C 
ATOM     28  C   UNL     1     115.406 122.084 123.958  1.00  0.00     0.033 C 
ATOM     29  C   UNL     1     116.765 122.338 123.297  1.00  0.00     0.120 C 
ATOM     30  C   UNL     1     119.241 121.925 123.275  1.00  0.00     0.014 C 
ATOM     31  C   UNL     1     118.076 122.271 125.490  1.00  0.00     0.014 C 
BRANCH  29  32
ATOM     32  O   UNL     1     116.963 123.733 123.218  1.00  0.00    -0.393 OA
ATOM     33  H   UNL     1     117.484 124.009 124.017  1.00  0.00     0.210 HD
ENDBRANCH  29  32
ENDBRANCH   8  10
ENDBRANCH   1   8
TORSDOF 6
ENDMDL
MODEL 9
REMARK VINA RESULT:    -7.026      4.623      7.011
REMARK INTER + INTRA:         -11.021
REMARK INTER:                  -8.991
REMARK INTRA:                  -2.030
REMARK UNBOUND:                -1.736
REMARK SMILES C=C(CC[C@@H](C)[C@@H]1CC[C@@]2(C)[C@H]3CC[C@@H]4C(C)(C)[C@H](O)CC[C@@]45C[C@@]35CC[C@@]12C)C(C)C
REMARK SMILES IDX 4 1 3 2 2 3 1 4 30 5 31 6 32 7 5 8 6 9 7 10 8 11 28 12 9 13
REMARK SMILES IDX 10 14 27 15 29 16 11 17 12 18 26 19 25 20 13 21 23 22 24 23
REMARK SMILES IDX 14 24 15 25 22 26 16 27 21 28 19 29 17 30 18 31 20 32
REMARK H PARENT 20 33
REMARK Flexibility Score: inf
ROOT
ATOM      1  C   UNL     1     111.247 116.747 128.507  1.00  0.00     0.008 C 
ENDROOT
BRANCH   1   2
ATOM      2  C   UNL     1     112.582 116.074 128.903  1.00  0.00     0.031 C 
BRANCH   2   3
ATOM      3  C   UNL     1     113.173 116.591 130.207  1.00  0.00    -0.075 C 
ATOM      4  C   UNL     1     112.362 117.146 131.125  1.00  0.00     0.008 C 
BRANCH   3   5
ATOM      5  C   UNL     1     114.676 116.547 130.478  1.00  0.00     0.008 C 
ATOM      6  C   UNL     1     115.463 117.513 129.581  1.00  0.00     0.012 C 
ATOM      7  C   UNL     1     115.222 115.120 130.357  1.00  0.00     0.012 C 
ENDBRANCH   3   5
ENDBRANCH   2   3
ENDBRANCH   1   2
BRANCH   1   8
ATOM      8  C   UNL     1     111.303 117.899 127.466  1.00  0.00    -0.010 C 
ATOM      9  C   UNL     1     110.916 119.238 128.141  1.00  0.00     0.008 C 
BRANCH   8  10
ATOM     10  C   UNL     1     112.739 118.027 126.809  1.00  0.00    -0.002 C 
ATOM     11  C   UNL     1     113.440 119.315 127.238  1.00  0.00     0.005 C 
ATOM     12  C   UNL     1     112.902 118.036 125.236  1.00  0.00    -0.024 C 
ATOM     13  C   UNL     1     114.665 119.408 126.367  1.00  0.00     0.008 C 
ATOM     14  C   UNL     1     114.270 118.855 124.975  1.00  0.00    -0.024 C 
ATOM     15  C   UNL     1     112.996 116.605 124.618  1.00  0.00     0.008 C 
ATOM     16  C   UNL     1     111.655 118.705 124.583  1.00  0.00     0.012 C 
ATOM     17  C   UNL     1     114.072 120.076 124.022  1.00  0.00     0.012 C 
ATOM     18  C   UNL     1     115.442 117.951 124.386  1.00  0.00     0.002 C 
ATOM     19  C   UNL     1     114.171 115.769 125.118  1.00  0.00     0.008 C 
ATOM     20  C   UNL     1     115.487 116.564 125.080  1.00  0.00    -0.020 C 
ATOM     21  C   UNL     1     116.827 118.647 124.365  1.00  0.00     0.005 C 
ATOM     22  C   UNL     1     116.750 115.696 124.908  1.00  0.00    -0.020 C 
ATOM     23  C   UNL     1     116.470 116.393 126.246  1.00  0.00     0.015 C 
ATOM     24  C   UNL     1     117.917 117.785 123.723  1.00  0.00     0.005 C 
ATOM     25  C   UNL     1     117.924 116.247 124.034  1.00  0.00     0.004 C 
ATOM     26  C   UNL     1     116.762 114.168 125.161  1.00  0.00     0.010 C 
ATOM     27  C   UNL     1     118.099 115.370 122.725  1.00  0.00    -0.006 C 
ATOM     28  C   UNL     1     116.920 113.388 123.866  1.00  0.00     0.033 C 
ATOM     29  C   UNL     1     118.169 113.852 123.107  1.00  0.00     0.120 C 
ATOM     30  C   UNL     1     119.435 115.727 122.022  1.00  0.00     0.014 C 
ATOM     31  C   UNL     1     116.929 115.608 121.725  1.00  0.00     0.014 C 
BRANCH  29  32
ATOM     32  O   UNL     1     118.312 113.045 121.959  1.00  0.00    -0.393 OA
ATOM     33  H   UNL     1     117.902 112.163 122.158  1.00  0.00     0.210 HD
ENDBRANCH  29  32
ENDBRANCH   8  10
ENDBRANCH   1   8
TORSDOF 6
ENDMDL
