MODEL 1
REMARK VINA RESULT:    11.335      0.000      0.000
REMARK INTER + INTRA:          13.493
REMARK INTER:                  12.660
REMARK INTRA:                   0.833
REMARK UNBOUND:                 0.833
REMARK SMILES CC1(C)CC[C@]2(C(=O)[O-])[C@H](O)C[C@@]3(C)C(=CC[C@H]4[C@]5(C)CC[C@@H](O)C(C)(C)[C@H]5CC[C@]43C)[C@@H]2C1
REMARK SMILES IDX 6 1 5 2 33 3 10 4 4 5 34 6 15 7 12 8 2 9 16 10 13 11 1 12
REMARK SMILES IDX 3 13 17 14 31 15 14 16 18 17 30 18 32 19 19 20 29 21 21 22
REMARK SMILES IDX 20 23 28 24 22 25 25 26 23 27 26 28 27 29 7 30 8 31 9 32
REMARK SMILES IDX 11 33 24 35
REMARK H PARENT 11 34 24 36
REMARK Flexibility Score: inf
ROOT
ATOM      1  C   UNL     1      19.257   2.285  47.920  1.00  0.00     0.042 C 
ATOM      2  C   UNL     1      18.803   3.681  48.497  1.00  0.00     0.017 C 
ATOM      3  C   UNL     1      20.115   1.357  48.915  1.00  0.00     0.030 C 
ATOM      4  C   UNL     1      17.990   1.495  47.460  1.00  0.00     0.127 C 
ATOM      5  C   UNL     1      18.604   3.761  50.003  1.00  0.00     0.007 C 
ATOM      6  C   UNL     1      19.950   1.733  50.427  1.00  0.00     0.015 C 
ATOM      7  C   UNL     1      19.812  -0.168  48.708  1.00  0.00    -0.063 C 
ATOM      8  C   UNL     1      18.329   0.179  46.697  1.00  0.00     0.044 C 
ATOM      9  C   UNL     1      19.822   3.223  50.764  1.00  0.00    -0.035 C 
ATOM     10  C   UNL     1      19.764  -1.016  49.757  1.00  0.00    -0.027 C 
ATOM     11  C   UNL     1      19.470  -0.716  47.311  1.00  0.00    -0.003 C 
ATOM     12  C   UNL     1      19.562   3.376  52.280  1.00  0.00     0.011 C 
ATOM     13  C   UNL     1      21.125   3.989  50.423  1.00  0.00     0.011 C 
ATOM     14  C   UNL     1      18.608  -1.952  49.891  1.00  0.00     0.032 C 
ATOM     15  C   UNL     1      19.123  -2.319  47.326  1.00  0.00    -0.020 C 
ATOM     16  C   UNL     1      20.751  -0.505  46.430  1.00  0.00     0.017 C 
ATOM     17  C   UNL     1      18.316  -2.804  48.632  1.00  0.00     0.006 C 
ATOM     18  C   UNL     1      18.452  -2.775  45.963  1.00  0.00     0.008 C 
ATOM     19  C   UNL     1      20.479  -3.131  47.386  1.00  0.00     0.012 C 
ATOM     20  C   UNL     1      16.785  -3.231  48.504  1.00  0.00    -0.025 C 
ATOM     21  C   UNL     1      16.959  -3.118  45.986  1.00  0.00     0.005 C 
ATOM     22  C   UNL     1      16.431  -4.174  49.697  1.00  0.00     0.010 C 
ATOM     23  C   UNL     1      15.850  -1.986  48.581  1.00  0.00     0.012 C 
ATOM     24  C   UNL     1      16.624  -4.041  47.171  1.00  0.00     0.003 C 
ATOM     25  C   UNL     1      15.049  -4.810  49.551  1.00  0.00     0.033 C 
ATOM     26  C   UNL     1      15.302  -4.912  46.989  1.00  0.00    -0.006 C 
ATOM     27  C   UNL     1      14.997  -5.700  48.307  1.00  0.00     0.120 C 
ATOM     28  C   UNL     1      15.554  -5.973  45.878  1.00  0.00     0.014 C 
ATOM     29  C   UNL     1      14.055  -4.090  46.554  1.00  0.00     0.014 C 
ENDROOT
BRANCH   1  30
ATOM     30  C   UNL     1      20.075   2.689  46.694  1.00  0.00     0.051 C 
ATOM     31  O   UNL     1      21.090   2.021  46.355  1.00  0.00    -0.549 OA
ATOM     32  O   UNL     1      19.809   3.877  46.020  1.00  0.00    -0.549 OA
ENDBRANCH   1  30
BRANCH   4  33
ATOM     33  O   UNL     1      17.194   1.207  48.584  1.00  0.00    -0.392 OA
ATOM     34  H   UNL     1      17.594   0.417  49.038  1.00  0.00     0.210 HD
ENDBRANCH   4  33
BRANCH  27  35
ATOM     35  O   UNL     1      13.730  -6.310  48.248  1.00  0.00    -0.393 OA
ATOM     36  H   UNL     1      13.871  -7.286  48.142  1.00  0.00     0.210 HD
ENDBRANCH  27  35
TORSDOF 3
ENDMDL
MODEL 2
REMARK VINA RESULT:    13.154      0.734      0.862
REMARK INTER + INTRA:          15.526
REMARK INTER:                  15.606
REMARK INTRA:                  -0.081
REMARK UNBOUND:                 0.833
REMARK SMILES CC1(C)CC[C@]2(C(=O)[O-])[C@H](O)C[C@@]3(C)C(=CC[C@H]4[C@]5(C)CC[C@@H](O)C(C)(C)[C@H]5CC[C@]43C)[C@@H]2C1
REMARK SMILES IDX 6 1 5 2 33 3 10 4 4 5 34 6 15 7 12 8 2 9 16 10 13 11 1 12
REMARK SMILES IDX 3 13 17 14 31 15 14 16 18 17 30 18 32 19 19 20 29 21 21 22
REMARK SMILES IDX 20 23 28 24 22 25 25 26 23 27 26 28 27 29 7 30 8 31 9 32
REMARK SMILES IDX 11 33 24 35
REMARK H PARENT 11 34 24 36
REMARK Flexibility Score: inf
ROOT
ATOM      1  C   UNL     1      19.039   2.799  48.521  1.00  0.00     0.042 C 
ATOM      2  C   UNL     1      18.557   4.087  49.293  1.00  0.00     0.017 C 
ATOM      3  C   UNL     1      20.088   1.861  49.301  1.00  0.00     0.030 C 
ATOM      4  C   UNL     1      17.788   1.944  48.138  1.00  0.00     0.127 C 
ATOM      5  C   UNL     1      18.551   4.006  50.812  1.00  0.00     0.007 C 
ATOM      6  C   UNL     1      20.094   2.076  50.852  1.00  0.00     0.015 C 
ATOM      7  C   UNL     1      19.880   0.342  48.972  1.00  0.00    -0.063 C 
ATOM      8  C   UNL     1      18.125   0.743  47.206  1.00  0.00     0.044 C 
ATOM      9  C   UNL     1      19.896   3.510  51.358  1.00  0.00    -0.035 C 
ATOM     10  C   UNL     1      20.035  -0.602  49.924  1.00  0.00    -0.027 C 
ATOM     11  C   UNL     1      19.403  -0.099  47.577  1.00  0.00    -0.003 C 
ATOM     12  C   UNL     1      19.824   3.494  52.902  1.00  0.00     0.011 C 
ATOM     13  C   UNL     1      21.080   4.420  50.943  1.00  0.00     0.011 C 
ATOM     14  C   UNL     1      18.983  -1.648  50.099  1.00  0.00     0.032 C 
ATOM     15  C   UNL     1      19.185  -1.721  47.466  1.00  0.00    -0.020 C 
ATOM     16  C   UNL     1      20.537   0.309  46.574  1.00  0.00     0.017 C 
ATOM     17  C   UNL     1      18.596  -2.399  48.803  1.00  0.00     0.006 C 
ATOM     18  C   UNL     1      18.380  -2.105  46.155  1.00  0.00     0.008 C 
ATOM     19  C   UNL     1      20.597  -2.410  47.274  1.00  0.00     0.012 C 
ATOM     20  C   UNL     1      17.100  -2.948  48.818  1.00  0.00    -0.025 C 
ATOM     21  C   UNL     1      16.934  -2.583  46.323  1.00  0.00     0.005 C 
ATOM     22  C   UNL     1      16.978  -4.028  49.939  1.00  0.00     0.010 C 
ATOM     23  C   UNL     1      16.089  -1.806  49.139  1.00  0.00     0.012 C 
ATOM     24  C   UNL     1      16.829  -3.640  47.437  1.00  0.00     0.003 C 
ATOM     25  C   UNL     1      15.643  -4.770  49.897  1.00  0.00     0.033 C 
ATOM     26  C   UNL     1      15.566  -4.606  47.326  1.00  0.00    -0.006 C 
ATOM     27  C   UNL     1      15.498  -5.539  48.581  1.00  0.00     0.120 C 
ATOM     28  C   UNL     1      15.753  -5.529  46.087  1.00  0.00     0.014 C 
ATOM     29  C   UNL     1      14.214  -3.862  47.135  1.00  0.00     0.014 C 
ENDROOT
BRANCH   1  30
ATOM     30  C   UNL     1      19.656   3.389  47.253  1.00  0.00     0.051 C 
ATOM     31  O   UNL     1      18.929   3.684  46.266  1.00  0.00    -0.549 OA
ATOM     32  O   UNL     1      21.038   3.472  47.107  1.00  0.00    -0.549 OA
ENDBRANCH   1  30
BRANCH   4  33
ATOM     33  O   UNL     1      17.170   1.481  49.314  1.00  0.00    -0.392 OA
ATOM     34  H   UNL     1      17.061   2.262  49.922  1.00  0.00     0.210 HD
ENDBRANCH   4  33
BRANCH  27  35
ATOM     35  O   UNL     1      14.285  -6.253  48.614  1.00  0.00    -0.393 OA
ATOM     36  H   UNL     1      14.255  -6.755  49.469  1.00  0.00     0.210 HD
ENDBRANCH  27  35
TORSDOF 3
ENDMDL
