MODEL 1
REMARK VINA RESULT:    -1.013      0.000      0.000
REMARK INTER + INTRA:          -9.139
REMARK INTER:                  -2.641
REMARK INTRA:                  -6.498
REMARK UNBOUND:                -6.498
REMARK SMILES CCCCCCCCCCCCCCCCCCCCCCCCCCCCCO
REMARK SMILES IDX 16 1 15 2 14 3 13 4 12 5 11 6 10 7 9 8 8 9 7 10 6 11 5 12
REMARK SMILES IDX 4 13 3 14 2 15 1 16 17 17 18 18 19 19 20 20 21 21 22 22
REMARK SMILES IDX 23 23 24 24 25 25 26 26 27 27 28 28 29 29 30 30
REMARK H PARENT 30 31
REMARK Flexibility Score: inf
ROOT
ATOM      1  C   UNL     1     123.597 120.850 122.732  1.00  0.00     0.000 C 
ENDROOT
BRANCH   1   2
ATOM      2  C   UNL     1     122.811 122.174 122.612  1.00  0.00     0.000 C 
BRANCH   2   3
ATOM      3  C   UNL     1     123.263 123.208 123.659  1.00  0.00     0.000 C 
BRANCH   3   4
ATOM      4  C   UNL     1     123.663 124.552 123.031  1.00  0.00     0.000 C 
BRANCH   4   5
ATOM      5  C   UNL     1     124.081 124.413 121.558  1.00  0.00     0.000 C 
BRANCH   5   6
ATOM      6  C   UNL     1     125.350 125.216 121.222  1.00  0.00     0.000 C 
BRANCH   6   7
ATOM      7  C   UNL     1     126.640 124.391 121.383  1.00  0.00     0.000 C 
BRANCH   7   8
ATOM      8  C   UNL     1     126.426 122.901 121.058  1.00  0.00    -0.000 C 
BRANCH   8   9
ATOM      9  C   UNL     1     127.114 121.974 122.072  1.00  0.00    -0.000 C 
BRANCH   9  10
ATOM     10  C   UNL     1     126.984 122.529 123.499  1.00  0.00    -0.000 C 
BRANCH  10  11
ATOM     11  C   UNL     1     126.837 121.421 124.558  1.00  0.00    -0.000 C 
BRANCH  11  12
ATOM     12  C   UNL     1     125.845 121.738 125.694  1.00  0.00    -0.000 C 
BRANCH  12  13
ATOM     13  C   UNL     1     125.038 120.530 126.203  1.00  0.00    -0.000 C 
BRANCH  13  14
ATOM     14  C   UNL     1     123.640 120.919 126.712  1.00  0.00    -0.000 C 
BRANCH  14  15
ATOM     15  C   UNL     1     122.526 120.089 126.051  1.00  0.00    -0.003 C 
ATOM     16  C   UNL     1     122.920 118.623 125.862  1.00  0.00     0.004 C 
ENDBRANCH  14  15
ENDBRANCH  13  14
ENDBRANCH  12  13
ENDBRANCH  11  12
ENDBRANCH  10  11
ENDBRANCH   9  10
ENDBRANCH   8   9
ENDBRANCH   7   8
ENDBRANCH   6   7
ENDBRANCH   5   6
ENDBRANCH   4   5
ENDBRANCH   3   4
ENDBRANCH   2   3
ENDBRANCH   1   2
BRANCH   1  17
ATOM     17  C   UNL     1     123.843 120.148 121.387  1.00  0.00     0.000 C 
BRANCH  17  18
ATOM     18  C   UNL     1     124.939 119.073 121.462  1.00  0.00     0.000 C 
BRANCH  18  19
ATOM     19  C   UNL     1     125.270 118.663 122.910  1.00  0.00     0.000 C 
BRANCH  19  20
ATOM     20  C   UNL     1     125.200 117.148 123.193  1.00  0.00     0.000 C 
BRANCH  20  21
ATOM     21  C   UNL     1     125.954 116.251 122.191  1.00  0.00     0.000 C 
BRANCH  21  22
ATOM     22  C   UNL     1     125.059 115.307 121.370  1.00  0.00     0.000 C 
BRANCH  22  23
ATOM     23  C   UNL     1     124.934 115.743 119.899  1.00  0.00     0.000 C 
BRANCH  23  24
ATOM     24  C   UNL     1     123.504 116.191 119.531  1.00  0.00     0.000 C 
BRANCH  24  25
ATOM     25  C   UNL     1     122.472 116.003 120.663  1.00  0.00     0.000 C 
BRANCH  25  26
ATOM     26  C   UNL     1     121.650 117.251 121.020  1.00  0.00     0.000 C 
BRANCH  26  27
ATOM     27  C   UNL     1     121.516 117.463 122.539  1.00  0.00     0.002 C 
BRANCH  27  28
ATOM     28  C   UNL     1     121.704 116.161 123.335  1.00  0.00     0.028 C 
BRANCH  28  29
ATOM     29  C   UNL     1     120.522 115.850 124.256  1.00  0.00     0.156 C 
BRANCH  29  30
ATOM     30  O   UNL     1     121.003 115.397 125.490  1.00  0.00    -0.396 OA
ATOM     31  H   UNL     1     120.203 115.223 126.055  1.00  0.00     0.210 HD
ENDBRANCH  29  30
ENDBRANCH  28  29
ENDBRANCH  27  28
ENDBRANCH  26  27
ENDBRANCH  25  26
ENDBRANCH  24  25
ENDBRANCH  23  24
ENDBRANCH  22  23
ENDBRANCH  21  22
ENDBRANCH  20  21
ENDBRANCH  19  20
ENDBRANCH  18  19
ENDBRANCH  17  18
ENDBRANCH   1  17
TORSDOF 28
ENDMDL
MODEL 2
REMARK VINA RESULT:    -0.892      2.655      6.950
REMARK INTER + INTRA:          -8.824
REMARK INTER:                  -2.141
REMARK INTRA:                  -6.682
REMARK UNBOUND:                -6.498
REMARK SMILES CCCCCCCCCCCCCCCCCCCCCCCCCCCCCO
REMARK SMILES IDX 16 1 15 2 14 3 13 4 12 5 11 6 10 7 9 8 8 9 7 10 6 11 5 12
REMARK SMILES IDX 4 13 3 14 2 15 1 16 17 17 18 18 19 19 20 20 21 21 22 22
REMARK SMILES IDX 23 23 24 24 25 25 26 26 27 27 28 28 29 29 30 30
REMARK H PARENT 30 31
REMARK Flexibility Score: inf
ROOT
ATOM      1  C   UNL     1     124.437 119.194 121.700  1.00  0.00     0.000 C 
ENDROOT
BRANCH   1   2
ATOM      2  C   UNL     1     124.501 117.854 120.936  1.00  0.00     0.000 C 
BRANCH   2   3
ATOM      3  C   UNL     1     125.150 116.741 121.779  1.00  0.00     0.000 C 
BRANCH   3   4
ATOM      4  C   UNL     1     125.645 117.242 123.144  1.00  0.00     0.000 C 
BRANCH   4   5
ATOM      5  C   UNL     1     125.225 116.318 124.299  1.00  0.00     0.000 C 
BRANCH   5   6
ATOM      6  C   UNL     1     123.792 116.593 124.789  1.00  0.00     0.000 C 
BRANCH   6   7
ATOM      7  C   UNL     1     122.803 115.478 124.399  1.00  0.00     0.000 C 
BRANCH   7   8
ATOM      8  C   UNL     1     121.764 115.953 123.368  1.00  0.00    -0.000 C 
BRANCH   8   9
ATOM      9  C   UNL     1     121.615 117.482 123.345  1.00  0.00    -0.000 C 
BRANCH   9  10
ATOM     10  C   UNL     1     120.936 117.948 122.046  1.00  0.00    -0.000 C 
BRANCH  10  11
ATOM     11  C   UNL     1     120.232 119.308 122.197  1.00  0.00    -0.000 C 
BRANCH  11  12
ATOM     12  C   UNL     1     120.720 120.401 121.226  1.00  0.00    -0.000 C 
BRANCH  12  13
ATOM     13  C   UNL     1     120.275 121.830 121.585  1.00  0.00    -0.000 C 
BRANCH  13  14
ATOM     14  C   UNL     1     119.092 121.857 122.567  1.00  0.00    -0.000 C 
BRANCH  14  15
ATOM     15  C   UNL     1     119.433 122.599 123.871  1.00  0.00    -0.003 C 
ATOM     16  C   UNL     1     119.515 124.114 123.680  1.00  0.00     0.004 C 
ENDBRANCH  14  15
ENDBRANCH  13  14
ENDBRANCH  12  13
ENDBRANCH  11  12
ENDBRANCH  10  11
ENDBRANCH   9  10
ENDBRANCH   8   9
ENDBRANCH   7   8
ENDBRANCH   6   7
ENDBRANCH   5   6
ENDBRANCH   4   5
ENDBRANCH   3   4
ENDBRANCH   2   3
ENDBRANCH   1   2
BRANCH   1  17
ATOM     17  C   UNL     1     124.330 120.427 120.788  1.00  0.00     0.000 C 
BRANCH  17  18
ATOM     18  C   UNL     1     125.239 121.584 121.233  1.00  0.00     0.000 C 
BRANCH  18  19
ATOM     19  C   UNL     1     126.411 121.113 122.115  1.00  0.00     0.000 C 
BRANCH  19  20
ATOM     20  C   UNL     1     126.931 122.157 123.124  1.00  0.00     0.000 C 
BRANCH  20  21
ATOM     21  C   UNL     1     126.862 121.738 124.606  1.00  0.00     0.000 C 
BRANCH  21  22
ATOM     22  C   UNL     1     126.841 120.218 124.847  1.00  0.00     0.000 C 
BRANCH  22  23
ATOM     23  C   UNL     1     125.854 119.810 125.955  1.00  0.00     0.000 C 
BRANCH  23  24
ATOM     24  C   UNL     1     124.587 120.690 125.976  1.00  0.00     0.000 C 
BRANCH  24  25
ATOM     25  C   UNL     1     123.464 120.203 125.036  1.00  0.00     0.000 C 
BRANCH  25  26
ATOM     26  C   UNL     1     122.827 121.286 124.151  1.00  0.00     0.000 C 
BRANCH  26  27
ATOM     27  C   UNL     1     123.293 122.706 124.518  1.00  0.00     0.002 C 
BRANCH  27  28
ATOM     28  C   UNL     1     123.187 123.684 123.337  1.00  0.00     0.028 C 
BRANCH  28  29
ATOM     29  C   UNL     1     124.299 124.737 123.333  1.00  0.00     0.156 C 
BRANCH  29  30
ATOM     30  O   UNL     1     123.982 125.748 124.249  1.00  0.00    -0.396 OA
ATOM     31  H   UNL     1     124.784 126.331 124.310  1.00  0.00     0.210 HD
ENDBRANCH  29  30
ENDBRANCH  28  29
ENDBRANCH  27  28
ENDBRANCH  26  27
ENDBRANCH  25  26
ENDBRANCH  24  25
ENDBRANCH  23  24
ENDBRANCH  22  23
ENDBRANCH  21  22
ENDBRANCH  20  21
ENDBRANCH  19  20
ENDBRANCH  18  19
ENDBRANCH  17  18
ENDBRANCH   1  17
TORSDOF 28
ENDMDL
MODEL 3
REMARK VINA RESULT:    -0.862      2.492      5.176
REMARK INTER + INTRA:          -8.746
REMARK INTER:                  -2.190
REMARK INTRA:                  -6.556
REMARK UNBOUND:                -6.498
REMARK SMILES CCCCCCCCCCCCCCCCCCCCCCCCCCCCCO
REMARK SMILES IDX 16 1 15 2 14 3 13 4 12 5 11 6 10 7 9 8 8 9 7 10 6 11 5 12
REMARK SMILES IDX 4 13 3 14 2 15 1 16 17 17 18 18 19 19 20 20 21 21 22 22
REMARK SMILES IDX 23 23 24 24 25 25 26 26 27 27 28 28 29 29 30 30
REMARK H PARENT 30 31
REMARK Flexibility Score: inf
ROOT
ATOM      1  C   UNL     1     121.166 115.101 122.115  1.00  0.00     0.000 C 
ENDROOT
BRANCH   1   2
ATOM      2  C   UNL     1     120.969 114.921 120.594  1.00  0.00     0.000 C 
BRANCH   2   3
ATOM      3  C   UNL     1     121.269 116.215 119.817  1.00  0.00     0.000 C 
BRANCH   3   4
ATOM      4  C   UNL     1     120.906 117.480 120.610  1.00  0.00     0.000 C 
BRANCH   4   5
ATOM      5  C   UNL     1     121.714 118.709 120.160  1.00  0.00     0.000 C 
BRANCH   5   6
ATOM      6  C   UNL     1     123.231 118.519 120.335  1.00  0.00     0.000 C 
BRANCH   6   7
ATOM      7  C   UNL     1     123.965 119.835 120.653  1.00  0.00     0.000 C 
BRANCH   7   8
ATOM      8  C   UNL     1     125.275 119.601 121.427  1.00  0.00    -0.000 C 
BRANCH   8   9
ATOM      9  C   UNL     1     125.770 120.867 122.141  1.00  0.00    -0.000 C 
BRANCH   9  10
ATOM     10  C   UNL     1     125.881 120.635 123.657  1.00  0.00    -0.000 C 
BRANCH  10  11
ATOM     11  C   UNL     1     125.864 119.143 124.034  1.00  0.00    -0.000 C 
BRANCH  11  12
ATOM     12  C   UNL     1     124.775 118.743 125.048  1.00  0.00    -0.000 C 
BRANCH  12  13
ATOM     13  C   UNL     1     123.744 117.728 124.523  1.00  0.00    -0.000 C 
BRANCH  13  14
ATOM     14  C   UNL     1     122.520 118.400 123.880  1.00  0.00    -0.000 C 
BRANCH  14  15
ATOM     15  C   UNL     1     122.195 119.759 124.522  1.00  0.00    -0.003 C 
ATOM     16  C   UNL     1     122.024 120.872 123.486  1.00  0.00     0.004 C 
ENDBRANCH  14  15
ENDBRANCH  13  14
ENDBRANCH  12  13
ENDBRANCH  11  12
ENDBRANCH  10  11
ENDBRANCH   9  10
ENDBRANCH   8   9
ENDBRANCH   7   8
ENDBRANCH   6   7
ENDBRANCH   5   6
ENDBRANCH   4   5
ENDBRANCH   3   4
ENDBRANCH   2   3
ENDBRANCH   1   2
BRANCH   1  17
ATOM     17  C   UNL     1     122.604 114.843 122.593  1.00  0.00     0.000 C 
BRANCH  17  18
ATOM     18  C   UNL     1     122.809 113.421 123.140  1.00  0.00     0.000 C 
BRANCH  18  19
ATOM     19  C   UNL     1     123.032 112.382 122.025  1.00  0.00     0.000 C 
BRANCH  19  20
ATOM     20  C   UNL     1     124.332 112.562 121.213  1.00  0.00     0.000 C 
BRANCH  20  21
ATOM     21  C   UNL     1     124.145 113.042 119.760  1.00  0.00     0.000 C 
BRANCH  21  22
ATOM     22  C   UNL     1     124.579 114.494 119.499  1.00  0.00     0.000 C 
BRANCH  22  23
ATOM     23  C   UNL     1     125.851 114.878 120.276  1.00  0.00     0.000 C 
BRANCH  23  24
ATOM     24  C   UNL     1     125.594 115.976 121.330  1.00  0.00     0.000 C 
BRANCH  24  25
ATOM     25  C   UNL     1     126.411 115.808 122.629  1.00  0.00     0.000 C 
BRANCH  25  26
ATOM     26  C   UNL     1     127.037 114.420 122.840  1.00  0.00     0.000 C 
BRANCH  26  27
ATOM     27  C   UNL     1     126.828 113.882 124.267  1.00  0.00     0.002 C 
BRANCH  27  28
ATOM     28  C   UNL     1     125.725 114.637 125.026  1.00  0.00     0.028 C 
BRANCH  28  29
ATOM     29  C   UNL     1     126.214 115.238 126.346  1.00  0.00     0.156 C 
BRANCH  29  30
ATOM     30  O   UNL     1     127.121 116.271 126.077  1.00  0.00    -0.396 OA
ATOM     31  H   UNL     1     126.850 117.037 126.649  1.00  0.00     0.210 HD
ENDBRANCH  29  30
ENDBRANCH  28  29
ENDBRANCH  27  28
ENDBRANCH  26  27
ENDBRANCH  25  26
ENDBRANCH  24  25
ENDBRANCH  23  24
ENDBRANCH  22  23
ENDBRANCH  21  22
ENDBRANCH  20  21
ENDBRANCH  19  20
ENDBRANCH  18  19
ENDBRANCH  17  18
ENDBRANCH   1  17
TORSDOF 28
ENDMDL
MODEL 4
REMARK VINA RESULT:    -0.853      2.006      6.321
REMARK INTER + INTRA:          -8.724
REMARK INTER:                  -2.292
REMARK INTRA:                  -6.432
REMARK UNBOUND:                -6.498
REMARK SMILES CCCCCCCCCCCCCCCCCCCCCCCCCCCCCO
REMARK SMILES IDX 16 1 15 2 14 3 13 4 12 5 11 6 10 7 9 8 8 9 7 10 6 11 5 12
REMARK SMILES IDX 4 13 3 14 2 15 1 16 17 17 18 18 19 19 20 20 21 21 22 22
REMARK SMILES IDX 23 23 24 24 25 25 26 26 27 27 28 28 29 29 30 30
REMARK H PARENT 30 31
REMARK Flexibility Score: inf
ROOT
ATOM      1  C   UNL     1     123.583 118.565 120.882  1.00  0.00     0.000 C 
ENDROOT
BRANCH   1   2
ATOM      2  C   UNL     1     123.882 117.245 120.139  1.00  0.00     0.000 C 
BRANCH   2   3
ATOM      3  C   UNL     1     124.771 116.303 120.971  1.00  0.00     0.000 C 
BRANCH   3   4
ATOM      4  C   UNL     1     125.438 117.014 122.158  1.00  0.00     0.000 C 
BRANCH   4   5
ATOM      5  C   UNL     1     125.841 116.038 123.277  1.00  0.00     0.000 C 
BRANCH   5   6
ATOM      6  C   UNL     1     127.033 116.547 124.107  1.00  0.00     0.000 C 
BRANCH   6   7
ATOM      7  C   UNL     1     126.664 116.821 125.577  1.00  0.00     0.000 C 
BRANCH   7   8
ATOM      8  C   UNL     1     125.480 115.961 126.054  1.00  0.00    -0.000 C 
BRANCH   8   9
ATOM      9  C   UNL     1     124.441 116.775 126.839  1.00  0.00    -0.000 C 
BRANCH   9  10
ATOM     10  C   UNL     1     124.659 118.283 126.638  1.00  0.00    -0.000 C 
BRANCH  10  11
ATOM     11  C   UNL     1     123.458 118.974 125.967  1.00  0.00    -0.000 C 
BRANCH  11  12
ATOM     12  C   UNL     1     123.128 118.468 124.550  1.00  0.00    -0.000 C 
BRANCH  12  13
ATOM     13  C   UNL     1     121.748 117.802 124.406  1.00  0.00    -0.000 C 
BRANCH  13  14
ATOM     14  C   UNL     1     121.737 116.672 123.363  1.00  0.00    -0.000 C 
BRANCH  14  15
ATOM     15  C   UNL     1     122.333 115.365 123.911  1.00  0.00    -0.003 C 
ATOM     16  C   UNL     1     121.679 114.926 125.223  1.00  0.00     0.004 C 
ENDBRANCH  14  15
ENDBRANCH  13  14
ENDBRANCH  12  13
ENDBRANCH  11  12
ENDBRANCH  10  11
ENDBRANCH   9  10
ENDBRANCH   8   9
ENDBRANCH   7   8
ENDBRANCH   6   7
ENDBRANCH   5   6
ENDBRANCH   4   5
ENDBRANCH   3   4
ENDBRANCH   2   3
ENDBRANCH   1   2
BRANCH   1  17
ATOM     17  C   UNL     1     124.143 119.815 120.183  1.00  0.00     0.000 C 
BRANCH  17  18
ATOM     18  C   UNL     1     124.045 121.081 121.049  1.00  0.00     0.000 C 
BRANCH  18  19
ATOM     19  C   UNL     1     125.395 121.808 121.194  1.00  0.00     0.000 C 
BRANCH  19  20
ATOM     20  C   UNL     1     126.459 121.053 122.018  1.00  0.00     0.000 C 
BRANCH  20  21
ATOM     21  C   UNL     1     125.937 120.348 123.286  1.00  0.00     0.000 C 
BRANCH  21  22
ATOM     22  C   UNL     1     126.629 120.774 124.593  1.00  0.00     0.000 C 
BRANCH  22  23
ATOM     23  C   UNL     1     126.880 122.291 124.660  1.00  0.00     0.000 C 
BRANCH  23  24
ATOM     24  C   UNL     1     125.576 123.102 124.814  1.00  0.00     0.000 C 
BRANCH  24  25
ATOM     25  C   UNL     1     124.697 122.665 126.005  1.00  0.00     0.000 C 
BRANCH  25  26
ATOM     26  C   UNL     1     123.193 122.550 125.708  1.00  0.00     0.000 C 
BRANCH  26  27
ATOM     27  C   UNL     1     122.899 122.246 124.228  1.00  0.00     0.002 C 
BRANCH  27  28
ATOM     28  C   UNL     1     121.407 121.979 123.967  1.00  0.00     0.028 C 
BRANCH  28  29
ATOM     29  C   UNL     1     120.696 121.349 125.167  1.00  0.00     0.156 C 
BRANCH  29  30
ATOM     30  O   UNL     1     119.483 120.791 124.746  1.00  0.00    -0.396 OA
ATOM     31  H   UNL     1     118.899 121.553 124.490  1.00  0.00     0.210 HD
ENDBRANCH  29  30
ENDBRANCH  28  29
ENDBRANCH  27  28
ENDBRANCH  26  27
ENDBRANCH  25  26
ENDBRANCH  24  25
ENDBRANCH  23  24
ENDBRANCH  22  23
ENDBRANCH  21  22
ENDBRANCH  20  21
ENDBRANCH  19  20
ENDBRANCH  18  19
ENDBRANCH  17  18
ENDBRANCH   1  17
TORSDOF 28
ENDMDL
MODEL 5
REMARK VINA RESULT:    -0.846      2.700      5.725
REMARK INTER + INTRA:          -8.703
REMARK INTER:                  -2.038
REMARK INTRA:                  -6.666
REMARK UNBOUND:                -6.498
REMARK SMILES CCCCCCCCCCCCCCCCCCCCCCCCCCCCCO
REMARK SMILES IDX 16 1 15 2 14 3 13 4 12 5 11 6 10 7 9 8 8 9 7 10 6 11 5 12
REMARK SMILES IDX 4 13 3 14 2 15 1 16 17 17 18 18 19 19 20 20 21 21 22 22
REMARK SMILES IDX 23 23 24 24 25 25 26 26 27 27 28 28 29 29 30 30
REMARK H PARENT 30 31
REMARK Flexibility Score: inf
ROOT
ATOM      1  C   UNL     1     123.077 121.757 124.956  1.00  0.00     0.000 C 
ENDROOT
BRANCH   1   2
ATOM      2  C   UNL     1     122.887 123.154 124.324  1.00  0.00     0.000 C 
BRANCH   2   3
ATOM      3  C   UNL     1     121.836 123.988 125.077  1.00  0.00     0.000 C 
BRANCH   3   4
ATOM      4  C   UNL     1     120.666 124.419 124.179  1.00  0.00     0.000 C 
BRANCH   4   5
ATOM      5  C   UNL     1     120.850 123.974 122.718  1.00  0.00     0.000 C 
BRANCH   5   6
ATOM      6  C   UNL     1     119.767 122.981 122.259  1.00  0.00     0.000 C 
BRANCH   6   7
ATOM      7  C   UNL     1     119.606 122.937 120.729  1.00  0.00     0.000 C 
BRANCH   7   8
ATOM      8  C   UNL     1     119.586 121.498 120.183  1.00  0.00    -0.000 C 
BRANCH   8   9
ATOM      9  C   UNL     1     118.259 120.780 120.470  1.00  0.00    -0.000 C 
BRANCH   9  10
ATOM     10  C   UNL     1     118.505 119.332 120.924  1.00  0.00    -0.000 C 
BRANCH  10  11
ATOM     11  C   UNL     1     119.985 118.920 120.827  1.00  0.00    -0.000 C 
BRANCH  11  12
ATOM     12  C   UNL     1     120.608 118.428 122.148  1.00  0.00    -0.000 C 
BRANCH  12  13
ATOM     13  C   UNL     1     120.966 119.541 123.148  1.00  0.00    -0.000 C 
BRANCH  13  14
ATOM     14  C   UNL     1     120.227 119.398 124.489  1.00  0.00    -0.000 C 
BRANCH  14  15
ATOM     15  C   UNL     1     119.443 120.667 124.862  1.00  0.00    -0.003 C 
ATOM     16  C   UNL     1     117.971 120.589 124.453  1.00  0.00     0.004 C 
ENDBRANCH  14  15
ENDBRANCH  13  14
ENDBRANCH  12  13
ENDBRANCH  11  12
ENDBRANCH  10  11
ENDBRANCH   9  10
ENDBRANCH   8   9
ENDBRANCH   7   8
ENDBRANCH   6   7
ENDBRANCH   5   6
ENDBRANCH   4   5
ENDBRANCH   3   4
ENDBRANCH   2   3
ENDBRANCH   1   2
BRANCH   1  17
ATOM     17  C   UNL     1     124.438 121.113 124.648  1.00  0.00     0.000 C 
BRANCH  17  18
ATOM     18  C   UNL     1     125.432 122.090 123.999  1.00  0.00     0.000 C 
BRANCH  18  19
ATOM     19  C   UNL     1     126.708 121.391 123.494  1.00  0.00     0.000 C 
BRANCH  19  20
ATOM     20  C   UNL     1     127.007 121.582 121.992  1.00  0.00     0.000 C 
BRANCH  20  21
ATOM     21  C   UNL     1     126.876 123.026 121.469  1.00  0.00     0.000 C 
BRANCH  21  22
ATOM     22  C   UNL     1     125.841 123.213 120.345  1.00  0.00     0.000 C 
BRANCH  22  23
ATOM     23  C   UNL     1     124.508 123.782 120.861  1.00  0.00     0.000 C 
BRANCH  23  24
ATOM     24  C   UNL     1     123.290 122.954 120.399  1.00  0.00     0.000 C 
BRANCH  24  25
ATOM     25  C   UNL     1     123.221 121.538 121.011  1.00  0.00     0.000 C 
BRANCH  25  26
ATOM     26  C   UNL     1     123.210 120.382 119.999  1.00  0.00     0.000 C 
BRANCH  26  27
ATOM     27  C   UNL     1     124.288 119.322 120.293  1.00  0.00     0.002 C 
BRANCH  27  28
ATOM     28  C   UNL     1     124.369 118.963 121.785  1.00  0.00     0.028 C 
BRANCH  28  29
ATOM     29  C   UNL     1     125.252 117.742 122.057  1.00  0.00     0.156 C 
BRANCH  29  30
ATOM     30  O   UNL     1     125.987 117.954 123.229  1.00  0.00    -0.396 OA
ATOM     31  H   UNL     1     126.251 118.912 123.224  1.00  0.00     0.210 HD
ENDBRANCH  29  30
ENDBRANCH  28  29
ENDBRANCH  27  28
ENDBRANCH  26  27
ENDBRANCH  25  26
ENDBRANCH  24  25
ENDBRANCH  23  24
ENDBRANCH  22  23
ENDBRANCH  21  22
ENDBRANCH  20  21
ENDBRANCH  19  20
ENDBRANCH  18  19
ENDBRANCH  17  18
ENDBRANCH   1  17
TORSDOF 28
ENDMDL
MODEL 6
REMARK VINA RESULT:    -0.844      2.151      4.084
REMARK INTER + INTRA:          -8.698
REMARK INTER:                  -2.125
REMARK INTRA:                  -6.573
REMARK UNBOUND:                -6.498
REMARK SMILES CCCCCCCCCCCCCCCCCCCCCCCCCCCCCO
REMARK SMILES IDX 16 1 15 2 14 3 13 4 12 5 11 6 10 7 9 8 8 9 7 10 6 11 5 12
REMARK SMILES IDX 4 13 3 14 2 15 1 16 17 17 18 18 19 19 20 20 21 21 22 22
REMARK SMILES IDX 23 23 24 24 25 25 26 26 27 27 28 28 29 29 30 30
REMARK H PARENT 30 31
REMARK Flexibility Score: inf
ROOT
ATOM      1  C   UNL     1     120.445 119.153 124.992  1.00  0.00     0.000 C 
ENDROOT
BRANCH   1   2
ATOM      2  C   UNL     1     119.228 119.938 124.457  1.00  0.00     0.000 C 
BRANCH   2   3
ATOM      3  C   UNL     1     119.606 121.369 124.035  1.00  0.00     0.000 C 
BRANCH   3   4
ATOM      4  C   UNL     1     121.121 121.622 124.084  1.00  0.00     0.000 C 
BRANCH   4   5
ATOM      5  C   UNL     1     121.560 122.756 123.141  1.00  0.00     0.000 C 
BRANCH   5   6
ATOM      6  C   UNL     1     122.306 122.239 121.899  1.00  0.00     0.000 C 
BRANCH   6   7
ATOM      7  C   UNL     1     123.585 123.041 121.594  1.00  0.00     0.000 C 
BRANCH   7   8
ATOM      8  C   UNL     1     124.618 122.215 120.806  1.00  0.00    -0.000 C 
BRANCH   8   9
ATOM      9  C   UNL     1     124.387 120.703 120.939  1.00  0.00    -0.000 C 
BRANCH   9  10
ATOM     10  C   UNL     1     125.601 120.017 121.587  1.00  0.00    -0.000 C 
BRANCH  10  11
ATOM     11  C   UNL     1     125.205 119.047 122.715  1.00  0.00    -0.000 C 
BRANCH  11  12
ATOM     12  C   UNL     1     124.146 119.589 123.695  1.00  0.00    -0.000 C 
BRANCH  12  13
ATOM     13  C   UNL     1     124.716 120.246 124.964  1.00  0.00    -0.000 C 
BRANCH  13  14
ATOM     14  C   UNL     1     125.020 121.741 124.777  1.00  0.00    -0.000 C 
BRANCH  14  15
ATOM     15  C   UNL     1     126.519 122.010 124.558  1.00  0.00    -0.003 C 
ATOM     16  C   UNL     1     126.773 123.237 123.680  1.00  0.00     0.004 C 
ENDBRANCH  14  15
ENDBRANCH  13  14
ENDBRANCH  12  13
ENDBRANCH  11  12
ENDBRANCH  10  11
ENDBRANCH   9  10
ENDBRANCH   8   9
ENDBRANCH   7   8
ENDBRANCH   6   7
ENDBRANCH   5   6
ENDBRANCH   4   5
ENDBRANCH   3   4
ENDBRANCH   2   3
ENDBRANCH   1   2
BRANCH   1  17
ATOM     17  C   UNL     1     120.753 117.868 124.207  1.00  0.00     0.000 C 
BRANCH  17  18
ATOM     18  C   UNL     1     120.347 117.957 122.727  1.00  0.00     0.000 C 
BRANCH  18  19
ATOM     19  C   UNL     1     121.444 118.584 121.846  1.00  0.00     0.000 C 
BRANCH  19  20
ATOM     20  C   UNL     1     120.986 119.016 120.438  1.00  0.00     0.000 C 
BRANCH  20  21
ATOM     21  C   UNL     1     121.950 118.658 119.289  1.00  0.00     0.000 C 
BRANCH  21  22
ATOM     22  C   UNL     1     122.545 117.241 119.364  1.00  0.00     0.000 C 
BRANCH  22  23
ATOM     23  C   UNL     1     124.082 117.250 119.438  1.00  0.00     0.000 C 
BRANCH  23  24
ATOM     24  C   UNL     1     124.632 116.280 120.505  1.00  0.00     0.000 C 
BRANCH  24  25
ATOM     25  C   UNL     1     123.541 115.528 121.296  1.00  0.00     0.000 C 
BRANCH  25  26
ATOM     26  C   UNL     1     123.551 115.757 122.816  1.00  0.00     0.000 C 
BRANCH  26  27
ATOM     27  C   UNL     1     124.724 115.049 123.518  1.00  0.00     0.002 C 
BRANCH  27  28
ATOM     28  C   UNL     1     125.316 115.885 124.664  1.00  0.00     0.028 C 
BRANCH  28  29
ATOM     29  C   UNL     1     126.774 116.281 124.421  1.00  0.00     0.156 C 
BRANCH  29  30
ATOM     30  O   UNL     1     127.125 115.971 123.101  1.00  0.00    -0.396 OA
ATOM     31  H   UNL     1     126.478 115.282 122.795  1.00  0.00     0.210 HD
ENDBRANCH  29  30
ENDBRANCH  28  29
ENDBRANCH  27  28
ENDBRANCH  26  27
ENDBRANCH  25  26
ENDBRANCH  24  25
ENDBRANCH  23  24
ENDBRANCH  22  23
ENDBRANCH  21  22
ENDBRANCH  20  21
ENDBRANCH  19  20
ENDBRANCH  18  19
ENDBRANCH  17  18
ENDBRANCH   1  17
TORSDOF 28
ENDMDL
MODEL 7
REMARK VINA RESULT:    -0.841      2.809      6.204
REMARK INTER + INTRA:          -8.692
REMARK INTER:                  -2.621
REMARK INTRA:                  -6.071
REMARK UNBOUND:                -6.498
REMARK SMILES CCCCCCCCCCCCCCCCCCCCCCCCCCCCCO
REMARK SMILES IDX 16 1 15 2 14 3 13 4 12 5 11 6 10 7 9 8 8 9 7 10 6 11 5 12
REMARK SMILES IDX 4 13 3 14 2 15 1 16 17 17 18 18 19 19 20 20 21 21 22 22
REMARK SMILES IDX 23 23 24 24 25 25 26 26 27 27 28 28 29 29 30 30
REMARK H PARENT 30 31
REMARK Flexibility Score: inf
ROOT
ATOM      1  C   UNL     1     123.002 118.338 123.769  1.00  0.00     0.000 C 
ENDROOT
BRANCH   1   2
ATOM      2  C   UNL     1     122.030 117.360 123.073  1.00  0.00     0.000 C 
BRANCH   2   3
ATOM      3  C   UNL     1     121.945 117.614 121.557  1.00  0.00     0.000 C 
BRANCH   3   4
ATOM      4  C   UNL     1     122.423 116.412 120.727  1.00  0.00     0.000 C 
BRANCH   4   5
ATOM      5  C   UNL     1     123.868 116.579 120.228  1.00  0.00     0.000 C 
BRANCH   5   6
ATOM      6  C   UNL     1     124.868 115.700 120.999  1.00  0.00     0.000 C 
BRANCH   6   7
ATOM      7  C   UNL     1     125.693 116.494 122.029  1.00  0.00     0.000 C 
BRANCH   7   8
ATOM      8  C   UNL     1     126.504 115.577 122.962  1.00  0.00    -0.000 C 
BRANCH   8   9
ATOM      9  C   UNL     1     126.595 116.127 124.393  1.00  0.00    -0.000 C 
BRANCH   9  10
ATOM     10  C   UNL     1     126.354 117.646 124.414  1.00  0.00    -0.000 C 
BRANCH  10  11
ATOM     11  C   UNL     1     127.059 118.345 125.590  1.00  0.00    -0.000 C 
BRANCH  11  12
ATOM     12  C   UNL     1     126.113 119.012 126.608  1.00  0.00    -0.000 C 
BRANCH  12  13
ATOM     13  C   UNL     1     125.440 118.042 127.595  1.00  0.00    -0.000 C 
BRANCH  13  14
ATOM     14  C   UNL     1     123.928 117.896 127.350  1.00  0.00    -0.000 C 
BRANCH  14  15
ATOM     15  C   UNL     1     123.536 116.462 126.958  1.00  0.00    -0.003 C 
ATOM     16  C   UNL     1     124.567 115.427 127.411  1.00  0.00     0.004 C 
ENDBRANCH  14  15
ENDBRANCH  13  14
ENDBRANCH  12  13
ENDBRANCH  11  12
ENDBRANCH  10  11
ENDBRANCH   9  10
ENDBRANCH   8   9
ENDBRANCH   7   8
ENDBRANCH   6   7
ENDBRANCH   5   6
ENDBRANCH   4   5
ENDBRANCH   3   4
ENDBRANCH   2   3
ENDBRANCH   1   2
BRANCH   1  17
ATOM     17  C   UNL     1     122.395 119.720 124.059  1.00  0.00     0.000 C 
BRANCH  17  18
ATOM     18  C   UNL     1     123.344 120.639 124.845  1.00  0.00     0.000 C 
BRANCH  18  19
ATOM     19  C   UNL     1     123.288 122.101 124.363  1.00  0.00     0.000 C 
BRANCH  19  20
ATOM     20  C   UNL     1     124.627 122.672 123.850  1.00  0.00     0.000 C 
BRANCH  20  21
ATOM     21  C   UNL     1     125.893 121.982 124.394  1.00  0.00     0.000 C 
BRANCH  21  22
ATOM     22  C   UNL     1     126.709 121.210 123.343  1.00  0.00     0.000 C 
BRANCH  22  23
ATOM     23  C   UNL     1     126.087 121.290 121.938  1.00  0.00     0.000 C 
BRANCH  23  24
ATOM     24  C   UNL     1     125.298 120.018 121.564  1.00  0.00     0.000 C 
BRANCH  24  25
ATOM     25  C   UNL     1     124.260 120.225 120.440  1.00  0.00     0.000 C 
BRANCH  25  26
ATOM     26  C   UNL     1     123.078 121.141 120.794  1.00  0.00     0.000 C 
BRANCH  26  27
ATOM     27  C   UNL     1     122.954 122.348 119.845  1.00  0.00     0.002 C 
BRANCH  27  28
ATOM     28  C   UNL     1     123.752 123.567 120.335  1.00  0.00     0.028 C 
BRANCH  28  29
ATOM     29  C   UNL     1     124.283 124.431 119.189  1.00  0.00     0.156 C 
BRANCH  29  30
ATOM     30  O   UNL     1     125.623 124.105 118.946  1.00  0.00    -0.396 OA
ATOM     31  H   UNL     1     125.725 124.061 117.958  1.00  0.00     0.210 HD
ENDBRANCH  29  30
ENDBRANCH  28  29
ENDBRANCH  27  28
ENDBRANCH  26  27
ENDBRANCH  25  26
ENDBRANCH  24  25
ENDBRANCH  23  24
ENDBRANCH  22  23
ENDBRANCH  21  22
ENDBRANCH  20  21
ENDBRANCH  19  20
ENDBRANCH  18  19
ENDBRANCH  17  18
ENDBRANCH   1  17
TORSDOF 28
ENDMDL
MODEL 8
REMARK VINA RESULT:    -0.793      2.752      6.813
REMARK INTER + INTRA:          -8.567
REMARK INTER:                  -2.205
REMARK INTRA:                  -6.361
REMARK UNBOUND:                -6.498
REMARK SMILES CCCCCCCCCCCCCCCCCCCCCCCCCCCCCO
REMARK SMILES IDX 16 1 15 2 14 3 13 4 12 5 11 6 10 7 9 8 8 9 7 10 6 11 5 12
REMARK SMILES IDX 4 13 3 14 2 15 1 16 17 17 18 18 19 19 20 20 21 21 22 22
REMARK SMILES IDX 23 23 24 24 25 25 26 26 27 27 28 28 29 29 30 30
REMARK H PARENT 30 31
REMARK Flexibility Score: inf
ROOT
ATOM      1  C   UNL     1     123.195 119.390 123.107  1.00  0.00     0.000 C 
ENDROOT
BRANCH   1   2
ATOM      2  C   UNL     1     122.931 118.527 124.360  1.00  0.00     0.000 C 
BRANCH   2   3
ATOM      3  C   UNL     1     123.501 117.105 124.211  1.00  0.00     0.000 C 
BRANCH   3   4
ATOM      4  C   UNL     1     122.417 116.020 124.290  1.00  0.00     0.000 C 
BRANCH   4   5
ATOM      5  C   UNL     1     122.667 114.865 123.305  1.00  0.00     0.000 C 
BRANCH   5   6
ATOM      6  C   UNL     1     122.502 115.291 121.836  1.00  0.00     0.000 C 
BRANCH   6   7
ATOM      7  C   UNL     1     123.703 114.891 120.959  1.00  0.00     0.000 C 
BRANCH   7   8
ATOM      8  C   UNL     1     124.937 114.509 121.796  1.00  0.00    -0.000 C 
BRANCH   8   9
ATOM      9  C   UNL     1     126.031 115.585 121.756  1.00  0.00    -0.000 C 
BRANCH   9  10
ATOM     10  C   UNL     1     126.675 115.766 123.140  1.00  0.00    -0.000 C 
BRANCH  10  11
ATOM     11  C   UNL     1     126.693 114.466 123.963  1.00  0.00    -0.000 C 
BRANCH  11  12
ATOM     12  C   UNL     1     126.040 114.572 125.356  1.00  0.00    -0.000 C 
BRANCH  12  13
ATOM     13  C   UNL     1     125.073 113.427 125.705  1.00  0.00    -0.000 C 
BRANCH  13  14
ATOM     14  C   UNL     1     124.071 113.809 126.808  1.00  0.00    -0.000 C 
BRANCH  14  15
ATOM     15  C   UNL     1     124.404 115.163 127.456  1.00  0.00    -0.003 C 
ATOM     16  C   UNL     1     123.155 115.911 127.927  1.00  0.00     0.004 C 
ENDBRANCH  14  15
ENDBRANCH  13  14
ENDBRANCH  12  13
ENDBRANCH  11  12
ENDBRANCH  10  11
ENDBRANCH   9  10
ENDBRANCH   8   9
ENDBRANCH   7   8
ENDBRANCH   6   7
ENDBRANCH   5   6
ENDBRANCH   4   5
ENDBRANCH   3   4
ENDBRANCH   2   3
ENDBRANCH   1   2
BRANCH   1  17
ATOM     17  C   UNL     1     123.890 118.633 121.964  1.00  0.00     0.000 C 
BRANCH  17  18
ATOM     18  C   UNL     1     125.257 119.231 121.591  1.00  0.00     0.000 C 
BRANCH  18  19
ATOM     19  C   UNL     1     125.283 120.767 121.700  1.00  0.00     0.000 C 
BRANCH  19  20
ATOM     20  C   UNL     1     126.672 121.381 121.970  1.00  0.00     0.000 C 
BRANCH  20  21
ATOM     21  C   UNL     1     126.819 122.121 123.314  1.00  0.00     0.000 C 
BRANCH  21  22
ATOM     22  C   UNL     1     126.016 121.513 124.477  1.00  0.00     0.000 C 
BRANCH  22  23
ATOM     23  C   UNL     1     126.873 120.599 125.371  1.00  0.00     0.000 C 
BRANCH  23  24
ATOM     24  C   UNL     1     126.817 119.120 124.935  1.00  0.00     0.000 C 
BRANCH  24  25
ATOM     25  C   UNL     1     126.407 118.145 126.060  1.00  0.00     0.000 C 
BRANCH  25  26
ATOM     26  C   UNL     1     125.455 118.721 127.119  1.00  0.00     0.000 C 
BRANCH  26  27
ATOM     27  C   UNL     1     125.965 118.513 128.556  1.00  0.00     0.002 C 
BRANCH  27  28
ATOM     28  C   UNL     1     125.293 119.460 129.564  1.00  0.00     0.028 C 
BRANCH  28  29
ATOM     29  C   UNL     1     123.862 119.042 129.911  1.00  0.00     0.156 C 
BRANCH  29  30
ATOM     30  O   UNL     1     123.603 119.345 131.253  1.00  0.00    -0.396 OA
ATOM     31  H   UNL     1     122.623 119.492 131.322  1.00  0.00     0.210 HD
ENDBRANCH  29  30
ENDBRANCH  28  29
ENDBRANCH  27  28
ENDBRANCH  26  27
ENDBRANCH  25  26
ENDBRANCH  24  25
ENDBRANCH  23  24
ENDBRANCH  22  23
ENDBRANCH  21  22
ENDBRANCH  20  21
ENDBRANCH  19  20
ENDBRANCH  18  19
ENDBRANCH  17  18
ENDBRANCH   1  17
TORSDOF 28
ENDMDL
MODEL 9
REMARK VINA RESULT:    -0.767      1.942      3.853
REMARK INTER + INTRA:          -8.498
REMARK INTER:                  -1.968
REMARK INTRA:                  -6.530
REMARK UNBOUND:                -6.498
REMARK SMILES CCCCCCCCCCCCCCCCCCCCCCCCCCCCCO
REMARK SMILES IDX 16 1 15 2 14 3 13 4 12 5 11 6 10 7 9 8 8 9 7 10 6 11 5 12
REMARK SMILES IDX 4 13 3 14 2 15 1 16 17 17 18 18 19 19 20 20 21 21 22 22
REMARK SMILES IDX 23 23 24 24 25 25 26 26 27 27 28 28 29 29 30 30
REMARK H PARENT 30 31
REMARK Flexibility Score: inf
ROOT
ATOM      1  C   UNL     1     121.363 120.675 123.547  1.00  0.00     0.000 C 
ENDROOT
BRANCH   1   2
ATOM      2  C   UNL     1     122.642 120.660 124.412  1.00  0.00     0.000 C 
BRANCH   2   3
ATOM      3  C   UNL     1     123.918 120.590 123.554  1.00  0.00     0.000 C 
BRANCH   3   4
ATOM      4  C   UNL     1     125.196 120.478 124.399  1.00  0.00     0.000 C 
BRANCH   4   5
ATOM      5  C   UNL     1     126.419 121.096 123.701  1.00  0.00     0.000 C 
BRANCH   5   6
ATOM      6  C   UNL     1     126.295 121.089 122.167  1.00  0.00     0.000 C 
BRANCH   6   7
ATOM      7  C   UNL     1     127.125 122.198 121.495  1.00  0.00     0.000 C 
BRANCH   7   8
ATOM      8  C   UNL     1     126.245 123.217 120.748  1.00  0.00    -0.000 C 
BRANCH   8   9
ATOM      9  C   UNL     1     124.757 122.835 120.770  1.00  0.00    -0.000 C 
BRANCH   9  10
ATOM     10  C   UNL     1     123.952 123.810 121.644  1.00  0.00    -0.000 C 
BRANCH  10  11
ATOM     11  C   UNL     1     124.821 124.933 122.239  1.00  0.00    -0.000 C 
BRANCH  11  12
ATOM     12  C   UNL     1     125.106 124.801 123.748  1.00  0.00    -0.000 C 
BRANCH  12  13
ATOM     13  C   UNL     1     124.037 124.031 124.543  1.00  0.00    -0.000 C 
BRANCH  13  14
ATOM     14  C   UNL     1     122.837 124.909 124.933  1.00  0.00    -0.000 C 
BRANCH  14  15
ATOM     15  C   UNL     1     121.494 124.276 124.529  1.00  0.00    -0.003 C 
ATOM     16  C   UNL     1     120.717 123.731 125.729  1.00  0.00     0.004 C 
ENDBRANCH  14  15
ENDBRANCH  13  14
ENDBRANCH  12  13
ENDBRANCH  11  12
ENDBRANCH  10  11
ENDBRANCH   9  10
ENDBRANCH   8   9
ENDBRANCH   7   8
ENDBRANCH   6   7
ENDBRANCH   5   6
ENDBRANCH   4   5
ENDBRANCH   3   4
ENDBRANCH   2   3
ENDBRANCH   1   2
BRANCH   1  17
ATOM     17  C   UNL     1     121.633 120.791 122.038  1.00  0.00     0.000 C 
BRANCH  17  18
ATOM     18  C   UNL     1     120.756 119.848 121.198  1.00  0.00     0.000 C 
BRANCH  18  19
ATOM     19  C   UNL     1     121.542 119.157 120.067  1.00  0.00     0.000 C 
BRANCH  19  20
ATOM     20  C   UNL     1     122.720 119.973 119.495  1.00  0.00     0.000 C 
BRANCH  20  21
ATOM     21  C   UNL     1     124.117 119.361 119.715  1.00  0.00     0.000 C 
BRANCH  21  22
ATOM     22  C   UNL     1     124.114 117.893 120.176  1.00  0.00     0.000 C 
BRANCH  22  23
ATOM     23  C   UNL     1     124.798 117.701 121.541  1.00  0.00     0.000 C 
BRANCH  23  24
ATOM     24  C   UNL     1     124.093 116.644 122.416  1.00  0.00     0.000 C 
BRANCH  24  25
ATOM     25  C   UNL     1     122.698 117.070 122.920  1.00  0.00     0.000 C 
BRANCH  25  26
ATOM     26  C   UNL     1     122.501 117.013 124.443  1.00  0.00     0.000 C 
BRANCH  26  27
ATOM     27  C   UNL     1     123.814 117.208 125.223  1.00  0.00     0.002 C 
BRANCH  27  28
ATOM     28  C   UNL     1     123.608 117.165 126.745  1.00  0.00     0.028 C 
BRANCH  28  29
ATOM     29  C   UNL     1     123.898 118.506 127.424  1.00  0.00     0.156 C 
BRANCH  29  30
ATOM     30  O   UNL     1     122.696 119.197 127.617  1.00  0.00    -0.396 OA
ATOM     31  H   UNL     1     122.314 118.860 128.471  1.00  0.00     0.210 HD
ENDBRANCH  29  30
ENDBRANCH  28  29
ENDBRANCH  27  28
ENDBRANCH  26  27
ENDBRANCH  25  26
ENDBRANCH  24  25
ENDBRANCH  23  24
ENDBRANCH  22  23
ENDBRANCH  21  22
ENDBRANCH  20  21
ENDBRANCH  19  20
ENDBRANCH  18  19
ENDBRANCH  17  18
ENDBRANCH   1  17
TORSDOF 28
ENDMDL
