MODEL 1
REMARK VINA RESULT:    -4.572      0.000      0.000
REMARK INTER + INTRA:         -14.551
REMARK INTER:                 -12.056
REMARK INTRA:                  -2.495
REMARK UNBOUND:                -2.495
REMARK SMILES CCCCCCCCCCCCCCCCCCCCCCCCCCCCCC(=O)[O-]
REMARK SMILES IDX 16 1 17 2 18 3 19 4 20 5 21 6 22 7 23 8 24 9 25 10 26 11
REMARK SMILES IDX 27 12 28 13 29 14 30 15 31 16 32 17 15 18 14 19 13 20 12 21
REMARK SMILES IDX 11 22 10 23 9 24 8 25 7 26 6 27 5 28 4 29 3 30 2 31 1 32
REMARK H PARENT
REMARK Flexibility Score: inf
ROOT
ATOM      1  C   UNL     1      14.113  27.028  34.577  1.00  0.00     0.000 C 
ENDROOT
BRANCH   1   2
ATOM      2  C   UNL     1      14.873  26.638  33.296  1.00  0.00     0.000 C 
BRANCH   2   3
ATOM      3  C   UNL     1      16.367  26.360  33.545  1.00  0.00     0.000 C 
BRANCH   3   4
ATOM      4  C   UNL     1      16.737  24.877  33.756  1.00  0.00     0.000 C 
BRANCH   4   5
ATOM      5  C   UNL     1      15.747  23.861  33.156  1.00  0.00     0.000 C 
BRANCH   5   6
ATOM      6  C   UNL     1      15.966  22.433  33.676  1.00  0.00     0.000 C 
BRANCH   6   7
ATOM      7  C   UNL     1      15.448  22.285  35.112  1.00  0.00     0.000 C 
BRANCH   7   8
ATOM      8  C   UNL     1      16.196  21.169  35.852  1.00  0.00     0.000 C 
BRANCH   8   9
ATOM      9  C   UNL     1      15.332  19.904  35.964  1.00  0.00     0.000 C 
BRANCH   9  10
ATOM     10  C   UNL     1      15.181  19.160  34.624  1.00  0.00     0.000 C 
BRANCH  10  11
ATOM     11  C   UNL     1      16.106  17.941  34.444  1.00  0.00     0.000 C 
BRANCH  11  12
ATOM     12  C   UNL     1      16.273  17.052  35.691  1.00  0.00     0.000 C 
BRANCH  12  13
ATOM     13  C   UNL     1      15.793  15.599  35.496  1.00  0.00     0.006 C 
BRANCH  13  14
ATOM     14  C   UNL     1      14.807  15.443  34.326  1.00  0.00     0.053 C 
BRANCH  14  15
ATOM     15  C   UNL     1      15.261  14.384  33.364  1.00  0.00     0.041 C 
ATOM     16  O   UNL     1      16.045  14.683  32.425  1.00  0.00    -0.550 OA
ATOM     17  O   UNL     1      14.866  13.059  33.529  1.00  0.00    -0.550 OA
ENDBRANCH  14  15
ENDBRANCH  13  14
ENDBRANCH  12  13
ENDBRANCH  11  12
ENDBRANCH  10  11
ENDBRANCH   9  10
ENDBRANCH   8   9
ENDBRANCH   7   8
ENDBRANCH   6   7
ENDBRANCH   5   6
ENDBRANCH   4   5
ENDBRANCH   3   4
ENDBRANCH   2   3
ENDBRANCH   1   2
BRANCH   1  18
ATOM     18  C   UNL     1      12.660  26.526  34.572  1.00  0.00     0.000 C 
BRANCH  18  19
ATOM     19  C   UNL     1      11.837  27.061  35.758  1.00  0.00     0.000 C 
BRANCH  19  20
ATOM     20  C   UNL     1      11.488  28.551  35.612  1.00  0.00     0.000 C 
BRANCH  20  21
ATOM     21  C   UNL     1      12.138  29.416  36.709  1.00  0.00     0.000 C 
BRANCH  21  22
ATOM     22  C   UNL     1      12.160  30.910  36.351  1.00  0.00     0.000 C 
BRANCH  22  23
ATOM     23  C   UNL     1      13.582  31.494  36.347  1.00  0.00     0.000 C 
BRANCH  23  24
ATOM     24  C   UNL     1      14.614  30.425  35.969  1.00  0.00    -0.000 C 
BRANCH  24  25
ATOM     25  C   UNL     1      15.658  30.991  34.993  1.00  0.00    -0.000 C 
BRANCH  25  26
ATOM     26  C   UNL     1      16.384  29.892  34.201  1.00  0.00    -0.000 C 
BRANCH  26  27
ATOM     27  C   UNL     1      16.463  30.200  32.694  1.00  0.00    -0.000 C 
BRANCH  27  28
ATOM     28  C   UNL     1      16.251  31.690  32.379  1.00  0.00    -0.000 C 
BRANCH  28  29
ATOM     29  C   UNL     1      16.324  31.992  30.872  1.00  0.00    -0.000 C 
BRANCH  29  30
ATOM     30  C   UNL     1      16.658  30.746  30.028  1.00  0.00    -0.000 C 
BRANCH  30  31
ATOM     31  C   UNL     1      16.315  30.860  28.532  1.00  0.00    -0.003 C 
ATOM     32  C   UNL     1      16.307  32.303  28.027  1.00  0.00     0.004 C 
ENDBRANCH  30  31
ENDBRANCH  29  30
ENDBRANCH  28  29
ENDBRANCH  27  28
ENDBRANCH  26  27
ENDBRANCH  25  26
ENDBRANCH  24  25
ENDBRANCH  23  24
ENDBRANCH  22  23
ENDBRANCH  21  22
ENDBRANCH  20  21
ENDBRANCH  19  20
ENDBRANCH  18  19
ENDBRANCH   1  18
TORSDOF 28
ENDMDL
MODEL 2
REMARK VINA RESULT:    -4.171      1.196      2.680
REMARK INTER + INTRA:         -13.493
REMARK INTER:                 -11.100
REMARK INTRA:                  -2.393
REMARK UNBOUND:                -2.495
REMARK SMILES CCCCCCCCCCCCCCCCCCCCCCCCCCCCCC(=O)[O-]
REMARK SMILES IDX 16 1 17 2 18 3 19 4 20 5 21 6 22 7 23 8 24 9 25 10 26 11
REMARK SMILES IDX 27 12 28 13 29 14 30 15 31 16 32 17 15 18 14 19 13 20 12 21
REMARK SMILES IDX 11 22 10 23 9 24 8 25 7 26 6 27 5 28 4 29 3 30 2 31 1 32
REMARK H PARENT
REMARK Flexibility Score: inf
ROOT
ATOM      1  C   UNL     1      15.964  25.320  33.368  1.00  0.00     0.000 C 
ENDROOT
BRANCH   1   2
ATOM      2  C   UNL     1      15.644  23.817  33.273  1.00  0.00     0.000 C 
BRANCH   2   3
ATOM      3  C   UNL     1      16.689  22.934  33.977  1.00  0.00     0.000 C 
BRANCH   3   4
ATOM      4  C   UNL     1      16.769  21.477  33.474  1.00  0.00     0.000 C 
BRANCH   4   5
ATOM      5  C   UNL     1      15.772  20.501  34.125  1.00  0.00     0.000 C 
BRANCH   5   6
ATOM      6  C   UNL     1      15.453  20.857  35.585  1.00  0.00     0.000 C 
BRANCH   6   7
ATOM      7  C   UNL     1      15.628  19.638  36.499  1.00  0.00     0.000 C 
BRANCH   7   8
ATOM      8  C   UNL     1      16.980  18.959  36.253  1.00  0.00     0.000 C 
BRANCH   8   9
ATOM      9  C   UNL     1      16.796  17.485  35.862  1.00  0.00     0.000 C 
BRANCH   9  10
ATOM     10  C   UNL     1      15.847  16.727  36.809  1.00  0.00     0.000 C 
BRANCH  10  11
ATOM     11  C   UNL     1      15.194  15.467  36.211  1.00  0.00     0.000 C 
BRANCH  11  12
ATOM     12  C   UNL     1      16.099  14.222  36.153  1.00  0.00     0.000 C 
BRANCH  12  13
ATOM     13  C   UNL     1      16.490  13.794  34.723  1.00  0.00     0.006 C 
BRANCH  13  14
ATOM     14  C   UNL     1      15.889  14.704  33.639  1.00  0.00     0.053 C 
BRANCH  14  15
ATOM     15  C   UNL     1      15.569  13.933  32.392  1.00  0.00     0.041 C 
ATOM     16  O   UNL     1      16.422  13.852  31.468  1.00  0.00    -0.550 OA
ATOM     17  O   UNL     1      14.357  13.261  32.264  1.00  0.00    -0.550 OA
ENDBRANCH  14  15
ENDBRANCH  13  14
ENDBRANCH  12  13
ENDBRANCH  11  12
ENDBRANCH  10  11
ENDBRANCH   9  10
ENDBRANCH   8   9
ENDBRANCH   7   8
ENDBRANCH   6   7
ENDBRANCH   5   6
ENDBRANCH   4   5
ENDBRANCH   3   4
ENDBRANCH   2   3
ENDBRANCH   1   2
BRANCH   1  18
ATOM     18  C   UNL     1      15.096  26.040  34.414  1.00  0.00     0.000 C 
BRANCH  18  19
ATOM     19  C   UNL     1      13.750  25.337  34.660  1.00  0.00     0.000 C 
BRANCH  19  20
ATOM     20  C   UNL     1      12.634  25.855  33.738  1.00  0.00     0.000 C 
BRANCH  20  21
ATOM     21  C   UNL     1      12.004  27.162  34.254  1.00  0.00     0.000 C 
BRANCH  21  22
ATOM     22  C   UNL     1      11.886  27.201  35.785  1.00  0.00     0.000 C 
BRANCH  22  23
ATOM     23  C   UNL     1      12.255  28.574  36.370  1.00  0.00     0.000 C 
BRANCH  23  24
ATOM     24  C   UNL     1      13.706  28.942  36.038  1.00  0.00    -0.000 C 
BRANCH  24  25
ATOM     25  C   UNL     1      13.894  30.467  36.015  1.00  0.00    -0.000 C 
BRANCH  25  26
ATOM     26  C   UNL     1      15.375  30.880  36.009  1.00  0.00    -0.000 C 
BRANCH  26  27
ATOM     27  C   UNL     1      16.245  29.961  35.132  1.00  0.00    -0.000 C 
BRANCH  27  28
ATOM     28  C   UNL     1      17.017  30.728  34.047  1.00  0.00    -0.000 C 
BRANCH  28  29
ATOM     29  C   UNL     1      16.104  31.621  33.190  1.00  0.00    -0.000 C 
BRANCH  29  30
ATOM     30  C   UNL     1      16.480  31.602  31.696  1.00  0.00    -0.000 C 
BRANCH  30  31
ATOM     31  C   UNL     1      16.632  30.200  31.079  1.00  0.00    -0.003 C 
ATOM     32  C   UNL     1      16.689  30.221  29.551  1.00  0.00     0.004 C 
ENDBRANCH  30  31
ENDBRANCH  29  30
ENDBRANCH  28  29
ENDBRANCH  27  28
ENDBRANCH  26  27
ENDBRANCH  25  26
ENDBRANCH  24  25
ENDBRANCH  23  24
ENDBRANCH  22  23
ENDBRANCH  21  22
ENDBRANCH  20  21
ENDBRANCH  19  20
ENDBRANCH  18  19
ENDBRANCH   1  18
TORSDOF 28
ENDMDL
MODEL 3
REMARK VINA RESULT:    -3.993      4.126     12.464
REMARK INTER + INTRA:         -13.024
REMARK INTER:                 -10.359
REMARK INTRA:                  -2.665
REMARK UNBOUND:                -2.495
REMARK SMILES CCCCCCCCCCCCCCCCCCCCCCCCCCCCCC(=O)[O-]
REMARK SMILES IDX 16 1 17 2 18 3 19 4 20 5 21 6 22 7 23 8 24 9 25 10 26 11
REMARK SMILES IDX 27 12 28 13 29 14 30 15 31 16 32 17 15 18 14 19 13 20 12 21
REMARK SMILES IDX 11 22 10 23 9 24 8 25 7 26 6 27 5 28 4 29 3 30 2 31 1 32
REMARK H PARENT
REMARK Flexibility Score: inf
ROOT
ATOM      1  C   UNL     1      14.139  24.626  33.141  1.00  0.00     0.000 C 
ENDROOT
BRANCH   1   2
ATOM      2  C   UNL     1      13.995  25.827  34.093  1.00  0.00     0.000 C 
BRANCH   2   3
ATOM      3  C   UNL     1      14.834  25.681  35.376  1.00  0.00     0.000 C 
BRANCH   3   4
ATOM      4  C   UNL     1      16.022  26.656  35.503  1.00  0.00     0.000 C 
BRANCH   4   5
ATOM      5  C   UNL     1      17.054  26.587  34.361  1.00  0.00     0.000 C 
BRANCH   5   6
ATOM      6  C   UNL     1      16.592  27.319  33.092  1.00  0.00     0.000 C 
BRANCH   6   7
ATOM      7  C   UNL     1      15.975  28.680  33.435  1.00  0.00     0.000 C 
BRANCH   7   8
ATOM      8  C   UNL     1      17.044  29.654  33.943  1.00  0.00     0.000 C 
BRANCH   8   9
ATOM      9  C   UNL     1      16.526  30.471  35.137  1.00  0.00     0.000 C 
BRANCH   9  10
ATOM     10  C   UNL     1      15.733  31.720  34.708  1.00  0.00     0.000 C 
BRANCH  10  11
ATOM     11  C   UNL     1      14.740  32.256  35.755  1.00  0.00     0.000 C 
BRANCH  11  12
ATOM     12  C   UNL     1      14.233  31.217  36.774  1.00  0.00     0.000 C 
BRANCH  12  13
ATOM     13  C   UNL     1      12.990  30.432  36.307  1.00  0.00     0.006 C 
BRANCH  13  14
ATOM     14  C   UNL     1      13.158  28.909  36.435  1.00  0.00     0.053 C 
BRANCH  14  15
ATOM     15  C   UNL     1      11.920  28.182  35.998  1.00  0.00     0.041 C 
ATOM     16  O   UNL     1      11.628  27.071  36.515  1.00  0.00    -0.550 OA
ATOM     17  O   UNL     1      11.059  28.747  35.060  1.00  0.00    -0.550 OA
ENDBRANCH  14  15
ENDBRANCH  13  14
ENDBRANCH  12  13
ENDBRANCH  11  12
ENDBRANCH  10  11
ENDBRANCH   9  10
ENDBRANCH   8   9
ENDBRANCH   7   8
ENDBRANCH   6   7
ENDBRANCH   5   6
ENDBRANCH   4   5
ENDBRANCH   3   4
ENDBRANCH   2   3
ENDBRANCH   1   2
BRANCH   1  18
ATOM     18  C   UNL     1      14.880  23.447  33.792  1.00  0.00     0.000 C 
BRANCH  18  19
ATOM     19  C   UNL     1      16.048  22.927  32.935  1.00  0.00     0.000 C 
BRANCH  19  20
ATOM     20  C   UNL     1      16.786  21.749  33.592  1.00  0.00     0.000 C 
BRANCH  20  21
ATOM     21  C   UNL     1      16.264  21.445  35.010  1.00  0.00     0.000 C 
BRANCH  21  22
ATOM     22  C   UNL     1      16.713  20.070  35.526  1.00  0.00     0.000 C 
BRANCH  22  23
ATOM     23  C   UNL     1      16.486  18.951  34.497  1.00  0.00     0.000 C 
BRANCH  23  24
ATOM     24  C   UNL     1      15.621  17.830  35.084  1.00  0.00    -0.000 C 
BRANCH  24  25
ATOM     25  C   UNL     1      16.493  16.753  35.747  1.00  0.00    -0.000 C 
BRANCH  25  26
ATOM     26  C   UNL     1      16.068  15.327  35.360  1.00  0.00    -0.000 C 
BRANCH  26  27
ATOM     27  C   UNL     1      15.171  15.293  34.109  1.00  0.00    -0.000 C 
BRANCH  27  28
ATOM     28  C   UNL     1      14.266  14.050  34.059  1.00  0.00    -0.000 C 
BRANCH  28  29
ATOM     29  C   UNL     1      14.899  12.889  33.273  1.00  0.00    -0.000 C 
BRANCH  29  30
ATOM     30  C   UNL     1      14.686  13.011  31.752  1.00  0.00    -0.000 C 
BRANCH  30  31
ATOM     31  C   UNL     1      15.967  12.913  30.903  1.00  0.00    -0.003 C 
ATOM     32  C   UNL     1      17.120  13.749  31.460  1.00  0.00     0.004 C 
ENDBRANCH  30  31
ENDBRANCH  29  30
ENDBRANCH  28  29
ENDBRANCH  27  28
ENDBRANCH  26  27
ENDBRANCH  25  26
ENDBRANCH  24  25
ENDBRANCH  23  24
ENDBRANCH  22  23
ENDBRANCH  21  22
ENDBRANCH  20  21
ENDBRANCH  19  20
ENDBRANCH  18  19
ENDBRANCH   1  18
TORSDOF 28
ENDMDL
MODEL 4
REMARK VINA RESULT:    -3.824      3.795     12.785
REMARK INTER + INTRA:         -12.579
REMARK INTER:                  -9.877
REMARK INTRA:                  -2.702
REMARK UNBOUND:                -2.495
REMARK SMILES CCCCCCCCCCCCCCCCCCCCCCCCCCCCCC(=O)[O-]
REMARK SMILES IDX 16 1 17 2 18 3 19 4 20 5 21 6 22 7 23 8 24 9 25 10 26 11
REMARK SMILES IDX 27 12 28 13 29 14 30 15 31 16 32 17 15 18 14 19 13 20 12 21
REMARK SMILES IDX 11 22 10 23 9 24 8 25 7 26 6 27 5 28 4 29 3 30 2 31 1 32
REMARK H PARENT
REMARK Flexibility Score: inf
ROOT
ATOM      1  C   UNL     1      14.941  24.956  34.446  1.00  0.00     0.000 C 
ENDROOT
BRANCH   1   2
ATOM      2  C   UNL     1      16.271  25.692  34.198  1.00  0.00     0.000 C 
BRANCH   2   3
ATOM      3  C   UNL     1      16.213  26.649  32.994  1.00  0.00     0.000 C 
BRANCH   3   4
ATOM      4  C   UNL     1      16.018  28.139  33.344  1.00  0.00     0.000 C 
BRANCH   4   5
ATOM      5  C   UNL     1      17.011  29.107  32.674  1.00  0.00     0.000 C 
BRANCH   5   6
ATOM      6  C   UNL     1      16.942  30.529  33.251  1.00  0.00     0.000 C 
BRANCH   6   7
ATOM      7  C   UNL     1      16.201  31.474  32.298  1.00  0.00     0.000 C 
BRANCH   7   8
ATOM      8  C   UNL     1      16.191  32.907  32.845  1.00  0.00     0.000 C 
BRANCH   8   9
ATOM      9  C   UNL     1      16.249  32.914  34.380  1.00  0.00     0.000 C 
BRANCH   9  10
ATOM     10  C   UNL     1      14.853  32.903  35.032  1.00  0.00     0.000 C 
BRANCH  10  11
ATOM     11  C   UNL     1      14.810  32.370  36.477  1.00  0.00     0.000 C 
BRANCH  11  12
ATOM     12  C   UNL     1      13.788  31.245  36.732  1.00  0.00     0.000 C 
BRANCH  12  13
ATOM     13  C   UNL     1      13.976  30.007  35.830  1.00  0.00     0.006 C 
BRANCH  13  14
ATOM     14  C   UNL     1      13.593  28.692  36.528  1.00  0.00     0.053 C 
BRANCH  14  15
ATOM     15  C   UNL     1      12.306  28.139  35.987  1.00  0.00     0.041 C 
ATOM     16  O   UNL     1      11.395  28.924  35.614  1.00  0.00    -0.550 OA
ATOM     17  O   UNL     1      12.127  26.766  35.846  1.00  0.00    -0.550 OA
ENDBRANCH  14  15
ENDBRANCH  13  14
ENDBRANCH  12  13
ENDBRANCH  11  12
ENDBRANCH  10  11
ENDBRANCH   9  10
ENDBRANCH   8   9
ENDBRANCH   7   8
ENDBRANCH   6   7
ENDBRANCH   5   6
ENDBRANCH   4   5
ENDBRANCH   3   4
ENDBRANCH   2   3
ENDBRANCH   1   2
BRANCH   1  18
ATOM     18  C   UNL     1      14.755  23.750  33.511  1.00  0.00     0.000 C 
BRANCH  18  19
ATOM     19  C   UNL     1      16.057  22.962  33.284  1.00  0.00     0.000 C 
BRANCH  19  20
ATOM     20  C   UNL     1      15.924  21.476  33.657  1.00  0.00     0.000 C 
BRANCH  20  21
ATOM     21  C   UNL     1      16.059  21.236  35.173  1.00  0.00     0.000 C 
BRANCH  21  22
ATOM     22  C   UNL     1      16.114  19.745  35.535  1.00  0.00     0.000 C 
BRANCH  22  23
ATOM     23  C   UNL     1      15.320  18.869  34.553  1.00  0.00     0.000 C 
BRANCH  23  24
ATOM     24  C   UNL     1      15.486  17.381  34.883  1.00  0.00    -0.000 C 
BRANCH  24  25
ATOM     25  C   UNL     1      16.450  17.185  36.063  1.00  0.00    -0.000 C 
BRANCH  25  26
ATOM     26  C   UNL     1      16.317  15.797  36.712  1.00  0.00    -0.000 C 
BRANCH  26  27
ATOM     27  C   UNL     1      14.895  15.220  36.594  1.00  0.00    -0.000 C 
BRANCH  27  28
ATOM     28  C   UNL     1      14.886  13.731  36.210  1.00  0.00    -0.000 C 
BRANCH  28  29
ATOM     29  C   UNL     1      16.243  13.252  35.666  1.00  0.00    -0.000 C 
BRANCH  29  30
ATOM     30  C   UNL     1      16.190  12.875  34.173  1.00  0.00    -0.000 C 
BRANCH  30  31
ATOM     31  C   UNL     1      15.731  14.003  33.231  1.00  0.00    -0.003 C 
ATOM     32  C   UNL     1      14.397  13.705  32.545  1.00  0.00     0.004 C 
ENDBRANCH  30  31
ENDBRANCH  29  30
ENDBRANCH  28  29
ENDBRANCH  27  28
ENDBRANCH  26  27
ENDBRANCH  25  26
ENDBRANCH  24  25
ENDBRANCH  23  24
ENDBRANCH  22  23
ENDBRANCH  21  22
ENDBRANCH  20  21
ENDBRANCH  19  20
ENDBRANCH  18  19
ENDBRANCH   1  18
TORSDOF 28
ENDMDL
MODEL 5
REMARK VINA RESULT:    -3.705      3.459     11.596
REMARK INTER + INTRA:         -12.265
REMARK INTER:                 -10.091
REMARK INTRA:                  -2.174
REMARK UNBOUND:                -2.495
REMARK SMILES CCCCCCCCCCCCCCCCCCCCCCCCCCCCCC(=O)[O-]
REMARK SMILES IDX 16 1 17 2 18 3 19 4 20 5 21 6 22 7 23 8 24 9 25 10 26 11
REMARK SMILES IDX 27 12 28 13 29 14 30 15 31 16 32 17 15 18 14 19 13 20 12 21
REMARK SMILES IDX 11 22 10 23 9 24 8 25 7 26 6 27 5 28 4 29 3 30 2 31 1 32
REMARK H PARENT
REMARK Flexibility Score: inf
ROOT
ATOM      1  C   UNL     1      16.939  28.129  31.647  1.00  0.00     0.000 C 
ENDROOT
BRANCH   1   2
ATOM      2  C   UNL     1      16.300  29.146  30.684  1.00  0.00     0.000 C 
BRANCH   2   3
ATOM      3  C   UNL     1      17.114  30.446  30.554  1.00  0.00     0.000 C 
BRANCH   3   4
ATOM      4  C   UNL     1      16.282  31.729  30.351  1.00  0.00     0.000 C 
BRANCH   4   5
ATOM      5  C   UNL     1      16.180  32.648  31.583  1.00  0.00     0.000 C 
BRANCH   5   6
ATOM      6  C   UNL     1      16.223  31.877  32.910  1.00  0.00     0.000 C 
BRANCH   6   7
ATOM      7  C   UNL     1      15.579  32.690  34.040  1.00  0.00     0.000 C 
BRANCH   7   8
ATOM      8  C   UNL     1      15.606  31.911  35.360  1.00  0.00     0.000 C 
BRANCH   8   9
ATOM      9  C   UNL     1      14.842  32.660  36.462  1.00  0.00     0.000 C 
BRANCH   9  10
ATOM     10  C   UNL     1      13.348  32.844  36.135  1.00  0.00     0.000 C 
BRANCH  10  11
ATOM     11  C   UNL     1      12.411  31.779  36.737  1.00  0.00     0.000 C 
BRANCH  11  12
ATOM     12  C   UNL     1      13.077  30.432  37.075  1.00  0.00     0.000 C 
BRANCH  12  13
ATOM     13  C   UNL     1      12.528  29.238  36.269  1.00  0.00     0.006 C 
BRANCH  13  14
ATOM     14  C   UNL     1      13.636  28.373  35.645  1.00  0.00     0.053 C 
BRANCH  14  15
ATOM     15  C   UNL     1      13.590  26.966  36.163  1.00  0.00     0.041 C 
ATOM     16  O   UNL     1      12.744  26.154  35.702  1.00  0.00    -0.550 OA
ATOM     17  O   UNL     1      14.507  26.529  37.116  1.00  0.00    -0.550 OA
ENDBRANCH  14  15
ENDBRANCH  13  14
ENDBRANCH  12  13
ENDBRANCH  11  12
ENDBRANCH  10  11
ENDBRANCH   9  10
ENDBRANCH   8   9
ENDBRANCH   7   8
ENDBRANCH   6   7
ENDBRANCH   5   6
ENDBRANCH   4   5
ENDBRANCH   3   4
ENDBRANCH   2   3
ENDBRANCH   1   2
BRANCH   1  18
ATOM     18  C   UNL     1      16.497  28.342  33.104  1.00  0.00     0.000 C 
BRANCH  18  19
ATOM     19  C   UNL     1      16.629  27.072  33.962  1.00  0.00     0.000 C 
BRANCH  19  20
ATOM     20  C   UNL     1      16.400  25.785  33.154  1.00  0.00     0.000 C 
BRANCH  20  21
ATOM     21  C   UNL     1      15.223  24.951  33.697  1.00  0.00     0.000 C 
BRANCH  21  22
ATOM     22  C   UNL     1      15.095  23.585  33.007  1.00  0.00     0.000 C 
BRANCH  22  23
ATOM     23  C   UNL     1      16.124  22.566  33.521  1.00  0.00     0.000 C 
BRANCH  23  24
ATOM     24  C   UNL     1      15.678  21.962  34.859  1.00  0.00    -0.000 C 
BRANCH  24  25
ATOM     25  C   UNL     1      16.430  20.654  35.148  1.00  0.00    -0.000 C 
BRANCH  25  26
ATOM     26  C   UNL     1      15.505  19.543  35.673  1.00  0.00    -0.000 C 
BRANCH  26  27
ATOM     27  C   UNL     1      15.284  18.419  34.645  1.00  0.00    -0.000 C 
BRANCH  27  28
ATOM     28  C   UNL     1      16.535  17.552  34.431  1.00  0.00    -0.000 C 
BRANCH  28  29
ATOM     29  C   UNL     1      16.308  16.080  34.816  1.00  0.00    -0.000 C 
BRANCH  29  30
ATOM     30  C   UNL     1      16.034  15.179  33.596  1.00  0.00    -0.000 C 
BRANCH  30  31
ATOM     31  C   UNL     1      14.606  14.609  33.512  1.00  0.00    -0.003 C 
ATOM     32  C   UNL     1      14.390  13.398  34.421  1.00  0.00     0.004 C 
ENDBRANCH  30  31
ENDBRANCH  29  30
ENDBRANCH  28  29
ENDBRANCH  27  28
ENDBRANCH  26  27
ENDBRANCH  25  26
ENDBRANCH  24  25
ENDBRANCH  23  24
ENDBRANCH  22  23
ENDBRANCH  21  22
ENDBRANCH  20  21
ENDBRANCH  19  20
ENDBRANCH  18  19
ENDBRANCH   1  18
TORSDOF 28
ENDMDL
MODEL 6
REMARK VINA RESULT:    -3.487      1.788      4.246
REMARK INTER + INTRA:         -11.689
REMARK INTER:                  -9.122
REMARK INTRA:                  -2.567
REMARK UNBOUND:                -2.495
REMARK SMILES CCCCCCCCCCCCCCCCCCCCCCCCCCCCCC(=O)[O-]
REMARK SMILES IDX 16 1 17 2 18 3 19 4 20 5 21 6 22 7 23 8 24 9 25 10 26 11
REMARK SMILES IDX 27 12 28 13 29 14 30 15 31 16 32 17 15 18 14 19 13 20 12 21
REMARK SMILES IDX 11 22 10 23 9 24 8 25 7 26 6 27 5 28 4 29 3 30 2 31 1 32
REMARK H PARENT
REMARK Flexibility Score: inf
ROOT
ATOM      1  C   UNL     1      15.333  25.492  33.356  1.00  0.00     0.000 C 
ENDROOT
BRANCH   1   2
ATOM      2  C   UNL     1      14.938  24.068  32.925  1.00  0.00     0.000 C 
BRANCH   2   3
ATOM      3  C   UNL     1      15.971  23.005  33.340  1.00  0.00     0.000 C 
BRANCH   3   4
ATOM      4  C   UNL     1      15.665  22.267  34.660  1.00  0.00     0.000 C 
BRANCH   4   5
ATOM      5  C   UNL     1      16.736  21.257  35.111  1.00  0.00     0.000 C 
BRANCH   5   6
ATOM      6  C   UNL     1      16.795  20.008  34.219  1.00  0.00     0.000 C 
BRANCH   6   7
ATOM      7  C   UNL     1      15.940  18.875  34.801  1.00  0.00     0.000 C 
BRANCH   7   8
ATOM      8  C   UNL     1      16.736  18.058  35.825  1.00  0.00     0.000 C 
BRANCH   8   9
ATOM      9  C   UNL     1      15.864  16.964  36.459  1.00  0.00     0.000 C 
BRANCH   9  10
ATOM     10  C   UNL     1      15.283  15.985  35.421  1.00  0.00     0.000 C 
BRANCH  10  11
ATOM     11  C   UNL     1      15.481  14.492  35.747  1.00  0.00     0.000 C 
BRANCH  11  12
ATOM     12  C   UNL     1      16.814  13.886  35.268  1.00  0.00     0.000 C 
BRANCH  12  13
ATOM     13  C   UNL     1      16.667  12.876  34.112  1.00  0.00     0.006 C 
BRANCH  13  14
ATOM     14  C   UNL     1      16.751  13.534  32.724  1.00  0.00     0.053 C 
BRANCH  14  15
ATOM     15  C   UNL     1      15.479  13.346  31.951  1.00  0.00     0.041 C 
ATOM     16  O   UNL     1      14.370  13.592  32.496  1.00  0.00    -0.550 OA
ATOM     17  O   UNL     1      15.511  12.951  30.616  1.00  0.00    -0.550 OA
ENDBRANCH  14  15
ENDBRANCH  13  14
ENDBRANCH  12  13
ENDBRANCH  11  12
ENDBRANCH  10  11
ENDBRANCH   9  10
ENDBRANCH   8   9
ENDBRANCH   7   8
ENDBRANCH   6   7
ENDBRANCH   5   6
ENDBRANCH   4   5
ENDBRANCH   3   4
ENDBRANCH   2   3
ENDBRANCH   1   2
BRANCH   1  18
ATOM     18  C   UNL     1      16.814  25.594  33.756  1.00  0.00     0.000 C 
BRANCH  18  19
ATOM     19  C   UNL     1      17.025  25.592  35.280  1.00  0.00     0.000 C 
BRANCH  19  20
ATOM     20  C   UNL     1      16.835  26.983  35.907  1.00  0.00     0.000 C 
BRANCH  20  21
ATOM     21  C   UNL     1      15.362  27.277  36.250  1.00  0.00     0.000 C 
BRANCH  21  22
ATOM     22  C   UNL     1      14.717  26.168  37.096  1.00  0.00     0.000 C 
BRANCH  22  23
ATOM     23  C   UNL     1      13.488  25.546  36.415  1.00  0.00     0.000 C 
BRANCH  23  24
ATOM     24  C   UNL     1      12.802  26.558  35.489  1.00  0.00    -0.000 C 
BRANCH  24  25
ATOM     25  C   UNL     1      11.711  27.337  36.238  1.00  0.00    -0.000 C 
BRANCH  25  26
ATOM     26  C   UNL     1      11.765  28.848  35.960  1.00  0.00    -0.000 C 
BRANCH  26  27
ATOM     27  C   UNL     1      12.889  29.556  36.738  1.00  0.00    -0.000 C 
BRANCH  27  28
ATOM     28  C   UNL     1      13.060  31.028  36.329  1.00  0.00    -0.000 C 
BRANCH  28  29
ATOM     29  C   UNL     1      14.485  31.551  36.583  1.00  0.00    -0.000 C 
BRANCH  29  30
ATOM     30  C   UNL     1      15.303  31.709  35.286  1.00  0.00    -0.000 C 
BRANCH  30  31
ATOM     31  C   UNL     1      15.725  30.389  34.615  1.00  0.00    -0.003 C 
ATOM     32  C   UNL     1      16.295  30.588  33.210  1.00  0.00     0.004 C 
ENDBRANCH  30  31
ENDBRANCH  29  30
ENDBRANCH  28  29
ENDBRANCH  27  28
ENDBRANCH  26  27
ENDBRANCH  25  26
ENDBRANCH  24  25
ENDBRANCH  23  24
ENDBRANCH  22  23
ENDBRANCH  21  22
ENDBRANCH  20  21
ENDBRANCH  19  20
ENDBRANCH  18  19
ENDBRANCH   1  18
TORSDOF 28
ENDMDL
MODEL 7
REMARK VINA RESULT:    -3.404      2.564      4.381
REMARK INTER + INTRA:         -11.471
REMARK INTER:                  -8.738
REMARK INTRA:                  -2.733
REMARK UNBOUND:                -2.495
REMARK SMILES CCCCCCCCCCCCCCCCCCCCCCCCCCCCCC(=O)[O-]
REMARK SMILES IDX 16 1 17 2 18 3 19 4 20 5 21 6 22 7 23 8 24 9 25 10 26 11
REMARK SMILES IDX 27 12 28 13 29 14 30 15 31 16 32 17 15 18 14 19 13 20 12 21
REMARK SMILES IDX 11 22 10 23 9 24 8 25 7 26 6 27 5 28 4 29 3 30 2 31 1 32
REMARK H PARENT
REMARK Flexibility Score: inf
ROOT
ATOM      1  C   UNL     1      14.636  24.314  34.742  1.00  0.00     0.000 C 
ENDROOT
BRANCH   1   2
ATOM      2  C   UNL     1      16.025  24.111  34.108  1.00  0.00     0.000 C 
BRANCH   2   3
ATOM      3  C   UNL     1      16.115  22.832  33.256  1.00  0.00     0.000 C 
BRANCH   3   4
ATOM      4  C   UNL     1      16.616  21.577  34.000  1.00  0.00     0.000 C 
BRANCH   4   5
ATOM      5  C   UNL     1      15.513  20.627  34.502  1.00  0.00     0.000 C 
BRANCH   5   6
ATOM      6  C   UNL     1      15.390  20.607  36.033  1.00  0.00     0.000 C 
BRANCH   6   7
ATOM      7  C   UNL     1      16.596  19.907  36.672  1.00  0.00     0.000 C 
BRANCH   7   8
ATOM      8  C   UNL     1      16.771  18.492  36.108  1.00  0.00     0.000 C 
BRANCH   8   9
ATOM      9  C   UNL     1      15.648  17.560  36.590  1.00  0.00     0.000 C 
BRANCH   9  10
ATOM     10  C   UNL     1      15.957  16.072  36.339  1.00  0.00     0.000 C 
BRANCH  10  11
ATOM     11  C   UNL     1      16.368  15.724  34.896  1.00  0.00     0.000 C 
BRANCH  11  12
ATOM     12  C   UNL     1      15.929  14.331  34.405  1.00  0.00     0.000 C 
BRANCH  12  13
ATOM     13  C   UNL     1      14.588  14.326  33.642  1.00  0.00     0.006 C 
BRANCH  13  14
ATOM     14  C   UNL     1      14.529  13.256  32.539  1.00  0.00     0.053 C 
BRANCH  14  15
ATOM     15  C   UNL     1      15.669  13.402  31.573  1.00  0.00     0.041 C 
ATOM     16  O   UNL     1      15.595  12.876  30.431  1.00  0.00    -0.550 OA
ATOM     17  O   UNL     1      16.791  14.156  31.907  1.00  0.00    -0.550 OA
ENDBRANCH  14  15
ENDBRANCH  13  14
ENDBRANCH  12  13
ENDBRANCH  11  12
ENDBRANCH  10  11
ENDBRANCH   9  10
ENDBRANCH   8   9
ENDBRANCH   7   8
ENDBRANCH   6   7
ENDBRANCH   5   6
ENDBRANCH   4   5
ENDBRANCH   3   4
ENDBRANCH   2   3
ENDBRANCH   1   2
BRANCH   1  18
ATOM     18  C   UNL     1      14.648  24.090  36.263  1.00  0.00     0.000 C 
BRANCH  18  19
ATOM     19  C   UNL     1      15.768  24.868  36.975  1.00  0.00     0.000 C 
BRANCH  19  20
ATOM     20  C   UNL     1      15.447  26.364  37.125  1.00  0.00     0.000 C 
BRANCH  20  21
ATOM     21  C   UNL     1      16.638  27.263  36.739  1.00  0.00     0.000 C 
BRANCH  21  22
ATOM     22  C   UNL     1      16.794  27.422  35.219  1.00  0.00     0.000 C 
BRANCH  22  23
ATOM     23  C   UNL     1      16.669  28.884  34.764  1.00  0.00     0.000 C 
BRANCH  23  24
ATOM     24  C   UNL     1      16.137  29.770  35.897  1.00  0.00    -0.000 C 
BRANCH  24  25
ATOM     25  C   UNL     1      15.330  30.951  35.337  1.00  0.00    -0.000 C 
BRANCH  25  26
ATOM     26  C   UNL     1      14.128  31.320  36.222  1.00  0.00    -0.000 C 
BRANCH  26  27
ATOM     27  C   UNL     1      13.609  30.127  37.047  1.00  0.00    -0.000 C 
BRANCH  27  28
ATOM     28  C   UNL     1      12.240  29.621  36.564  1.00  0.00    -0.000 C 
BRANCH  28  29
ATOM     29  C   UNL     1      12.226  28.104  36.309  1.00  0.00    -0.000 C 
BRANCH  29  30
ATOM     30  C   UNL     1      13.080  27.695  35.093  1.00  0.00    -0.000 C 
BRANCH  30  31
ATOM     31  C   UNL     1      12.343  26.862  34.028  1.00  0.00    -0.003 C 
ATOM     32  C   UNL     1      11.010  27.480  33.602  1.00  0.00     0.004 C 
ENDBRANCH  30  31
ENDBRANCH  29  30
ENDBRANCH  28  29
ENDBRANCH  27  28
ENDBRANCH  26  27
ENDBRANCH  25  26
ENDBRANCH  24  25
ENDBRANCH  23  24
ENDBRANCH  22  23
ENDBRANCH  21  22
ENDBRANCH  20  21
ENDBRANCH  19  20
ENDBRANCH  18  19
ENDBRANCH   1  18
TORSDOF 28
ENDMDL
MODEL 8
REMARK VINA RESULT:    -3.384      4.319     12.166
REMARK INTER + INTRA:         -11.417
REMARK INTER:                  -8.544
REMARK INTRA:                  -2.873
REMARK UNBOUND:                -2.495
REMARK SMILES CCCCCCCCCCCCCCCCCCCCCCCCCCCCCC(=O)[O-]
REMARK SMILES IDX 16 1 17 2 18 3 19 4 20 5 21 6 22 7 23 8 24 9 25 10 26 11
REMARK SMILES IDX 27 12 28 13 29 14 30 15 31 16 32 17 15 18 14 19 13 20 12 21
REMARK SMILES IDX 11 22 10 23 9 24 8 25 7 26 6 27 5 28 4 29 3 30 2 31 1 32
REMARK H PARENT
REMARK Flexibility Score: inf
ROOT
ATOM      1  C   UNL     1      13.892  26.547  34.568  1.00  0.00     0.000 C 
ENDROOT
BRANCH   1   2
ATOM      2  C   UNL     1      15.403  26.701  34.316  1.00  0.00     0.000 C 
BRANCH   2   3
ATOM      3  C   UNL     1      15.998  27.958  34.975  1.00  0.00     0.000 C 
BRANCH   3   4
ATOM      4  C   UNL     1      17.125  28.649  34.180  1.00  0.00     0.000 C 
BRANCH   4   5
ATOM      5  C   UNL     1      17.051  28.479  32.652  1.00  0.00     0.000 C 
BRANCH   5   6
ATOM      6  C   UNL     1      16.382  29.669  31.948  1.00  0.00     0.000 C 
BRANCH   6   7
ATOM      7  C   UNL     1      17.119  30.977  32.258  1.00  0.00     0.000 C 
BRANCH   7   8
ATOM      8  C   UNL     1      16.159  32.172  32.209  1.00  0.00     0.000 C 
BRANCH   8   9
ATOM      9  C   UNL     1      15.842  32.686  33.622  1.00  0.00     0.000 C 
BRANCH   9  10
ATOM     10  C   UNL     1      16.909  32.286  34.658  1.00  0.00     0.000 C 
BRANCH  10  11
ATOM     11  C   UNL     1      16.379  32.048  36.085  1.00  0.00     0.000 C 
BRANCH  11  12
ATOM     12  C   UNL     1      14.844  32.018  36.220  1.00  0.00     0.000 C 
BRANCH  12  13
ATOM     13  C   UNL     1      14.303  30.794  36.987  1.00  0.00     0.006 C 
BRANCH  13  14
ATOM     14  C   UNL     1      13.647  29.751  36.067  1.00  0.00     0.053 C 
BRANCH  14  15
ATOM     15  C   UNL     1      12.149  29.820  36.142  1.00  0.00     0.041 C 
ATOM     16  O   UNL     1      11.482  28.772  36.349  1.00  0.00    -0.550 OA
ATOM     17  O   UNL     1      11.488  31.041  36.035  1.00  0.00    -0.550 OA
ENDBRANCH  14  15
ENDBRANCH  13  14
ENDBRANCH  12  13
ENDBRANCH  11  12
ENDBRANCH  10  11
ENDBRANCH   9  10
ENDBRANCH   8   9
ENDBRANCH   7   8
ENDBRANCH   6   7
ENDBRANCH   5   6
ENDBRANCH   4   5
ENDBRANCH   3   4
ENDBRANCH   2   3
ENDBRANCH   1   2
BRANCH   1  18
ATOM     18  C   UNL     1      13.568  25.360  35.490  1.00  0.00     0.000 C 
BRANCH  18  19
ATOM     19  C   UNL     1      14.370  25.385  36.802  1.00  0.00     0.000 C 
BRANCH  19  20
ATOM     20  C   UNL     1      15.318  24.182  36.941  1.00  0.00     0.000 C 
BRANCH  20  21
ATOM     21  C   UNL     1      15.166  23.178  35.782  1.00  0.00     0.000 C 
BRANCH  21  22
ATOM     22  C   UNL     1      16.467  22.987  34.987  1.00  0.00     0.000 C 
BRANCH  22  23
ATOM     23  C   UNL     1      16.528  21.628  34.273  1.00  0.00     0.000 C 
BRANCH  23  24
ATOM     24  C   UNL     1      15.683  20.581  35.009  1.00  0.00    -0.000 C 
BRANCH  24  25
ATOM     25  C   UNL     1      15.364  19.390  34.094  1.00  0.00    -0.000 C 
BRANCH  25  26
ATOM     26  C   UNL     1      15.348  18.051  34.848  1.00  0.00    -0.000 C 
BRANCH  26  27
ATOM     27  C   UNL     1      16.610  17.836  35.704  1.00  0.00    -0.000 C 
BRANCH  27  28
ATOM     28  C   UNL     1      16.881  16.352  36.003  1.00  0.00    -0.000 C 
BRANCH  28  29
ATOM     29  C   UNL     1      16.606  15.445  34.792  1.00  0.00    -0.000 C 
BRANCH  29  30
ATOM     30  C   UNL     1      16.007  14.082  35.189  1.00  0.00    -0.000 C 
BRANCH  30  31
ATOM     31  C   UNL     1      14.569  13.832  34.698  1.00  0.00    -0.003 C 
ATOM     32  C   UNL     1      14.410  14.022  33.189  1.00  0.00     0.004 C 
ENDBRANCH  30  31
ENDBRANCH  29  30
ENDBRANCH  28  29
ENDBRANCH  27  28
ENDBRANCH  26  27
ENDBRANCH  25  26
ENDBRANCH  24  25
ENDBRANCH  23  24
ENDBRANCH  22  23
ENDBRANCH  21  22
ENDBRANCH  20  21
ENDBRANCH  19  20
ENDBRANCH  18  19
ENDBRANCH   1  18
TORSDOF 28
ENDMDL
MODEL 9
REMARK VINA RESULT:    -3.321      1.718      3.106
REMARK INTER + INTRA:         -11.252
REMARK INTER:                  -8.752
REMARK INTRA:                  -2.500
REMARK UNBOUND:                -2.495
REMARK SMILES CCCCCCCCCCCCCCCCCCCCCCCCCCCCCC(=O)[O-]
REMARK SMILES IDX 16 1 17 2 18 3 19 4 20 5 21 6 22 7 23 8 24 9 25 10 26 11
REMARK SMILES IDX 27 12 28 13 29 14 30 15 31 16 32 17 15 18 14 19 13 20 12 21
REMARK SMILES IDX 11 22 10 23 9 24 8 25 7 26 6 27 5 28 4 29 3 30 2 31 1 32
REMARK H PARENT
REMARK Flexibility Score: inf
ROOT
ATOM      1  C   UNL     1      14.105  24.606  34.701  1.00  0.00     0.000 C 
ENDROOT
BRANCH   1   2
ATOM      2  C   UNL     1      15.512  24.591  34.075  1.00  0.00     0.000 C 
BRANCH   2   3
ATOM      3  C   UNL     1      15.662  23.546  32.956  1.00  0.00     0.000 C 
BRANCH   3   4
ATOM      4  C   UNL     1      16.350  22.229  33.371  1.00  0.00     0.000 C 
BRANCH   4   5
ATOM      5  C   UNL     1      15.627  21.427  34.469  1.00  0.00     0.000 C 
BRANCH   5   6
ATOM      6  C   UNL     1      16.408  20.182  34.914  1.00  0.00     0.000 C 
BRANCH   6   7
ATOM      7  C   UNL     1      15.743  18.900  34.398  1.00  0.00     0.000 C 
BRANCH   7   8
ATOM      8  C   UNL     1      15.367  17.972  35.559  1.00  0.00     0.000 C 
BRANCH   8   9
ATOM      9  C   UNL     1      16.618  17.484  36.305  1.00  0.00     0.000 C 
BRANCH   9  10
ATOM     10  C   UNL     1      16.502  16.022  36.776  1.00  0.00     0.000 C 
BRANCH  10  11
ATOM     11  C   UNL     1      17.124  14.978  35.829  1.00  0.00     0.000 C 
BRANCH  11  12
ATOM     12  C   UNL     1      17.050  15.324  34.330  1.00  0.00     0.000 C 
BRANCH  12  13
ATOM     13  C   UNL     1      15.880  14.649  33.585  1.00  0.00     0.006 C 
BRANCH  13  14
ATOM     14  C   UNL     1      16.293  13.354  32.867  1.00  0.00     0.053 C 
BRANCH  14  15
ATOM     15  C   UNL     1      15.443  13.105  31.655  1.00  0.00     0.041 C 
ATOM     16  O   UNL     1      14.190  13.041  31.769  1.00  0.00    -0.550 OA
ATOM     17  O   UNL     1      16.021  12.993  30.393  1.00  0.00    -0.550 OA
ENDBRANCH  14  15
ENDBRANCH  13  14
ENDBRANCH  12  13
ENDBRANCH  11  12
ENDBRANCH  10  11
ENDBRANCH   9  10
ENDBRANCH   8   9
ENDBRANCH   7   8
ENDBRANCH   6   7
ENDBRANCH   5   6
ENDBRANCH   4   5
ENDBRANCH   3   4
ENDBRANCH   2   3
ENDBRANCH   1   2
BRANCH   1  18
ATOM     18  C   UNL     1      14.142  24.804  36.225  1.00  0.00     0.000 C 
BRANCH  18  19
ATOM     19  C   UNL     1      13.145  25.869  36.715  1.00  0.00     0.000 C 
BRANCH  19  20
ATOM     20  C   UNL     1      13.154  27.135  35.843  1.00  0.00     0.000 C 
BRANCH  20  21
ATOM     21  C   UNL     1      11.858  27.955  35.984  1.00  0.00     0.000 C 
BRANCH  21  22
ATOM     22  C   UNL     1      12.102  29.470  35.907  1.00  0.00     0.000 C 
BRANCH  22  23
ATOM     23  C   UNL     1      13.478  29.874  36.460  1.00  0.00     0.000 C 
BRANCH  23  24
ATOM     24  C   UNL     1      13.620  31.400  36.522  1.00  0.00    -0.000 C 
BRANCH  24  25
ATOM     25  C   UNL     1      15.019  31.840  36.066  1.00  0.00    -0.000 C 
BRANCH  25  26
ATOM     26  C   UNL     1      14.981  32.737  34.818  1.00  0.00    -0.000 C 
BRANCH  26  27
ATOM     27  C   UNL     1      16.279  32.663  33.994  1.00  0.00    -0.000 C 
BRANCH  27  28
ATOM     28  C   UNL     1      16.070  32.029  32.609  1.00  0.00    -0.000 C 
BRANCH  28  29
ATOM     29  C   UNL     1      16.933  30.773  32.396  1.00  0.00    -0.000 C 
BRANCH  29  30
ATOM     30  C   UNL     1      17.125  29.955  33.688  1.00  0.00    -0.000 C 
BRANCH  30  31
ATOM     31  C   UNL     1      16.080  28.848  33.922  1.00  0.00    -0.003 C 
ATOM     32  C   UNL     1      16.502  27.843  34.994  1.00  0.00     0.004 C 
ENDBRANCH  30  31
ENDBRANCH  29  30
ENDBRANCH  28  29
ENDBRANCH  27  28
ENDBRANCH  26  27
ENDBRANCH  25  26
ENDBRANCH  24  25
ENDBRANCH  23  24
ENDBRANCH  22  23
ENDBRANCH  21  22
ENDBRANCH  20  21
ENDBRANCH  19  20
ENDBRANCH  18  19
ENDBRANCH   1  18
TORSDOF 28
ENDMDL
