MODEL 1
REMARK VINA RESULT:    -3.558      0.000      0.000
REMARK INTER + INTRA:          -7.566
REMARK INTER:                  -6.261
REMARK INTRA:                  -1.304
REMARK UNBOUND:                -1.304
REMARK SMILES CCCCCCC=CCCCCCCCC(=O)[O-]
REMARK SMILES IDX 10 1 11 2 12 3 13 4 14 5 15 6 16 7 17 8 18 9 9 10 8 11 7 12
REMARK SMILES IDX 6 13 5 14 4 15 3 16 2 17 1 18
REMARK H PARENT
REMARK Flexibility Score: inf
ROOT
ATOM      1  C   UNL     1       7.067  -3.495  -2.911  1.00  0.00     0.004 C 
ENDROOT
BRANCH   1   2
ATOM      2  C   UNL     1       8.603  -3.484  -2.834  1.00  0.00     0.000 C 
BRANCH   2   3
ATOM      3  C   UNL     1       9.186  -4.863  -2.483  1.00  0.00     0.000 C 
BRANCH   3   4
ATOM      4  C   UNL     1       9.934  -4.862  -1.141  1.00  0.00     0.000 C 
BRANCH   4   5
ATOM      5  C   UNL     1      11.384  -5.335  -1.320  1.00  0.00     0.006 C 
BRANCH   5   6
ATOM      6  C   UNL     1      11.910  -5.073  -2.737  1.00  0.00     0.053 C 
BRANCH   6   7
ATOM      7  C   UNL     1      12.650  -3.773  -2.824  1.00  0.00     0.041 C 
ATOM      8  O   UNL     1      13.039  -3.194  -1.775  1.00  0.00    -0.550 OA
ATOM      9  O   UNL     1      12.942  -3.219  -4.064  1.00  0.00    -0.550 OA
ENDBRANCH   6   7
ENDBRANCH   5   6
ENDBRANCH   4   5
ENDBRANCH   3   4
ENDBRANCH   2   3
ENDBRANCH   1   2
BRANCH   1  10
ATOM     10  C   UNL     1       6.418  -3.282  -1.535  1.00  0.00     0.027 C 
BRANCH  10  11
ATOM     11  C   UNL     1       5.385  -4.339  -1.228  1.00  0.00    -0.031 C 
ATOM     12  C   UNL     1       5.552  -5.329  -0.333  1.00  0.00    -0.031 C 
BRANCH  12  13
ATOM     13  C   UNL     1       6.827  -5.544   0.445  1.00  0.00     0.027 C 
BRANCH  13  14
ATOM     14  C   UNL     1       6.542  -5.678   1.948  1.00  0.00     0.004 C 
BRANCH  14  15
ATOM     15  C   UNL     1       5.653  -4.545   2.492  1.00  0.00     0.000 C 
BRANCH  15  16
ATOM     16  C   UNL     1       6.400  -3.453   3.287  1.00  0.00    -0.000 C 
BRANCH  16  17
ATOM     17  C   UNL     1       5.879  -2.021   3.067  1.00  0.00    -0.003 C 
ATOM     18  C   UNL     1       5.853  -1.195   4.353  1.00  0.00     0.004 C 
ENDBRANCH  16  17
ENDBRANCH  15  16
ENDBRANCH  14  15
ENDBRANCH  13  14
ENDBRANCH  12  13
ENDBRANCH  10  11
ENDBRANCH   1  10
TORSDOF 13
ENDMDL
MODEL 2
REMARK VINA RESULT:    -3.385     11.977     14.243
REMARK INTER + INTRA:          -7.262
REMARK INTER:                  -4.949
REMARK INTRA:                  -2.312
REMARK UNBOUND:                -1.304
REMARK SMILES CCCCCCC=CCCCCCCCC(=O)[O-]
REMARK SMILES IDX 10 1 11 2 12 3 13 4 14 5 15 6 16 7 17 8 18 9 9 10 8 11 7 12
REMARK SMILES IDX 6 13 5 14 4 15 3 16 2 17 1 18
REMARK H PARENT
REMARK Flexibility Score: inf
ROOT
ATOM      1  C   UNL     1      16.705   1.668   8.858  1.00  0.00     0.004 C 
ENDROOT
BRANCH   1   2
ATOM      2  C   UNL     1      16.198   1.527   7.412  1.00  0.00     0.000 C 
BRANCH   2   3
ATOM      3  C   UNL     1      15.807   0.082   7.062  1.00  0.00     0.000 C 
BRANCH   3   4
ATOM      4  C   UNL     1      15.562  -0.781   8.310  1.00  0.00     0.000 C 
BRANCH   4   5
ATOM      5  C   UNL     1      16.289  -2.129   8.197  1.00  0.00     0.006 C 
BRANCH   5   6
ATOM      6  C   UNL     1      15.331  -3.279   7.862  1.00  0.00     0.053 C 
BRANCH   6   7
ATOM      7  C   UNL     1      15.140  -3.432   6.384  1.00  0.00     0.041 C 
ATOM      8  O   UNL     1      16.139  -3.521   5.622  1.00  0.00    -0.550 OA
ATOM      9  O   UNL     1      13.859  -3.512   5.851  1.00  0.00    -0.550 OA
ENDBRANCH   6   7
ENDBRANCH   5   6
ENDBRANCH   4   5
ENDBRANCH   3   4
ENDBRANCH   2   3
ENDBRANCH   1   2
BRANCH   1  10
ATOM     10  C   UNL     1      17.447   2.995   9.082  1.00  0.00     0.027 C 
BRANCH  10  11
ATOM     11  C   UNL     1      18.044   3.531   7.804  1.00  0.00    -0.031 C 
ATOM     12  C   UNL     1      19.362   3.566   7.536  1.00  0.00    -0.031 C 
BRANCH  12  13
ATOM     13  C   UNL     1      20.424   3.117   8.509  1.00  0.00     0.027 C 
BRANCH  13  14
ATOM     14  C   UNL     1      21.049   1.785   8.070  1.00  0.00     0.004 C 
BRANCH  14  15
ATOM     15  C   UNL     1      20.405   0.567   8.757  1.00  0.00     0.000 C 
BRANCH  15  16
ATOM     16  C   UNL     1      19.501  -0.293   7.850  1.00  0.00    -0.000 C 
BRANCH  16  17
ATOM     17  C   UNL     1      19.793  -0.174   6.343  1.00  0.00    -0.003 C 
ATOM     18  C   UNL     1      18.860  -1.030   5.488  1.00  0.00     0.004 C 
ENDBRANCH  16  17
ENDBRANCH  15  16
ENDBRANCH  14  15
ENDBRANCH  13  14
ENDBRANCH  12  13
ENDBRANCH  10  11
ENDBRANCH   1  10
TORSDOF 13
ENDMDL
MODEL 3
REMARK VINA RESULT:    -3.291     11.420     13.891
REMARK INTER + INTRA:          -7.096
REMARK INTER:                  -4.950
REMARK INTRA:                  -2.146
REMARK UNBOUND:                -1.304
REMARK SMILES CCCCCCC=CCCCCCCCC(=O)[O-]
REMARK SMILES IDX 10 1 11 2 12 3 13 4 14 5 15 6 16 7 17 8 18 9 9 10 8 11 7 12
REMARK SMILES IDX 6 13 5 14 4 15 3 16 2 17 1 18
REMARK H PARENT
REMARK Flexibility Score: inf
ROOT
ATOM      1  C   UNL     1       6.981   5.562  -6.637  1.00  0.00     0.004 C 
ENDROOT
BRANCH   1   2
ATOM      2  C   UNL     1       6.311   6.235  -7.847  1.00  0.00     0.000 C 
BRANCH   2   3
ATOM      3  C   UNL     1       5.065   7.046  -7.457  1.00  0.00     0.000 C 
BRANCH   3   4
ATOM      4  C   UNL     1       4.630   6.795  -6.004  1.00  0.00     0.000 C 
BRANCH   4   5
ATOM      5  C   UNL     1       4.393   8.120  -5.266  1.00  0.00     0.006 C 
BRANCH   5   6
ATOM      6  C   UNL     1       5.685   8.931  -5.098  1.00  0.00     0.053 C 
BRANCH   6   7
ATOM      7  C   UNL     1       6.456   8.503  -3.887  1.00  0.00     0.041 C 
ATOM      8  O   UNL     1       5.964   7.663  -3.087  1.00  0.00    -0.550 OA
ATOM      9  O   UNL     1       7.732   9.002  -3.661  1.00  0.00    -0.550 OA
ENDBRANCH   6   7
ENDBRANCH   5   6
ENDBRANCH   4   5
ENDBRANCH   3   4
ENDBRANCH   2   3
ENDBRANCH   1   2
BRANCH   1  10
ATOM     10  C   UNL     1       7.420   4.123  -6.946  1.00  0.00     0.027 C 
BRANCH  10  11
ATOM     11  C   UNL     1       8.923   3.988  -6.996  1.00  0.00    -0.031 C 
ATOM     12  C   UNL     1       9.640   3.880  -8.129  1.00  0.00    -0.031 C 
BRANCH  12  13
ATOM     13  C   UNL     1       9.023   3.827  -9.505  1.00  0.00     0.027 C 
BRANCH  13  14
ATOM     14  C   UNL     1       9.103   5.194 -10.201  1.00  0.00     0.004 C 
BRANCH  14  15
ATOM     15  C   UNL     1      10.240   6.077  -9.655  1.00  0.00     0.000 C 
BRANCH  15  16
ATOM     16  C   UNL     1       9.806   7.476  -9.171  1.00  0.00    -0.000 C 
BRANCH  16  17
ATOM     17  C   UNL     1      10.179   7.803  -7.714  1.00  0.00    -0.003 C 
ATOM     18  C   UNL     1       9.069   8.543  -6.968  1.00  0.00     0.004 C 
ENDBRANCH  16  17
ENDBRANCH  15  16
ENDBRANCH  14  15
ENDBRANCH  13  14
ENDBRANCH  12  13
ENDBRANCH  10  11
ENDBRANCH   1  10
TORSDOF 13
ENDMDL
MODEL 4
REMARK VINA RESULT:    -3.287      2.465      4.198
REMARK INTER + INTRA:          -7.090
REMARK INTER:                  -5.104
REMARK INTRA:                  -1.986
REMARK UNBOUND:                -1.304
REMARK SMILES CCCCCCC=CCCCCCCCC(=O)[O-]
REMARK SMILES IDX 10 1 11 2 12 3 13 4 14 5 15 6 16 7 17 8 18 9 9 10 8 11 7 12
REMARK SMILES IDX 6 13 5 14 4 15 3 16 2 17 1 18
REMARK H PARENT
REMARK Flexibility Score: inf
ROOT
ATOM      1  C   UNL     1       9.196  -3.975  -2.097  1.00  0.00     0.004 C 
ENDROOT
BRANCH   1   2
ATOM      2  C   UNL     1      10.034  -3.864  -3.382  1.00  0.00     0.000 C 
BRANCH   2   3
ATOM      3  C   UNL     1      10.539  -5.229  -3.877  1.00  0.00     0.000 C 
BRANCH   3   4
ATOM      4  C   UNL     1      12.072  -5.305  -3.933  1.00  0.00     0.000 C 
BRANCH   4   5
ATOM      5  C   UNL     1      12.708  -4.138  -3.163  1.00  0.00     0.006 C 
BRANCH   5   6
ATOM      6  C   UNL     1      13.811  -4.607  -2.205  1.00  0.00     0.053 C 
BRANCH   6   7
ATOM      7  C   UNL     1      13.398  -4.466  -0.771  1.00  0.00     0.041 C 
ATOM      8  O   UNL     1      12.190  -4.605  -0.444  1.00  0.00    -0.550 OA
ATOM      9  O   UNL     1      14.352  -4.217   0.207  1.00  0.00    -0.550 OA
ENDBRANCH   6   7
ENDBRANCH   5   6
ENDBRANCH   4   5
ENDBRANCH   3   4
ENDBRANCH   2   3
ENDBRANCH   1   2
BRANCH   1  10
ATOM     10  C   UNL     1       8.946  -5.437  -1.695  1.00  0.00     0.027 C 
BRANCH  10  11
ATOM     11  C   UNL     1       8.814  -5.598  -0.200  1.00  0.00    -0.031 C 
ATOM     12  C   UNL     1       7.643  -5.714   0.452  1.00  0.00    -0.031 C 
BRANCH  12  13
ATOM     13  C   UNL     1       6.298  -5.645  -0.229  1.00  0.00     0.027 C 
BRANCH  13  14
ATOM     14  C   UNL     1       5.798  -4.196  -0.321  1.00  0.00     0.004 C 
BRANCH  14  15
ATOM     15  C   UNL     1       5.002  -3.918  -1.609  1.00  0.00     0.000 C 
BRANCH  15  16
ATOM     16  C   UNL     1       5.501  -4.669  -2.861  1.00  0.00    -0.000 C 
BRANCH  16  17
ATOM     17  C   UNL     1       6.137  -3.776  -3.942  1.00  0.00    -0.003 C 
ATOM     18  C   UNL     1       6.683  -4.575  -5.126  1.00  0.00     0.004 C 
ENDBRANCH  16  17
ENDBRANCH  15  16
ENDBRANCH  14  15
ENDBRANCH  13  14
ENDBRANCH  12  13
ENDBRANCH  10  11
ENDBRANCH   1  10
TORSDOF 13
ENDMDL
MODEL 5
REMARK VINA RESULT:    -3.275     12.296     14.230
REMARK INTER + INTRA:          -7.069
REMARK INTER:                  -5.019
REMARK INTRA:                  -2.050
REMARK UNBOUND:                -1.304
REMARK SMILES CCCCCCC=CCCCCCCCC(=O)[O-]
REMARK SMILES IDX 10 1 11 2 12 3 13 4 14 5 15 6 16 7 17 8 18 9 9 10 8 11 7 12
REMARK SMILES IDX 6 13 5 14 4 15 3 16 2 17 1 18
REMARK H PARENT
REMARK Flexibility Score: inf
ROOT
ATOM      1  C   UNL     1       9.611   7.199  -7.614  1.00  0.00     0.004 C 
ENDROOT
BRANCH   1   2
ATOM      2  C   UNL     1      10.051   7.302  -9.084  1.00  0.00     0.000 C 
BRANCH   2   3
ATOM      3  C   UNL     1      10.362   5.931  -9.705  1.00  0.00     0.000 C 
BRANCH   3   4
ATOM      4  C   UNL     1       9.179   5.365 -10.506  1.00  0.00     0.000 C 
BRANCH   4   5
ATOM      5  C   UNL     1       8.999   3.865 -10.232  1.00  0.00     0.006 C 
BRANCH   5   6
ATOM      6  C   UNL     1       8.346   3.597  -8.870  1.00  0.00     0.053 C 
BRANCH   6   7
ATOM      7  C   UNL     1       9.219   2.758  -7.989  1.00  0.00     0.041 C 
ATOM      8  O   UNL     1       9.324   1.520  -8.196  1.00  0.00    -0.550 OA
ATOM      9  O   UNL     1       9.945   3.347  -6.961  1.00  0.00    -0.550 OA
ENDBRANCH   6   7
ENDBRANCH   5   6
ENDBRANCH   4   5
ENDBRANCH   3   4
ENDBRANCH   2   3
ENDBRANCH   1   2
BRANCH   1  10
ATOM     10  C   UNL     1       8.083   7.145  -7.470  1.00  0.00     0.027 C 
BRANCH  10  11
ATOM     11  C   UNL     1       7.444   8.490  -7.721  1.00  0.00    -0.031 C 
ATOM     12  C   UNL     1       7.249   9.427  -6.776  1.00  0.00    -0.031 C 
BRANCH  12  13
ATOM     13  C   UNL     1       7.600   9.232  -5.322  1.00  0.00     0.027 C 
BRANCH  13  14
ATOM     14  C   UNL     1       8.908   9.953  -4.967  1.00  0.00     0.004 C 
BRANCH  14  15
ATOM     15  C   UNL     1       9.118  11.246  -5.776  1.00  0.00     0.000 C 
BRANCH  15  16
ATOM     16  C   UNL     1      10.552  11.462  -6.302  1.00  0.00    -0.000 C 
BRANCH  16  17
ATOM     17  C   UNL     1      10.929  10.609  -7.526  1.00  0.00    -0.003 C 
ATOM     18  C   UNL     1      10.132  10.980  -8.777  1.00  0.00     0.004 C 
ENDBRANCH  16  17
ENDBRANCH  15  16
ENDBRANCH  14  15
ENDBRANCH  13  14
ENDBRANCH  12  13
ENDBRANCH  10  11
ENDBRANCH   1  10
TORSDOF 13
ENDMDL
MODEL 6
REMARK VINA RESULT:    -3.205     11.854     14.238
REMARK INTER + INTRA:          -6.946
REMARK INTER:                  -4.431
REMARK INTRA:                  -2.515
REMARK UNBOUND:                -1.304
REMARK SMILES CCCCCCC=CCCCCCCCC(=O)[O-]
REMARK SMILES IDX 10 1 11 2 12 3 13 4 14 5 15 6 16 7 17 8 18 9 9 10 8 11 7 12
REMARK SMILES IDX 6 13 5 14 4 15 3 16 2 17 1 18
REMARK H PARENT
REMARK Flexibility Score: inf
ROOT
ATOM      1  C   UNL     1      10.610   8.313  -8.125  1.00  0.00     0.004 C 
ENDROOT
BRANCH   1   2
ATOM      2  C   UNL     1       9.574   9.203  -7.416  1.00  0.00     0.000 C 
BRANCH   2   3
ATOM      3  C   UNL     1       8.332   9.469  -8.282  1.00  0.00     0.000 C 
BRANCH   3   4
ATOM      4  C   UNL     1       7.026   9.074  -7.576  1.00  0.00     0.000 C 
BRANCH   4   5
ATOM      5  C   UNL     1       7.313   8.270  -6.300  1.00  0.00     0.006 C 
BRANCH   5   6
ATOM      6  C   UNL     1       6.029   7.888  -5.552  1.00  0.00     0.053 C 
BRANCH   6   7
ATOM      7  C   UNL     1       6.153   8.122  -4.078  1.00  0.00     0.041 C 
ATOM      8  O   UNL     1       6.579   9.227  -3.646  1.00  0.00    -0.550 OA
ATOM      9  O   UNL     1       5.765   7.136  -3.180  1.00  0.00    -0.550 OA
ENDBRANCH   6   7
ENDBRANCH   5   6
ENDBRANCH   4   5
ENDBRANCH   3   4
ENDBRANCH   2   3
ENDBRANCH   1   2
BRANCH   1  10
ATOM     10  C   UNL     1      10.171   6.842  -8.173  1.00  0.00     0.027 C 
BRANCH  10  11
ATOM     11  C   UNL     1      10.323   6.251  -9.554  1.00  0.00    -0.031 C 
ATOM     12  C   UNL     1       9.308   6.061 -10.416  1.00  0.00    -0.031 C 
BRANCH  12  13
ATOM     13  C   UNL     1       7.867   6.367 -10.090  1.00  0.00     0.027 C 
BRANCH  13  14
ATOM     14  C   UNL     1       7.126   5.107  -9.621  1.00  0.00     0.004 C 
BRANCH  14  15
ATOM     15  C   UNL     1       6.717   5.170  -8.138  1.00  0.00     0.000 C 
BRANCH  15  16
ATOM     16  C   UNL     1       7.642   4.401  -7.171  1.00  0.00    -0.000 C 
BRANCH  16  17
ATOM     17  C   UNL     1       8.503   3.308  -7.830  1.00  0.00    -0.003 C 
ATOM     18  C   UNL     1       9.910   3.225  -7.239  1.00  0.00     0.004 C 
ENDBRANCH  16  17
ENDBRANCH  15  16
ENDBRANCH  14  15
ENDBRANCH  13  14
ENDBRANCH  12  13
ENDBRANCH  10  11
ENDBRANCH   1  10
TORSDOF 13
ENDMDL
MODEL 7
REMARK VINA RESULT:    -3.192     11.484     13.638
REMARK INTER + INTRA:          -6.922
REMARK INTER:                  -4.321
REMARK INTRA:                  -2.601
REMARK UNBOUND:                -1.304
REMARK SMILES CCCCCCC=CCCCCCCCC(=O)[O-]
REMARK SMILES IDX 10 1 11 2 12 3 13 4 14 5 15 6 16 7 17 8 18 9 9 10 8 11 7 12
REMARK SMILES IDX 6 13 5 14 4 15 3 16 2 17 1 18
REMARK H PARENT
REMARK Flexibility Score: inf
ROOT
ATOM      1  C   UNL     1       9.163   5.626 -10.998  1.00  0.00     0.004 C 
ENDROOT
BRANCH   1   2
ATOM      2  C   UNL     1       9.945   5.622  -9.673  1.00  0.00     0.000 C 
BRANCH   2   3
ATOM      3  C   UNL     1      10.252   7.039  -9.164  1.00  0.00     0.000 C 
BRANCH   3   4
ATOM      4  C   UNL     1       9.595   7.333  -7.806  1.00  0.00     0.000 C 
BRANCH   4   5
ATOM      5  C   UNL     1       8.571   8.471  -7.927  1.00  0.00     0.006 C 
BRANCH   5   6
ATOM      6  C   UNL     1       8.856   9.615  -6.946  1.00  0.00     0.053 C 
BRANCH   6   7
ATOM      7  C   UNL     1       8.369   9.298  -5.565  1.00  0.00     0.041 C 
ATOM      8  O   UNL     1       9.066   9.607  -4.562  1.00  0.00    -0.550 OA
ATOM      9  O   UNL     1       7.132   8.693  -5.383  1.00  0.00    -0.550 OA
ENDBRANCH   6   7
ENDBRANCH   5   6
ENDBRANCH   4   5
ENDBRANCH   3   4
ENDBRANCH   2   3
ENDBRANCH   1   2
BRANCH   1  10
ATOM     10  C   UNL     1       7.702   5.190 -10.807  1.00  0.00     0.027 C 
BRANCH  10  11
ATOM     11  C   UNL     1       6.811   6.349 -10.432  1.00  0.00    -0.031 C 
ATOM     12  C   UNL     1       5.977   6.357  -9.376  1.00  0.00    -0.031 C 
BRANCH  12  13
ATOM     13  C   UNL     1       5.786   5.177  -8.455  1.00  0.00     0.027 C 
BRANCH  13  14
ATOM     14  C   UNL     1       6.467   5.417  -7.100  1.00  0.00     0.004 C 
BRANCH  14  15
ATOM     15  C   UNL     1       7.610   4.425  -6.821  1.00  0.00     0.000 C 
BRANCH  15  16
ATOM     16  C   UNL     1       7.665   3.208  -7.768  1.00  0.00    -0.000 C 
BRANCH  16  17
ATOM     17  C   UNL     1       9.057   2.568  -7.922  1.00  0.00    -0.003 C 
ATOM     18  C   UNL     1      10.101   3.188  -6.995  1.00  0.00     0.004 C 
ENDBRANCH  16  17
ENDBRANCH  15  16
ENDBRANCH  14  15
ENDBRANCH  13  14
ENDBRANCH  12  13
ENDBRANCH  10  11
ENDBRANCH   1  10
TORSDOF 13
ENDMDL
MODEL 8
REMARK VINA RESULT:    -3.184     10.915     13.030
REMARK INTER + INTRA:          -6.909
REMARK INTER:                  -4.473
REMARK INTRA:                  -2.435
REMARK UNBOUND:                -1.304
REMARK SMILES CCCCCCC=CCCCCCCCC(=O)[O-]
REMARK SMILES IDX 10 1 11 2 12 3 13 4 14 5 15 6 16 7 17 8 18 9 9 10 8 11 7 12
REMARK SMILES IDX 6 13 5 14 4 15 3 16 2 17 1 18
REMARK H PARENT
REMARK Flexibility Score: inf
ROOT
ATOM      1  C   UNL     1       6.011   6.934  -7.057  1.00  0.00     0.004 C 
ENDROOT
BRANCH   1   2
ATOM      2  C   UNL     1       7.506   6.779  -7.388  1.00  0.00     0.000 C 
BRANCH   2   3
ATOM      3  C   UNL     1       7.819   7.087  -8.861  1.00  0.00     0.000 C 
BRANCH   3   4
ATOM      4  C   UNL     1       9.325   7.043  -9.164  1.00  0.00     0.000 C 
BRANCH   4   5
ATOM      5  C   UNL     1      10.148   7.329  -7.900  1.00  0.00     0.006 C 
BRANCH   5   6
ATOM      6  C   UNL     1      10.655   8.776  -7.851  1.00  0.00     0.053 C 
BRANCH   6   7
ATOM      7  C   UNL     1       9.772   9.646  -7.010  1.00  0.00     0.041 C 
ATOM      8  O   UNL     1       9.900   9.654  -5.756  1.00  0.00    -0.550 OA
ATOM      9  O   UNL     1       8.834  10.475  -7.611  1.00  0.00    -0.550 OA
ENDBRANCH   6   7
ENDBRANCH   5   6
ENDBRANCH   4   5
ENDBRANCH   3   4
ENDBRANCH   2   3
ENDBRANCH   1   2
BRANCH   1  10
ATOM     10  C   UNL     1       5.260   5.596  -7.137  1.00  0.00     0.027 C 
BRANCH  10  11
ATOM     11  C   UNL     1       5.838   4.566  -6.197  1.00  0.00    -0.031 C 
ATOM     12  C   UNL     1       5.939   3.254  -6.475  1.00  0.00    -0.031 C 
BRANCH  12  13
ATOM     13  C   UNL     1       5.437   2.630  -7.754  1.00  0.00     0.027 C 
BRANCH  13  14
ATOM     14  C   UNL     1       6.602   2.155  -8.633  1.00  0.00     0.004 C 
BRANCH  14  15
ATOM     15  C   UNL     1       7.262   3.301  -9.422  1.00  0.00     0.000 C 
BRANCH  15  16
ATOM     16  C   UNL     1       8.780   3.461  -9.195  1.00  0.00    -0.000 C 
BRANCH  16  17
ATOM     17  C   UNL     1       9.322   2.780  -7.926  1.00  0.00    -0.003 C 
ATOM     18  C   UNL     1       9.659   3.775  -6.816  1.00  0.00     0.004 C 
ENDBRANCH  16  17
ENDBRANCH  15  16
ENDBRANCH  14  15
ENDBRANCH  13  14
ENDBRANCH  12  13
ENDBRANCH  10  11
ENDBRANCH   1  10
TORSDOF 13
ENDMDL
MODEL 9
REMARK VINA RESULT:    -3.179     11.232     13.630
REMARK INTER + INTRA:          -6.900
REMARK INTER:                  -4.855
REMARK INTRA:                  -2.044
REMARK UNBOUND:                -1.304
REMARK SMILES CCCCCCC=CCCCCCCCC(=O)[O-]
REMARK SMILES IDX 10 1 11 2 12 3 13 4 14 5 15 6 16 7 17 8 18 9 9 10 8 11 7 12
REMARK SMILES IDX 6 13 5 14 4 15 3 16 2 17 1 18
REMARK H PARENT
REMARK Flexibility Score: inf
ROOT
ATOM      1  C   UNL     1       6.586   2.871  -8.076  1.00  0.00     0.004 C 
ENDROOT
BRANCH   1   2
ATOM      2  C   UNL     1       6.016   4.044  -8.893  1.00  0.00     0.000 C 
BRANCH   2   3
ATOM      3  C   UNL     1       5.356   5.114  -8.009  1.00  0.00     0.000 C 
BRANCH   3   4
ATOM      4  C   UNL     1       6.252   6.346  -7.808  1.00  0.00     0.000 C 
BRANCH   4   5
ATOM      5  C   UNL     1       6.702   6.464  -6.344  1.00  0.00     0.006 C 
BRANCH   5   6
ATOM      6  C   UNL     1       5.765   5.718  -5.386  1.00  0.00     0.053 C 
BRANCH   6   7
ATOM      7  C   UNL     1       5.371   6.569  -4.218  1.00  0.00     0.041 C 
ATOM      8  O   UNL     1       4.291   6.347  -3.608  1.00  0.00    -0.550 OA
ATOM      9  O   UNL     1       6.212   7.584  -3.779  1.00  0.00    -0.550 OA
ENDBRANCH   6   7
ENDBRANCH   5   6
ENDBRANCH   4   5
ENDBRANCH   3   4
ENDBRANCH   2   3
ENDBRANCH   1   2
BRANCH   1  10
ATOM     10  C   UNL     1       8.078   2.642  -8.360  1.00  0.00     0.027 C 
BRANCH  10  11
ATOM     11  C   UNL     1       8.959   3.462  -7.449  1.00  0.00    -0.031 C 
ATOM     12  C   UNL     1       9.590   4.593  -7.817  1.00  0.00    -0.031 C 
BRANCH  12  13
ATOM     13  C   UNL     1       9.538   5.161  -9.214  1.00  0.00     0.027 C 
BRANCH  13  14
ATOM     14  C   UNL     1       9.964   6.636  -9.227  1.00  0.00     0.004 C 
BRANCH  14  15
ATOM     15  C   UNL     1       9.991   7.264  -7.822  1.00  0.00     0.000 C 
BRANCH  15  16
ATOM     16  C   UNL     1       9.715   8.782  -7.779  1.00  0.00    -0.000 C 
BRANCH  16  17
ATOM     17  C   UNL     1      10.970   9.667  -7.682  1.00  0.00    -0.003 C 
ATOM     18  C   UNL     1      10.655  11.099  -7.253  1.00  0.00     0.004 C 
ENDBRANCH  16  17
ENDBRANCH  15  16
ENDBRANCH  14  15
ENDBRANCH  13  14
ENDBRANCH  12  13
ENDBRANCH  10  11
ENDBRANCH   1  10
TORSDOF 13
ENDMDL
