MODEL 1
REMARK VINA RESULT:    -5.107      0.000      0.000
REMARK INTER + INTRA:         -10.539
REMARK INTER:                  -9.586
REMARK INTRA:                  -0.953
REMARK UNBOUND:                -0.953
REMARK SMILES O=C([O-])CCCCCCCCCCCCCCC(=O)[O-]
REMARK SMILES IDX 10 1 9 2 8 3 7 4 6 5 5 6 4 7 2 8 1 9 3 10 11 11 12 12 13 13
REMARK SMILES IDX 14 14 15 15 16 16 17 17 18 18 19 19 20 20
REMARK H PARENT
REMARK Flexibility Score: inf
ROOT
ATOM      1  C   UNL     1       5.511  -8.934 -22.151  1.00  0.00     0.000 C 
ENDROOT
BRANCH   1   2
ATOM      2  C   UNL     1       5.803  -7.438 -22.347  1.00  0.00     0.000 C 
BRANCH   2   3
ATOM      3  C   UNL     1       5.002  -6.547 -21.386  1.00  0.00     0.000 C 
BRANCH   3   4
ATOM      4  C   UNL     1       4.369  -7.344 -20.230  1.00  0.00     0.000 C 
BRANCH   4   5
ATOM      5  C   UNL     1       3.107  -6.670 -19.667  1.00  0.00     0.000 C 
BRANCH   5   6
ATOM      6  C   UNL     1       3.411  -5.761 -18.463  1.00  0.00     0.006 C 
BRANCH   6   7
ATOM      7  C   UNL     1       3.630  -4.301 -18.881  1.00  0.00     0.053 C 
BRANCH   7   8
ATOM      8  C   UNL     1       4.969  -3.791 -18.444  1.00  0.00     0.041 C 
ATOM      9  O   UNL     1       5.616  -4.395 -17.548  1.00  0.00    -0.550 OA
ATOM     10  O   UNL     1       5.517  -2.665 -19.048  1.00  0.00    -0.550 OA
ENDBRANCH   7   8
ENDBRANCH   6   7
ENDBRANCH   5   6
ENDBRANCH   4   5
ENDBRANCH   3   4
ENDBRANCH   2   3
ENDBRANCH   1   2
BRANCH   1  11
ATOM     11  C   UNL     1       6.319  -9.786 -23.136  1.00  0.00     0.000 C 
BRANCH  11  12
ATOM     12  C   UNL     1       5.729 -11.199 -23.254  1.00  0.00     0.000 C 
BRANCH  12  13
ATOM     13  C   UNL     1       4.293 -11.289 -22.711  1.00  0.00     0.000 C 
BRANCH  13  14
ATOM     14  C   UNL     1       4.068 -12.529 -21.834  1.00  0.00     0.000 C 
BRANCH  14  15
ATOM     15  C   UNL     1       5.266 -13.482 -21.914  1.00  0.00     0.000 C 
BRANCH  15  16
ATOM     16  C   UNL     1       4.811 -14.947 -21.833  1.00  0.00     0.006 C 
BRANCH  16  17
ATOM     17  C   UNL     1       3.342 -15.122 -22.236  1.00  0.00     0.053 C 
BRANCH  17  18
ATOM     18  C   UNL     1       2.641 -16.117 -21.362  1.00  0.00     0.041 C 
ATOM     19  O   UNL     1       2.934 -17.339 -21.431  1.00  0.00    -0.550 OA
ATOM     20  O   UNL     1       1.639 -15.698 -20.496  1.00  0.00    -0.550 OA
ENDBRANCH  17  18
ENDBRANCH  16  17
ENDBRANCH  15  16
ENDBRANCH  14  15
ENDBRANCH  13  14
ENDBRANCH  12  13
ENDBRANCH  11  12
ENDBRANCH   1  11
TORSDOF 15
ENDMDL
MODEL 2
REMARK VINA RESULT:    -5.063      2.635      3.139
REMARK INTER + INTRA:         -10.455
REMARK INTER:                  -9.013
REMARK INTRA:                  -1.442
REMARK UNBOUND:                -0.953
REMARK SMILES O=C([O-])CCCCCCCCCCCCCCC(=O)[O-]
REMARK SMILES IDX 10 1 9 2 8 3 7 4 6 5 5 6 4 7 2 8 1 9 3 10 11 11 12 12 13 13
REMARK SMILES IDX 14 14 15 15 16 16 17 17 18 18 19 19 20 20
REMARK H PARENT
REMARK Flexibility Score: inf
ROOT
ATOM      1  C   UNL     1       6.015  -9.050 -22.408  1.00  0.00     0.000 C 
ENDROOT
BRANCH   1   2
ATOM      2  C   UNL     1       5.865  -7.529 -22.254  1.00  0.00     0.000 C 
BRANCH   2   3
ATOM      3  C   UNL     1       4.455  -7.116 -21.803  1.00  0.00     0.000 C 
BRANCH   3   4
ATOM      4  C   UNL     1       4.231  -7.332 -20.295  1.00  0.00     0.000 C 
BRANCH   4   5
ATOM      5  C   UNL     1       3.077  -6.480 -19.741  1.00  0.00     0.000 C 
BRANCH   5   6
ATOM      6  C   UNL     1       3.442  -5.779 -18.421  1.00  0.00     0.006 C 
BRANCH   6   7
ATOM      7  C   UNL     1       3.224  -4.262 -18.491  1.00  0.00     0.053 C 
BRANCH   7   8
ATOM      8  C   UNL     1       4.503  -3.525 -18.749  1.00  0.00     0.041 C 
ATOM      9  O   UNL     1       4.573  -2.687 -19.686  1.00  0.00    -0.550 OA
ATOM     10  O   UNL     1       5.607  -3.741 -17.933  1.00  0.00    -0.550 OA
ENDBRANCH   7   8
ENDBRANCH   6   7
ENDBRANCH   5   6
ENDBRANCH   4   5
ENDBRANCH   3   4
ENDBRANCH   2   3
ENDBRANCH   1   2
BRANCH   1  11
ATOM     11  C   UNL     1       7.037  -9.395 -23.498  1.00  0.00     0.000 C 
BRANCH  11  12
ATOM     12  C   UNL     1       6.849 -10.837 -23.993  1.00  0.00     0.000 C 
BRANCH  12  13
ATOM     13  C   UNL     1       5.472 -11.415 -23.625  1.00  0.00     0.000 C 
BRANCH  13  14
ATOM     14  C   UNL     1       5.574 -12.733 -22.843  1.00  0.00     0.000 C 
BRANCH  14  15
ATOM     15  C   UNL     1       4.511 -12.801 -21.741  1.00  0.00     0.000 C 
BRANCH  15  16
ATOM     16  C   UNL     1       3.292 -11.938 -22.097  1.00  0.00     0.006 C 
BRANCH  16  17
ATOM     17  C   UNL     1       2.992 -10.885 -21.022  1.00  0.00     0.053 C 
BRANCH  17  18
ATOM     18  C   UNL     1       1.979  -9.886 -21.490  1.00  0.00     0.041 C 
ATOM     19  O   UNL     1       1.979  -9.496 -22.687  1.00  0.00    -0.550 OA
ATOM     20  O   UNL     1       1.056  -9.360 -20.595  1.00  0.00    -0.550 OA
ENDBRANCH  17  18
ENDBRANCH  16  17
ENDBRANCH  15  16
ENDBRANCH  14  15
ENDBRANCH  13  14
ENDBRANCH  12  13
ENDBRANCH  11  12
ENDBRANCH   1  11
TORSDOF 15
ENDMDL
MODEL 3
REMARK VINA RESULT:    -4.977      0.957      9.235
REMARK INTER + INTRA:         -10.295
REMARK INTER:                  -9.334
REMARK INTRA:                  -0.961
REMARK UNBOUND:                -0.953
REMARK SMILES O=C([O-])CCCCCCCCCCCCCCC(=O)[O-]
REMARK SMILES IDX 10 1 9 2 8 3 7 4 6 5 5 6 4 7 2 8 1 9 3 10 11 11 12 12 13 13
REMARK SMILES IDX 14 14 15 15 16 16 17 17 18 18 19 19 20 20
REMARK H PARENT
REMARK Flexibility Score: inf
ROOT
ATOM      1  C   UNL     1       6.940  -9.172 -23.249  1.00  0.00     0.000 C 
ENDROOT
BRANCH   1   2
ATOM      2  C   UNL     1       6.347 -10.532 -23.649  1.00  0.00     0.000 C 
BRANCH   2   3
ATOM      3  C   UNL     1       5.124 -10.917 -22.803  1.00  0.00     0.000 C 
BRANCH   3   4
ATOM      4  C   UNL     1       4.026 -11.607 -23.632  1.00  0.00     0.000 C 
BRANCH   4   5
ATOM      5  C   UNL     1       3.560 -12.934 -23.009  1.00  0.00     0.000 C 
BRANCH   5   6
ATOM      6  C   UNL     1       4.349 -13.298 -21.739  1.00  0.00     0.006 C 
BRANCH   6   7
ATOM      7  C   UNL     1       5.021 -14.673 -21.850  1.00  0.00     0.053 C 
BRANCH   7   8
ATOM      8  C   UNL     1       4.016 -15.784 -21.893  1.00  0.00     0.041 C 
ATOM      9  O   UNL     1       4.298 -16.871 -22.461  1.00  0.00    -0.550 OA
ATOM     10  O   UNL     1       2.779 -15.628 -21.278  1.00  0.00    -0.550 OA
ENDBRANCH   7   8
ENDBRANCH   6   7
ENDBRANCH   5   6
ENDBRANCH   4   5
ENDBRANCH   3   4
ENDBRANCH   2   3
ENDBRANCH   1   2
BRANCH   1  11
ATOM     11  C   UNL     1       6.172  -8.563 -22.071  1.00  0.00     0.000 C 
BRANCH  11  12
ATOM     12  C   UNL     1       5.590  -7.191 -22.444  1.00  0.00     0.000 C 
BRANCH  12  13
ATOM     13  C   UNL     1       4.061  -7.135 -22.293  1.00  0.00     0.000 C 
BRANCH  13  14
ATOM     14  C   UNL     1       3.596  -7.430 -20.859  1.00  0.00     0.000 C 
BRANCH  14  15
ATOM     15  C   UNL     1       2.992  -6.179 -20.211  1.00  0.00     0.000 C 
BRANCH  15  16
ATOM     16  C   UNL     1       3.505  -6.000 -18.774  1.00  0.00     0.006 C 
BRANCH  16  17
ATOM     17  C   UNL     1       3.397  -4.547 -18.295  1.00  0.00     0.053 C 
BRANCH  17  18
ATOM     18  C   UNL     1       4.680  -3.799 -18.495  1.00  0.00     0.041 C 
ATOM     19  O   UNL     1       5.551  -3.780 -17.586  1.00  0.00    -0.550 OA
ATOM     20  O   UNL     1       4.898  -3.094 -19.672  1.00  0.00    -0.550 OA
ENDBRANCH  17  18
ENDBRANCH  16  17
ENDBRANCH  15  16
ENDBRANCH  14  15
ENDBRANCH  13  14
ENDBRANCH  12  13
ENDBRANCH  11  12
ENDBRANCH   1  11
TORSDOF 15
ENDMDL
MODEL 4
REMARK VINA RESULT:    -4.930      2.427      3.459
REMARK INTER + INTRA:         -10.206
REMARK INTER:                  -8.137
REMARK INTRA:                  -2.069
REMARK UNBOUND:                -0.953
REMARK SMILES O=C([O-])CCCCCCCCCCCCCCC(=O)[O-]
REMARK SMILES IDX 10 1 9 2 8 3 7 4 6 5 5 6 4 7 2 8 1 9 3 10 11 11 12 12 13 13
REMARK SMILES IDX 14 14 15 15 16 16 17 17 18 18 19 19 20 20
REMARK H PARENT
REMARK Flexibility Score: inf
ROOT
ATOM      1  C   UNL     1       5.469  -5.682 -21.542  1.00  0.00     0.000 C 
ENDROOT
BRANCH   1   2
ATOM      2  C   UNL     1       4.377  -4.641 -21.834  1.00  0.00     0.000 C 
BRANCH   2   3
ATOM      3  C   UNL     1       2.965  -5.247 -21.826  1.00  0.00     0.000 C 
BRANCH   3   4
ATOM      4  C   UNL     1       2.169  -4.871 -20.563  1.00  0.00     0.000 C 
BRANCH   4   5
ATOM      5  C   UNL     1       2.262  -5.942 -19.464  1.00  0.00     0.000 C 
BRANCH   5   6
ATOM      6  C   UNL     1       3.238  -5.551 -18.341  1.00  0.00     0.006 C 
BRANCH   6   7
ATOM      7  C   UNL     1       3.487  -4.038 -18.291  1.00  0.00     0.053 C 
BRANCH   7   8
ATOM      8  C   UNL     1       4.948  -3.715 -18.205  1.00  0.00     0.041 C 
ATOM      9  O   UNL     1       5.680  -4.313 -17.374  1.00  0.00    -0.550 OA
ATOM     10  O   UNL     1       5.506  -2.777 -19.065  1.00  0.00    -0.550 OA
ENDBRANCH   7   8
ENDBRANCH   6   7
ENDBRANCH   5   6
ENDBRANCH   4   5
ENDBRANCH   3   4
ENDBRANCH   2   3
ENDBRANCH   1   2
BRANCH   1  11
ATOM     11  C   UNL     1       5.479  -6.784 -22.608  1.00  0.00     0.000 C 
BRANCH  11  12
ATOM     12  C   UNL     1       5.573  -8.174 -21.961  1.00  0.00     0.000 C 
BRANCH  12  13
ATOM     13  C   UNL     1       4.630  -8.333 -20.757  1.00  0.00     0.000 C 
BRANCH  13  14
ATOM     14  C   UNL     1       3.325  -9.059 -21.119  1.00  0.00     0.000 C 
BRANCH  14  15
ATOM     15  C   UNL     1       3.358 -10.515 -20.644  1.00  0.00     0.000 C 
BRANCH  15  16
ATOM     16  C   UNL     1       2.934 -11.472 -21.769  1.00  0.00     0.006 C 
BRANCH  16  17
ATOM     17  C   UNL     1       3.634 -11.154 -23.096  1.00  0.00     0.053 C 
BRANCH  17  18
ATOM     18  C   UNL     1       5.021 -11.719 -23.142  1.00  0.00     0.041 C 
ATOM     19  O   UNL     1       5.921 -11.138 -23.802  1.00  0.00    -0.550 OA
ATOM     20  O   UNL     1       5.310 -12.907 -22.481  1.00  0.00    -0.550 OA
ENDBRANCH  17  18
ENDBRANCH  16  17
ENDBRANCH  15  16
ENDBRANCH  14  15
ENDBRANCH  13  14
ENDBRANCH  12  13
ENDBRANCH  11  12
ENDBRANCH   1  11
TORSDOF 15
ENDMDL
MODEL 5
REMARK VINA RESULT:    -4.927      1.232      2.303
REMARK INTER + INTRA:         -10.200
REMARK INTER:                  -9.264
REMARK INTRA:                  -0.936
REMARK UNBOUND:                -0.953
REMARK SMILES O=C([O-])CCCCCCCCCCCCCCC(=O)[O-]
REMARK SMILES IDX 10 1 9 2 8 3 7 4 6 5 5 6 4 7 2 8 1 9 3 10 11 11 12 12 13 13
REMARK SMILES IDX 14 14 15 15 16 16 17 17 18 18 19 19 20 20
REMARK H PARENT
REMARK Flexibility Score: inf
ROOT
ATOM      1  C   UNL     1       4.654  -7.543 -21.821  1.00  0.00     0.000 C 
ENDROOT
BRANCH   1   2
ATOM      2  C   UNL     1       4.883  -6.433 -20.784  1.00  0.00     0.000 C 
BRANCH   2   3
ATOM      3  C   UNL     1       4.033  -6.621 -19.518  1.00  0.00     0.000 C 
BRANCH   3   4
ATOM      4  C   UNL     1       2.523  -6.645 -19.819  1.00  0.00     0.000 C 
BRANCH   4   5
ATOM      5  C   UNL     1       1.826  -5.324 -19.456  1.00  0.00     0.000 C 
BRANCH   5   6
ATOM      6  C   UNL     1       2.576  -4.542 -18.363  1.00  0.00     0.006 C 
BRANCH   6   7
ATOM      7  C   UNL     1       2.925  -3.116 -18.807  1.00  0.00     0.053 C 
BRANCH   7   8
ATOM      8  C   UNL     1       4.372  -2.984 -19.172  1.00  0.00     0.041 C 
ATOM      9  O   UNL     1       4.710  -2.337 -20.198  1.00  0.00    -0.550 OA
ATOM     10  O   UNL     1       5.350  -3.549 -18.362  1.00  0.00    -0.550 OA
ENDBRANCH   7   8
ENDBRANCH   6   7
ENDBRANCH   5   6
ENDBRANCH   4   5
ENDBRANCH   3   4
ENDBRANCH   2   3
ENDBRANCH   1   2
BRANCH   1  11
ATOM     11  C   UNL     1       5.952  -7.880 -22.563  1.00  0.00     0.000 C 
BRANCH  11  12
ATOM     12  C   UNL     1       6.224  -9.391 -22.539  1.00  0.00     0.000 C 
BRANCH  12  13
ATOM     13  C   UNL     1       6.958  -9.882 -23.797  1.00  0.00     0.000 C 
BRANCH  13  14
ATOM     14  C   UNL     1       6.669 -11.358 -24.113  1.00  0.00     0.000 C 
BRANCH  14  15
ATOM     15  C   UNL     1       5.300 -11.778 -23.568  1.00  0.00     0.000 C 
BRANCH  15  16
ATOM     16  C   UNL     1       5.436 -12.934 -22.566  1.00  0.00     0.006 C 
BRANCH  16  17
ATOM     17  C   UNL     1       4.098 -13.290 -21.905  1.00  0.00     0.053 C 
BRANCH  17  18
ATOM     18  C   UNL     1       3.892 -14.773 -21.833  1.00  0.00     0.041 C 
ATOM     19  O   UNL     1       2.793 -15.242 -21.438  1.00  0.00    -0.550 OA
ATOM     20  O   UNL     1       4.928 -15.636 -22.169  1.00  0.00    -0.550 OA
ENDBRANCH  17  18
ENDBRANCH  16  17
ENDBRANCH  15  16
ENDBRANCH  14  15
ENDBRANCH  13  14
ENDBRANCH  12  13
ENDBRANCH  11  12
ENDBRANCH   1  11
TORSDOF 15
ENDMDL
MODEL 6
REMARK VINA RESULT:    -4.920      2.132      8.498
REMARK INTER + INTRA:         -10.186
REMARK INTER:                  -9.003
REMARK INTRA:                  -1.183
REMARK UNBOUND:                -0.953
REMARK SMILES O=C([O-])CCCCCCCCCCCCCCC(=O)[O-]
REMARK SMILES IDX 10 1 9 2 8 3 7 4 6 5 5 6 4 7 2 8 1 9 3 10 11 11 12 12 13 13
REMARK SMILES IDX 14 14 15 15 16 16 17 17 18 18 19 19 20 20
REMARK H PARENT
REMARK Flexibility Score: inf
ROOT
ATOM      1  C   UNL     1       6.200  -9.198 -22.497  1.00  0.00     0.000 C 
ENDROOT
BRANCH   1   2
ATOM      2  C   UNL     1       6.996  -9.716 -23.705  1.00  0.00     0.000 C 
BRANCH   2   3
ATOM      3  C   UNL     1       6.670 -11.178 -24.045  1.00  0.00     0.000 C 
BRANCH   3   4
ATOM      4  C   UNL     1       5.226 -11.563 -23.677  1.00  0.00     0.000 C 
BRANCH   4   5
ATOM      5  C   UNL     1       5.162 -12.675 -22.617  1.00  0.00     0.000 C 
BRANCH   5   6
ATOM      6  C   UNL     1       3.863 -12.633 -21.794  1.00  0.00     0.006 C 
BRANCH   6   7
ATOM      7  C   UNL     1       3.329 -11.204 -21.629  1.00  0.00     0.053 C 
BRANCH   7   8
ATOM      8  C   UNL     1       2.065 -11.169 -20.826  1.00  0.00     0.041 C 
ATOM      9  O   UNL     1       1.241 -12.118 -20.901  1.00  0.00    -0.550 OA
ATOM     10  O   UNL     1       1.812 -10.104 -19.970  1.00  0.00    -0.550 OA
ENDBRANCH   7   8
ENDBRANCH   6   7
ENDBRANCH   5   6
ENDBRANCH   4   5
ENDBRANCH   3   4
ENDBRANCH   2   3
ENDBRANCH   1   2
BRANCH   1  11
ATOM     11  C   UNL     1       6.094  -7.668 -22.523  1.00  0.00     0.000 C 
BRANCH  11  12
ATOM     12  C   UNL     1       4.731  -7.202 -21.990  1.00  0.00     0.000 C 
BRANCH  12  13
ATOM     13  C   UNL     1       4.422  -7.755 -20.589  1.00  0.00     0.000 C 
BRANCH  13  14
ATOM     14  C   UNL     1       4.287  -6.648 -19.532  1.00  0.00     0.000 C 
BRANCH  14  15
ATOM     15  C   UNL     1       2.819  -6.429 -19.152  1.00  0.00     0.000 C 
BRANCH  15  16
ATOM     16  C   UNL     1       2.652  -5.157 -18.306  1.00  0.00     0.006 C 
BRANCH  16  17
ATOM     17  C   UNL     1       3.909  -4.278 -18.325  1.00  0.00     0.053 C 
BRANCH  17  18
ATOM     18  C   UNL     1       3.680  -2.997 -19.067  1.00  0.00     0.041 C 
ATOM     19  O   UNL     1       2.575  -2.400 -18.976  1.00  0.00    -0.550 OA
ATOM     20  O   UNL     1       4.676  -2.480 -19.886  1.00  0.00    -0.550 OA
ENDBRANCH  17  18
ENDBRANCH  16  17
ENDBRANCH  15  16
ENDBRANCH  14  15
ENDBRANCH  13  14
ENDBRANCH  12  13
ENDBRANCH  11  12
ENDBRANCH   1  11
TORSDOF 15
ENDMDL
MODEL 7
REMARK VINA RESULT:    -4.914      2.055      9.154
REMARK INTER + INTRA:         -10.176
REMARK INTER:                  -8.773
REMARK INTRA:                  -1.403
REMARK UNBOUND:                -0.953
REMARK SMILES O=C([O-])CCCCCCCCCCCCCCC(=O)[O-]
REMARK SMILES IDX 10 1 9 2 8 3 7 4 6 5 5 6 4 7 2 8 1 9 3 10 11 11 12 12 13 13
REMARK SMILES IDX 14 14 15 15 16 16 17 17 18 18 19 19 20 20
REMARK H PARENT
REMARK Flexibility Score: inf
ROOT
ATOM      1  C   UNL     1       4.377  -6.926 -21.797  1.00  0.00     0.000 C 
ENDROOT
BRANCH   1   2
ATOM      2  C   UNL     1       5.711  -7.369 -22.417  1.00  0.00     0.000 C 
BRANCH   2   3
ATOM      3  C   UNL     1       5.988  -8.867 -22.218  1.00  0.00     0.000 C 
BRANCH   3   4
ATOM      4  C   UNL     1       6.917  -9.445 -23.301  1.00  0.00     0.000 C 
BRANCH   4   5
ATOM      5  C   UNL     1       6.486 -10.846 -23.765  1.00  0.00     0.000 C 
BRANCH   5   6
ATOM      6  C   UNL     1       5.072 -11.217 -23.285  1.00  0.00     0.006 C 
BRANCH   6   7
ATOM      7  C   UNL     1       5.050 -12.550 -22.526  1.00  0.00     0.053 C 
BRANCH   7   8
ATOM      8  C   UNL     1       3.676 -13.147 -22.486  1.00  0.00     0.041 C 
ATOM      9  O   UNL     1       3.461 -14.199 -21.829  1.00  0.00    -0.550 OA
ATOM     10  O   UNL     1       2.626 -12.523 -23.149  1.00  0.00    -0.550 OA
ENDBRANCH   7   8
ENDBRANCH   6   7
ENDBRANCH   5   6
ENDBRANCH   4   5
ENDBRANCH   3   4
ENDBRANCH   2   3
ENDBRANCH   1   2
BRANCH   1  11
ATOM     11  C   UNL     1       4.362  -7.179 -20.285  1.00  0.00     0.000 C 
BRANCH  11  12
ATOM     12  C   UNL     1       3.050  -6.684 -19.657  1.00  0.00     0.000 C 
BRANCH  12  13
ATOM     13  C   UNL     1       3.265  -5.521 -18.675  1.00  0.00     0.000 C 
BRANCH  13  14
ATOM     14  C   UNL     1       4.751  -5.239 -18.408  1.00  0.00     0.000 C 
BRANCH  14  15
ATOM     15  C   UNL     1       5.119  -3.807 -18.811  1.00  0.00     0.000 C 
BRANCH  15  16
ATOM     16  C   UNL     1       3.866  -2.997 -19.175  1.00  0.00     0.006 C 
BRANCH  16  17
ATOM     17  C   UNL     1       4.005  -2.287 -20.527  1.00  0.00     0.053 C 
BRANCH  17  18
ATOM     18  C   UNL     1       3.825  -3.235 -21.673  1.00  0.00     0.041 C 
ATOM     19  O   UNL     1       2.729  -3.832 -21.838  1.00  0.00    -0.550 OA
ATOM     20  O   UNL     1       4.882  -3.486 -22.540  1.00  0.00    -0.550 OA
ENDBRANCH  17  18
ENDBRANCH  16  17
ENDBRANCH  15  16
ENDBRANCH  14  15
ENDBRANCH  13  14
ENDBRANCH  12  13
ENDBRANCH  11  12
ENDBRANCH   1  11
TORSDOF 15
ENDMDL
MODEL 8
REMARK VINA RESULT:    -4.864      2.437      3.221
REMARK INTER + INTRA:         -10.082
REMARK INTER:                  -8.247
REMARK INTRA:                  -1.835
REMARK UNBOUND:                -0.953
REMARK SMILES O=C([O-])CCCCCCCCCCCCCCC(=O)[O-]
REMARK SMILES IDX 10 1 9 2 8 3 7 4 6 5 5 6 4 7 2 8 1 9 3 10 11 11 12 12 13 13
REMARK SMILES IDX 14 14 15 15 16 16 17 17 18 18 19 19 20 20
REMARK H PARENT
REMARK Flexibility Score: inf
ROOT
ATOM      1  C   UNL     1       6.881  -9.359 -23.228  1.00  0.00     0.000 C 
ENDROOT
BRANCH   1   2
ATOM      2  C   UNL     1       6.042  -8.669 -22.140  1.00  0.00     0.000 C 
BRANCH   2   3
ATOM      3  C   UNL     1       5.754  -7.195 -22.461  1.00  0.00     0.000 C 
BRANCH   3   4
ATOM      4  C   UNL     1       4.415  -6.713 -21.874  1.00  0.00     0.000 C 
BRANCH   4   5
ATOM      5  C   UNL     1       4.154  -7.267 -20.464  1.00  0.00     0.000 C 
BRANCH   5   6
ATOM      6  C   UNL     1       3.592  -6.202 -19.506  1.00  0.00     0.006 C 
BRANCH   6   7
ATOM      7  C   UNL     1       4.701  -5.488 -18.722  1.00  0.00     0.053 C 
BRANCH   7   8
ATOM      8  C   UNL     1       4.431  -4.020 -18.585  1.00  0.00     0.041 C 
ATOM      9  O   UNL     1       5.369  -3.190 -18.708  1.00  0.00    -0.550 OA
ATOM     10  O   UNL     1       3.138  -3.568 -18.352  1.00  0.00    -0.550 OA
ENDBRANCH   7   8
ENDBRANCH   6   7
ENDBRANCH   5   6
ENDBRANCH   4   5
ENDBRANCH   3   4
ENDBRANCH   2   3
ENDBRANCH   1   2
BRANCH   1  11
ATOM     11  C   UNL     1       6.257 -10.698 -23.637  1.00  0.00     0.000 C 
BRANCH  11  12
ATOM     12  C   UNL     1       5.010 -11.005 -22.794  1.00  0.00     0.000 C 
BRANCH  12  13
ATOM     13  C   UNL     1       3.949 -11.800 -23.572  1.00  0.00     0.000 C 
BRANCH  13  14
ATOM     14  C   UNL     1       2.617 -11.046 -23.697  1.00  0.00     0.000 C 
BRANCH  14  15
ATOM     15  C   UNL     1       2.657  -9.728 -22.915  1.00  0.00     0.000 C 
BRANCH  15  16
ATOM     16  C   UNL     1       1.493  -9.644 -21.917  1.00  0.00     0.006 C 
BRANCH  16  17
ATOM     17  C   UNL     1       1.862 -10.222 -20.545  1.00  0.00     0.053 C 
BRANCH  17  18
ATOM     18  C   UNL     1       0.975 -11.371 -20.170  1.00  0.00     0.041 C 
ATOM     19  O   UNL     1       0.537 -12.150 -21.056  1.00  0.00    -0.550 OA
ATOM     20  O   UNL     1       0.606 -11.560 -18.844  1.00  0.00    -0.550 OA
ENDBRANCH  17  18
ENDBRANCH  16  17
ENDBRANCH  15  16
ENDBRANCH  14  15
ENDBRANCH  13  14
ENDBRANCH  12  13
ENDBRANCH  11  12
ENDBRANCH   1  11
TORSDOF 15
ENDMDL
MODEL 9
REMARK VINA RESULT:    -4.802      2.044      8.528
REMARK INTER + INTRA:          -9.966
REMARK INTER:                  -7.736
REMARK INTRA:                  -2.231
REMARK UNBOUND:                -0.953
REMARK SMILES O=C([O-])CCCCCCCCCCCCCCC(=O)[O-]
REMARK SMILES IDX 10 1 9 2 8 3 7 4 6 5 5 6 4 7 2 8 1 9 3 10 11 11 12 12 13 13
REMARK SMILES IDX 14 14 15 15 16 16 17 17 18 18 19 19 20 20
REMARK H PARENT
REMARK Flexibility Score: inf
ROOT
ATOM      1  C   UNL     1       4.117  -5.985 -22.917  1.00  0.00     0.000 C 
ENDROOT
BRANCH   1   2
ATOM      2  C   UNL     1       5.473  -6.488 -22.398  1.00  0.00     0.000 C 
BRANCH   2   3
ATOM      3  C   UNL     1       5.473  -7.997 -22.107  1.00  0.00     0.000 C 
BRANCH   3   4
ATOM      4  C   UNL     1       4.624  -8.360 -20.875  1.00  0.00     0.000 C 
BRANCH   4   5
ATOM      5  C   UNL     1       3.821  -9.657 -21.072  1.00  0.00     0.000 C 
BRANCH   5   6
ATOM      6  C   UNL     1       3.575  -9.979 -22.557  1.00  0.00     0.006 C 
BRANCH   6   7
ATOM      7  C   UNL     1       4.272 -11.274 -22.991  1.00  0.00     0.053 C 
BRANCH   7   8
ATOM      8  C   UNL     1       3.899 -12.430 -22.114  1.00  0.00     0.041 C 
ATOM      9  O   UNL     1       2.694 -12.780 -22.005  1.00  0.00    -0.550 OA
ATOM     10  O   UNL     1       4.885 -13.141 -21.441  1.00  0.00    -0.550 OA
ENDBRANCH   7   8
ENDBRANCH   6   7
ENDBRANCH   5   6
ENDBRANCH   4   5
ENDBRANCH   3   4
ENDBRANCH   2   3
ENDBRANCH   1   2
BRANCH   1  11
ATOM     11  C   UNL     1       3.826  -4.567 -22.412  1.00  0.00     0.000 C 
BRANCH  11  12
ATOM     12  C   UNL     1       2.439  -4.490 -21.756  1.00  0.00     0.000 C 
BRANCH  12  13
ATOM     13  C   UNL     1       1.789  -5.872 -21.583  1.00  0.00     0.000 C 
BRANCH  13  14
ATOM     14  C   UNL     1       1.693  -6.301 -20.111  1.00  0.00     0.000 C 
BRANCH  14  15
ATOM     15  C   UNL     1       2.180  -5.184 -19.181  1.00  0.00     0.000 C 
BRANCH  15  16
ATOM     16  C   UNL     1       3.349  -5.663 -18.308  1.00  0.00     0.006 C 
BRANCH  16  17
ATOM     17  C   UNL     1       4.712  -5.296 -18.910  1.00  0.00     0.053 C 
BRANCH  17  18
ATOM     18  C   UNL     1       5.155  -3.928 -18.490  1.00  0.00     0.041 C 
ATOM     19  O   UNL     1       5.619  -3.739 -17.335  1.00  0.00    -0.550 OA
ATOM     20  O   UNL     1       5.023  -2.856 -19.363  1.00  0.00    -0.550 OA
ENDBRANCH  17  18
ENDBRANCH  16  17
ENDBRANCH  15  16
ENDBRANCH  14  15
ENDBRANCH  13  14
ENDBRANCH  12  13
ENDBRANCH  11  12
ENDBRANCH   1  11
TORSDOF 15
ENDMDL
