MODEL 1
REMARK VINA RESULT:    -5.363      0.000      0.000
REMARK INTER + INTRA:          -6.482
REMARK INTER:                  -6.147
REMARK INTRA:                  -0.336
REMARK UNBOUND:                -0.336
REMARK SMILES COc1ccc(C(C)=O)c(O)c1
REMARK SMILES IDX 6 1 10 2 12 3 3 4 4 5 5 6 7 7 8 8 9 9 11 10 2 12 1 13
REMARK H PARENT 11 11
REMARK Flexibility Score: inf
ROOT
ATOM      1  C   UNL     1      82.866   2.171  -0.468  1.00  0.00     0.059 A 
ATOM      2  C   UNL     1      82.183   3.357  -0.825  1.00  0.00     0.130 A 
ATOM      3  C   UNL     1      80.812   3.483  -0.552  1.00  0.00     0.093 A 
ATOM      4  C   UNL     1      80.102   2.446   0.056  1.00  0.00     0.122 A 
ATOM      5  C   UNL     1      80.776   1.261   0.395  1.00  0.00     0.047 A 
ATOM      6  C   UNL     1      82.140   1.126   0.132  1.00  0.00     0.019 A 
ENDROOT
BRANCH   1   7
ATOM      7  C   UNL     1      84.322   1.982  -0.714  1.00  0.00     0.163 C 
ATOM      8  C   UNL     1      85.281   1.610   0.376  1.00  0.00     0.093 C 
ATOM      9  O   UNL     1      84.776   2.136  -1.881  1.00  0.00    -0.294 OA
ENDBRANCH   1   7
BRANCH   2  10
ATOM     10  O   UNL     1      82.848   4.400  -1.469  1.00  0.00    -0.507 OA
ATOM     11  H   UNL     1      83.795   4.663  -1.219  1.00  0.00     0.293 HD
ENDBRANCH   2  10
BRANCH   4  12
ATOM     12  O   UNL     1      78.732   2.631   0.302  1.00  0.00    -0.497 OA
ATOM     13  C   UNL     1      77.726   1.668   0.006  1.00  0.00     0.278 C 
ENDBRANCH   4  12
TORSDOF 3
ENDMDL
MODEL 2
REMARK VINA RESULT:    -5.349      1.322      4.670
REMARK INTER + INTRA:          -6.467
REMARK INTER:                  -6.138
REMARK INTRA:                  -0.328
REMARK UNBOUND:                -0.336
REMARK SMILES COc1ccc(C(C)=O)c(O)c1
REMARK SMILES IDX 6 1 10 2 12 3 3 4 4 5 5 6 7 7 8 8 9 9 11 10 2 12 1 13
REMARK H PARENT 11 11
REMARK Flexibility Score: inf
ROOT
ATOM      1  C   UNL     1      80.306   1.535   0.001  1.00  0.00     0.059 A 
ATOM      2  C   UNL     1      80.977   2.736  -0.327  1.00  0.00     0.130 A 
ATOM      3  C   UNL     1      82.375   2.805  -0.227  1.00  0.00     0.093 A 
ATOM      4  C   UNL     1      83.120   1.708   0.209  1.00  0.00     0.122 A 
ATOM      5  C   UNL     1      82.453   0.520   0.554  1.00  0.00     0.047 A 
ATOM      6  C   UNL     1      81.063   0.439   0.453  1.00  0.00     0.019 A 
ENDROOT
BRANCH   1   7
ATOM      7  C   UNL     1      78.828   1.391  -0.101  1.00  0.00     0.163 C 
ATOM      8  C   UNL     1      78.175   0.145  -0.617  1.00  0.00     0.093 C 
ATOM      9  O   UNL     1      78.088   2.347   0.260  1.00  0.00    -0.294 OA
ENDBRANCH   1   7
BRANCH   2  10
ATOM     10  O   UNL     1      80.266   3.865  -0.730  1.00  0.00    -0.507 OA
ATOM     11  H   UNL     1      80.583   4.802  -0.509  1.00  0.00     0.293 HD
ENDBRANCH   2  10
BRANCH   4  12
ATOM     12  O   UNL     1      84.515   1.840   0.290  1.00  0.00    -0.497 OA
ATOM     13  C   UNL     1      85.362   2.113  -0.821  1.00  0.00     0.278 C 
ENDBRANCH   4  12
TORSDOF 3
ENDMDL
MODEL 3
REMARK VINA RESULT:    -5.325      1.856      2.865
REMARK INTER + INTRA:          -6.438
REMARK INTER:                  -6.105
REMARK INTRA:                  -0.334
REMARK UNBOUND:                -0.336
REMARK SMILES COc1ccc(C(C)=O)c(O)c1
REMARK SMILES IDX 6 1 10 2 12 3 3 4 4 5 5 6 7 7 8 8 9 9 11 10 2 12 1 13
REMARK H PARENT 11 11
REMARK Flexibility Score: inf
ROOT
ATOM      1  C   UNL     1      80.517   1.375   0.087  1.00  0.00     0.059 A 
ATOM      2  C   UNL     1      79.532   2.373   0.280  1.00  0.00     0.130 A 
ATOM      3  C   UNL     1      78.179   2.071   0.066  1.00  0.00     0.093 A 
ATOM      4  C   UNL     1      77.784   0.798  -0.353  1.00  0.00     0.122 A 
ATOM      5  C   UNL     1      78.762  -0.188  -0.564  1.00  0.00     0.047 A 
ATOM      6  C   UNL     1      80.111   0.100  -0.350  1.00  0.00     0.019 A 
ENDROOT
BRANCH   1   7
ATOM      7  C   UNL     1      81.966   1.627   0.314  1.00  0.00     0.163 C 
ATOM      8  C   UNL     1      82.868   0.613   0.949  1.00  0.00     0.093 C 
ATOM      9  O   UNL     1      82.464   2.730  -0.040  1.00  0.00    -0.294 OA
ENDBRANCH   1   7
BRANCH   2  10
ATOM     10  O   UNL     1      79.890   3.665   0.661  1.00  0.00    -0.507 OA
ATOM     11  H   UNL     1      80.738   3.852   1.185  1.00  0.00     0.293 HD
ENDBRANCH   2  10
BRANCH   4  12
ATOM     12  O   UNL     1      76.416   0.557  -0.553  1.00  0.00    -0.497 OA
ATOM     13  C   UNL     1      75.375   1.427  -0.117  1.00  0.00     0.278 C 
ENDBRANCH   4  12
TORSDOF 3
ENDMDL
MODEL 4
REMARK VINA RESULT:    -5.294      2.027      2.686
REMARK INTER + INTRA:          -6.404
REMARK INTER:                  -6.068
REMARK INTRA:                  -0.336
REMARK UNBOUND:                -0.336
REMARK SMILES COc1ccc(C(C)=O)c(O)c1
REMARK SMILES IDX 6 1 10 2 12 3 3 4 4 5 5 6 7 7 8 8 9 9 11 10 2 12 1 13
REMARK H PARENT 11 11
REMARK Flexibility Score: inf
ROOT
ATOM      1  C   UNL     1      82.883   1.462   0.405  1.00  0.00     0.059 A 
ATOM      2  C   UNL     1      82.135   0.311   0.747  1.00  0.00     0.130 A 
ATOM      3  C   UNL     1      80.753   0.279   0.508  1.00  0.00     0.093 A 
ATOM      4  C   UNL     1      80.093   1.377  -0.050  1.00  0.00     0.122 A 
ATOM      5  C   UNL     1      80.832   2.528  -0.371  1.00  0.00     0.047 A 
ATOM      6  C   UNL     1      82.208   2.569  -0.142  1.00  0.00     0.019 A 
ENDROOT
BRANCH   1   7
ATOM      7  C   UNL     1      84.353   1.553   0.617  1.00  0.00     0.163 C 
ATOM      8  C   UNL     1      85.309   1.849  -0.498  1.00  0.00     0.093 C 
ATOM      9  O   UNL     1      84.823   1.377   1.774  1.00  0.00    -0.294 OA
ENDBRANCH   1   7
BRANCH   2  10
ATOM     10  O   UNL     1      82.750  -0.791   1.340  1.00  0.00    -0.507 OA
ATOM     11  H   UNL     1      83.122  -0.750   2.282  1.00  0.00     0.293 HD
ENDBRANCH   2  10
BRANCH   4  12
ATOM     12  O   UNL     1      78.709   1.286  -0.262  1.00  0.00    -0.497 OA
ATOM     13  C   UNL     1      78.028   0.085  -0.613  1.00  0.00     0.278 C 
ENDBRANCH   4  12
TORSDOF 3
ENDMDL
MODEL 5
REMARK VINA RESULT:    -5.198     10.793     12.285
REMARK INTER + INTRA:          -6.293
REMARK INTER:                  -6.119
REMARK INTRA:                  -0.174
REMARK UNBOUND:                -0.336
REMARK SMILES COc1ccc(C(C)=O)c(O)c1
REMARK SMILES IDX 6 1 10 2 12 3 3 4 4 5 5 6 7 7 8 8 9 9 11 10 2 12 1 13
REMARK H PARENT 11 11
REMARK Flexibility Score: inf
ROOT
ATOM      1  C   UNL     1      70.540   1.733  -2.947  1.00  0.00     0.059 A 
ATOM      2  C   UNL     1      71.217   0.626  -2.384  1.00  0.00     0.130 A 
ATOM      3  C   UNL     1      71.013  -0.659  -2.908  1.00  0.00     0.093 A 
ATOM      4  C   UNL     1      70.135  -0.870  -3.973  1.00  0.00     0.122 A 
ATOM      5  C   UNL     1      69.447   0.226  -4.522  1.00  0.00     0.047 A 
ATOM      6  C   UNL     1      69.646   1.509  -4.011  1.00  0.00     0.019 A 
ENDROOT
BRANCH   1   7
ATOM      7  C   UNL     1      70.726   3.123  -2.449  1.00  0.00     0.163 C 
ATOM      8  C   UNL     1      71.783   4.037  -2.990  1.00  0.00     0.093 C 
ATOM      9  O   UNL     1      69.969   3.559  -1.539  1.00  0.00    -0.294 OA
ENDBRANCH   1   7
BRANCH   2  10
ATOM     10  O   UNL     1      72.072   0.791  -1.295  1.00  0.00    -0.507 OA
ATOM     11  H   UNL     1      72.599   1.645  -1.155  1.00  0.00     0.293 HD
ENDBRANCH   2  10
BRANCH   4  12
ATOM     12  O   UNL     1      69.972  -2.179  -4.453  1.00  0.00    -0.497 OA
ATOM     13  C   UNL     1      70.876  -3.248  -4.194  1.00  0.00     0.278 C 
ENDBRANCH   4  12
TORSDOF 3
ENDMDL
MODEL 6
REMARK VINA RESULT:    -5.125      9.723     12.249
REMARK INTER + INTRA:          -6.210
REMARK INTER:                  -5.906
REMARK INTRA:                  -0.304
REMARK UNBOUND:                -0.336
REMARK SMILES COc1ccc(C(C)=O)c(O)c1
REMARK SMILES IDX 6 1 10 2 12 3 3 4 4 5 5 6 7 7 8 8 9 9 11 10 2 12 1 13
REMARK H PARENT 11 11
REMARK Flexibility Score: inf
ROOT
ATOM      1  C   UNL     1      70.149   0.606  -3.366  1.00  0.00     0.059 A 
ATOM      2  C   UNL     1      70.990  -0.266  -2.635  1.00  0.00     0.130 A 
ATOM      3  C   UNL     1      71.656   0.202  -1.492  1.00  0.00     0.093 A 
ATOM      4  C   UNL     1      71.517   1.526  -1.069  1.00  0.00     0.122 A 
ATOM      5  C   UNL     1      70.697   2.397  -1.806  1.00  0.00     0.047 A 
ATOM      6  C   UNL     1      70.025   1.942  -2.941  1.00  0.00     0.019 A 
ENDROOT
BRANCH   1   7
ATOM      7  C   UNL     1      69.401   0.167  -4.576  1.00  0.00     0.163 C 
ATOM      8  C   UNL     1      68.958   1.126  -5.639  1.00  0.00     0.093 C 
ATOM      9  O   UNL     1      69.126  -1.055  -4.722  1.00  0.00    -0.294 OA
ENDBRANCH   1   7
BRANCH   2  10
ATOM     10  O   UNL     1      71.185  -1.583  -3.047  1.00  0.00    -0.507 OA
ATOM     11  H   UNL     1      71.285  -2.341  -2.380  1.00  0.00     0.293 HD
ENDBRANCH   2  10
BRANCH   4  12
ATOM     12  O   UNL     1      72.210   1.934   0.081  1.00  0.00    -0.497 OA
ATOM     13  C   UNL     1      72.763   1.044   1.045  1.00  0.00     0.278 C 
ENDBRANCH   4  12
TORSDOF 3
ENDMDL
MODEL 7
REMARK VINA RESULT:    -4.927     10.654     11.882
REMARK INTER + INTRA:          -5.983
REMARK INTER:                  -5.639
REMARK INTRA:                  -0.344
REMARK UNBOUND:                -0.336
REMARK SMILES COc1ccc(C(C)=O)c(O)c1
REMARK SMILES IDX 6 1 10 2 12 3 3 4 4 5 5 6 7 7 8 8 9 9 11 10 2 12 1 13
REMARK H PARENT 11 11
REMARK Flexibility Score: inf
ROOT
ATOM      1  C   UNL     1      71.009   1.082  -0.994  1.00  0.00     0.059 A 
ATOM      2  C   UNL     1      70.243   2.018  -1.727  1.00  0.00     0.130 A 
ATOM      3  C   UNL     1      69.845   1.720  -3.039  1.00  0.00     0.093 A 
ATOM      4  C   UNL     1      70.206   0.515  -3.645  1.00  0.00     0.122 A 
ATOM      5  C   UNL     1      70.983  -0.407  -2.924  1.00  0.00     0.047 A 
ATOM      6  C   UNL     1      71.381  -0.123  -1.616  1.00  0.00     0.019 A 
ENDROOT
BRANCH   1   7
ATOM      7  C   UNL     1      71.448   1.330   0.407  1.00  0.00     0.163 C 
ATOM      8  C   UNL     1      71.231   0.335   1.506  1.00  0.00     0.093 C 
ATOM      9  O   UNL     1      72.027   2.415   0.689  1.00  0.00    -0.294 OA
ENDBRANCH   1   7
BRANCH   2  10
ATOM     10  O   UNL     1      69.894   3.249  -1.172  1.00  0.00    -0.507 OA
ATOM     11  H   UNL     1      70.298   3.574  -0.301  1.00  0.00     0.293 HD
ENDBRANCH   2  10
BRANCH   4  12
ATOM     12  O   UNL     1      69.779   0.275  -4.960  1.00  0.00    -0.497 OA
ATOM     13  C   UNL     1      68.768   1.025  -5.626  1.00  0.00     0.278 C 
ENDBRANCH   4  12
TORSDOF 3
ENDMDL
MODEL 8
REMARK VINA RESULT:    -4.909      1.824      5.104
REMARK INTER + INTRA:          -5.962
REMARK INTER:                  -5.635
REMARK INTRA:                  -0.326
REMARK UNBOUND:                -0.336
REMARK SMILES COc1ccc(C(C)=O)c(O)c1
REMARK SMILES IDX 6 1 10 2 12 3 3 4 4 5 5 6 7 7 8 8 9 9 11 10 2 12 1 13
REMARK H PARENT 11 11
REMARK Flexibility Score: inf
ROOT
ATOM      1  C   UNL     1      81.485   1.637  -0.013  1.00  0.00     0.059 A 
ATOM      2  C   UNL     1      82.284   0.731   0.724  1.00  0.00     0.130 A 
ATOM      3  C   UNL     1      83.681   0.859   0.708  1.00  0.00     0.093 A 
ATOM      4  C   UNL     1      84.304   1.860  -0.041  1.00  0.00     0.122 A 
ATOM      5  C   UNL     1      83.512   2.747  -0.789  1.00  0.00     0.047 A 
ATOM      6  C   UNL     1      82.121   2.633  -0.776  1.00  0.00     0.019 A 
ENDROOT
BRANCH   1   7
ATOM      7  C   UNL     1      79.998   1.566  -0.024  1.00  0.00     0.163 C 
ATOM      8  C   UNL     1      79.136   2.710   0.415  1.00  0.00     0.093 C 
ATOM      9  O   UNL     1      79.433   0.510  -0.417  1.00  0.00    -0.294 OA
ENDBRANCH   1   7
BRANCH   2  10
ATOM     10  O   UNL     1      81.702  -0.305   1.454  1.00  0.00    -0.507 OA
ATOM     11  H   UNL     1      80.829  -0.180   1.953  1.00  0.00     0.293 HD
ENDBRANCH   2  10
BRANCH   4  12
ATOM     12  O   UNL     1      85.705   1.935  -0.018  1.00  0.00    -0.497 OA
ATOM     13  C   UNL     1      86.560   1.276  -0.948  1.00  0.00     0.278 C 
ENDBRANCH   4  12
TORSDOF 3
ENDMDL
MODEL 9
REMARK VINA RESULT:    -4.722      8.563      9.915
REMARK INTER + INTRA:          -5.748
REMARK INTER:                  -5.405
REMARK INTRA:                  -0.342
REMARK UNBOUND:                -0.336
REMARK SMILES COc1ccc(C(C)=O)c(O)c1
REMARK SMILES IDX 6 1 10 2 12 3 3 4 4 5 5 6 7 7 8 8 9 9 11 10 2 12 1 13
REMARK H PARENT 11 11
REMARK Flexibility Score: inf
ROOT
ATOM      1  C   UNL     1      83.127   3.111   8.377  1.00  0.00     0.059 A 
ATOM      2  C   UNL     1      83.285   1.712   8.248  1.00  0.00     0.130 A 
ATOM      3  C   UNL     1      84.470   1.189   7.707  1.00  0.00     0.093 A 
ATOM      4  C   UNL     1      85.496   2.032   7.275  1.00  0.00     0.122 A 
ATOM      5  C   UNL     1      85.332   3.423   7.386  1.00  0.00     0.047 A 
ATOM      6  C   UNL     1      84.160   3.954   7.927  1.00  0.00     0.019 A 
ENDROOT
BRANCH   1   7
ATOM      7  C   UNL     1      81.903   3.727   8.958  1.00  0.00     0.163 C 
ATOM      8  C   UNL     1      81.124   4.794   8.250  1.00  0.00     0.093 C 
ATOM      9  O   UNL     1      81.496   3.343  10.089  1.00  0.00    -0.294 OA
ENDBRANCH   1   7
BRANCH   2  10
ATOM     10  O   UNL     1      82.268   0.838   8.631  1.00  0.00    -0.507 OA
ATOM     11  H   UNL     1      81.972   0.071   8.038  1.00  0.00     0.293 HD
ENDBRANCH   2  10
BRANCH   4  12
ATOM     12  O   UNL     1      86.656   1.450   6.741  1.00  0.00    -0.497 OA
ATOM     13  C   UNL     1      86.889   0.047   6.664  1.00  0.00     0.278 C 
ENDBRANCH   4  12
TORSDOF 3
ENDMDL
