MODEL 1
REMARK VINA RESULT:    -3.913      0.000      0.000
REMARK INTER + INTRA:          -5.682
REMARK INTER:                  -5.286
REMARK INTRA:                  -0.397
REMARK UNBOUND:                -0.397
REMARK SMILES CCCCCCC=CC(=O)[O-]
REMARK SMILES IDX 5 1 6 2 7 3 8 4 9 5 10 6 11 7 4 8 3 9 2 10 1 11
REMARK H PARENT
REMARK Flexibility Score: inf
ROOT
ATOM      1  C   UNL     1      48.842   6.855 111.213  1.00  0.00     0.004 C 
ENDROOT
BRANCH   1   2
ATOM      2  C   UNL     1      47.834   7.748 111.946  1.00  0.00     0.027 C 
BRANCH   2   3
ATOM      3  C   UNL     1      46.932   6.936 112.831  1.00  0.00    -0.025 C 
ATOM      4  C   UNL     1      45.922   7.499 113.503  1.00  0.00     0.020 C 
BRANCH   4   5
ATOM      5  C   UNL     1      45.022   6.714 114.362  1.00  0.00     0.064 C 
ATOM      6  O   UNL     1      44.853   7.055 115.561  1.00  0.00    -0.545 OA
ATOM      7  O   UNL     1      44.354   5.599 113.868  1.00  0.00    -0.545 OA
ENDBRANCH   4   5
ENDBRANCH   2   3
ENDBRANCH   1   2
BRANCH   1   8
ATOM      8  C   UNL     1      48.764   5.409 111.716  1.00  0.00     0.000 C 
BRANCH   8   9
ATOM      9  C   UNL     1      50.040   4.632 111.358  1.00  0.00    -0.000 C 
BRANCH   9  10
ATOM     10  C   UNL     1      51.074   4.640 112.493  1.00  0.00    -0.003 C 
ATOM     11  C   UNL     1      50.443   4.441 113.870  1.00  0.00     0.004 C 
ENDBRANCH   9  10
ENDBRANCH   8   9
ENDBRANCH   1   8
TORSDOF 6
ENDMDL
MODEL 2
REMARK VINA RESULT:    -3.909      1.474      2.227
REMARK INTER + INTRA:          -5.677
REMARK INTER:                  -4.924
REMARK INTRA:                  -0.753
REMARK UNBOUND:                -0.397
REMARK SMILES CCCCCCC=CC(=O)[O-]
REMARK SMILES IDX 5 1 6 2 7 3 8 4 9 5 10 6 11 7 4 8 3 9 2 10 1 11
REMARK H PARENT
REMARK Flexibility Score: inf
ROOT
ATOM      1  C   UNL     1      49.337   4.889 111.367  1.00  0.00     0.004 C 
ENDROOT
BRANCH   1   2
ATOM      2  C   UNL     1      49.147   6.300 110.795  1.00  0.00     0.027 C 
BRANCH   2   3
ATOM      3  C   UNL     1      48.333   7.157 111.722  1.00  0.00    -0.025 C 
ATOM      4  C   UNL     1      47.546   6.619 112.659  1.00  0.00     0.020 C 
BRANCH   4   5
ATOM      5  C   UNL     1      46.755   7.446 113.583  1.00  0.00     0.064 C 
ATOM      6  O   UNL     1      47.334   8.068 114.511  1.00  0.00    -0.545 OA
ATOM      7  O   UNL     1      45.375   7.551 113.448  1.00  0.00    -0.545 OA
ENDBRANCH   4   5
ENDBRANCH   2   3
ENDBRANCH   1   2
BRANCH   1   8
ATOM      8  C   UNL     1      50.659   4.782 112.135  1.00  0.00     0.000 C 
BRANCH   8   9
ATOM      9  C   UNL     1      50.420   4.313 113.578  1.00  0.00    -0.000 C 
BRANCH   9  10
ATOM     10  C   UNL     1      50.477   5.467 114.591  1.00  0.00    -0.003 C 
ATOM     11  C   UNL     1      51.238   6.681 114.061  1.00  0.00     0.004 C 
ENDBRANCH   9  10
ENDBRANCH   8   9
ENDBRANCH   1   8
TORSDOF 6
ENDMDL
MODEL 3
REMARK VINA RESULT:    -3.858      2.096      2.658
REMARK INTER + INTRA:          -5.608
REMARK INTER:                  -5.305
REMARK INTRA:                  -0.303
REMARK UNBOUND:                -0.397
REMARK SMILES CCCCCCC=CC(=O)[O-]
REMARK SMILES IDX 5 1 6 2 7 3 8 4 9 5 10 6 11 7 4 8 3 9 2 10 1 11
REMARK H PARENT
REMARK Flexibility Score: inf
ROOT
ATOM      1  C   UNL     1      47.509   7.621 112.246  1.00  0.00     0.004 C 
ENDROOT
BRANCH   1   2
ATOM      2  C   UNL     1      46.545   6.980 113.252  1.00  0.00     0.027 C 
BRANCH   2   3
ATOM      3  C   UNL     1      45.911   8.017 114.134  1.00  0.00    -0.025 C 
ATOM      4  C   UNL     1      44.734   8.570 113.827  1.00  0.00     0.020 C 
BRANCH   4   5
ATOM      5  C   UNL     1      44.094   9.575 114.689  1.00  0.00     0.064 C 
ATOM      6  O   UNL     1      43.038  10.141 114.306  1.00  0.00    -0.545 OA
ATOM      7  O   UNL     1      44.640   9.912 115.923  1.00  0.00    -0.545 OA
ENDBRANCH   4   5
ENDBRANCH   2   3
ENDBRANCH   1   2
BRANCH   1   8
ATOM      8  C   UNL     1      48.863   6.902 112.248  1.00  0.00     0.000 C 
BRANCH   8   9
ATOM      9  C   UNL     1      49.092   6.157 110.925  1.00  0.00    -0.000 C 
BRANCH   9  10
ATOM     10  C   UNL     1      49.442   4.676 111.134  1.00  0.00    -0.003 C 
ATOM     11  C   UNL     1      48.527   3.990 112.147  1.00  0.00     0.004 C 
ENDBRANCH   9  10
ENDBRANCH   8   9
ENDBRANCH   1   8
TORSDOF 6
ENDMDL
MODEL 4
REMARK VINA RESULT:    -3.831      7.988     10.522
REMARK INTER + INTRA:          -5.572
REMARK INTER:                  -4.884
REMARK INTRA:                  -0.688
REMARK UNBOUND:                -0.397
REMARK SMILES CCCCCCC=CC(=O)[O-]
REMARK SMILES IDX 5 1 6 2 7 3 8 4 9 5 10 6 11 7 4 8 3 9 2 10 1 11
REMARK H PARENT
REMARK Flexibility Score: inf
ROOT
ATOM      1  C   UNL     1      42.759  12.486 121.463  1.00  0.00     0.004 C 
ENDROOT
BRANCH   1   2
ATOM      2  C   UNL     1      41.785  11.360 121.094  1.00  0.00     0.027 C 
BRANCH   2   3
ATOM      3  C   UNL     1      42.516  10.158 120.570  1.00  0.00    -0.025 C 
ATOM      4  C   UNL     1      42.999  10.124 119.323  1.00  0.00     0.020 C 
BRANCH   4   5
ATOM      5  C   UNL     1      43.730   8.960 118.801  1.00  0.00     0.064 C 
ATOM      6  O   UNL     1      43.338   8.403 117.743  1.00  0.00    -0.545 OA
ATOM      7  O   UNL     1      44.850   8.463 119.459  1.00  0.00    -0.545 OA
ENDBRANCH   4   5
ENDBRANCH   2   3
ENDBRANCH   1   2
BRANCH   1   8
ATOM      8  C   UNL     1      43.502  12.165 122.765  1.00  0.00     0.000 C 
BRANCH   8   9
ATOM      9  C   UNL     1      44.995  12.509 122.645  1.00  0.00    -0.000 C 
BRANCH   9  10
ATOM     10  C   UNL     1      45.447  12.677 121.187  1.00  0.00    -0.003 C 
ATOM     11  C   UNL     1      46.441  11.602 120.749  1.00  0.00     0.004 C 
ENDBRANCH   9  10
ENDBRANCH   8   9
ENDBRANCH   1   8
TORSDOF 6
ENDMDL
MODEL 5
REMARK VINA RESULT:    -3.814      5.526      8.708
REMARK INTER + INTRA:          -5.548
REMARK INTER:                  -5.226
REMARK INTRA:                  -0.322
REMARK UNBOUND:                -0.397
REMARK SMILES CCCCCCC=CC(=O)[O-]
REMARK SMILES IDX 5 1 6 2 7 3 8 4 9 5 10 6 11 7 4 8 3 9 2 10 1 11
REMARK H PARENT
REMARK Flexibility Score: inf
ROOT
ATOM      1  C   UNL     1      43.371   9.069 118.419  1.00  0.00     0.004 C 
ENDROOT
BRANCH   1   2
ATOM      2  C   UNL     1      43.772   9.890 117.187  1.00  0.00     0.027 C 
BRANCH   2   3
ATOM      3  C   UNL     1      43.721   9.057 115.939  1.00  0.00    -0.025 C 
ATOM      4  C   UNL     1      43.386   7.763 115.976  1.00  0.00     0.020 C 
BRANCH   4   5
ATOM      5  C   UNL     1      43.317   6.939 114.760  1.00  0.00     0.064 C 
ATOM      6  O   UNL     1      42.195   6.602 114.300  1.00  0.00    -0.545 OA
ATOM      7  O   UNL     1      44.474   6.525 114.109  1.00  0.00    -0.545 OA
ENDBRANCH   4   5
ENDBRANCH   2   3
ENDBRANCH   1   2
BRANCH   1   8
ATOM      8  C   UNL     1      43.582   9.872 119.708  1.00  0.00     0.000 C 
BRANCH   8   9
ATOM      9  C   UNL     1      42.238  10.238 120.354  1.00  0.00    -0.000 C 
BRANCH   9  10
ATOM     10  C   UNL     1      42.242  11.647 120.967  1.00  0.00    -0.003 C 
ATOM     11  C   UNL     1      42.683  12.723 119.975  1.00  0.00     0.004 C 
ENDBRANCH   9  10
ENDBRANCH   8   9
ENDBRANCH   1   8
TORSDOF 6
ENDMDL
MODEL 6
REMARK VINA RESULT:    -3.812      2.327      3.706
REMARK INTER + INTRA:          -5.546
REMARK INTER:                  -4.823
REMARK INTRA:                  -0.723
REMARK UNBOUND:                -0.397
REMARK SMILES CCCCCCC=CC(=O)[O-]
REMARK SMILES IDX 5 1 6 2 7 3 8 4 9 5 10 6 11 7 4 8 3 9 2 10 1 11
REMARK H PARENT
REMARK Flexibility Score: inf
ROOT
ATOM      1  C   UNL     1      51.398   4.627 112.553  1.00  0.00     0.004 C 
ENDROOT
BRANCH   1   2
ATOM      2  C   UNL     1      50.304   4.692 111.479  1.00  0.00     0.027 C 
BRANCH   2   3
ATOM      3  C   UNL     1      49.575   6.005 111.525  1.00  0.00    -0.025 C 
ATOM      4  C   UNL     1      48.300   6.082 111.918  1.00  0.00     0.020 C 
BRANCH   4   5
ATOM      5  C   UNL     1      47.578   7.361 111.982  1.00  0.00     0.064 C 
ATOM      6  O   UNL     1      47.719   8.202 111.057  1.00  0.00    -0.545 OA
ATOM      7  O   UNL     1      46.740   7.658 113.052  1.00  0.00    -0.545 OA
ENDBRANCH   4   5
ENDBRANCH   2   3
ENDBRANCH   1   2
BRANCH   1   8
ATOM      8  C   UNL     1      50.798   4.331 113.932  1.00  0.00     0.000 C 
BRANCH   8   9
ATOM      9  C   UNL     1      51.092   5.473 114.916  1.00  0.00    -0.000 C 
BRANCH   9  10
ATOM     10  C   UNL     1      49.835   6.279 115.278  1.00  0.00    -0.003 C 
ATOM     11  C   UNL     1      50.009   7.780 115.049  1.00  0.00     0.004 C 
ENDBRANCH   9  10
ENDBRANCH   8   9
ENDBRANCH   1   8
TORSDOF 6
ENDMDL
MODEL 7
REMARK VINA RESULT:    -3.749      6.541      8.038
REMARK INTER + INTRA:          -5.460
REMARK INTER:                  -4.888
REMARK INTRA:                  -0.573
REMARK UNBOUND:                -0.397
REMARK SMILES CCCCCCC=CC(=O)[O-]
REMARK SMILES IDX 5 1 6 2 7 3 8 4 9 5 10 6 11 7 4 8 3 9 2 10 1 11
REMARK H PARENT
REMARK Flexibility Score: inf
ROOT
ATOM      1  C   UNL     1      43.732   9.907 116.795  1.00  0.00     0.004 C 
ENDROOT
BRANCH   1   2
ATOM      2  C   UNL     1      43.738   8.935 117.982  1.00  0.00     0.027 C 
BRANCH   2   3
ATOM      3  C   UNL     1      42.987   9.502 119.152  1.00  0.00    -0.025 C 
ATOM      4  C   UNL     1      43.023  10.807 119.440  1.00  0.00     0.020 C 
BRANCH   4   5
ATOM      5  C   UNL     1      42.281  11.378 120.573  1.00  0.00     0.064 C 
ATOM      6  O   UNL     1      41.395  10.692 121.145  1.00  0.00    -0.545 OA
ATOM      7  O   UNL     1      42.542  12.668 121.024  1.00  0.00    -0.545 OA
ENDBRANCH   4   5
ENDBRANCH   2   3
ENDBRANCH   1   2
BRANCH   1   8
ATOM      8  C   UNL     1      44.931   9.657 115.874  1.00  0.00     0.000 C 
BRANCH   8   9
ATOM      9  C   UNL     1      46.097   9.023 116.648  1.00  0.00    -0.000 C 
BRANCH   9  10
ATOM     10  C   UNL     1      47.165  10.050 117.051  1.00  0.00    -0.003 C 
ATOM     11  C   UNL     1      47.252  10.251 118.563  1.00  0.00     0.004 C 
ENDBRANCH   9  10
ENDBRANCH   8   9
ENDBRANCH   1   8
TORSDOF 6
ENDMDL
MODEL 8
REMARK VINA RESULT:    -3.737      6.672      9.339
REMARK INTER + INTRA:          -5.444
REMARK INTER:                  -4.842
REMARK INTRA:                  -0.602
REMARK UNBOUND:                -0.397
REMARK SMILES CCCCCCC=CC(=O)[O-]
REMARK SMILES IDX 5 1 6 2 7 3 8 4 9 5 10 6 11 7 4 8 3 9 2 10 1 11
REMARK H PARENT
REMARK Flexibility Score: inf
ROOT
ATOM      1  C   UNL     1      44.823   9.600 119.669  1.00  0.00     0.004 C 
ENDROOT
BRANCH   1   2
ATOM      2  C   UNL     1      43.624   8.797 119.149  1.00  0.00     0.027 C 
BRANCH   2   3
ATOM      3  C   UNL     1      43.419   9.018 117.677  1.00  0.00    -0.025 C 
ATOM      4  C   UNL     1      44.072   9.981 117.018  1.00  0.00     0.020 C 
BRANCH   4   5
ATOM      5  C   UNL     1      43.893  10.199 115.575  1.00  0.00     0.064 C 
ATOM      6  O   UNL     1      44.577   9.533 114.757  1.00  0.00    -0.545 OA
ATOM      7  O   UNL     1      42.978  11.133 115.100  1.00  0.00    -0.545 OA
ENDBRANCH   4   5
ENDBRANCH   2   3
ENDBRANCH   1   2
BRANCH   1   8
ATOM      8  C   UNL     1      44.389  10.605 120.741  1.00  0.00     0.000 C 
BRANCH   8   9
ATOM      9  C   UNL     1      42.869  10.553 120.960  1.00  0.00    -0.000 C 
BRANCH   9  10
ATOM     10  C   UNL     1      42.227  11.949 120.975  1.00  0.00    -0.003 C 
ATOM     11  C   UNL     1      42.637  12.802 119.776  1.00  0.00     0.004 C 
ENDBRANCH   9  10
ENDBRANCH   8   9
ENDBRANCH   1   8
TORSDOF 6
ENDMDL
MODEL 9
REMARK VINA RESULT:    -3.734      8.025     10.756
REMARK INTER + INTRA:          -5.441
REMARK INTER:                  -4.994
REMARK INTRA:                  -0.446
REMARK UNBOUND:                -0.397
REMARK SMILES CCCCCCC=CC(=O)[O-]
REMARK SMILES IDX 5 1 6 2 7 3 8 4 9 5 10 6 11 7 4 8 3 9 2 10 1 11
REMARK H PARENT
REMARK Flexibility Score: inf
ROOT
ATOM      1  C   UNL     1      42.256  14.609 113.191  1.00  0.00     0.004 C 
ENDROOT
BRANCH   1   2
ATOM      2  C   UNL     1      41.912  13.820 114.460  1.00  0.00     0.027 C 
BRANCH   2   3
ATOM      3  C   UNL     1      42.084  12.343 114.245  1.00  0.00    -0.025 C 
ATOM      4  C   UNL     1      41.980  11.799 113.029  1.00  0.00     0.020 C 
BRANCH   4   5
ATOM      5  C   UNL     1      42.161  10.357 112.800  1.00  0.00     0.064 C 
ATOM      6  O   UNL     1      43.233   9.802 113.152  1.00  0.00    -0.545 OA
ATOM      7  O   UNL     1      41.163   9.597 112.200  1.00  0.00    -0.545 OA
ENDBRANCH   4   5
ENDBRANCH   2   3
ENDBRANCH   1   2
BRANCH   1   8
ATOM      8  C   UNL     1      41.112  15.554 112.805  1.00  0.00     0.000 C 
BRANCH   8   9
ATOM      9  C   UNL     1      40.283  15.947 114.037  1.00  0.00    -0.000 C 
BRANCH   9  10
ATOM     10  C   UNL     1      40.551  17.389 114.494  1.00  0.00    -0.003 C 
ATOM     11  C   UNL     1      41.208  17.460 115.872  1.00  0.00     0.004 C 
ENDBRANCH   9  10
ENDBRANCH   8   9
ENDBRANCH   1   8
TORSDOF 6
ENDMDL
