MODEL 1
REMARK VINA RESULT:    -3.453      0.000      0.000
REMARK INTER + INTRA:          -5.135
REMARK INTER:                  -4.866
REMARK INTRA:                  -0.269
REMARK UNBOUND:                -0.269
REMARK SMILES CCCCCCCCC(=O)[O-]
REMARK SMILES IDX 6 1 7 2 8 3 9 4 10 5 11 6 5 7 4 8 3 9 2 10 1 11
REMARK H PARENT
REMARK Flexibility Score: inf
ROOT
ATOM      1  C   UNL     1      45.280 -24.504  -1.759  1.00  0.00     0.000 C 
ENDROOT
BRANCH   1   2
ATOM      2  C   UNL     1      46.123 -24.095  -2.973  1.00  0.00     0.006 C 
BRANCH   2   3
ATOM      3  C   UNL     1      46.033 -25.146  -4.083  1.00  0.00     0.053 C 
BRANCH   3   4
ATOM      4  C   UNL     1      46.064 -24.490  -5.428  1.00  0.00     0.041 C 
ATOM      5  O   UNL     1      46.082 -25.191  -6.474  1.00  0.00    -0.550 OA
ATOM      6  O   UNL     1      46.023 -23.105  -5.528  1.00  0.00    -0.550 OA
ENDBRANCH   3   4
ENDBRANCH   2   3
ENDBRANCH   1   2
BRANCH   1   7
ATOM      7  C   UNL     1      45.315 -23.420  -0.674  1.00  0.00     0.000 C 
BRANCH   7   8
ATOM      8  C   UNL     1      45.849 -23.982   0.649  1.00  0.00    -0.000 C 
BRANCH   8   9
ATOM      9  C   UNL     1      45.748 -25.514   0.677  1.00  0.00    -0.000 C 
BRANCH   9  10
ATOM     10  C   UNL     1      45.398 -26.057   2.071  1.00  0.00    -0.003 C 
ATOM     11  C   UNL     1      45.450 -27.582   2.142  1.00  0.00     0.004 C 
ENDBRANCH   9  10
ENDBRANCH   8   9
ENDBRANCH   7   8
ENDBRANCH   1   7
TORSDOF 7
ENDMDL
MODEL 2
REMARK VINA RESULT:    -2.938      3.873      6.335
REMARK INTER + INTRA:          -4.409
REMARK INTER:                  -4.210
REMARK INTRA:                  -0.199
REMARK UNBOUND:                -0.269
REMARK SMILES CCCCCCCCC(=O)[O-]
REMARK SMILES IDX 6 1 7 2 8 3 9 4 10 5 11 6 5 7 4 8 3 9 2 10 1 11
REMARK H PARENT
REMARK Flexibility Score: inf
ROOT
ATOM      1  C   UNL     1      46.021 -24.209   0.403  1.00  0.00     0.000 C 
ENDROOT
BRANCH   1   2
ATOM      2  C   UNL     1      45.170 -25.382   0.902  1.00  0.00     0.006 C 
BRANCH   2   3
ATOM      3  C   UNL     1      45.707 -25.924   2.230  1.00  0.00     0.053 C 
BRANCH   3   4
ATOM      4  C   UNL     1      45.958 -27.396   2.132  1.00  0.00     0.041 C 
ATOM      5  O   UNL     1      45.972 -28.106   3.171  1.00  0.00    -0.550 OA
ATOM      6  O   UNL     1      46.125 -27.992   0.888  1.00  0.00    -0.550 OA
ENDBRANCH   3   4
ENDBRANCH   2   3
ENDBRANCH   1   2
BRANCH   1   7
ATOM      7  C   UNL     1      45.501 -23.685  -0.942  1.00  0.00     0.000 C 
BRANCH   7   8
ATOM      8  C   UNL     1      45.694 -24.726  -2.051  1.00  0.00    -0.000 C 
BRANCH   8   9
ATOM      9  C   UNL     1      46.125 -24.058  -3.364  1.00  0.00    -0.000 C 
BRANCH   9  10
ATOM     10  C   UNL     1      46.116 -25.032  -4.553  1.00  0.00    -0.003 C 
ATOM     11  C   UNL     1      45.571 -24.399  -5.832  1.00  0.00     0.004 C 
ENDBRANCH   9  10
ENDBRANCH   8   9
ENDBRANCH   7   8
ENDBRANCH   1   7
TORSDOF 7
ENDMDL
MODEL 3
REMARK VINA RESULT:    -2.812      3.786      6.288
REMARK INTER + INTRA:          -4.231
REMARK INTER:                  -4.008
REMARK INTRA:                  -0.223
REMARK UNBOUND:                -0.269
REMARK SMILES CCCCCCCCC(=O)[O-]
REMARK SMILES IDX 6 1 7 2 8 3 9 4 10 5 11 6 5 7 4 8 3 9 2 10 1 11
REMARK H PARENT
REMARK Flexibility Score: inf
ROOT
ATOM      1  C   UNL     1      45.532 -23.713  -0.986  1.00  0.00     0.000 C 
ENDROOT
BRANCH   1   2
ATOM      2  C   UNL     1      45.578 -24.154   0.482  1.00  0.00     0.006 C 
BRANCH   2   3
ATOM      3  C   UNL     1      46.081 -25.594   0.607  1.00  0.00     0.053 C 
BRANCH   3   4
ATOM      4  C   UNL     1      45.500 -26.248   1.822  1.00  0.00     0.041 C 
ATOM      5  O   UNL     1      44.468 -26.964   1.722  1.00  0.00    -0.550 OA
ATOM      6  O   UNL     1      46.125 -26.109   3.054  1.00  0.00    -0.550 OA
ENDBRANCH   3   4
ENDBRANCH   2   3
ENDBRANCH   1   2
BRANCH   1   7
ATOM      7  C   UNL     1      44.870 -24.785  -1.862  1.00  0.00     0.000 C 
BRANCH   7   8
ATOM      8  C   UNL     1      45.848 -25.317  -2.916  1.00  0.00    -0.000 C 
BRANCH   8   9
ATOM      9  C   UNL     1      46.125 -24.258  -3.993  1.00  0.00    -0.000 C 
BRANCH   9  10
ATOM     10  C   UNL     1      45.416 -24.568  -5.321  1.00  0.00    -0.003 C 
ATOM     11  C   UNL     1      46.026 -23.822  -6.506  1.00  0.00     0.004 C 
ENDBRANCH   9  10
ENDBRANCH   8   9
ENDBRANCH   7   8
ENDBRANCH   1   7
TORSDOF 7
ENDMDL
MODEL 4
REMARK VINA RESULT:    -2.639      1.496      2.144
REMARK INTER + INTRA:          -3.988
REMARK INTER:                  -3.789
REMARK INTRA:                  -0.199
REMARK UNBOUND:                -0.269
REMARK SMILES CCCCCCCCC(=O)[O-]
REMARK SMILES IDX 6 1 7 2 8 3 9 4 10 5 11 6 5 7 4 8 3 9 2 10 1 11
REMARK H PARENT
REMARK Flexibility Score: inf
ROOT
ATOM      1  C   UNL     1      45.243 -24.193  -0.356  1.00  0.00     0.000 C 
ENDROOT
BRANCH   1   2
ATOM      2  C   UNL     1      46.110 -23.726  -1.531  1.00  0.00     0.006 C 
BRANCH   2   3
ATOM      3  C   UNL     1      45.354 -23.855  -2.856  1.00  0.00     0.053 C 
BRANCH   3   4
ATOM      4  C   UNL     1      45.798 -25.077  -3.596  1.00  0.00     0.041 C 
ATOM      5  O   UNL     1      45.920 -25.049  -4.849  1.00  0.00    -0.550 OA
ATOM      6  O   UNL     1      46.125 -26.232  -2.898  1.00  0.00    -0.550 OA
ENDBRANCH   3   4
ENDBRANCH   2   3
ENDBRANCH   1   2
BRANCH   1   7
ATOM      7  C   UNL     1      46.113 -24.639   0.826  1.00  0.00     0.000 C 
BRANCH   7   8
ATOM      8  C   UNL     1      45.937 -26.137   1.105  1.00  0.00    -0.000 C 
BRANCH   8   9
ATOM      9  C   UNL     1      45.356 -26.372   2.506  1.00  0.00    -0.000 C 
BRANCH   9  10
ATOM     10  C   UNL     1      46.056 -27.520   3.251  1.00  0.00    -0.003 C 
ATOM     11  C   UNL     1      46.098 -28.813   2.439  1.00  0.00     0.004 C 
ENDBRANCH   9  10
ENDBRANCH   8   9
ENDBRANCH   7   8
ENDBRANCH   1   7
TORSDOF 7
ENDMDL
MODEL 5
REMARK VINA RESULT:    -2.185      6.163      8.466
REMARK INTER + INTRA:          -3.348
REMARK INTER:                  -3.176
REMARK INTRA:                  -0.173
REMARK UNBOUND:                -0.269
REMARK SMILES CCCCCCCCC(=O)[O-]
REMARK SMILES IDX 6 1 7 2 8 3 9 4 10 5 11 6 5 7 4 8 3 9 2 10 1 11
REMARK H PARENT
REMARK Flexibility Score: inf
ROOT
ATOM      1  C   UNL     1      45.272 -26.364   3.323  1.00  0.00     0.000 C 
ENDROOT
BRANCH   1   2
ATOM      2  C   UNL     1      46.120 -26.354   4.600  1.00  0.00     0.006 C 
BRANCH   2   3
ATOM      3  C   UNL     1      45.993 -27.681   5.353  1.00  0.00     0.053 C 
BRANCH   3   4
ATOM      4  C   UNL     1      45.822 -27.437   6.820  1.00  0.00     0.041 C 
ATOM      5  O   UNL     1      46.051 -28.358   7.646  1.00  0.00    -0.550 OA
ATOM      6  O   UNL     1      45.457 -26.177   7.277  1.00  0.00    -0.550 OA
ENDBRANCH   3   4
ENDBRANCH   2   3
ENDBRANCH   1   2
BRANCH   1   7
ATOM      7  C   UNL     1      46.123 -26.020   2.094  1.00  0.00     0.000 C 
BRANCH   7   8
ATOM      8  C   UNL     1      45.272 -25.366   0.999  1.00  0.00    -0.000 C 
BRANCH   8   9
ATOM      9  C   UNL     1      46.029 -24.207   0.333  1.00  0.00    -0.000 C 
BRANCH   9  10
ATOM     10  C   UNL     1      45.206 -23.522  -0.770  1.00  0.00    -0.003 C 
ATOM     11  C   UNL     1      44.615 -24.514  -1.770  1.00  0.00     0.004 C 
ENDBRANCH   9  10
ENDBRANCH   8   9
ENDBRANCH   7   8
ENDBRANCH   1   7
TORSDOF 7
ENDMDL
MODEL 6
REMARK VINA RESULT:    -2.083      5.182      7.317
REMARK INTER + INTRA:          -3.205
REMARK INTER:                  -2.915
REMARK INTRA:                  -0.289
REMARK UNBOUND:                -0.269
REMARK SMILES CCCCCCCCC(=O)[O-]
REMARK SMILES IDX 6 1 7 2 8 3 9 4 10 5 11 6 5 7 4 8 3 9 2 10 1 11
REMARK H PARENT
REMARK Flexibility Score: inf
ROOT
ATOM      1  C   UNL     1      46.125 -26.918   4.926  1.00  0.00     0.000 C 
ENDROOT
BRANCH   1   2
ATOM      2  C   UNL     1      45.133 -26.376   3.890  1.00  0.00     0.006 C 
BRANCH   2   3
ATOM      3  C   UNL     1      45.868 -25.757   2.698  1.00  0.00     0.053 C 
BRANCH   3   4
ATOM      4  C   UNL     1      45.760 -26.646   1.498  1.00  0.00     0.041 C 
ATOM      5  O   UNL     1      45.537 -27.877   1.640  1.00  0.00    -0.550 OA
ATOM      6  O   UNL     1      45.857 -26.107   0.222  1.00  0.00    -0.550 OA
ENDBRANCH   3   4
ENDBRANCH   2   3
ENDBRANCH   1   2
BRANCH   1   7
ATOM      7  C   UNL     1      45.846 -26.330   6.315  1.00  0.00     0.000 C 
BRANCH   7   8
ATOM      8  C   UNL     1      46.123 -27.361   7.416  1.00  0.00    -0.000 C 
BRANCH   8   9
ATOM      9  C   UNL     1      45.885 -28.789   6.904  1.00  0.00    -0.000 C 
BRANCH   9  10
ATOM     10  C   UNL     1      45.998 -29.842   8.018  1.00  0.00    -0.003 C 
ATOM     11  C   UNL     1      45.585 -29.303   9.386  1.00  0.00     0.004 C 
ENDBRANCH   9  10
ENDBRANCH   8   9
ENDBRANCH   7   8
ENDBRANCH   1   7
TORSDOF 7
ENDMDL
MODEL 7
REMARK VINA RESULT:    -1.998      3.290      6.468
REMARK INTER + INTRA:          -3.085
REMARK INTER:                  -2.823
REMARK INTRA:                  -0.262
REMARK UNBOUND:                -0.269
REMARK SMILES CCCCCCCCC(=O)[O-]
REMARK SMILES IDX 6 1 7 2 8 3 9 4 10 5 11 6 5 7 4 8 3 9 2 10 1 11
REMARK H PARENT
REMARK Flexibility Score: inf
ROOT
ATOM      1  C   UNL     1      44.593 -25.399  -3.250  1.00  0.00     0.000 C 
ENDROOT
BRANCH   1   2
ATOM      2  C   UNL     1      44.703 -24.587  -1.955  1.00  0.00     0.006 C 
BRANCH   2   3
ATOM      3  C   UNL     1      46.065 -24.800  -1.288  1.00  0.00     0.053 C 
BRANCH   3   4
ATOM      4  C   UNL     1      45.893 -25.115   0.165  1.00  0.00     0.041 C 
ATOM      5  O   UNL     1      45.521 -24.218   0.967  1.00  0.00    -0.550 OA
ATOM      6  O   UNL     1      46.096 -26.409   0.625  1.00  0.00    -0.550 OA
ENDBRANCH   3   4
ENDBRANCH   2   3
ENDBRANCH   1   2
BRANCH   1   7
ATOM      7  C   UNL     1      45.908 -25.359  -4.038  1.00  0.00     0.000 C 
BRANCH   7   8
ATOM      8  C   UNL     1      46.025 -24.063  -4.850  1.00  0.00    -0.000 C 
BRANCH   8   9
ATOM      9  C   UNL     1      45.245 -24.168  -6.169  1.00  0.00    -0.000 C 
BRANCH   9  10
ATOM     10  C   UNL     1      46.124 -23.885  -7.398  1.00  0.00    -0.003 C 
ATOM     11  C   UNL     1      46.075 -25.010  -8.431  1.00  0.00     0.004 C 
ENDBRANCH   9  10
ENDBRANCH   8   9
ENDBRANCH   7   8
ENDBRANCH   1   7
TORSDOF 7
ENDMDL
MODEL 8
REMARK VINA RESULT:    -1.750      4.217      6.392
REMARK INTER + INTRA:          -2.735
REMARK INTER:                  -3.251
REMARK INTRA:                   0.515
REMARK UNBOUND:                -0.269
REMARK SMILES CCCCCCCCC(=O)[O-]
REMARK SMILES IDX 6 1 7 2 8 3 9 4 10 5 11 6 5 7 4 8 3 9 2 10 1 11
REMARK H PARENT
REMARK Flexibility Score: inf
ROOT
ATOM      1  C   UNL     1      45.411 -26.061   1.757  1.00  0.00     0.000 C 
ENDROOT
BRANCH   1   2
ATOM      2  C   UNL     1      46.111 -26.279   3.104  1.00  0.00     0.006 C 
BRANCH   2   3
ATOM      3  C   UNL     1      46.125 -27.763   3.481  1.00  0.00     0.053 C 
BRANCH   3   4
ATOM      4  C   UNL     1      45.363 -28.567   2.474  1.00  0.00     0.041 C 
ATOM      5  O   UNL     1      45.915 -29.533   1.885  1.00  0.00    -0.550 OA
ATOM      6  O   UNL     1      44.027 -28.280   2.222  1.00  0.00    -0.550 OA
ENDBRANCH   3   4
ENDBRANCH   2   3
ENDBRANCH   1   2
BRANCH   1   7
ATOM      7  C   UNL     1      46.102 -24.953   0.951  1.00  0.00     0.000 C 
BRANCH   7   8
ATOM      8  C   UNL     1      45.136 -24.326  -0.062  1.00  0.00    -0.000 C 
BRANCH   8   9
ATOM      9  C   UNL     1      45.802 -23.159  -0.806  1.00  0.00    -0.000 C 
BRANCH   9  10
ATOM     10  C   UNL     1      46.125 -23.499  -2.269  1.00  0.00    -0.003 C 
ATOM     11  C   UNL     1      45.961 -24.985  -2.582  1.00  0.00     0.004 C 
ENDBRANCH   9  10
ENDBRANCH   8   9
ENDBRANCH   7   8
ENDBRANCH   1   7
TORSDOF 7
ENDMDL
MODEL 9
REMARK VINA RESULT:    -1.268      5.946      8.138
REMARK INTER + INTRA:          -2.056
REMARK INTER:                  -1.852
REMARK INTRA:                  -0.204
REMARK UNBOUND:                -0.269
REMARK SMILES CCCCCCCCC(=O)[O-]
REMARK SMILES IDX 6 1 7 2 8 3 9 4 10 5 11 6 5 7 4 8 3 9 2 10 1 11
REMARK H PARENT
REMARK Flexibility Score: inf
ROOT
ATOM      1  C   UNL     1      45.078 -26.925   2.954  1.00  0.00     0.000 C 
ENDROOT
BRANCH   1   2
ATOM      2  C   UNL     1      46.017 -27.405   4.067  1.00  0.00     0.006 C 
BRANCH   2   3
ATOM      3  C   UNL     1      46.118 -28.933   4.078  1.00  0.00     0.053 C 
BRANCH   3   4
ATOM      4  C   UNL     1      45.999 -29.455   5.476  1.00  0.00     0.041 C 
ATOM      5  O   UNL     1      46.125 -30.687   5.704  1.00  0.00    -0.550 OA
ATOM      6  O   UNL     1      45.799 -28.576   6.532  1.00  0.00    -0.550 OA
ENDBRANCH   3   4
ENDBRANCH   2   3
ENDBRANCH   1   2
BRANCH   1   7
ATOM      7  C   UNL     1      45.689 -25.741   2.192  1.00  0.00     0.000 C 
BRANCH   7   8
ATOM      8  C   UNL     1      45.036 -25.577   0.814  1.00  0.00    -0.000 C 
BRANCH   8   9
ATOM      9  C   UNL     1      46.098 -25.374  -0.276  1.00  0.00    -0.000 C 
BRANCH   9  10
ATOM     10  C   UNL     1      45.724 -24.256  -1.263  1.00  0.00    -0.003 C 
ATOM     11  C   UNL     1      45.364 -22.946  -0.564  1.00  0.00     0.004 C 
ENDBRANCH   9  10
ENDBRANCH   8   9
ENDBRANCH   7   8
ENDBRANCH   1   7
TORSDOF 7
ENDMDL
