MODEL 1
REMARK VINA RESULT:    -4.674      0.000      0.000
REMARK INTER + INTRA:          -8.901
REMARK INTER:                  -7.954
REMARK INTRA:                  -0.947
REMARK UNBOUND:                -0.947
REMARK SMILES CCCCCCCCCCCCCC(=O)[O-]
REMARK SMILES IDX 8 1 9 2 10 3 11 4 12 5 13 6 14 7 15 8 16 9 7 10 6 11 5 12
REMARK SMILES IDX 4 13 3 14 2 15 1 16
REMARK H PARENT
REMARK Flexibility Score: inf
ROOT
ATOM      1  C   UNL     1       5.573   6.018 -22.617  1.00  0.00     0.000 C 
ENDROOT
BRANCH   1   2
ATOM      2  C   UNL     1       6.846   6.115 -23.470  1.00  0.00     0.000 C 
BRANCH   2   3
ATOM      3  C   UNL     1       6.968   7.498 -24.121  1.00  0.00     0.000 C 
BRANCH   3   4
ATOM      4  C   UNL     1       5.886   7.698 -25.193  1.00  0.00     0.000 C 
BRANCH   4   5
ATOM      5  C   UNL     1       6.389   7.389 -26.614  1.00  0.00     0.006 C 
BRANCH   5   6
ATOM      6  C   UNL     1       5.546   6.351 -27.373  1.00  0.00     0.053 C 
BRANCH   6   7
ATOM      7  C   UNL     1       5.527   5.025 -26.675  1.00  0.00     0.041 C 
ATOM      8  O   UNL     1       4.462   4.594 -26.161  1.00  0.00    -0.550 OA
ATOM      9  O   UNL     1       6.695   4.281 -26.564  1.00  0.00    -0.550 OA
ENDBRANCH   6   7
ENDBRANCH   5   6
ENDBRANCH   4   5
ENDBRANCH   3   4
ENDBRANCH   2   3
ENDBRANCH   1   2
BRANCH   1  10
ATOM     10  C   UNL     1       5.858   6.062 -21.105  1.00  0.00     0.000 C 
BRANCH  10  11
ATOM     11  C   UNL     1       4.920   5.204 -20.237  1.00  0.00    -0.000 C 
BRANCH  11  12
ATOM     12  C   UNL     1       5.057   5.501 -18.733  1.00  0.00    -0.000 C 
BRANCH  12  13
ATOM     13  C   UNL     1       3.718   5.386 -17.986  1.00  0.00    -0.000 C 
BRANCH  13  14
ATOM     14  C   UNL     1       2.538   5.097 -18.930  1.00  0.00    -0.000 C 
BRANCH  14  15
ATOM     15  C   UNL     1       1.588   6.297 -19.069  1.00  0.00    -0.003 C 
ATOM     16  C   UNL     1       1.470   6.798 -20.509  1.00  0.00     0.004 C 
ENDBRANCH  14  15
ENDBRANCH  13  14
ENDBRANCH  12  13
ENDBRANCH  11  12
ENDBRANCH  10  11
ENDBRANCH   1  10
TORSDOF 12
ENDMDL
MODEL 2
REMARK VINA RESULT:    -4.624     16.082     18.789
REMARK INTER + INTRA:          -8.815
REMARK INTER:                  -6.758
REMARK INTRA:                  -2.057
REMARK UNBOUND:                -0.947
REMARK SMILES CCCCCCCCCCCCCC(=O)[O-]
REMARK SMILES IDX 8 1 9 2 10 3 11 4 12 5 13 6 14 7 15 8 16 9 7 10 6 11 5 12
REMARK SMILES IDX 4 13 3 14 2 15 1 16
REMARK H PARENT
REMARK Flexibility Score: inf
ROOT
ATOM      1  C   UNL     1     -12.018  -2.419 -26.264  1.00  0.00     0.000 C 
ENDROOT
BRANCH   1   2
ATOM      2  C   UNL     1     -12.893  -2.501 -25.004  1.00  0.00     0.000 C 
BRANCH   2   3
ATOM      3  C   UNL     1     -12.032  -2.680 -23.748  1.00  0.00     0.000 C 
BRANCH   3   4
ATOM      4  C   UNL     1     -12.713  -2.054 -22.522  1.00  0.00     0.000 C 
BRANCH   4   5
ATOM      5  C   UNL     1     -11.705  -1.549 -21.473  1.00  0.00     0.006 C 
BRANCH   5   6
ATOM      6  C   UNL     1     -12.229  -0.403 -20.592  1.00  0.00     0.053 C 
BRANCH   6   7
ATOM      7  C   UNL     1     -11.147   0.195 -19.745  1.00  0.00     0.041 C 
ATOM      8  O   UNL     1     -10.079   0.598 -20.274  1.00  0.00    -0.550 OA
ATOM      9  O   UNL     1     -11.307   0.274 -18.368  1.00  0.00    -0.550 OA
ENDBRANCH   6   7
ENDBRANCH   5   6
ENDBRANCH   4   5
ENDBRANCH   3   4
ENDBRANCH   2   3
ENDBRANCH   1   2
BRANCH   1  10
ATOM     10  C   UNL     1     -11.954  -1.002 -26.861  1.00  0.00     0.000 C 
BRANCH  10  11
ATOM     11  C   UNL     1     -12.913   0.020 -26.224  1.00  0.00    -0.000 C 
BRANCH  11  12
ATOM     12  C   UNL     1     -12.183   1.233 -25.622  1.00  0.00    -0.000 C 
BRANCH  12  13
ATOM     13  C   UNL     1     -11.926   1.076 -24.113  1.00  0.00    -0.000 C 
BRANCH  13  14
ATOM     14  C   UNL     1     -10.447   1.278 -23.743  1.00  0.00    -0.000 C 
BRANCH  14  15
ATOM     15  C   UNL     1      -9.506   0.386 -24.566  1.00  0.00    -0.003 C 
ATOM     16  C   UNL     1      -8.921  -0.770 -23.754  1.00  0.00     0.004 C 
ENDBRANCH  14  15
ENDBRANCH  13  14
ENDBRANCH  12  13
ENDBRANCH  11  12
ENDBRANCH  10  11
ENDBRANCH   1  10
TORSDOF 12
ENDMDL
MODEL 3
REMARK VINA RESULT:    -4.623     16.730     18.099
REMARK INTER + INTRA:          -8.813
REMARK INTER:                  -8.237
REMARK INTRA:                  -0.576
REMARK UNBOUND:                -0.947
REMARK SMILES CCCCCCCCCCCCCC(=O)[O-]
REMARK SMILES IDX 8 1 9 2 10 3 11 4 12 5 13 6 14 7 15 8 16 9 7 10 6 11 5 12
REMARK SMILES IDX 4 13 3 14 2 15 1 16
REMARK H PARENT
REMARK Flexibility Score: inf
ROOT
ATOM      1  C   UNL     1     -12.750  -2.007 -22.611  1.00  0.00     0.000 C 
ENDROOT
BRANCH   1   2
ATOM      2  C   UNL     1     -12.101  -2.615 -23.863  1.00  0.00     0.000 C 
BRANCH   2   3
ATOM      3  C   UNL     1     -13.084  -2.626 -25.041  1.00  0.00     0.000 C 
BRANCH   3   4
ATOM      4  C   UNL     1     -12.340  -2.770 -26.377  1.00  0.00     0.000 C 
BRANCH   4   5
ATOM      5  C   UNL     1     -11.572  -1.495 -26.773  1.00  0.00     0.006 C 
BRANCH   5   6
ATOM      6  C   UNL     1     -12.331  -0.187 -26.496  1.00  0.00     0.053 C 
BRANCH   6   7
ATOM      7  C   UNL     1     -11.576   0.714 -25.567  1.00  0.00     0.041 C 
ATOM      8  O   UNL     1     -10.386   1.035 -25.823  1.00  0.00    -0.550 OA
ATOM      9  O   UNL     1     -12.177   1.170 -24.401  1.00  0.00    -0.550 OA
ENDBRANCH   6   7
ENDBRANCH   5   6
ENDBRANCH   4   5
ENDBRANCH   3   4
ENDBRANCH   2   3
ENDBRANCH   1   2
BRANCH   1  10
ATOM     10  C   UNL     1     -11.723  -1.611 -21.535  1.00  0.00     0.000 C 
BRANCH  10  11
ATOM     11  C   UNL     1     -11.974  -0.250 -20.860  1.00  0.00    -0.000 C 
BRANCH  11  12
ATOM     12  C   UNL     1     -10.839   0.164 -19.908  1.00  0.00    -0.000 C 
BRANCH  12  13
ATOM     13  C   UNL     1     -11.324   0.357 -18.461  1.00  0.00    -0.000 C 
BRANCH  13  14
ATOM     14  C   UNL     1     -10.187   0.760 -17.507  1.00  0.00    -0.000 C 
BRANCH  14  15
ATOM     15  C   UNL     1     -10.254   0.017 -16.164  1.00  0.00    -0.003 C 
ATOM     16  C   UNL     1      -9.526   0.754 -15.040  1.00  0.00     0.004 C 
ENDBRANCH  14  15
ENDBRANCH  13  14
ENDBRANCH  12  13
ENDBRANCH  11  12
ENDBRANCH  10  11
ENDBRANCH   1  10
TORSDOF 12
ENDMDL
MODEL 4
REMARK VINA RESULT:    -4.593     16.709     18.213
REMARK INTER + INTRA:          -8.763
REMARK INTER:                  -8.212
REMARK INTRA:                  -0.550
REMARK UNBOUND:                -0.947
REMARK SMILES CCCCCCCCCCCCCC(=O)[O-]
REMARK SMILES IDX 8 1 9 2 10 3 11 4 12 5 13 6 14 7 15 8 16 9 7 10 6 11 5 12
REMARK SMILES IDX 4 13 3 14 2 15 1 16
REMARK H PARENT
REMARK Flexibility Score: inf
ROOT
ATOM      1  C   UNL     1     -12.001  -2.735 -23.731  1.00  0.00     0.000 C 
ENDROOT
BRANCH   1   2
ATOM      2  C   UNL     1     -13.031  -2.647 -24.866  1.00  0.00     0.000 C 
BRANCH   2   3
ATOM      3  C   UNL     1     -12.362  -2.845 -26.232  1.00  0.00     0.000 C 
BRANCH   3   4
ATOM      4  C   UNL     1     -12.026  -1.494 -26.881  1.00  0.00     0.000 C 
BRANCH   4   5
ATOM      5  C   UNL     1     -10.666  -0.935 -26.426  1.00  0.00     0.006 C 
BRANCH   5   6
ATOM      6  C   UNL     1     -10.737   0.463 -25.790  1.00  0.00     0.053 C 
BRANCH   6   7
ATOM      7  C   UNL     1     -12.148   0.949 -25.655  1.00  0.00     0.041 C 
ATOM      8  O   UNL     1     -12.684   1.603 -26.587  1.00  0.00    -0.550 OA
ATOM      9  O   UNL     1     -12.858   0.707 -24.486  1.00  0.00    -0.550 OA
ENDBRANCH   6   7
ENDBRANCH   5   6
ENDBRANCH   4   5
ENDBRANCH   3   4
ENDBRANCH   2   3
ENDBRANCH   1   2
BRANCH   1  10
ATOM     10  C   UNL     1     -12.483  -2.070 -22.429  1.00  0.00     0.000 C 
BRANCH  10  11
ATOM     11  C   UNL     1     -11.457  -1.145 -21.748  1.00  0.00    -0.000 C 
BRANCH  11  12
ATOM     12  C   UNL     1     -11.970  -0.558 -20.421  1.00  0.00    -0.000 C 
BRANCH  12  13
ATOM     13  C   UNL     1     -10.875   0.197 -19.649  1.00  0.00    -0.000 C 
BRANCH  13  14
ATOM     14  C   UNL     1     -11.107   0.180 -18.129  1.00  0.00    -0.000 C 
BRANCH  14  15
ATOM     15  C   UNL     1      -9.879   0.660 -17.340  1.00  0.00    -0.003 C 
ATOM     16  C   UNL     1      -9.904   0.219 -15.876  1.00  0.00     0.004 C 
ENDBRANCH  14  15
ENDBRANCH  13  14
ENDBRANCH  12  13
ENDBRANCH  11  12
ENDBRANCH  10  11
ENDBRANCH   1  10
TORSDOF 12
ENDMDL
MODEL 5
REMARK VINA RESULT:    -4.569     15.841     18.803
REMARK INTER + INTRA:          -8.721
REMARK INTER:                  -7.367
REMARK INTRA:                  -1.354
REMARK UNBOUND:                -0.947
REMARK SMILES CCCCCCCCCCCCCC(=O)[O-]
REMARK SMILES IDX 8 1 9 2 10 3 11 4 12 5 13 6 14 7 15 8 16 9 7 10 6 11 5 12
REMARK SMILES IDX 4 13 3 14 2 15 1 16
REMARK H PARENT
REMARK Flexibility Score: inf
ROOT
ATOM      1  C   UNL     1     -12.006  -3.000 -24.779  1.00  0.00     0.000 C 
ENDROOT
BRANCH   1   2
ATOM      2  C   UNL     1     -13.045  -2.324 -23.871  1.00  0.00     0.000 C 
BRANCH   2   3
ATOM      3  C   UNL     1     -12.576  -2.316 -22.411  1.00  0.00     0.000 C 
BRANCH   3   4
ATOM      4  C   UNL     1     -11.404  -1.343 -22.215  1.00  0.00     0.000 C 
BRANCH   4   5
ATOM      5  C   UNL     1     -11.265  -0.861 -20.760  1.00  0.00     0.006 C 
BRANCH   5   6
ATOM      6  C   UNL     1     -12.214   0.287 -20.380  1.00  0.00     0.053 C 
BRANCH   6   7
ATOM      7  C   UNL     1     -11.798   0.962 -19.108  1.00  0.00     0.041 C 
ATOM      8  O   UNL     1     -11.903   2.210 -18.990  1.00  0.00    -0.550 OA
ATOM      9  O   UNL     1     -11.264   0.214 -18.067  1.00  0.00    -0.550 OA
ENDBRANCH   6   7
ENDBRANCH   5   6
ENDBRANCH   4   5
ENDBRANCH   3   4
ENDBRANCH   2   3
ENDBRANCH   1   2
BRANCH   1  10
ATOM     10  C   UNL     1     -12.372  -2.921 -26.272  1.00  0.00     0.000 C 
BRANCH  10  11
ATOM     11  C   UNL     1     -11.932  -1.631 -26.987  1.00  0.00    -0.000 C 
BRANCH  11  12
ATOM     12  C   UNL     1     -10.569  -1.111 -26.499  1.00  0.00    -0.000 C 
BRANCH  12  13
ATOM     13  C   UNL     1     -10.682   0.232 -25.757  1.00  0.00    -0.000 C 
BRANCH  13  14
ATOM     14  C   UNL     1      -9.513   0.468 -24.785  1.00  0.00    -0.000 C 
BRANCH  14  15
ATOM     15  C   UNL     1      -8.648  -0.787 -24.589  1.00  0.00    -0.003 C 
ATOM     16  C   UNL     1      -7.933  -0.809 -23.237  1.00  0.00     0.004 C 
ENDBRANCH  14  15
ENDBRANCH  13  14
ENDBRANCH  12  13
ENDBRANCH  11  12
ENDBRANCH  10  11
ENDBRANCH   1  10
TORSDOF 12
ENDMDL
MODEL 6
REMARK VINA RESULT:    -4.541     15.851     18.306
REMARK INTER + INTRA:          -8.675
REMARK INTER:                  -7.042
REMARK INTRA:                  -1.632
REMARK UNBOUND:                -0.947
REMARK SMILES CCCCCCCCCCCCCC(=O)[O-]
REMARK SMILES IDX 8 1 9 2 10 3 11 4 12 5 13 6 14 7 15 8 16 9 7 10 6 11 5 12
REMARK SMILES IDX 4 13 3 14 2 15 1 16
REMARK H PARENT
REMARK Flexibility Score: inf
ROOT
ATOM      1  C   UNL     1     -12.069  -2.740 -24.133  1.00  0.00     0.000 C 
ENDROOT
BRANCH   1   2
ATOM      2  C   UNL     1     -12.715  -2.935 -25.513  1.00  0.00     0.000 C 
BRANCH   2   3
ATOM      3  C   UNL     1     -11.969  -2.134 -26.586  1.00  0.00     0.000 C 
BRANCH   3   4
ATOM      4  C   UNL     1     -11.691  -0.700 -26.110  1.00  0.00     0.000 C 
BRANCH   4   5
ATOM      5  C   UNL     1     -12.922   0.217 -26.228  1.00  0.00     0.006 C 
BRANCH   5   6
ATOM      6  C   UNL     1     -13.040   1.265 -25.109  1.00  0.00     0.053 C 
BRANCH   6   7
ATOM      7  C   UNL     1     -12.428   2.575 -25.499  1.00  0.00     0.041 C 
ATOM      8  O   UNL     1     -12.700   3.096 -26.611  1.00  0.00    -0.550 OA
ATOM      9  O   UNL     1     -11.529   3.204 -24.646  1.00  0.00    -0.550 OA
ENDBRANCH   6   7
ENDBRANCH   5   6
ENDBRANCH   4   5
ENDBRANCH   3   4
ENDBRANCH   2   3
ENDBRANCH   1   2
BRANCH   1  10
ATOM     10  C   UNL     1     -13.083  -2.346 -23.044  1.00  0.00     0.000 C 
BRANCH  10  11
ATOM     11  C   UNL     1     -12.730  -1.075 -22.249  1.00  0.00    -0.000 C 
BRANCH  11  12
ATOM     12  C   UNL     1     -11.708  -1.335 -21.129  1.00  0.00    -0.000 C 
BRANCH  12  13
ATOM     13  C   UNL     1     -10.469  -0.431 -21.241  1.00  0.00    -0.000 C 
BRANCH  13  14
ATOM     14  C   UNL     1     -10.196   0.018 -22.687  1.00  0.00    -0.000 C 
BRANCH  14  15
ATOM     15  C   UNL     1      -9.147  -0.860 -23.387  1.00  0.00    -0.003 C 
ATOM     16  C   UNL     1      -7.886  -0.087 -23.773  1.00  0.00     0.004 C 
ENDBRANCH  14  15
ENDBRANCH  13  14
ENDBRANCH  12  13
ENDBRANCH  11  12
ENDBRANCH  10  11
ENDBRANCH   1  10
TORSDOF 12
ENDMDL
MODEL 7
REMARK VINA RESULT:    -4.519     17.481     19.238
REMARK INTER + INTRA:          -8.636
REMARK INTER:                  -7.130
REMARK INTRA:                  -1.506
REMARK UNBOUND:                -0.947
REMARK SMILES CCCCCCCCCCCCCC(=O)[O-]
REMARK SMILES IDX 8 1 9 2 10 3 11 4 12 5 13 6 14 7 15 8 16 9 7 10 6 11 5 12
REMARK SMILES IDX 4 13 3 14 2 15 1 16
REMARK H PARENT
REMARK Flexibility Score: inf
ROOT
ATOM      1  C   UNL     1     -12.005  -2.950 -24.936  1.00  0.00     0.000 C 
ENDROOT
BRANCH   1   2
ATOM      2  C   UNL     1     -13.091  -2.548 -23.927  1.00  0.00     0.000 C 
BRANCH   2   3
ATOM      3  C   UNL     1     -12.514  -2.449 -22.509  1.00  0.00     0.000 C 
BRANCH   3   4
ATOM      4  C   UNL     1     -12.735  -1.047 -21.922  1.00  0.00     0.000 C 
BRANCH   4   5
ATOM      5  C   UNL     1     -11.512  -0.526 -21.146  1.00  0.00     0.006 C 
BRANCH   5   6
ATOM      6  C   UNL     1     -11.814  -0.096 -19.702  1.00  0.00     0.053 C 
BRANCH   6   7
ATOM      7  C   UNL     1     -12.033   1.382 -19.589  1.00  0.00     0.041 C 
ATOM      8  O   UNL     1     -13.106   1.897 -20.000  1.00  0.00    -0.550 OA
ATOM      9  O   UNL     1     -11.038   2.194 -19.061  1.00  0.00    -0.550 OA
ENDBRANCH   6   7
ENDBRANCH   5   6
ENDBRANCH   4   5
ENDBRANCH   3   4
ENDBRANCH   2   3
ENDBRANCH   1   2
BRANCH   1  10
ATOM     10  C   UNL     1     -12.406  -2.667 -26.395  1.00  0.00     0.000 C 
BRANCH  10  11
ATOM     11  C   UNL     1     -11.677  -1.483 -27.056  1.00  0.00    -0.000 C 
BRANCH  11  12
ATOM     12  C   UNL     1     -10.673  -0.797 -26.114  1.00  0.00    -0.000 C 
BRANCH  12  13
ATOM     13  C   UNL     1     -11.105   0.627 -25.729  1.00  0.00    -0.000 C 
BRANCH  13  14
ATOM     14  C   UNL     1     -12.634   0.793 -25.704  1.00  0.00    -0.000 C 
BRANCH  14  15
ATOM     15  C   UNL     1     -13.125   1.548 -24.459  1.00  0.00    -0.003 C 
ATOM     16  C   UNL     1     -11.990   2.223 -23.688  1.00  0.00     0.004 C 
ENDBRANCH  14  15
ENDBRANCH  13  14
ENDBRANCH  12  13
ENDBRANCH  11  12
ENDBRANCH  10  11
ENDBRANCH   1  10
TORSDOF 12
ENDMDL
MODEL 8
REMARK VINA RESULT:    -4.514     15.515     18.333
REMARK INTER + INTRA:          -8.628
REMARK INTER:                  -6.852
REMARK INTRA:                  -1.776
REMARK UNBOUND:                -0.947
REMARK SMILES CCCCCCCCCCCCCC(=O)[O-]
REMARK SMILES IDX 8 1 9 2 10 3 11 4 12 5 13 6 14 7 15 8 16 9 7 10 6 11 5 12
REMARK SMILES IDX 4 13 3 14 2 15 1 16
REMARK H PARENT
REMARK Flexibility Score: inf
ROOT
ATOM      1  C   UNL     1     -13.101  -2.480 -23.825  1.00  0.00     0.000 C 
ENDROOT
BRANCH   1   2
ATOM      2  C   UNL     1     -12.569  -2.394 -22.387  1.00  0.00     0.000 C 
BRANCH   2   3
ATOM      3  C   UNL     1     -12.752  -0.982 -21.817  1.00  0.00     0.000 C 
BRANCH   3   4
ATOM      4  C   UNL     1     -11.449  -0.472 -21.185  1.00  0.00     0.000 C 
BRANCH   4   5
ATOM      5  C   UNL     1     -10.207  -0.792 -22.035  1.00  0.00     0.006 C 
BRANCH   5   6
ATOM      6  C   UNL     1      -9.403   0.442 -22.474  1.00  0.00     0.053 C 
BRANCH   6   7
ATOM      7  C   UNL     1      -8.186   0.652 -21.626  1.00  0.00     0.041 C 
ATOM      8  O   UNL     1      -7.492   1.693 -21.761  1.00  0.00    -0.550 OA
ATOM      9  O   UNL     1      -7.801  -0.320 -20.711  1.00  0.00    -0.550 OA
ENDBRANCH   6   7
ENDBRANCH   5   6
ENDBRANCH   4   5
ENDBRANCH   3   4
ENDBRANCH   2   3
ENDBRANCH   1   2
BRANCH   1  10
ATOM     10  C   UNL     1     -12.062  -3.034 -24.818  1.00  0.00     0.000 C 
BRANCH  10  11
ATOM     11  C   UNL     1     -12.461  -2.943 -26.302  1.00  0.00    -0.000 C 
BRANCH  11  12
ATOM     12  C   UNL     1     -11.897  -1.693 -26.998  1.00  0.00    -0.000 C 
BRANCH  12  13
ATOM     13  C   UNL     1     -10.766  -1.030 -26.193  1.00  0.00    -0.000 C 
BRANCH  13  14
ATOM     14  C   UNL     1     -11.115   0.404 -25.757  1.00  0.00    -0.000 C 
BRANCH  14  15
ATOM     15  C   UNL     1     -12.625   0.683 -25.806  1.00  0.00    -0.003 C 
ATOM     16  C   UNL     1     -13.124   1.462 -24.589  1.00  0.00     0.004 C 
ENDBRANCH  14  15
ENDBRANCH  13  14
ENDBRANCH  12  13
ENDBRANCH  11  12
ENDBRANCH  10  11
ENDBRANCH   1  10
TORSDOF 12
ENDMDL
MODEL 9
REMARK VINA RESULT:    -4.454     17.479     18.675
REMARK INTER + INTRA:          -8.525
REMARK INTER:                  -7.163
REMARK INTRA:                  -1.361
REMARK UNBOUND:                -0.947
REMARK SMILES CCCCCCCCCCCCCC(=O)[O-]
REMARK SMILES IDX 8 1 9 2 10 3 11 4 12 5 13 6 14 7 15 8 16 9 7 10 6 11 5 12
REMARK SMILES IDX 4 13 3 14 2 15 1 16
REMARK H PARENT
REMARK Flexibility Score: inf
ROOT
ATOM      1  C   UNL     1     -12.015  -2.918 -24.440  1.00  0.00     0.000 C 
ENDROOT
BRANCH   1   2
ATOM      2  C   UNL     1     -12.734  -3.008 -25.795  1.00  0.00     0.000 C 
BRANCH   2   3
ATOM      3  C   UNL     1     -12.108  -2.049 -26.814  1.00  0.00     0.000 C 
BRANCH   3   4
ATOM      4  C   UNL     1     -11.681  -0.735 -26.143  1.00  0.00     0.000 C 
BRANCH   4   5
ATOM      5  C   UNL     1     -12.761   0.359 -26.231  1.00  0.00     0.006 C 
BRANCH   5   6
ATOM      6  C   UNL     1     -13.124   1.000 -24.882  1.00  0.00     0.053 C 
BRANCH   6   7
ATOM      7  C   UNL     1     -13.075   2.497 -24.940  1.00  0.00     0.041 C 
ATOM      8  O   UNL     1     -13.020   3.171 -23.878  1.00  0.00    -0.550 OA
ATOM      9  O   UNL     1     -13.125   3.147 -26.167  1.00  0.00    -0.550 OA
ENDBRANCH   6   7
ENDBRANCH   5   6
ENDBRANCH   4   5
ENDBRANCH   3   4
ENDBRANCH   2   3
ENDBRANCH   1   2
BRANCH   1  10
ATOM     10  C   UNL     1     -12.958  -2.545 -23.282  1.00  0.00     0.000 C 
BRANCH  10  11
ATOM     11  C   UNL     1     -12.270  -1.937 -22.047  1.00  0.00    -0.000 C 
BRANCH  11  12
ATOM     12  C   UNL     1     -11.103  -1.002 -22.412  1.00  0.00    -0.000 C 
BRANCH  12  13
ATOM     13  C   UNL     1     -10.867   0.086 -21.352  1.00  0.00    -0.000 C 
BRANCH  13  14
ATOM     14  C   UNL     1     -11.349  -0.338 -19.954  1.00  0.00    -0.000 C 
BRANCH  14  15
ATOM     15  C   UNL     1     -12.179   0.754 -19.261  1.00  0.00    -0.003 C 
ATOM     16  C   UNL     1     -12.380   1.992 -20.136  1.00  0.00     0.004 C 
ENDBRANCH  14  15
ENDBRANCH  13  14
ENDBRANCH  12  13
ENDBRANCH  11  12
ENDBRANCH  10  11
ENDBRANCH   1  10
TORSDOF 12
ENDMDL
