MODEL 1
REMARK VINA RESULT:    -4.609      0.000      0.000
REMARK INTER + INTRA:         -10.261
REMARK INTER:                  -8.381
REMARK INTRA:                  -1.880
REMARK UNBOUND:                -1.880
REMARK SMILES CCCCCCCCCCCCCCCC(=O)[O-]
REMARK SMILES IDX 9 1 10 2 11 3 12 4 13 5 14 6 15 7 16 8 17 9 18 10 8 11 7 12
REMARK SMILES IDX 6 13 5 14 4 15 3 16 2 17 1 18
REMARK H PARENT
REMARK Flexibility Score: inf
ROOT
ATOM      1  C   UNL     1      18.936  19.879  33.358  1.00  0.00     0.000 C 
ENDROOT
BRANCH   1   2
ATOM      2  C   UNL     1      17.914  19.925  34.506  1.00  0.00     0.000 C 
BRANCH   2   3
ATOM      3  C   UNL     1      18.577  19.873  35.892  1.00  0.00     0.000 C 
BRANCH   3   4
ATOM      4  C   UNL     1      18.109  18.672  36.733  1.00  0.00     0.000 C 
BRANCH   4   5
ATOM      5  C   UNL     1      17.132  17.718  36.019  1.00  0.00     0.000 C 
BRANCH   5   6
ATOM      6  C   UNL     1      17.287  16.227  36.375  1.00  0.00     0.006 C 
BRANCH   6   7
ATOM      7  C   UNL     1      15.978  15.421  36.279  1.00  0.00     0.053 C 
BRANCH   7   8
ATOM      8  C   UNL     1      15.125  15.554  37.504  1.00  0.00     0.041 C 
ATOM      9  O   UNL     1      14.393  16.568  37.660  1.00  0.00    -0.550 OA
ATOM     10  O   UNL     1      15.111  14.545  38.458  1.00  0.00    -0.550 OA
ENDBRANCH   7   8
ENDBRANCH   6   7
ENDBRANCH   5   6
ENDBRANCH   4   5
ENDBRANCH   3   4
ENDBRANCH   2   3
ENDBRANCH   1   2
BRANCH   1  11
ATOM     11  C   UNL     1      20.032  18.824  33.588  1.00  0.00     0.000 C 
BRANCH  11  12
ATOM     12  C   UNL     1      19.539  17.394  33.321  1.00  0.00    -0.000 C 
BRANCH  12  13
ATOM     13  C   UNL     1      18.582  17.312  32.118  1.00  0.00    -0.000 C 
BRANCH  13  14
ATOM     14  C   UNL     1      17.271  16.576  32.451  1.00  0.00    -0.000 C 
BRANCH  14  15
ATOM     15  C   UNL     1      16.030  17.075  31.684  1.00  0.00    -0.000 C 
BRANCH  15  16
ATOM     16  C   UNL     1      15.557  18.491  32.058  1.00  0.00    -0.000 C 
BRANCH  16  17
ATOM     17  C   UNL     1      14.179  18.833  31.471  1.00  0.00    -0.003 C 
ATOM     18  C   UNL     1      13.292  17.594  31.398  1.00  0.00     0.004 C 
ENDBRANCH  16  17
ENDBRANCH  15  16
ENDBRANCH  14  15
ENDBRANCH  13  14
ENDBRANCH  12  13
ENDBRANCH  11  12
ENDBRANCH   1  11
TORSDOF 14
ENDMDL
MODEL 2
REMARK VINA RESULT:    -4.588      1.279      2.087
REMARK INTER + INTRA:         -10.223
REMARK INTER:                  -8.449
REMARK INTRA:                  -1.773
REMARK UNBOUND:                -1.880
REMARK SMILES CCCCCCCCCCCCCCCC(=O)[O-]
REMARK SMILES IDX 9 1 10 2 11 3 12 4 13 5 14 6 15 7 16 8 17 9 18 10 8 11 7 12
REMARK SMILES IDX 6 13 5 14 4 15 3 16 2 17 1 18
REMARK H PARENT
REMARK Flexibility Score: inf
ROOT
ATOM      1  C   UNL     1      20.030  19.354  33.933  1.00  0.00     0.000 C 
ENDROOT
BRANCH   1   2
ATOM      2  C   UNL     1      20.674  19.276  35.327  1.00  0.00     0.000 C 
BRANCH   2   3
ATOM      3  C   UNL     1      20.487  17.901  35.990  1.00  0.00     0.000 C 
BRANCH   3   4
ATOM      4  C   UNL     1      20.108  16.800  34.983  1.00  0.00     0.000 C 
BRANCH   4   5
ATOM      5  C   UNL     1      18.818  16.026  35.318  1.00  0.00     0.000 C 
BRANCH   5   6
ATOM      6  C   UNL     1      17.862  16.728  36.301  1.00  0.00     0.006 C 
BRANCH   6   7
ATOM      7  C   UNL     1      16.371  16.558  35.956  1.00  0.00     0.053 C 
BRANCH   7   8
ATOM      8  C   UNL     1      15.584  15.954  37.079  1.00  0.00     0.041 C 
ATOM      9  O   UNL     1      15.862  14.799  37.499  1.00  0.00    -0.550 OA
ATOM     10  O   UNL     1      14.566  16.677  37.685  1.00  0.00    -0.550 OA
ENDBRANCH   7   8
ENDBRANCH   6   7
ENDBRANCH   5   6
ENDBRANCH   4   5
ENDBRANCH   3   4
ENDBRANCH   2   3
ENDBRANCH   1   2
BRANCH   1  11
ATOM     11  C   UNL     1      18.713  20.150  33.937  1.00  0.00     0.000 C 
BRANCH  11  12
ATOM     12  C   UNL     1      17.489  19.264  33.660  1.00  0.00    -0.000 C 
BRANCH  12  13
ATOM     13  C   UNL     1      17.695  18.327  32.457  1.00  0.00    -0.000 C 
BRANCH  13  14
ATOM     14  C   UNL     1      16.403  18.097  31.654  1.00  0.00    -0.000 C 
BRANCH  14  15
ATOM     15  C   UNL     1      15.154  18.809  32.211  1.00  0.00    -0.000 C 
BRANCH  15  16
ATOM     16  C   UNL     1      13.912  18.757  31.302  1.00  0.00    -0.000 C 
BRANCH  16  17
ATOM     17  C   UNL     1      13.153  17.426  31.407  1.00  0.00    -0.003 C 
ATOM     18  C   UNL     1      13.156  16.687  30.072  1.00  0.00     0.004 C 
ENDBRANCH  16  17
ENDBRANCH  15  16
ENDBRANCH  14  15
ENDBRANCH  13  14
ENDBRANCH  12  13
ENDBRANCH  11  12
ENDBRANCH   1  11
TORSDOF 14
ENDMDL
MODEL 3
REMARK VINA RESULT:    -4.567      1.348      4.246
REMARK INTER + INTRA:         -10.185
REMARK INTER:                  -7.841
REMARK INTRA:                  -2.344
REMARK UNBOUND:                -1.880
REMARK SMILES CCCCCCCCCCCCCCCC(=O)[O-]
REMARK SMILES IDX 9 1 10 2 11 3 12 4 13 5 14 6 15 7 16 8 17 9 18 10 8 11 7 12
REMARK SMILES IDX 6 13 5 14 4 15 3 16 2 17 1 18
REMARK H PARENT
REMARK Flexibility Score: inf
ROOT
ATOM      1  C   UNL     1      16.573  15.351  32.888  1.00  0.00     0.000 C 
ENDROOT
BRANCH   1   2
ATOM      2  C   UNL     1      17.998  14.797  33.050  1.00  0.00     0.000 C 
BRANCH   2   3
ATOM      3  C   UNL     1      18.952  15.801  33.719  1.00  0.00     0.000 C 
BRANCH   3   4
ATOM      4  C   UNL     1      19.028  15.626  35.247  1.00  0.00     0.000 C 
BRANCH   4   5
ATOM      5  C   UNL     1      18.408  16.774  36.066  1.00  0.00     0.000 C 
BRANCH   5   6
ATOM      6  C   UNL     1      16.876  16.722  36.224  1.00  0.00     0.006 C 
BRANCH   6   7
ATOM      7  C   UNL     1      16.340  15.351  36.677  1.00  0.00     0.053 C 
BRANCH   7   8
ATOM      8  C   UNL     1      15.210  15.466  37.655  1.00  0.00     0.041 C 
ATOM      9  O   UNL     1      14.987  14.539  38.478  1.00  0.00    -0.550 OA
ATOM     10  O   UNL     1      14.426  16.611  37.682  1.00  0.00    -0.550 OA
ENDBRANCH   7   8
ENDBRANCH   6   7
ENDBRANCH   5   6
ENDBRANCH   4   5
ENDBRANCH   3   4
ENDBRANCH   2   3
ENDBRANCH   1   2
BRANCH   1  11
ATOM     11  C   UNL     1      16.517  16.563  31.941  1.00  0.00     0.000 C 
BRANCH  11  12
ATOM     12  C   UNL     1      15.826  17.778  32.579  1.00  0.00    -0.000 C 
BRANCH  12  13
ATOM     13  C   UNL     1      16.829  18.805  33.134  1.00  0.00    -0.000 C 
BRANCH  13  14
ATOM     14  C   UNL     1      18.093  18.931  32.266  1.00  0.00    -0.000 C 
BRANCH  14  15
ATOM     15  C   UNL     1      19.303  19.582  32.965  1.00  0.00    -0.000 C 
BRANCH  15  16
ATOM     16  C   UNL     1      19.086  19.942  34.446  1.00  0.00    -0.000 C 
BRANCH  16  17
ATOM     17  C   UNL     1      20.379  19.871  35.271  1.00  0.00    -0.003 C 
ATOM     18  C   UNL     1      20.123  20.255  36.726  1.00  0.00     0.004 C 
ENDBRANCH  16  17
ENDBRANCH  15  16
ENDBRANCH  14  15
ENDBRANCH  13  14
ENDBRANCH  12  13
ENDBRANCH  11  12
ENDBRANCH   1  11
TORSDOF 14
ENDMDL
MODEL 4
REMARK VINA RESULT:    -4.545      1.164      2.076
REMARK INTER + INTRA:         -10.145
REMARK INTER:                  -8.131
REMARK INTRA:                  -2.013
REMARK UNBOUND:                -1.880
REMARK SMILES CCCCCCCCCCCCCCCC(=O)[O-]
REMARK SMILES IDX 9 1 10 2 11 3 12 4 13 5 14 6 15 7 16 8 17 9 18 10 8 11 7 12
REMARK SMILES IDX 6 13 5 14 4 15 3 16 2 17 1 18
REMARK H PARENT
REMARK Flexibility Score: inf
ROOT
ATOM      1  C   UNL     1      18.868  19.218  32.568  1.00  0.00     0.000 C 
ENDROOT
BRANCH   1   2
ATOM      2  C   UNL     1      19.753  19.532  33.785  1.00  0.00     0.000 C 
BRANCH   2   3
ATOM      3  C   UNL     1      18.983  20.244  34.910  1.00  0.00     0.000 C 
BRANCH   3   4
ATOM      4  C   UNL     1      18.891  19.402  36.195  1.00  0.00     0.000 C 
BRANCH   4   5
ATOM      5  C   UNL     1      19.244  17.911  36.026  1.00  0.00     0.000 C 
BRANCH   5   6
ATOM      6  C   UNL     1      18.053  16.937  36.104  1.00  0.00     0.006 C 
BRANCH   6   7
ATOM      7  C   UNL     1      16.771  17.560  36.688  1.00  0.00     0.053 C 
BRANCH   7   8
ATOM      8  C   UNL     1      15.632  16.588  36.747  1.00  0.00     0.041 C 
ATOM      9  O   UNL     1      15.549  15.656  35.903  1.00  0.00    -0.550 OA
ATOM     10  O   UNL     1      14.680  16.688  37.753  1.00  0.00    -0.550 OA
ENDBRANCH   7   8
ENDBRANCH   6   7
ENDBRANCH   5   6
ENDBRANCH   4   5
ENDBRANCH   3   4
ENDBRANCH   2   3
ENDBRANCH   1   2
BRANCH   1  11
ATOM     11  C   UNL     1      18.632  17.709  32.384  1.00  0.00     0.000 C 
BRANCH  11  12
ATOM     12  C   UNL     1      17.139  17.352  32.299  1.00  0.00    -0.000 C 
BRANCH  12  13
ATOM     13  C   UNL     1      16.249  18.342  33.072  1.00  0.00    -0.000 C 
BRANCH  13  14
ATOM     14  C   UNL     1      15.056  18.843  32.238  1.00  0.00    -0.000 C 
BRANCH  14  15
ATOM     15  C   UNL     1      15.176  18.604  30.720  1.00  0.00    -0.000 C 
BRANCH  15  16
ATOM     16  C   UNL     1      14.016  17.813  30.089  1.00  0.00    -0.000 C 
BRANCH  16  17
ATOM     17  C   UNL     1      12.971  17.364  31.121  1.00  0.00    -0.003 C 
ATOM     18  C   UNL     1      13.172  15.901  31.505  1.00  0.00     0.004 C 
ENDBRANCH  16  17
ENDBRANCH  15  16
ENDBRANCH  14  15
ENDBRANCH  13  14
ENDBRANCH  12  13
ENDBRANCH  11  12
ENDBRANCH   1  11
TORSDOF 14
ENDMDL
MODEL 5
REMARK VINA RESULT:    -4.514      1.464      2.059
REMARK INTER + INTRA:         -10.088
REMARK INTER:                  -8.312
REMARK INTRA:                  -1.776
REMARK UNBOUND:                -1.880
REMARK SMILES CCCCCCCCCCCCCCCC(=O)[O-]
REMARK SMILES IDX 9 1 10 2 11 3 12 4 13 5 14 6 15 7 16 8 17 9 18 10 8 11 7 12
REMARK SMILES IDX 6 13 5 14 4 15 3 16 2 17 1 18
REMARK H PARENT
REMARK Flexibility Score: inf
ROOT
ATOM      1  C   UNL     1      20.345  19.470  34.921  1.00  0.00     0.000 C 
ENDROOT
BRANCH   1   2
ATOM      2  C   UNL     1      20.816  18.858  36.251  1.00  0.00     0.000 C 
BRANCH   2   3
ATOM      3  C   UNL     1      20.891  17.323  36.203  1.00  0.00     0.000 C 
BRANCH   3   4
ATOM      4  C   UNL     1      20.051  16.720  35.063  1.00  0.00     0.000 C 
BRANCH   4   5
ATOM      5  C   UNL     1      18.840  15.883  35.518  1.00  0.00     0.000 C 
BRANCH   5   6
ATOM      6  C   UNL     1      17.723  16.669  36.231  1.00  0.00     0.006 C 
BRANCH   6   7
ATOM      7  C   UNL     1      16.319  16.060  36.057  1.00  0.00     0.053 C 
BRANCH   7   8
ATOM      8  C   UNL     1      15.584  15.924  37.356  1.00  0.00     0.041 C 
ATOM      9  O   UNL     1      15.379  16.936  38.078  1.00  0.00    -0.550 OA
ATOM     10  O   UNL     1      15.093  14.688  37.754  1.00  0.00    -0.550 OA
ENDBRANCH   7   8
ENDBRANCH   6   7
ENDBRANCH   5   6
ENDBRANCH   4   5
ENDBRANCH   3   4
ENDBRANCH   2   3
ENDBRANCH   1   2
BRANCH   1  11
ATOM     11  C   UNL     1      19.070  20.317  35.081  1.00  0.00     0.000 C 
BRANCH  11  12
ATOM     12  C   UNL     1      17.896  19.775  34.251  1.00  0.00    -0.000 C 
BRANCH  12  13
ATOM     13  C   UNL     1      18.342  19.215  32.889  1.00  0.00    -0.000 C 
BRANCH  13  14
ATOM     14  C   UNL     1      17.423  18.089  32.380  1.00  0.00    -0.000 C 
BRANCH  14  15
ATOM     15  C   UNL     1      17.091  18.149  30.876  1.00  0.00    -0.000 C 
BRANCH  15  16
ATOM     16  C   UNL     1      15.655  18.590  30.541  1.00  0.00    -0.000 C 
BRANCH  16  17
ATOM     17  C   UNL     1      14.741  18.631  31.775  1.00  0.00    -0.003 C 
ATOM     18  C   UNL     1      13.379  18.017  31.470  1.00  0.00     0.004 C 
ENDBRANCH  16  17
ENDBRANCH  15  16
ENDBRANCH  14  15
ENDBRANCH  13  14
ENDBRANCH  12  13
ENDBRANCH  11  12
ENDBRANCH   1  11
TORSDOF 14
ENDMDL
MODEL 6
REMARK VINA RESULT:    -4.452      2.566      5.263
REMARK INTER + INTRA:          -9.976
REMARK INTER:                  -7.795
REMARK INTRA:                  -2.180
REMARK UNBOUND:                -1.880
REMARK SMILES CCCCCCCCCCCCCCCC(=O)[O-]
REMARK SMILES IDX 9 1 10 2 11 3 12 4 13 5 14 6 15 7 16 8 17 9 18 10 8 11 7 12
REMARK SMILES IDX 6 13 5 14 4 15 3 16 2 17 1 18
REMARK H PARENT
REMARK Flexibility Score: inf
ROOT
ATOM      1  C   UNL     1      17.484  15.796  35.074  1.00  0.00     0.000 C 
ENDROOT
BRANCH   1   2
ATOM      2  C   UNL     1      16.548  15.983  33.869  1.00  0.00     0.000 C 
BRANCH   2   3
ATOM      3  C   UNL     1      16.339  17.462  33.505  1.00  0.00     0.000 C 
BRANCH   3   4
ATOM      4  C   UNL     1      16.790  17.794  32.071  1.00  0.00     0.000 C 
BRANCH   4   5
ATOM      5  C   UNL     1      15.648  18.066  31.074  1.00  0.00     0.000 C 
BRANCH   5   6
ATOM      6  C   UNL     1      14.272  18.349  31.707  1.00  0.00     0.006 C 
BRANCH   6   7
ATOM      7  C   UNL     1      13.160  17.388  31.246  1.00  0.00     0.053 C 
BRANCH   7   8
ATOM      8  C   UNL     1      13.554  15.947  31.372  1.00  0.00     0.041 C 
ATOM      9  O   UNL     1      13.510  15.373  32.492  1.00  0.00    -0.550 OA
ATOM     10  O   UNL     1      13.934  15.227  30.247  1.00  0.00    -0.550 OA
ENDBRANCH   7   8
ENDBRANCH   6   7
ENDBRANCH   5   6
ENDBRANCH   4   5
ENDBRANCH   3   4
ENDBRANCH   2   3
ENDBRANCH   1   2
BRANCH   1  11
ATOM     11  C   UNL     1      18.969  15.786  34.670  1.00  0.00     0.000 C 
BRANCH  11  12
ATOM     12  C   UNL     1      19.871  16.444  35.726  1.00  0.00    -0.000 C 
BRANCH  12  13
ATOM     13  C   UNL     1      20.680  17.625  35.162  1.00  0.00    -0.000 C 
BRANCH  13  14
ATOM     14  C   UNL     1      20.114  18.151  33.831  1.00  0.00    -0.000 C 
BRANCH  14  15
ATOM     15  C   UNL     1      19.736  19.646  33.829  1.00  0.00    -0.000 C 
BRANCH  15  16
ATOM     16  C   UNL     1      19.291  20.209  35.190  1.00  0.00    -0.000 C 
BRANCH  16  17
ATOM     17  C   UNL     1      17.839  19.850  35.538  1.00  0.00    -0.003 C 
ATOM     18  C   UNL     1      17.737  19.280  36.949  1.00  0.00     0.004 C 
ENDBRANCH  16  17
ENDBRANCH  15  16
ENDBRANCH  14  15
ENDBRANCH  13  14
ENDBRANCH  12  13
ENDBRANCH  11  12
ENDBRANCH   1  11
TORSDOF 14
ENDMDL
MODEL 7
REMARK VINA RESULT:    -4.421      1.743      4.079
REMARK INTER + INTRA:          -9.919
REMARK INTER:                  -7.551
REMARK INTRA:                  -2.368
REMARK UNBOUND:                -1.880
REMARK SMILES CCCCCCCCCCCCCCCC(=O)[O-]
REMARK SMILES IDX 9 1 10 2 11 3 12 4 13 5 14 6 15 7 16 8 17 9 18 10 8 11 7 12
REMARK SMILES IDX 6 13 5 14 4 15 3 16 2 17 1 18
REMARK H PARENT
REMARK Flexibility Score: inf
ROOT
ATOM      1  C   UNL     1      19.309  19.804  33.120  1.00  0.00     0.000 C 
ENDROOT
BRANCH   1   2
ATOM      2  C   UNL     1      18.501  18.844  32.231  1.00  0.00     0.000 C 
BRANCH   2   3
ATOM      3  C   UNL     1      17.076  18.607  32.759  1.00  0.00     0.000 C 
BRANCH   3   4
ATOM      4  C   UNL     1      16.850  17.162  33.238  1.00  0.00     0.000 C 
BRANCH   4   5
ATOM      5  C   UNL     1      16.394  17.024  34.703  1.00  0.00     0.000 C 
BRANCH   5   6
ATOM      6  C   UNL     1      16.289  15.581  35.231  1.00  0.00     0.006 C 
BRANCH   6   7
ATOM      7  C   UNL     1      16.292  15.473  36.767  1.00  0.00     0.053 C 
BRANCH   7   8
ATOM      8  C   UNL     1      15.413  16.496  37.420  1.00  0.00     0.041 C 
ATOM      9  O   UNL     1      14.187  16.264  37.588  1.00  0.00    -0.550 OA
ATOM     10  O   UNL     1      15.953  17.692  37.875  1.00  0.00    -0.550 OA
ENDBRANCH   7   8
ENDBRANCH   6   7
ENDBRANCH   5   6
ENDBRANCH   4   5
ENDBRANCH   3   4
ENDBRANCH   2   3
ENDBRANCH   1   2
BRANCH   1  11
ATOM     11  C   UNL     1      18.634  20.057  34.479  1.00  0.00     0.000 C 
BRANCH  11  12
ATOM     12  C   UNL     1      19.629  20.524  35.553  1.00  0.00    -0.000 C 
BRANCH  12  13
ATOM     13  C   UNL     1      19.747  19.532  36.724  1.00  0.00    -0.000 C 
BRANCH  13  14
ATOM     14  C   UNL     1      19.162  18.147  36.390  1.00  0.00    -0.000 C 
BRANCH  14  15
ATOM     15  C   UNL     1      20.205  17.060  36.065  1.00  0.00    -0.000 C 
BRANCH  15  16
ATOM     16  C   UNL     1      20.151  16.512  34.627  1.00  0.00    -0.000 C 
BRANCH  16  17
ATOM     17  C   UNL     1      19.894  14.999  34.576  1.00  0.00    -0.003 C 
ATOM     18  C   UNL     1      19.551  14.549  33.159  1.00  0.00     0.004 C 
ENDBRANCH  16  17
ENDBRANCH  15  16
ENDBRANCH  14  15
ENDBRANCH  13  14
ENDBRANCH  12  13
ENDBRANCH  11  12
ENDBRANCH   1  11
TORSDOF 14
ENDMDL
MODEL 8
REMARK VINA RESULT:    -4.331      2.577      5.312
REMARK INTER + INTRA:          -9.756
REMARK INTER:                  -7.318
REMARK INTRA:                  -2.438
REMARK UNBOUND:                -1.880
REMARK SMILES CCCCCCCCCCCCCCCC(=O)[O-]
REMARK SMILES IDX 9 1 10 2 11 3 12 4 13 5 14 6 15 7 16 8 17 9 18 10 8 11 7 12
REMARK SMILES IDX 6 13 5 14 4 15 3 16 2 17 1 18
REMARK H PARENT
REMARK Flexibility Score: inf
ROOT
ATOM      1  C   UNL     1      19.119  15.915  32.697  1.00  0.00     0.000 C 
ENDROOT
BRANCH   1   2
ATOM      2  C   UNL     1      18.036  16.247  31.658  1.00  0.00     0.000 C 
BRANCH   2   3
ATOM      3  C   UNL     1      18.153  17.682  31.117  1.00  0.00     0.000 C 
BRANCH   3   4
ATOM      4  C   UNL     1      16.784  18.330  30.842  1.00  0.00     0.000 C 
BRANCH   4   5
ATOM      5  C   UNL     1      16.008  18.773  32.098  1.00  0.00     0.000 C 
BRANCH   5   6
ATOM      6  C   UNL     1      14.473  18.720  31.979  1.00  0.00     0.006 C 
BRANCH   6   7
ATOM      7  C   UNL     1      13.963  17.803  30.852  1.00  0.00     0.053 C 
BRANCH   7   8
ATOM      8  C   UNL     1      13.533  16.457  31.354  1.00  0.00     0.041 C 
ATOM      9  O   UNL     1      14.307  15.468  31.259  1.00  0.00    -0.550 OA
ATOM     10  O   UNL     1      12.292  16.301  31.957  1.00  0.00    -0.550 OA
ENDBRANCH   7   8
ENDBRANCH   6   7
ENDBRANCH   5   6
ENDBRANCH   4   5
ENDBRANCH   3   4
ENDBRANCH   2   3
ENDBRANCH   1   2
BRANCH   1  11
ATOM     11  C   UNL     1      18.531  15.644  34.094  1.00  0.00     0.000 C 
BRANCH  11  12
ATOM     12  C   UNL     1      17.040  16.004  34.185  1.00  0.00    -0.000 C 
BRANCH  12  13
ATOM     13  C   UNL     1      16.740  17.007  35.313  1.00  0.00    -0.000 C 
BRANCH  13  14
ATOM     14  C   UNL     1      17.959  17.265  36.218  1.00  0.00    -0.000 C 
BRANCH  14  15
ATOM     15  C   UNL     1      18.606  18.655  36.060  1.00  0.00    -0.000 C 
BRANCH  15  16
ATOM     16  C   UNL     1      17.858  19.622  35.124  1.00  0.00    -0.000 C 
BRANCH  16  17
ATOM     17  C   UNL     1      18.784  20.295  34.101  1.00  0.00    -0.003 C 
ATOM     18  C   UNL     1      19.985  19.410  33.782  1.00  0.00     0.004 C 
ENDBRANCH  16  17
ENDBRANCH  15  16
ENDBRANCH  14  15
ENDBRANCH  13  14
ENDBRANCH  12  13
ENDBRANCH  11  12
ENDBRANCH   1  11
TORSDOF 14
ENDMDL
MODEL 9
REMARK VINA RESULT:    -4.307      2.393      4.949
REMARK INTER + INTRA:          -9.711
REMARK INTER:                  -7.569
REMARK INTRA:                  -2.142
REMARK UNBOUND:                -1.880
REMARK SMILES CCCCCCCCCCCCCCCC(=O)[O-]
REMARK SMILES IDX 9 1 10 2 11 3 12 4 13 5 14 6 15 7 16 8 17 9 18 10 8 11 7 12
REMARK SMILES IDX 6 13 5 14 4 15 3 16 2 17 1 18
REMARK H PARENT
REMARK Flexibility Score: inf
ROOT
ATOM      1  C   UNL     1      18.056  19.910  33.998  1.00  0.00     0.000 C 
ENDROOT
BRANCH   1   2
ATOM      2  C   UNL     1      18.619  19.349  32.682  1.00  0.00     0.000 C 
BRANCH   2   3
ATOM      3  C   UNL     1      17.811  18.151  32.155  1.00  0.00     0.000 C 
BRANCH   3   4
ATOM      4  C   UNL     1      16.292  18.336  32.323  1.00  0.00     0.000 C 
BRANCH   4   5
ATOM      5  C   UNL     1      15.532  18.701  31.033  1.00  0.00     0.000 C 
BRANCH   5   6
ATOM      6  C   UNL     1      14.509  17.655  30.550  1.00  0.00     0.006 C 
BRANCH   6   7
ATOM      7  C   UNL     1      14.702  16.258  31.167  1.00  0.00     0.053 C 
BRANCH   7   8
ATOM      8  C   UNL     1      13.539  15.833  32.012  1.00  0.00     0.041 C 
ATOM      9  O   UNL     1      13.676  14.916  32.864  1.00  0.00    -0.550 OA
ATOM     10  O   UNL     1      12.314  16.474  31.884  1.00  0.00    -0.550 OA
ENDBRANCH   7   8
ENDBRANCH   6   7
ENDBRANCH   5   6
ENDBRANCH   4   5
ENDBRANCH   3   4
ENDBRANCH   2   3
ENDBRANCH   1   2
BRANCH   1  11
ATOM     11  C   UNL     1      19.116  19.973  35.112  1.00  0.00     0.000 C 
BRANCH  11  12
ATOM     12  C   UNL     1      20.421  19.260  34.724  1.00  0.00    -0.000 C 
BRANCH  12  13
ATOM     13  C   UNL     1      21.082  18.546  35.916  1.00  0.00    -0.000 C 
BRANCH  13  14
ATOM     14  C   UNL     1      20.718  17.052  35.991  1.00  0.00    -0.000 C 
BRANCH  14  15
ATOM     15  C   UNL     1      20.086  16.470  34.711  1.00  0.00    -0.000 C 
BRANCH  15  16
ATOM     16  C   UNL     1      18.681  15.868  34.891  1.00  0.00    -0.000 C 
BRANCH  16  17
ATOM     17  C   UNL     1      17.964  16.395  36.142  1.00  0.00    -0.003 C 
ATOM     18  C   UNL     1      16.600  16.979  35.788  1.00  0.00     0.004 C 
ENDBRANCH  16  17
ENDBRANCH  15  16
ENDBRANCH  14  15
ENDBRANCH  13  14
ENDBRANCH  12  13
ENDBRANCH  11  12
ENDBRANCH   1  11
TORSDOF 14
ENDMDL
