MODEL 1
REMARK VINA RESULT:    -6.057      0.000      0.000
REMARK INTER + INTRA:         -17.906
REMARK INTER:                 -13.846
REMARK INTRA:                  -4.060
REMARK UNBOUND:                -4.060
REMARK SMILES CCCCCCCCCCCCCCCCCCCCCCCC(=O)[O-]
REMARK SMILES IDX 13 1 14 2 15 3 16 4 17 5 18 6 19 7 20 8 21 9 22 10 23 11
REMARK SMILES IDX 24 12 25 13 26 14 12 15 11 16 10 17 9 18 8 19 7 20 6 21 5 22
REMARK SMILES IDX 4 23 3 24 2 25 1 26
REMARK H PARENT
REMARK Flexibility Score: inf
ROOT
ATOM      1  C   UNL     1      19.268  -4.804  13.017  1.00  0.00     0.000 C 
ENDROOT
BRANCH   1   2
ATOM      2  C   UNL     1      18.443  -5.763  12.132  1.00  0.00     0.000 C 
BRANCH   2   3
ATOM      3  C   UNL     1      17.055  -5.191  11.792  1.00  0.00     0.000 C 
BRANCH   3   4
ATOM      4  C   UNL     1      16.300  -6.033  10.752  1.00  0.00     0.000 C 
BRANCH   4   5
ATOM      5  C   UNL     1      15.543  -5.170   9.729  1.00  0.00     0.000 C 
BRANCH   5   6
ATOM      6  C   UNL     1      14.113  -5.675   9.465  1.00  0.00     0.000 C 
BRANCH   6   7
ATOM      7  C   UNL     1      13.003  -4.962  10.265  1.00  0.00     0.000 C 
BRANCH   7   8
ATOM      8  C   UNL     1      12.990  -5.267  11.774  1.00  0.00     0.000 C 
BRANCH   8   9
ATOM      9  C   UNL     1      13.077  -3.997  12.639  1.00  0.00     0.000 C 
BRANCH   9  10
ATOM     10  C   UNL     1      13.944  -2.902  11.998  1.00  0.00     0.006 C 
BRANCH  10  11
ATOM     11  C   UNL     1      14.980  -2.324  12.974  1.00  0.00     0.053 C 
BRANCH  11  12
ATOM     12  C   UNL     1      15.433  -0.967  12.528  1.00  0.00     0.041 C 
ATOM     13  O   UNL     1      16.541  -0.510  12.916  1.00  0.00    -0.550 OA
ATOM     14  O   UNL     1      14.618  -0.191  11.712  1.00  0.00    -0.550 OA
ENDBRANCH  11  12
ENDBRANCH  10  11
ENDBRANCH   9  10
ENDBRANCH   8   9
ENDBRANCH   7   8
ENDBRANCH   6   7
ENDBRANCH   5   6
ENDBRANCH   4   5
ENDBRANCH   3   4
ENDBRANCH   2   3
ENDBRANCH   1   2
BRANCH   1  15
ATOM     15  C   UNL     1      18.654  -3.398  13.137  1.00  0.00     0.000 C 
BRANCH  15  16
ATOM     16  C   UNL     1      18.296  -3.025  14.585  1.00  0.00     0.000 C 
BRANCH  16  17
ATOM     17  C   UNL     1      19.519  -2.575  15.398  1.00  0.00     0.000 C 
BRANCH  17  18
ATOM     18  C   UNL     1      19.438  -3.002  16.874  1.00  0.00    -0.000 C 
BRANCH  18  19
ATOM     19  C   UNL     1      18.059  -3.569  17.258  1.00  0.00    -0.000 C 
BRANCH  19  20
ATOM     20  C   UNL     1      17.350  -2.826  18.406  1.00  0.00    -0.000 C 
BRANCH  20  21
ATOM     21  C   UNL     1      15.854  -2.604  18.140  1.00  0.00    -0.000 C 
BRANCH  21  22
ATOM     22  C   UNL     1      15.489  -2.996  16.702  1.00  0.00    -0.000 C 
BRANCH  22  23
ATOM     23  C   UNL     1      14.109  -3.667  16.648  1.00  0.00    -0.000 C 
BRANCH  23  24
ATOM     24  C   UNL     1      14.157  -5.072  16.029  1.00  0.00    -0.000 C 
BRANCH  24  25
ATOM     25  C   UNL     1      15.427  -5.311  15.199  1.00  0.00    -0.003 C 
ATOM     26  C   UNL     1      16.325  -6.354  15.856  1.00  0.00     0.004 C 
ENDBRANCH  24  25
ENDBRANCH  23  24
ENDBRANCH  22  23
ENDBRANCH  21  22
ENDBRANCH  20  21
ENDBRANCH  19  20
ENDBRANCH  18  19
ENDBRANCH  17  18
ENDBRANCH  16  17
ENDBRANCH  15  16
ENDBRANCH   1  15
TORSDOF 22
ENDMDL
MODEL 2
REMARK VINA RESULT:    -5.988      1.583      4.015
REMARK INTER + INTRA:         -17.749
REMARK INTER:                 -13.507
REMARK INTRA:                  -4.242
REMARK UNBOUND:                -4.060
REMARK SMILES CCCCCCCCCCCCCCCCCCCCCCCC(=O)[O-]
REMARK SMILES IDX 13 1 14 2 15 3 16 4 17 5 18 6 19 7 20 8 21 9 22 10 23 11
REMARK SMILES IDX 24 12 25 13 26 14 12 15 11 16 10 17 9 18 8 19 7 20 6 21 5 22
REMARK SMILES IDX 4 23 3 24 2 25 1 26
REMARK H PARENT
REMARK Flexibility Score: inf
ROOT
ATOM      1  C   UNL     1      15.085  -5.675  16.076  1.00  0.00     0.000 C 
ENDROOT
BRANCH   1   2
ATOM      2  C   UNL     1      14.806  -7.120  15.610  1.00  0.00     0.000 C 
BRANCH   2   3
ATOM      3  C   UNL     1      15.424  -7.414  14.230  1.00  0.00     0.000 C 
BRANCH   3   4
ATOM      4  C   UNL     1      16.240  -6.235  13.678  1.00  0.00     0.000 C 
BRANCH   4   5
ATOM      5  C   UNL     1      16.982  -6.588  12.377  1.00  0.00     0.000 C 
BRANCH   5   6
ATOM      6  C   UNL     1      16.951  -5.446  11.345  1.00  0.00     0.000 C 
BRANCH   6   7
ATOM      7  C   UNL     1      15.944  -5.628  10.190  1.00  0.00     0.000 C 
BRANCH   7   8
ATOM      8  C   UNL     1      14.606  -4.889  10.370  1.00  0.00     0.000 C 
BRANCH   8   9
ATOM      9  C   UNL     1      13.551  -5.737  11.101  1.00  0.00     0.000 C 
BRANCH   9  10
ATOM     10  C   UNL     1      13.037  -5.067  12.385  1.00  0.00     0.006 C 
BRANCH  10  11
ATOM     11  C   UNL     1      13.725  -3.722  12.663  1.00  0.00     0.053 C 
BRANCH  11  12
ATOM     12  C   UNL     1      12.773  -2.761  13.309  1.00  0.00     0.041 C 
ATOM     13  O   UNL     1      12.999  -1.523  13.267  1.00  0.00    -0.550 OA
ATOM     14  O   UNL     1      11.656  -3.233  13.989  1.00  0.00    -0.550 OA
ENDBRANCH  11  12
ENDBRANCH  10  11
ENDBRANCH   9  10
ENDBRANCH   8   9
ENDBRANCH   7   8
ENDBRANCH   6   7
ENDBRANCH   5   6
ENDBRANCH   4   5
ENDBRANCH   3   4
ENDBRANCH   2   3
ENDBRANCH   1   2
BRANCH   1  15
ATOM     15  C   UNL     1      13.812  -4.830  16.255  1.00  0.00     0.000 C 
BRANCH  15  16
ATOM     16  C   UNL     1      14.109  -3.391  16.710  1.00  0.00     0.000 C 
BRANCH  16  17
ATOM     17  C   UNL     1      15.598  -3.033  16.594  1.00  0.00     0.000 C 
BRANCH  17  18
ATOM     18  C   UNL     1      16.203  -2.580  17.934  1.00  0.00    -0.000 C 
BRANCH  18  19
ATOM     19  C   UNL     1      17.555  -3.251  18.238  1.00  0.00    -0.000 C 
BRANCH  19  20
ATOM     20  C   UNL     1      18.563  -3.234  17.074  1.00  0.00    -0.000 C 
BRANCH  20  21
ATOM     21  C   UNL     1      18.442  -4.461  16.160  1.00  0.00    -0.000 C 
BRANCH  21  22
ATOM     22  C   UNL     1      19.292  -4.288  14.895  1.00  0.00    -0.000 C 
BRANCH  22  23
ATOM     23  C   UNL     1      19.227  -2.843  14.381  1.00  0.00    -0.000 C 
BRANCH  23  24
ATOM     24  C   UNL     1      18.435  -2.715  13.071  1.00  0.00    -0.000 C 
BRANCH  24  25
ATOM     25  C   UNL     1      16.990  -2.247  13.295  1.00  0.00    -0.003 C 
ATOM     26  C   UNL     1      16.903  -0.723  13.321  1.00  0.00     0.004 C 
ENDBRANCH  24  25
ENDBRANCH  23  24
ENDBRANCH  22  23
ENDBRANCH  21  22
ENDBRANCH  20  21
ENDBRANCH  19  20
ENDBRANCH  18  19
ENDBRANCH  17  18
ENDBRANCH  16  17
ENDBRANCH  15  16
ENDBRANCH   1  15
TORSDOF 22
ENDMDL
MODEL 3
REMARK VINA RESULT:    -5.984      1.952      4.406
REMARK INTER + INTRA:         -17.739
REMARK INTER:                 -13.707
REMARK INTRA:                  -4.032
REMARK UNBOUND:                -4.060
REMARK SMILES CCCCCCCCCCCCCCCCCCCCCCCC(=O)[O-]
REMARK SMILES IDX 13 1 14 2 15 3 16 4 17 5 18 6 19 7 20 8 21 9 22 10 23 11
REMARK SMILES IDX 24 12 25 13 26 14 12 15 11 16 10 17 9 18 8 19 7 20 6 21 5 22
REMARK SMILES IDX 4 23 3 24 2 25 1 26
REMARK H PARENT
REMARK Flexibility Score: inf
ROOT
ATOM      1  C   UNL     1      17.156  -1.498  13.813  1.00  0.00     0.000 C 
ENDROOT
BRANCH   1   2
ATOM      2  C   UNL     1      18.632  -1.413  13.367  1.00  0.00     0.000 C 
BRANCH   2   3
ATOM      3  C   UNL     1      19.215  -2.795  13.023  1.00  0.00     0.000 C 
BRANCH   3   4
ATOM      4  C   UNL     1      18.146  -3.898  12.971  1.00  0.00     0.000 C 
BRANCH   4   5
ATOM      5  C   UNL     1      18.710  -5.246  12.491  1.00  0.00     0.000 C 
BRANCH   5   6
ATOM      6  C   UNL     1      17.668  -6.097  11.744  1.00  0.00     0.000 C 
BRANCH   6   7
ATOM      7  C   UNL     1      16.254  -5.485  11.660  1.00  0.00     0.000 C 
BRANCH   7   8
ATOM      8  C   UNL     1      15.178  -6.215  12.484  1.00  0.00     0.000 C 
BRANCH   8   9
ATOM      9  C   UNL     1      13.747  -5.858  12.046  1.00  0.00     0.000 C 
BRANCH   9  10
ATOM     10  C   UNL     1      13.718  -4.903  10.842  1.00  0.00     0.006 C 
BRANCH  10  11
ATOM     11  C   UNL     1      12.348  -4.870  10.150  1.00  0.00     0.053 C 
BRANCH  11  12
ATOM     12  C   UNL     1      11.462  -3.831  10.770  1.00  0.00     0.041 C 
ATOM     13  O   UNL     1      11.361  -2.691  10.245  1.00  0.00    -0.550 OA
ATOM     14  O   UNL     1      10.776  -4.110  11.946  1.00  0.00    -0.550 OA
ENDBRANCH  11  12
ENDBRANCH  10  11
ENDBRANCH   9  10
ENDBRANCH   8   9
ENDBRANCH   7   8
ENDBRANCH   6   7
ENDBRANCH   5   6
ENDBRANCH   4   5
ENDBRANCH   3   4
ENDBRANCH   2   3
ENDBRANCH   1   2
BRANCH   1  15
ATOM     15  C   UNL     1      16.177  -0.832  12.831  1.00  0.00     0.000 C 
BRANCH  15  16
ATOM     16  C   UNL     1      15.117  -1.806  12.292  1.00  0.00     0.000 C 
BRANCH  16  17
ATOM     17  C   UNL     1      13.695  -1.231  12.369  1.00  0.00     0.000 C 
BRANCH  17  18
ATOM     18  C   UNL     1      12.907  -1.765  13.578  1.00  0.00    -0.000 C 
BRANCH  18  19
ATOM     19  C   UNL     1      13.479  -3.083  14.131  1.00  0.00    -0.000 C 
BRANCH  19  20
ATOM     20  C   UNL     1      13.136  -3.371  15.604  1.00  0.00    -0.000 C 
BRANCH  20  21
ATOM     21  C   UNL     1      14.161  -4.286  16.289  1.00  0.00    -0.000 C 
BRANCH  21  22
ATOM     22  C   UNL     1      15.513  -4.232  15.565  1.00  0.00    -0.000 C 
BRANCH  22  23
ATOM     23  C   UNL     1      16.645  -4.735  16.474  1.00  0.00    -0.000 C 
BRANCH  23  24
ATOM     24  C   UNL     1      17.861  -3.796  16.479  1.00  0.00    -0.000 C 
BRANCH  24  25
ATOM     25  C   UNL     1      18.216  -3.295  17.887  1.00  0.00    -0.003 C 
ATOM     26  C   UNL     1      16.994  -2.703  18.583  1.00  0.00     0.004 C 
ENDBRANCH  24  25
ENDBRANCH  23  24
ENDBRANCH  22  23
ENDBRANCH  21  22
ENDBRANCH  20  21
ENDBRANCH  19  20
ENDBRANCH  18  19
ENDBRANCH  17  18
ENDBRANCH  16  17
ENDBRANCH  15  16
ENDBRANCH   1  15
TORSDOF 22
ENDMDL
MODEL 4
REMARK VINA RESULT:    -5.983      2.205      4.953
REMARK INTER + INTRA:         -17.739
REMARK INTER:                 -13.684
REMARK INTRA:                  -4.055
REMARK UNBOUND:                -4.060
REMARK SMILES CCCCCCCCCCCCCCCCCCCCCCCC(=O)[O-]
REMARK SMILES IDX 13 1 14 2 15 3 16 4 17 5 18 6 19 7 20 8 21 9 22 10 23 11
REMARK SMILES IDX 24 12 25 13 26 14 12 15 11 16 10 17 9 18 8 19 7 20 6 21 5 22
REMARK SMILES IDX 4 23 3 24 2 25 1 26
REMARK H PARENT
REMARK Flexibility Score: inf
ROOT
ATOM      1  C   UNL     1      18.831  -2.897  13.783  1.00  0.00     0.000 C 
ENDROOT
BRANCH   1   2
ATOM      2  C   UNL     1      19.187  -3.795  12.579  1.00  0.00     0.000 C 
BRANCH   2   3
ATOM      3  C   UNL     1      18.769  -5.260  12.803  1.00  0.00     0.000 C 
BRANCH   3   4
ATOM      4  C   UNL     1      17.741  -5.752  11.772  1.00  0.00     0.000 C 
BRANCH   4   5
ATOM      5  C   UNL     1      16.446  -6.263  12.426  1.00  0.00     0.000 C 
BRANCH   5   6
ATOM      6  C   UNL     1      16.043  -5.448  13.668  1.00  0.00     0.000 C 
BRANCH   6   7
ATOM      7  C   UNL     1      14.813  -5.977  14.434  1.00  0.00     0.000 C 
BRANCH   7   8
ATOM      8  C   UNL     1      14.784  -5.638  15.935  1.00  0.00     0.000 C 
BRANCH   8   9
ATOM      9  C   UNL     1      14.275  -4.214  16.215  1.00  0.00     0.000 C 
BRANCH   9  10
ATOM     10  C   UNL     1      15.285  -3.369  17.007  1.00  0.00     0.006 C 
BRANCH  10  11
ATOM     11  C   UNL     1      16.731  -3.852  16.822  1.00  0.00     0.053 C 
BRANCH  11  12
ATOM     12  C   UNL     1      17.654  -3.148  17.771  1.00  0.00     0.041 C 
ATOM     13  O   UNL     1      17.206  -2.657  18.841  1.00  0.00    -0.550 OA
ATOM     14  O   UNL     1      19.000  -3.003  17.459  1.00  0.00    -0.550 OA
ENDBRANCH  11  12
ENDBRANCH  10  11
ENDBRANCH   9  10
ENDBRANCH   8   9
ENDBRANCH   7   8
ENDBRANCH   6   7
ENDBRANCH   5   6
ENDBRANCH   4   5
ENDBRANCH   3   4
ENDBRANCH   2   3
ENDBRANCH   1   2
BRANCH   1  15
ATOM     15  C   UNL     1      18.817  -1.395  13.448  1.00  0.00     0.000 C 
BRANCH  15  16
ATOM     16  C   UNL     1      17.396  -0.837  13.268  1.00  0.00     0.000 C 
BRANCH  16  17
ATOM     17  C   UNL     1      16.310  -1.856  13.643  1.00  0.00     0.000 C 
BRANCH  17  18
ATOM     18  C   UNL     1      15.353  -2.156  12.476  1.00  0.00    -0.000 C 
BRANCH  18  19
ATOM     19  C   UNL     1      14.339  -1.026  12.228  1.00  0.00    -0.000 C 
BRANCH  19  20
ATOM     20  C   UNL     1      12.865  -1.419  12.442  1.00  0.00    -0.000 C 
BRANCH  20  21
ATOM     21  C   UNL     1      12.654  -2.298  13.682  1.00  0.00    -0.000 C 
BRANCH  21  22
ATOM     22  C   UNL     1      11.951  -3.610  13.312  1.00  0.00    -0.000 C 
BRANCH  22  23
ATOM     23  C   UNL     1      12.076  -3.897  11.808  1.00  0.00    -0.000 C 
BRANCH  23  24
ATOM     24  C   UNL     1      12.948  -5.127  11.510  1.00  0.00    -0.000 C 
BRANCH  24  25
ATOM     25  C   UNL     1      13.815  -4.948  10.255  1.00  0.00    -0.003 C 
ATOM     26  C   UNL     1      13.450  -5.973   9.185  1.00  0.00     0.004 C 
ENDBRANCH  24  25
ENDBRANCH  23  24
ENDBRANCH  22  23
ENDBRANCH  21  22
ENDBRANCH  20  21
ENDBRANCH  19  20
ENDBRANCH  18  19
ENDBRANCH  17  18
ENDBRANCH  16  17
ENDBRANCH  15  16
ENDBRANCH   1  15
TORSDOF 22
ENDMDL
MODEL 5
REMARK VINA RESULT:    -5.978      0.991      2.473
REMARK INTER + INTRA:         -17.727
REMARK INTER:                 -13.932
REMARK INTRA:                  -3.795
REMARK UNBOUND:                -4.060
REMARK SMILES CCCCCCCCCCCCCCCCCCCCCCCC(=O)[O-]
REMARK SMILES IDX 13 1 14 2 15 3 16 4 17 5 18 6 19 7 20 8 21 9 22 10 23 11
REMARK SMILES IDX 24 12 25 13 26 14 12 15 11 16 10 17 9 18 8 19 7 20 6 21 5 22
REMARK SMILES IDX 4 23 3 24 2 25 1 26
REMARK H PARENT
REMARK Flexibility Score: inf
ROOT
ATOM      1  C   UNL     1      18.546  -5.218  12.503  1.00  0.00     0.000 C 
ENDROOT
BRANCH   1   2
ATOM      2  C   UNL     1      17.604  -6.222  11.805  1.00  0.00     0.000 C 
BRANCH   2   3
ATOM      3  C   UNL     1      16.253  -5.587  11.431  1.00  0.00     0.000 C 
BRANCH   3   4
ATOM      4  C   UNL     1      15.995  -5.580   9.916  1.00  0.00     0.000 C 
BRANCH   4   5
ATOM      5  C   UNL     1      14.516  -5.343   9.569  1.00  0.00     0.000 C 
BRANCH   5   6
ATOM      6  C   UNL     1      13.567  -5.703  10.726  1.00  0.00     0.000 C 
BRANCH   6   7
ATOM      7  C   UNL     1      12.483  -4.652  11.042  1.00  0.00     0.000 C 
BRANCH   7   8
ATOM      8  C   UNL     1      12.294  -4.339  12.537  1.00  0.00     0.000 C 
BRANCH   8   9
ATOM      9  C   UNL     1      12.367  -2.833  12.844  1.00  0.00     0.000 C 
BRANCH   9  10
ATOM     10  C   UNL     1      13.759  -2.394  13.326  1.00  0.00     0.006 C 
BRANCH  10  11
ATOM     11  C   UNL     1      14.754  -2.216  12.169  1.00  0.00     0.053 C 
BRANCH  11  12
ATOM     12  C   UNL     1      15.316  -0.826  12.159  1.00  0.00     0.041 C 
ATOM     13  O   UNL     1      14.747   0.080  11.494  1.00  0.00    -0.550 OA
ATOM     14  O   UNL     1      16.485  -0.539  12.853  1.00  0.00    -0.550 OA
ENDBRANCH  11  12
ENDBRANCH  10  11
ENDBRANCH   9  10
ENDBRANCH   8   9
ENDBRANCH   7   8
ENDBRANCH   6   7
ENDBRANCH   5   6
ENDBRANCH   4   5
ENDBRANCH   3   4
ENDBRANCH   2   3
ENDBRANCH   1   2
BRANCH   1  15
ATOM     15  C   UNL     1      17.848  -3.915  12.930  1.00  0.00     0.000 C 
BRANCH  15  16
ATOM     16  C   UNL     1      17.749  -3.764  14.457  1.00  0.00     0.000 C 
BRANCH  16  17
ATOM     17  C   UNL     1      18.326  -4.973  15.208  1.00  0.00     0.000 C 
BRANCH  17  18
ATOM     18  C   UNL     1      17.319  -5.593  16.192  1.00  0.00    -0.000 C 
BRANCH  18  19
ATOM     19  C   UNL     1      16.170  -6.335  15.485  1.00  0.00    -0.000 C 
BRANCH  19  20
ATOM     20  C   UNL     1      14.957  -5.458  15.125  1.00  0.00    -0.000 C 
BRANCH  20  21
ATOM     21  C   UNL     1      14.262  -4.863  16.358  1.00  0.00    -0.000 C 
BRANCH  21  22
ATOM     22  C   UNL     1      14.351  -3.332  16.352  1.00  0.00    -0.000 C 
BRANCH  22  23
ATOM     23  C   UNL     1      14.941  -2.809  17.670  1.00  0.00    -0.000 C 
BRANCH  23  24
ATOM     24  C   UNL     1      16.459  -2.584  17.591  1.00  0.00    -0.000 C 
BRANCH  24  25
ATOM     25  C   UNL     1      17.184  -2.972  18.889  1.00  0.00    -0.003 C 
ATOM     26  C   UNL     1      18.693  -3.042  18.675  1.00  0.00     0.004 C 
ENDBRANCH  24  25
ENDBRANCH  23  24
ENDBRANCH  22  23
ENDBRANCH  21  22
ENDBRANCH  20  21
ENDBRANCH  19  20
ENDBRANCH  18  19
ENDBRANCH  17  18
ENDBRANCH  16  17
ENDBRANCH  15  16
ENDBRANCH   1  15
TORSDOF 22
ENDMDL
MODEL 6
REMARK VINA RESULT:    -5.942      2.026      3.393
REMARK INTER + INTRA:         -17.645
REMARK INTER:                 -13.407
REMARK INTRA:                  -4.238
REMARK UNBOUND:                -4.060
REMARK SMILES CCCCCCCCCCCCCCCCCCCCCCCC(=O)[O-]
REMARK SMILES IDX 13 1 14 2 15 3 16 4 17 5 18 6 19 7 20 8 21 9 22 10 23 11
REMARK SMILES IDX 24 12 25 13 26 14 12 15 11 16 10 17 9 18 8 19 7 20 6 21 5 22
REMARK SMILES IDX 4 23 3 24 2 25 1 26
REMARK H PARENT
REMARK Flexibility Score: inf
ROOT
ATOM      1  C   UNL     1      18.365  -1.575  13.476  1.00  0.00     0.000 C 
ENDROOT
BRANCH   1   2
ATOM      2  C   UNL     1      17.097  -0.726  13.242  1.00  0.00     0.000 C 
BRANCH   2   3
ATOM      3  C   UNL     1      15.846  -1.597  13.028  1.00  0.00     0.000 C 
BRANCH   3   4
ATOM      4  C   UNL     1      14.826  -0.952  12.076  1.00  0.00     0.000 C 
BRANCH   4   5
ATOM      5  C   UNL     1      13.447  -1.630  12.141  1.00  0.00     0.000 C 
BRANCH   5   6
ATOM      6  C   UNL     1      13.015  -1.967  13.580  1.00  0.00     0.000 C 
BRANCH   6   7
ATOM      7  C   UNL     1      12.134  -3.225  13.727  1.00  0.00     0.000 C 
BRANCH   7   8
ATOM      8  C   UNL     1      12.074  -4.128  12.482  1.00  0.00     0.000 C 
BRANCH   8   9
ATOM      9  C   UNL     1      12.829  -5.456  12.672  1.00  0.00     0.000 C 
BRANCH   9  10
ATOM     10  C   UNL     1      13.886  -5.698  11.584  1.00  0.00     0.006 C 
BRANCH  10  11
ATOM     11  C   UNL     1      15.259  -5.119  11.956  1.00  0.00     0.053 C 
BRANCH  11  12
ATOM     12  C   UNL     1      16.325  -5.649  11.046  1.00  0.00     0.041 C 
ATOM     13  O   UNL     1      16.162  -5.624   9.798  1.00  0.00    -0.550 OA
ATOM     14  O   UNL     1      17.484  -6.204  11.576  1.00  0.00    -0.550 OA
ENDBRANCH  11  12
ENDBRANCH  10  11
ENDBRANCH   9  10
ENDBRANCH   8   9
ENDBRANCH   7   8
ENDBRANCH   6   7
ENDBRANCH   5   6
ENDBRANCH   4   5
ENDBRANCH   3   4
ENDBRANCH   2   3
ENDBRANCH   1   2
BRANCH   1  15
ATOM     15  C   UNL     1      18.180  -3.063  13.129  1.00  0.00     0.000 C 
BRANCH  15  16
ATOM     16  C   UNL     1      19.145  -3.979  13.900  1.00  0.00     0.000 C 
BRANCH  16  17
ATOM     17  C   UNL     1      18.708  -4.205  15.355  1.00  0.00     0.000 C 
BRANCH  17  18
ATOM     18  C   UNL     1      19.537  -3.379  16.355  1.00  0.00    -0.000 C 
BRANCH  18  19
ATOM     19  C   UNL     1      18.762  -3.044  17.642  1.00  0.00    -0.000 C 
BRANCH  19  20
ATOM     20  C   UNL     1      17.350  -3.653  17.725  1.00  0.00    -0.000 C 
BRANCH  20  21
ATOM     21  C   UNL     1      16.239  -2.594  17.715  1.00  0.00    -0.000 C 
BRANCH  21  22
ATOM     22  C   UNL     1      14.925  -3.181  17.185  1.00  0.00    -0.000 C 
BRANCH  22  23
ATOM     23  C   UNL     1      15.143  -3.896  15.843  1.00  0.00    -0.000 C 
BRANCH  23  24
ATOM     24  C   UNL     1      14.611  -5.337  15.845  1.00  0.00    -0.000 C 
BRANCH  24  25
ATOM     25  C   UNL     1      15.722  -6.380  15.657  1.00  0.00    -0.003 C 
ATOM     26  C   UNL     1      15.165  -7.676  15.076  1.00  0.00     0.004 C 
ENDBRANCH  24  25
ENDBRANCH  23  24
ENDBRANCH  22  23
ENDBRANCH  21  22
ENDBRANCH  20  21
ENDBRANCH  19  20
ENDBRANCH  18  19
ENDBRANCH  17  18
ENDBRANCH  16  17
ENDBRANCH  15  16
ENDBRANCH   1  15
TORSDOF 22
ENDMDL
MODEL 7
REMARK VINA RESULT:    -5.927      1.087      3.376
REMARK INTER + INTRA:         -17.610
REMARK INTER:                 -13.616
REMARK INTRA:                  -3.993
REMARK UNBOUND:                -4.060
REMARK SMILES CCCCCCCCCCCCCCCCCCCCCCCC(=O)[O-]
REMARK SMILES IDX 13 1 14 2 15 3 16 4 17 5 18 6 19 7 20 8 21 9 22 10 23 11
REMARK SMILES IDX 24 12 25 13 26 14 12 15 11 16 10 17 9 18 8 19 7 20 6 21 5 22
REMARK SMILES IDX 4 23 3 24 2 25 1 26
REMARK H PARENT
REMARK Flexibility Score: inf
ROOT
ATOM      1  C   UNL     1      16.058  -6.696  12.945  1.00  0.00     0.000 C 
ENDROOT
BRANCH   1   2
ATOM      2  C   UNL     1      15.987  -5.429  12.066  1.00  0.00     0.000 C 
BRANCH   2   3
ATOM      3  C   UNL     1      16.410  -5.708  10.612  1.00  0.00     0.000 C 
BRANCH   3   4
ATOM      4  C   UNL     1      15.466  -5.067   9.582  1.00  0.00     0.000 C 
BRANCH   4   5
ATOM      5  C   UNL     1      14.342  -6.019   9.139  1.00  0.00     0.000 C 
BRANCH   5   6
ATOM      6  C   UNL     1      12.993  -5.702   9.808  1.00  0.00     0.000 C 
BRANCH   6   7
ATOM      7  C   UNL     1      12.918  -4.340  10.529  1.00  0.00     0.000 C 
BRANCH   7   8
ATOM      8  C   UNL     1      11.862  -4.252  11.646  1.00  0.00     0.000 C 
BRANCH   8   9
ATOM      9  C   UNL     1      12.431  -3.686  12.960  1.00  0.00     0.000 C 
BRANCH   9  10
ATOM     10  C   UNL     1      12.994  -2.266  12.798  1.00  0.00     0.006 C 
BRANCH  10  11
ATOM     11  C   UNL     1      14.486  -2.180  13.152  1.00  0.00     0.053 C 
BRANCH  11  12
ATOM     12  C   UNL     1      15.128  -1.007  12.474  1.00  0.00     0.041 C 
ATOM     13  O   UNL     1      14.459  -0.292  11.680  1.00  0.00    -0.550 OA
ATOM     14  O   UNL     1      16.471  -0.723  12.689  1.00  0.00    -0.550 OA
ENDBRANCH  11  12
ENDBRANCH  10  11
ENDBRANCH   9  10
ENDBRANCH   8   9
ENDBRANCH   7   8
ENDBRANCH   6   7
ENDBRANCH   5   6
ENDBRANCH   4   5
ENDBRANCH   3   4
ENDBRANCH   2   3
ENDBRANCH   1   2
BRANCH   1  15
ATOM     15  C   UNL     1      14.791  -6.932  13.786  1.00  0.00     0.000 C 
BRANCH  15  16
ATOM     16  C   UNL     1      15.103  -7.309  15.244  1.00  0.00     0.000 C 
BRANCH  16  17
ATOM     17  C   UNL     1      14.505  -6.315  16.251  1.00  0.00     0.000 C 
BRANCH  17  18
ATOM     18  C   UNL     1      14.435  -4.882  15.696  1.00  0.00    -0.000 C 
BRANCH  18  19
ATOM     19  C   UNL     1      14.266  -3.821  16.798  1.00  0.00    -0.000 C 
BRANCH  19  20
ATOM     20  C   UNL     1      15.551  -3.056  17.164  1.00  0.00    -0.000 C 
BRANCH  20  21
ATOM     21  C   UNL     1      16.605  -3.090  16.049  1.00  0.00    -0.000 C 
BRANCH  21  22
ATOM     22  C   UNL     1      17.760  -4.032  16.414  1.00  0.00    -0.000 C 
BRANCH  22  23
ATOM     23  C   UNL     1      18.680  -4.269  15.208  1.00  0.00    -0.000 C 
BRANCH  23  24
ATOM     24  C   UNL     1      18.323  -3.380  14.007  1.00  0.00    -0.000 C 
BRANCH  24  25
ATOM     25  C   UNL     1      19.233  -3.628  12.795  1.00  0.00    -0.003 C 
ATOM     26  C   UNL     1      19.672  -5.088  12.727  1.00  0.00     0.004 C 
ENDBRANCH  24  25
ENDBRANCH  23  24
ENDBRANCH  22  23
ENDBRANCH  21  22
ENDBRANCH  20  21
ENDBRANCH  19  20
ENDBRANCH  18  19
ENDBRANCH  17  18
ENDBRANCH  16  17
ENDBRANCH  15  16
ENDBRANCH   1  15
TORSDOF 22
ENDMDL
MODEL 8
REMARK VINA RESULT:    -5.918      1.461      3.378
REMARK INTER + INTRA:         -17.590
REMARK INTER:                 -13.633
REMARK INTRA:                  -3.957
REMARK UNBOUND:                -4.060
REMARK SMILES CCCCCCCCCCCCCCCCCCCCCCCC(=O)[O-]
REMARK SMILES IDX 13 1 14 2 15 3 16 4 17 5 18 6 19 7 20 8 21 9 22 10 23 11
REMARK SMILES IDX 24 12 25 13 26 14 12 15 11 16 10 17 9 18 8 19 7 20 6 21 5 22
REMARK SMILES IDX 4 23 3 24 2 25 1 26
REMARK H PARENT
REMARK Flexibility Score: inf
ROOT
ATOM      1  C   UNL     1      14.936  -6.744  13.444  1.00  0.00     0.000 C 
ENDROOT
BRANCH   1   2
ATOM      2  C   UNL     1      16.361  -7.213  13.080  1.00  0.00     0.000 C 
BRANCH   2   3
ATOM      3  C   UNL     1      16.997  -6.339  11.984  1.00  0.00     0.000 C 
BRANCH   3   4
ATOM      4  C   UNL     1      15.985  -5.405  11.302  1.00  0.00     0.000 C 
BRANCH   4   5
ATOM      5  C   UNL     1      15.896  -5.638   9.784  1.00  0.00     0.000 C 
BRANCH   5   6
ATOM      6  C   UNL     1      14.447  -5.624   9.263  1.00  0.00     0.000 C 
BRANCH   6   7
ATOM      7  C   UNL     1      13.354  -5.611  10.352  1.00  0.00     0.000 C 
BRANCH   7   8
ATOM      8  C   UNL     1      12.119  -4.752  10.025  1.00  0.00     0.000 C 
BRANCH   8   9
ATOM      9  C   UNL     1      11.701  -3.842  11.194  1.00  0.00     0.000 C 
BRANCH   9  10
ATOM     10  C   UNL     1      12.413  -4.200  12.507  1.00  0.00     0.006 C 
BRANCH  10  11
ATOM     11  C   UNL     1      13.560  -3.234  12.839  1.00  0.00     0.053 C 
BRANCH  11  12
ATOM     12  C   UNL     1      13.040  -1.846  13.062  1.00  0.00     0.041 C 
ATOM     13  O   UNL     1      13.418  -0.902  12.320  1.00  0.00    -0.550 OA
ATOM     14  O   UNL     1      12.165  -1.588  14.112  1.00  0.00    -0.550 OA
ENDBRANCH  11  12
ENDBRANCH  10  11
ENDBRANCH   9  10
ENDBRANCH   8   9
ENDBRANCH   7   8
ENDBRANCH   6   7
ENDBRANCH   5   6
ENDBRANCH   4   5
ENDBRANCH   3   4
ENDBRANCH   2   3
ENDBRANCH   1   2
BRANCH   1  15
ATOM     15  C   UNL     1      14.583  -6.945  14.928  1.00  0.00     0.000 C 
BRANCH  15  16
ATOM     16  C   UNL     1      15.156  -5.841  15.833  1.00  0.00     0.000 C 
BRANCH  16  17
ATOM     17  C   UNL     1      14.111  -4.775  16.196  1.00  0.00     0.000 C 
BRANCH  17  18
ATOM     18  C   UNL     1      14.703  -3.355  16.234  1.00  0.00    -0.000 C 
BRANCH  18  19
ATOM     19  C   UNL     1      15.068  -2.898  17.657  1.00  0.00    -0.000 C 
BRANCH  19  20
ATOM     20  C   UNL     1      16.491  -2.329  17.810  1.00  0.00    -0.000 C 
BRANCH  20  21
ATOM     21  C   UNL     1      17.569  -3.421  17.861  1.00  0.00    -0.000 C 
BRANCH  21  22
ATOM     22  C   UNL     1      18.548  -3.280  16.687  1.00  0.00    -0.000 C 
BRANCH  22  23
ATOM     23  C   UNL     1      18.489  -4.510  15.770  1.00  0.00    -0.000 C 
BRANCH  23  24
ATOM     24  C   UNL     1      18.145  -4.150  14.317  1.00  0.00    -0.000 C 
BRANCH  24  25
ATOM     25  C   UNL     1      17.586  -2.726  14.176  1.00  0.00    -0.003 C 
ATOM     26  C   UNL     1      18.454  -1.886  13.243  1.00  0.00     0.004 C 
ENDBRANCH  24  25
ENDBRANCH  23  24
ENDBRANCH  22  23
ENDBRANCH  21  22
ENDBRANCH  20  21
ENDBRANCH  19  20
ENDBRANCH  18  19
ENDBRANCH  17  18
ENDBRANCH  16  17
ENDBRANCH  15  16
ENDBRANCH   1  15
TORSDOF 22
ENDMDL
MODEL 9
REMARK VINA RESULT:    -5.914      1.994      5.198
REMARK INTER + INTRA:         -17.579
REMARK INTER:                 -13.997
REMARK INTRA:                  -3.582
REMARK UNBOUND:                -4.060
REMARK SMILES CCCCCCCCCCCCCCCCCCCCCCCC(=O)[O-]
REMARK SMILES IDX 13 1 14 2 15 3 16 4 17 5 18 6 19 7 20 8 21 9 22 10 23 11
REMARK SMILES IDX 24 12 25 13 26 14 12 15 11 16 10 17 9 18 8 19 7 20 6 21 5 22
REMARK SMILES IDX 4 23 3 24 2 25 1 26
REMARK H PARENT
REMARK Flexibility Score: inf
ROOT
ATOM      1  C   UNL     1      14.521  -2.087  12.842  1.00  0.00     0.000 C 
ENDROOT
BRANCH   1   2
ATOM      2  C   UNL     1      15.274  -0.808  12.417  1.00  0.00     0.000 C 
BRANCH   2   3
ATOM      3  C   UNL     1      16.735  -0.806  12.902  1.00  0.00     0.000 C 
BRANCH   3   4
ATOM      4  C   UNL     1      17.265  -2.216  13.209  1.00  0.00     0.000 C 
BRANCH   4   5
ATOM      5  C   UNL     1      18.800  -2.295  13.161  1.00  0.00     0.000 C 
BRANCH   5   6
ATOM      6  C   UNL     1      19.314  -3.696  12.785  1.00  0.00     0.000 C 
BRANCH   6   7
ATOM      7  C   UNL     1      18.311  -4.848  13.003  1.00  0.00     0.000 C 
BRANCH   7   8
ATOM      8  C   UNL     1      17.932  -5.631  11.733  1.00  0.00     0.000 C 
BRANCH   8   9
ATOM      9  C   UNL     1      16.504  -6.202  11.789  1.00  0.00     0.000 C 
BRANCH   9  10
ATOM     10  C   UNL     1      15.432  -5.148  11.470  1.00  0.00     0.006 C 
BRANCH  10  11
ATOM     11  C   UNL     1      14.009  -5.725  11.503  1.00  0.00     0.053 C 
BRANCH  11  12
ATOM     12  C   UNL     1      13.271  -5.395  10.241  1.00  0.00     0.041 C 
ATOM     13  O   UNL     1      13.588  -5.955   9.158  1.00  0.00    -0.550 OA
ATOM     14  O   UNL     1      12.257  -4.444  10.252  1.00  0.00    -0.550 OA
ENDBRANCH  11  12
ENDBRANCH  10  11
ENDBRANCH   9  10
ENDBRANCH   8   9
ENDBRANCH   7   8
ENDBRANCH   6   7
ENDBRANCH   5   6
ENDBRANCH   4   5
ENDBRANCH   3   4
ENDBRANCH   2   3
ENDBRANCH   1   2
BRANCH   1  15
ATOM     15  C   UNL     1      12.991  -1.963  12.736  1.00  0.00     0.000 C 
BRANCH  15  16
ATOM     16  C   UNL     1      12.301  -1.894  14.109  1.00  0.00     0.000 C 
BRANCH  16  17
ATOM     17  C   UNL     1      12.208  -3.268  14.790  1.00  0.00     0.000 C 
BRANCH  17  18
ATOM     18  C   UNL     1      13.134  -3.384  16.014  1.00  0.00    -0.000 C 
BRANCH  18  19
ATOM     19  C   UNL     1      13.806  -4.764  16.128  1.00  0.00    -0.000 C 
BRANCH  19  20
ATOM     20  C   UNL     1      14.975  -4.997  15.153  1.00  0.00    -0.000 C 
BRANCH  20  21
ATOM     21  C   UNL     1      15.802  -6.243  15.499  1.00  0.00    -0.000 C 
BRANCH  21  22
ATOM     22  C   UNL     1      17.103  -5.855  16.216  1.00  0.00    -0.000 C 
BRANCH  22  23
ATOM     23  C   UNL     1      17.041  -4.407  16.724  1.00  0.00    -0.000 C 
BRANCH  23  24
ATOM     24  C   UNL     1      18.369  -3.657  16.539  1.00  0.00    -0.000 C 
BRANCH  24  25
ATOM     25  C   UNL     1      18.885  -3.036  17.845  1.00  0.00    -0.003 C 
ATOM     26  C   UNL     1      17.794  -3.016  18.912  1.00  0.00     0.004 C 
ENDBRANCH  24  25
ENDBRANCH  23  24
ENDBRANCH  22  23
ENDBRANCH  21  22
ENDBRANCH  20  21
ENDBRANCH  19  20
ENDBRANCH  18  19
ENDBRANCH  17  18
ENDBRANCH  16  17
ENDBRANCH  15  16
ENDBRANCH   1  15
TORSDOF 22
ENDMDL
