MODEL 1
REMARK VINA RESULT:    -4.385      0.000      0.000
REMARK INTER + INTRA:          -6.744
REMARK INTER:                  -6.693
REMARK INTRA:                  -0.051
REMARK UNBOUND:                -0.051
REMARK SMILES CC1=CCC[C@H](C)C(=O)C[C@@H](C(C)C)C(=O)C1
REMARK SMILES IDX 8 1 9 2 6 3 7 4 5 5 4 6 3 7 2 8 1 9 10 11 11 12 15 13 16 14
REMARK SMILES IDX 17 15 12 17 13 18 14 19
REMARK H PARENT
REMARK Flexibility Score: 70.00
ROOT
ATOM      1  C   UNL     1      -8.526  -5.466  13.003  1.00  0.00     0.136 C 
ATOM      2  O   UNL     1      -9.337  -4.829  13.662  1.00  0.00    -0.299 OA
ENDROOT
BRANCH   1   3
ATOM      3  C   UNL     1      -7.230  -4.808  12.572  1.00  0.00     0.053 C 
ATOM      4  C   UNL     1      -7.047  -3.491  13.334  1.00  0.00     0.016 C 
BRANCH   3   5
ATOM      5  C   UNL     1      -6.014  -5.732  12.801  1.00  0.00     0.015 C 
BRANCH   5   6
ATOM      6  C   UNL     1      -5.467  -6.396  11.525  1.00  0.00     0.028 C 
BRANCH   6   7
ATOM      7  C   UNL     1      -4.838  -7.749  11.766  1.00  0.00    -0.028 C 
ATOM      8  C   UNL     1      -5.461  -8.917  12.070  1.00  0.00    -0.070 CG0
ATOM      9  C   UNL     1      -4.570 -10.104  12.358  1.00  0.00     0.039 C 
ATOM     10  G   UNL     1      -6.968  -9.149  12.058  1.00  0.00     0.000 G0
ENDBRANCH   6   7
ENDBRANCH   5   6
ENDBRANCH   3   5
ENDBRANCH   1   3
BRANCH   1  11
ATOM     11  C   UNL     1      -8.859  -6.882  12.605  1.00  0.00     0.087 C 
BRANCH  11  12
ATOM     12  C   UNL     1      -8.597  -7.895  13.754  1.00  0.00     0.066 C 
BRANCH  12  13
ATOM     13  C   UNL     1      -7.654  -9.043  13.394  1.00  0.00     0.140 C 
ATOM     14  O   UNL     1      -7.529  -9.960  14.194  1.00  0.00    -0.299 OA
BRANCH  13  15
ATOM     15  C   UNL     1      -6.968  -9.168  12.054  1.00  0.00     0.106 CG0
ATOM     16  G   UNL     1      -5.464  -8.916  12.072  1.00  0.00     0.000 G0
ENDBRANCH  13  15
ENDBRANCH  12  13
BRANCH  12  17
ATOM     17  C   UNL     1      -9.906  -8.457  14.393  1.00  0.00    -0.006 C 
ATOM     18  C   UNL     1     -10.767  -9.269  13.412  1.00  0.00     0.008 C 
ATOM     19  C   UNL     1     -10.752  -7.351  15.046  1.00  0.00     0.008 C 
ENDBRANCH  12  17
ENDBRANCH  11  12
ENDBRANCH   1  11
TORSDOF 1
ENDMDL
MODEL 2
REMARK VINA RESULT:    -4.223      1.753      4.075
REMARK INTER + INTRA:          -6.497
REMARK INTER:                  -6.499
REMARK INTRA:                   0.003
REMARK UNBOUND:                -0.051
REMARK SMILES CC1=CCC[C@H](C)C(=O)C[C@@H](C(C)C)C(=O)C1
REMARK SMILES IDX 8 1 9 2 6 3 7 4 5 5 4 6 3 7 2 8 1 9 10 11 11 12 15 13 16 14
REMARK SMILES IDX 17 15 12 17 13 18 14 19
REMARK H PARENT
REMARK Flexibility Score: 70.00
ROOT
ATOM      1  C   UNL     1      -8.918  -6.858  14.208  1.00  0.00     0.136 C 
ATOM      2  O   UNL     1      -9.815  -6.027  14.165  1.00  0.00    -0.299 OA
ENDROOT
BRANCH   1   3
ATOM      3  C   UNL     1      -9.201  -8.237  14.769  1.00  0.00     0.053 C 
ATOM      4  C   UNL     1     -10.506  -8.775  14.173  1.00  0.00     0.016 C 
BRANCH   3   5
ATOM      5  C   UNL     1      -8.042  -9.219  14.492  1.00  0.00     0.015 C 
BRANCH   5   6
ATOM      6  C   UNL     1      -8.207 -10.056  13.211  1.00  0.00     0.028 C 
BRANCH   6   7
ATOM      7  C   UNL     1      -7.113  -9.830  12.191  1.00  0.00    -0.028 C 
ATOM      8  C   UNL     1      -7.081  -8.913  11.190  1.00  0.00    -0.070 CG0
ATOM      9  C   UNL     1      -5.900  -8.978  10.251  1.00  0.00     0.039 C 
ATOM     10  G   UNL     1      -8.084  -7.781  10.992  1.00  0.00     0.000 G0
ENDBRANCH   6   7
ENDBRANCH   5   6
ENDBRANCH   3   5
ENDBRANCH   1   3
BRANCH   1  11
ATOM     11  C   UNL     1      -7.540  -6.471  13.732  1.00  0.00     0.087 C 
BRANCH  11  12
ATOM     12  C   UNL     1      -7.583  -5.588  12.454  1.00  0.00     0.066 C 
BRANCH  12  13
ATOM     13  C   UNL     1      -7.564  -6.363  11.138  1.00  0.00     0.140 C 
ATOM     14  O   UNL     1      -6.992  -5.861  10.180  1.00  0.00    -0.299 OA
BRANCH  13  15
ATOM     15  C   UNL     1      -8.101  -7.768  10.990  1.00  0.00     0.106 CG0
ATOM     16  G   UNL     1      -7.069  -8.876  11.170  1.00  0.00     0.000 G0
ENDBRANCH  13  15
ENDBRANCH  12  13
BRANCH  12  17
ATOM     17  C   UNL     1      -6.490  -4.474  12.436  1.00  0.00    -0.006 C 
ATOM     18  C   UNL     1      -5.054  -5.023  12.469  1.00  0.00     0.008 C 
ATOM     19  C   UNL     1      -6.688  -3.450  13.567  1.00  0.00     0.008 C 
ENDBRANCH  12  17
ENDBRANCH  11  12
ENDBRANCH   1  11
TORSDOF 1
ENDMDL
MODEL 3
REMARK VINA RESULT:    -4.043      1.888      2.516
REMARK INTER + INTRA:          -6.221
REMARK INTER:                  -5.866
REMARK INTRA:                  -0.356
REMARK UNBOUND:                -0.051
REMARK SMILES CC1=CCC[C@H](C)C(=O)C[C@@H](C(C)C)C(=O)C1
REMARK SMILES IDX 8 1 9 2 6 3 7 4 5 5 4 6 3 7 2 8 1 9 10 11 11 12 15 13 16 14
REMARK SMILES IDX 17 15 12 17 13 18 14 19
REMARK H PARENT
REMARK Flexibility Score: 70.00
ROOT
ATOM      1  C   UNL     1      -8.217  -5.972  12.641  1.00  0.00     0.136 C 
ATOM      2  O   UNL     1      -9.169  -6.090  13.401  1.00  0.00    -0.299 OA
ENDROOT
BRANCH   1   3
ATOM      3  C   UNL     1      -7.553  -4.620  12.476  1.00  0.00     0.053 C 
ATOM      4  C   UNL     1      -8.324  -3.570  13.284  1.00  0.00     0.016 C 
BRANCH   3   5
ATOM      5  C   UNL     1      -6.073  -4.650  12.914  1.00  0.00     0.015 C 
BRANCH   5   6
ATOM      6  C   UNL     1      -5.070  -4.294  11.802  1.00  0.00     0.028 C 
BRANCH   6   7
ATOM      7  C   UNL     1      -3.818  -5.140  11.817  1.00  0.00    -0.028 C 
ATOM      8  C   UNL     1      -3.710  -6.475  11.587  1.00  0.00    -0.070 CG0
ATOM      9  C   UNL     1      -2.339  -7.083  11.768  1.00  0.00     0.039 C 
ATOM     10  G   UNL     1      -4.827  -7.381  11.081  1.00  0.00     0.000 G0
ENDBRANCH   6   7
ENDBRANCH   5   6
ENDBRANCH   3   5
ENDBRANCH   1   3
BRANCH   1  11
ATOM     11  C   UNL     1      -7.754  -7.175  11.858  1.00  0.00     0.087 C 
BRANCH  11  12
ATOM     12  C   UNL     1      -6.841  -8.111  12.698  1.00  0.00     0.066 C 
BRANCH  12  13
ATOM     13  C   UNL     1      -5.441  -8.324  12.125  1.00  0.00     0.140 C 
ATOM     14  O   UNL     1      -4.829  -9.330  12.453  1.00  0.00    -0.299 OA
BRANCH  13  15
ATOM     15  C   UNL     1      -4.823  -7.424  11.079  1.00  0.00     0.106 CG0
ATOM     16  G   UNL     1      -3.742  -6.480  11.596  1.00  0.00     0.000 G0
ENDBRANCH  13  15
ENDBRANCH  12  13
BRANCH  12  17
ATOM     17  C   UNL     1      -7.501  -9.487  13.025  1.00  0.00    -0.006 C 
ATOM     18  C   UNL     1      -8.770  -9.769  12.204  1.00  0.00     0.008 C 
ATOM     19  C   UNL     1      -7.799  -9.644  14.525  1.00  0.00     0.008 C 
ENDBRANCH  12  17
ENDBRANCH  11  12
ENDBRANCH   1  11
TORSDOF 1
ENDMDL
MODEL 4
REMARK VINA RESULT:    -3.897      7.000      9.968
REMARK INTER + INTRA:          -5.998
REMARK INTER:                  -6.032
REMARK INTRA:                   0.034
REMARK UNBOUND:                -0.051
REMARK SMILES CC1=CCC[C@H](C)C(=O)C[C@@H](C(C)C)C(=O)C1
REMARK SMILES IDX 8 1 9 2 6 3 7 4 5 5 4 6 3 7 2 8 1 9 10 11 11 12 15 13 16 14
REMARK SMILES IDX 17 15 12 17 13 18 14 19
REMARK H PARENT
REMARK Flexibility Score: 70.00
ROOT
ATOM      1  C   UNL     1       2.240  -7.982   8.420  1.00  0.00     0.136 C 
ATOM      2  O   UNL     1       3.346  -7.460   8.394  1.00  0.00    -0.299 OA
ENDROOT
BRANCH   1   3
ATOM      3  C   UNL     1       2.123  -9.491   8.342  1.00  0.00     0.053 C 
ATOM      4  C   UNL     1       3.524 -10.113   8.330  1.00  0.00     0.016 C 
BRANCH   3   5
ATOM      5  C   UNL     1       1.293 -10.064   9.511  1.00  0.00     0.015 C 
BRANCH   5   6
ATOM      6  C   UNL     1       1.495  -9.340  10.853  1.00  0.00     0.028 C 
BRANCH   6   7
ATOM      7  C   UNL     1       0.266  -9.334  11.733  1.00  0.00    -0.028 C 
ATOM      8  C   UNL     1      -0.681  -8.366  11.838  1.00  0.00    -0.070 CG0
ATOM      9  C   UNL     1      -1.756  -8.580  12.878  1.00  0.00     0.039 C 
ATOM     10  G   UNL     1      -0.797  -7.137  10.941  1.00  0.00     0.000 G0
ENDBRANCH   6   7
ENDBRANCH   5   6
ENDBRANCH   3   5
ENDBRANCH   1   3
BRANCH   1  11
ATOM     11  C   UNL     1       1.018  -7.102   8.494  1.00  0.00     0.087 C 
BRANCH  11  12
ATOM     12  C   UNL     1       1.160  -5.981   9.561  1.00  0.00     0.066 C 
BRANCH  12  13
ATOM     13  C   UNL     1       0.373  -6.219  10.849  1.00  0.00     0.140 C 
ATOM     14  O   UNL     1       0.673  -5.565  11.838  1.00  0.00    -0.299 OA
BRANCH  13  15
ATOM     15  C   UNL     1      -0.834  -7.125  10.933  1.00  0.00     0.106 CG0
ATOM     16  G   UNL     1      -0.669  -8.338  11.843  1.00  0.00     0.000 G0
ENDBRANCH  13  15
ENDBRANCH  12  13
BRANCH  12  17
ATOM     17  C   UNL     1       0.857  -4.555   9.003  1.00  0.00    -0.006 C 
ATOM     18  C   UNL     1      -0.638  -4.304   8.744  1.00  0.00     0.008 C 
ATOM     19  C   UNL     1       1.671  -4.244   7.737  1.00  0.00     0.008 C 
ENDBRANCH  12  17
ENDBRANCH  11  12
ENDBRANCH   1  11
TORSDOF 1
ENDMDL
MODEL 5
REMARK VINA RESULT:    -3.854     12.003     14.691
REMARK INTER + INTRA:          -5.933
REMARK INTER:                  -6.234
REMARK INTRA:                   0.301
REMARK UNBOUND:                -0.051
REMARK SMILES CC1=CCC[C@H](C)C(=O)C[C@@H](C(C)C)C(=O)C1
REMARK SMILES IDX 8 1 9 2 6 3 7 4 5 5 4 6 3 7 2 8 1 9 10 11 11 12 15 13 16 14
REMARK SMILES IDX 17 15 12 17 13 18 14 19
REMARK H PARENT
REMARK Flexibility Score: 70.00
ROOT
ATOM      1  C   UNL     1       3.083   3.066  14.857  1.00  0.00     0.136 C 
ATOM      2  O   UNL     1       3.036   4.114  15.485  1.00  0.00    -0.299 OA
ENDROOT
BRANCH   1   3
ATOM      3  C   UNL     1       2.701   1.767  15.538  1.00  0.00     0.053 C 
ATOM      4  C   UNL     1       2.398   2.034  17.017  1.00  0.00     0.016 C 
BRANCH   3   5
ATOM      5  C   UNL     1       1.489   1.095  14.857  1.00  0.00     0.015 C 
BRANCH   5   6
ATOM      6  C   UNL     1       1.850   0.152  13.696  1.00  0.00     0.028 C 
BRANCH   6   7
ATOM      7  C   UNL     1       0.845   0.162  12.567  1.00  0.00    -0.028 C 
ATOM      8  C   UNL     1       0.811   0.985  11.487  1.00  0.00    -0.070 CG0
ATOM      9  C   UNL     1      -0.374   0.838  10.561  1.00  0.00     0.039 C 
ATOM     10  G   UNL     1       1.903   1.973  11.090  1.00  0.00     0.000 G0
ENDBRANCH   6   7
ENDBRANCH   5   6
ENDBRANCH   3   5
ENDBRANCH   1   3
BRANCH   1  11
ATOM     11  C   UNL     1       3.556   3.092  13.425  1.00  0.00     0.087 C 
BRANCH  11  12
ATOM     12  C   UNL     1       2.720   4.062  12.544  1.00  0.00     0.066 C 
BRANCH  12  13
ATOM     13  C   UNL     1       1.714   3.380  11.618  1.00  0.00     0.140 C 
ATOM     14  O   UNL     1       0.762   4.035  11.217  1.00  0.00    -0.299 OA
BRANCH  13  15
ATOM     15  C   UNL     1       1.897   1.983  11.073  1.00  0.00     0.106 CG0
ATOM     16  G   UNL     1       0.825   0.981  11.490  1.00  0.00     0.000 G0
ENDBRANCH  13  15
ENDBRANCH  12  13
BRANCH  12  17
ATOM     17  C   UNL     1       3.595   5.070  11.735  1.00  0.00    -0.006 C 
ATOM     18  C   UNL     1       3.368   4.997  10.216  1.00  0.00     0.008 C 
ATOM     19  C   UNL     1       5.092   4.923  12.052  1.00  0.00     0.008 C 
ENDBRANCH  12  17
ENDBRANCH  11  12
ENDBRANCH   1  11
TORSDOF 1
ENDMDL
MODEL 6
REMARK VINA RESULT:    -3.812     11.443     13.746
REMARK INTER + INTRA:          -5.869
REMARK INTER:                  -5.381
REMARK INTRA:                  -0.488
REMARK UNBOUND:                -0.051
REMARK SMILES CC1=CCC[C@H](C)C(=O)C[C@@H](C(C)C)C(=O)C1
REMARK SMILES IDX 8 1 9 2 6 3 7 4 5 5 4 6 3 7 2 8 1 9 10 11 11 12 15 13 16 14
REMARK SMILES IDX 17 15 12 17 13 18 14 19
REMARK H PARENT
REMARK Flexibility Score: 70.00
ROOT
ATOM      1  C   UNL     1       2.603   1.667  15.994  1.00  0.00     0.136 C 
ATOM      2  O   UNL     1       2.527   1.226  17.133  1.00  0.00    -0.299 OA
ENDROOT
BRANCH   1   3
ATOM      3  C   UNL     1       3.829   2.453  15.576  1.00  0.00     0.053 C 
ATOM      4  C   UNL     1       4.757   1.554  14.752  1.00  0.00     0.016 C 
BRANCH   3   5
ATOM      5  C   UNL     1       3.455   3.716  14.770  1.00  0.00     0.015 C 
BRANCH   5   6
ATOM      6  C   UNL     1       3.844   3.663  13.282  1.00  0.00     0.028 C 
BRANCH   6   7
ATOM      7  C   UNL     1       2.692   3.934  12.342  1.00  0.00    -0.028 C 
ATOM      8  C   UNL     1       2.028   3.047  11.557  1.00  0.00    -0.070 CG0
ATOM      9  C   UNL     1       0.975   3.615  10.634  1.00  0.00     0.039 C 
ATOM     10  G   UNL     1       2.194   1.531  11.595  1.00  0.00     0.000 G0
ENDBRANCH   6   7
ENDBRANCH   5   6
ENDBRANCH   3   5
ENDBRANCH   1   3
BRANCH   1  11
ATOM     11  C   UNL     1       1.450   1.446  15.047  1.00  0.00     0.087 C 
BRANCH  11  12
ATOM     12  C   UNL     1       1.779   0.392  13.953  1.00  0.00     0.066 C 
BRANCH  12  13
ATOM     13  C   UNL     1       1.322   0.767  12.544  1.00  0.00     0.140 C 
ATOM     14  O   UNL     1       0.161   0.540  12.233  1.00  0.00    -0.299 OA
BRANCH  13  15
ATOM     15  C   UNL     1       2.189   1.516  11.559  1.00  0.00     0.106 CG0
ATOM     16  G   UNL     1       2.013   3.031  11.565  1.00  0.00     0.000 G0
ENDBRANCH  13  15
ENDBRANCH  12  13
BRANCH  12  17
ATOM     17  C   UNL     1       1.285  -1.045  14.312  1.00  0.00    -0.006 C 
ATOM     18  C   UNL     1       0.143  -1.061  15.341  1.00  0.00     0.008 C 
ATOM     19  C   UNL     1       2.434  -1.950  14.786  1.00  0.00     0.008 C 
ENDBRANCH  12  17
ENDBRANCH  11  12
ENDBRANCH   1  11
TORSDOF 1
ENDMDL
MODEL 7
REMARK VINA RESULT:    -3.809     10.979     12.527
REMARK INTER + INTRA:          -5.864
REMARK INTER:                  -5.601
REMARK INTRA:                  -0.263
REMARK UNBOUND:                -0.051
REMARK SMILES CC1=CCC[C@H](C)C(=O)C[C@@H](C(C)C)C(=O)C1
REMARK SMILES IDX 8 1 9 2 6 3 7 4 5 5 4 6 3 7 2 8 1 9 10 11 11 12 15 13 16 14
REMARK SMILES IDX 17 15 12 17 13 18 14 19
REMARK H PARENT
REMARK Flexibility Score: 70.00
ROOT
ATOM      1  C   UNL     1      -2.895  -6.125   2.382  1.00  0.00     0.136 C 
ATOM      2  O   UNL     1      -2.393  -6.068   3.496  1.00  0.00    -0.299 OA
ENDROOT
BRANCH   1   3
ATOM      3  C   UNL     1      -3.158  -7.476   1.747  1.00  0.00     0.053 C 
ATOM      4  C   UNL     1      -2.816  -8.587   2.747  1.00  0.00     0.016 C 
BRANCH   3   5
ATOM      5  C   UNL     1      -4.622  -7.613   1.276  1.00  0.00     0.015 C 
BRANCH   5   6
ATOM      6  C   UNL     1      -5.671  -7.440   2.390  1.00  0.00     0.028 C 
BRANCH   6   7
ATOM      7  C   UNL     1      -6.980  -6.859   1.907  1.00  0.00    -0.028 C 
ATOM      8  C   UNL     1      -7.194  -5.646   1.334  1.00  0.00    -0.070 CG0
ATOM      9  C   UNL     1      -8.631  -5.281   1.039  1.00  0.00     0.039 C 
ATOM     10  G   UNL     1      -6.110  -4.672   0.887  1.00  0.00     0.000 G0
ENDBRANCH   6   7
ENDBRANCH   5   6
ENDBRANCH   3   5
ENDBRANCH   1   3
BRANCH   1  11
ATOM     11  C   UNL     1      -3.204  -4.841   1.653  1.00  0.00     0.087 C 
BRANCH  11  12
ATOM     12  C   UNL     1      -4.118  -3.897   2.483  1.00  0.00     0.066 C 
BRANCH  12  13
ATOM     13  C   UNL     1      -5.550  -3.774   1.966  1.00  0.00     0.140 C 
ATOM     14  O   UNL     1      -6.238  -2.853   2.383  1.00  0.00    -0.299 OA
BRANCH  13  15
ATOM     15  C   UNL     1      -6.121  -4.650   0.875  1.00  0.00     0.106 CG0
ATOM     16  G   UNL     1      -7.170  -5.656   1.338  1.00  0.00     0.000 G0
ENDBRANCH  13  15
ENDBRANCH  12  13
BRANCH  12  17
ATOM     17  C   UNL     1      -3.503  -2.479   2.702  1.00  0.00    -0.006 C 
ATOM     18  C   UNL     1      -2.243  -2.220   1.860  1.00  0.00     0.008 C 
ATOM     19  C   UNL     1      -3.212  -2.197   4.185  1.00  0.00     0.008 C 
ENDBRANCH  12  17
ENDBRANCH  11  12
ENDBRANCH   1  11
TORSDOF 1
ENDMDL
MODEL 8
REMARK VINA RESULT:    -3.799     11.267     13.349
REMARK INTER + INTRA:          -5.848
REMARK INTER:                  -5.654
REMARK INTRA:                  -0.195
REMARK UNBOUND:                -0.051
REMARK SMILES CC1=CCC[C@H](C)C(=O)C[C@@H](C(C)C)C(=O)C1
REMARK SMILES IDX 8 1 9 2 6 3 7 4 5 5 4 6 3 7 2 8 1 9 10 11 11 12 15 13 16 14
REMARK SMILES IDX 17 15 12 17 13 18 14 19
REMARK H PARENT
REMARK Flexibility Score: 70.00
ROOT
ATOM      1  C   UNL     1       2.565   2.759  12.330  1.00  0.00     0.136 C 
ATOM      2  O   UNL     1       1.683   3.599  12.215  1.00  0.00    -0.299 OA
ENDROOT
BRANCH   1   3
ATOM      3  C   UNL     1       3.922   3.168  12.866  1.00  0.00     0.053 C 
ATOM      4  C   UNL     1       4.579   4.156  11.896  1.00  0.00     0.016 C 
BRANCH   3   5
ATOM      5  C   UNL     1       3.819   3.790  14.276  1.00  0.00     0.015 C 
BRANCH   5   6
ATOM      6  C   UNL     1       3.391   2.806  15.379  1.00  0.00     0.028 C 
BRANCH   6   7
ATOM      7  C   UNL     1       3.986   1.424  15.225  1.00  0.00    -0.028 C 
ATOM      8  C   UNL     1       3.331   0.236  15.162  1.00  0.00    -0.070 CG0
ATOM      9  C   UNL     1       4.189  -1.007  15.108  1.00  0.00     0.039 C 
ATOM     10  G   UNL     1       1.820   0.060  15.053  1.00  0.00     0.000 G0
ENDBRANCH   6   7
ENDBRANCH   5   6
ENDBRANCH   3   5
ENDBRANCH   1   3
BRANCH   1  11
ATOM     11  C   UNL     1       2.286   1.341  11.898  1.00  0.00     0.087 C 
BRANCH  11  12
ATOM     12  C   UNL     1       1.019   0.755  12.580  1.00  0.00     0.066 C 
BRANCH  12  13
ATOM     13  C   UNL     1       1.297  -0.293  13.657  1.00  0.00     0.140 C 
ATOM     14  O   UNL     1       1.194  -1.474  13.355  1.00  0.00    -0.299 OA
BRANCH  13  15
ATOM     15  C   UNL     1       1.814   0.047  15.036  1.00  0.00     0.106 CG0
ATOM     16  G   UNL     1       3.323   0.244  15.129  1.00  0.00     0.000 G0
ENDBRANCH  13  15
ENDBRANCH  12  13
BRANCH  12  17
ATOM     17  C   UNL     1      -0.035   0.212  11.564  1.00  0.00    -0.006 C 
ATOM     18  C   UNL     1      -0.208   1.106  10.325  1.00  0.00     0.008 C 
ATOM     19  C   UNL     1      -1.399  -0.042  12.225  1.00  0.00     0.008 C 
ENDBRANCH  12  17
ENDBRANCH  11  12
ENDBRANCH   1  11
TORSDOF 1
ENDMDL
MODEL 9
REMARK VINA RESULT:    -3.791      8.126     10.271
REMARK INTER + INTRA:          -5.836
REMARK INTER:                  -5.506
REMARK INTRA:                  -0.330
REMARK UNBOUND:                -0.051
REMARK SMILES CC1=CCC[C@H](C)C(=O)C[C@@H](C(C)C)C(=O)C1
REMARK SMILES IDX 8 1 9 2 6 3 7 4 5 5 4 6 3 7 2 8 1 9 10 11 11 12 15 13 16 14
REMARK SMILES IDX 17 15 12 17 13 18 14 19
REMARK H PARENT
REMARK Flexibility Score: 70.00
ROOT
ATOM      1  C   UNL     1       1.637  -7.783   8.516  1.00  0.00     0.136 C 
ATOM      2  O   UNL     1       2.690  -7.159   8.501  1.00  0.00    -0.299 OA
ENDROOT
BRANCH   1   3
ATOM      3  C   UNL     1       1.552  -9.089   9.281  1.00  0.00     0.053 C 
ATOM      4  C   UNL     1       2.726  -9.992   8.884  1.00  0.00     0.016 C 
BRANCH   3   5
ATOM      5  C   UNL     1       1.545  -8.861  10.808  1.00  0.00     0.015 C 
BRANCH   5   6
ATOM      6  C   UNL     1       0.250  -8.235  11.355  1.00  0.00     0.028 C 
BRANCH   6   7
ATOM      7  C   UNL     1       0.405  -6.795  11.787  1.00  0.00    -0.028 C 
ATOM      8  C   UNL     1      -0.013  -5.678  11.137  1.00  0.00    -0.070 CG0
ATOM      9  C   UNL     1       0.368  -4.353  11.755  1.00  0.00     0.039 C 
ATOM     10  G   UNL     1      -0.901  -5.653   9.897  1.00  0.00     0.000 G0
ENDBRANCH   6   7
ENDBRANCH   5   6
ENDBRANCH   3   5
ENDBRANCH   1   3
BRANCH   1  11
ATOM     11  C   UNL     1       0.460  -7.250   7.739  1.00  0.00     0.087 C 
BRANCH  11  12
ATOM     12  C   UNL     1       0.484  -5.701   7.618  1.00  0.00     0.066 C 
BRANCH  12  13
ATOM     13  C   UNL     1      -0.319  -4.962   8.687  1.00  0.00     0.140 C 
ATOM     14  O   UNL     1      -0.579  -3.781   8.501  1.00  0.00    -0.299 OA
BRANCH  13  15
ATOM     15  C   UNL     1      -0.917  -5.640   9.898  1.00  0.00     0.106 CG0
ATOM     16  G   UNL     1      -0.027  -5.653  11.136  1.00  0.00     0.000 G0
ENDBRANCH  13  15
ENDBRANCH  12  13
BRANCH  12  17
ATOM     17  C   UNL     1       0.090  -5.186   6.199  1.00  0.00    -0.006 C 
ATOM     18  C   UNL     1      -0.249  -6.313   5.210  1.00  0.00     0.008 C 
ATOM     19  C   UNL     1       1.163  -4.263   5.598  1.00  0.00     0.008 C 
ENDBRANCH  12  17
ENDBRANCH  11  12
ENDBRANCH   1  11
TORSDOF 1
ENDMDL
