MODEL 1
REMARK VINA RESULT:    -5.256      0.000      0.000
REMARK INTER + INTRA:          -6.456
REMARK INTER:                  -6.178
REMARK INTRA:                  -0.278
REMARK UNBOUND:                -0.278
REMARK SMILES O=c1cc(-c2ccc(O)c(O)c2)oc2cc(O)cc(O)c12
REMARK SMILES IDX 4 1 3 2 2 3 1 4 21 5 19 6 18 7 16 8 15 9 14 10 13 11 5 12
REMARK SMILES IDX 6 13 7 14 8 15 12 16 10 17 9 18 11 20 20 22 17 24
REMARK H PARENT 9 19 11 21 20 23 17 25
REMARK Flexibility Score: inf
ROOT
ATOM      1  C   UNL     1       0.377  -3.188 -10.836  1.00  0.00     0.138 A 
ATOM      2  C   UNL     1      -0.084  -1.866 -10.886  1.00  0.00     0.100 A 
ATOM      3  C   UNL     1      -1.432  -1.615 -11.151  1.00  0.00     0.197 A 
ATOM      4  O   UNL     1      -1.803  -0.416 -11.251  1.00  0.00    -0.289 OA
ATOM      5  C   UNL     1      -2.325  -2.696 -11.336  1.00  0.00     0.107 A 
ATOM      6  C   UNL     1      -3.726  -2.561 -11.571  1.00  0.00     0.134 A 
ATOM      7  C   UNL     1      -4.491  -3.698 -11.855  1.00  0.00     0.093 A 
ATOM      8  C   UNL     1      -3.919  -4.970 -11.853  1.00  0.00     0.123 A 
ATOM      9  C   UNL     1      -2.560  -5.120 -11.570  1.00  0.00     0.094 A 
ATOM     10  C   UNL     1      -1.764  -4.000 -11.317  1.00  0.00     0.146 A 
ATOM     11  O   UNL     1      -0.471  -4.183 -11.067  1.00  0.00    -0.456 OA
ENDROOT
BRANCH   1  12
ATOM     12  C   UNL     1       1.800  -3.511 -10.556  1.00  0.00     0.021 A 
ATOM     13  C   UNL     1       2.108  -4.554  -9.664  1.00  0.00     0.016 A 
ATOM     14  C   UNL     1       3.438  -4.874  -9.378  1.00  0.00     0.051 A 
ATOM     15  C   UNL     1       4.481  -4.150  -9.970  1.00  0.00     0.157 A 
ATOM     16  C   UNL     1       2.854  -2.780 -11.137  1.00  0.00     0.062 A 
ATOM     17  C   UNL     1       4.189  -3.100 -10.847  1.00  0.00     0.158 A 
BRANCH  15  18
ATOM     18  O   UNL     1       5.809  -4.466  -9.688  1.00  0.00    -0.504 OA
ATOM     19  H   UNL     1       6.163  -4.465  -8.738  1.00  0.00     0.293 HD
ENDBRANCH  15  18
BRANCH  17  20
ATOM     20  O   UNL     1       5.229  -2.375 -11.425  1.00  0.00    -0.504 OA
ATOM     21  H   UNL     1       5.981  -1.987 -10.867  1.00  0.00     0.293 HD
ENDBRANCH  17  20
ENDBRANCH   1  12
BRANCH   6  22
ATOM     22  O   UNL     1      -4.414  -1.345 -11.513  1.00  0.00    -0.507 OA
ATOM     23  H   UNL     1      -4.979  -0.965 -12.257  1.00  0.00     0.293 HD
ENDBRANCH   6  22
BRANCH   8  24
ATOM     24  O   UNL     1      -4.714  -6.082 -12.125  1.00  0.00    -0.508 OA
ATOM     25  H   UNL     1      -5.643  -5.985 -12.520  1.00  0.00     0.293 HD
ENDBRANCH   8  24
TORSDOF 5
ENDMDL
MODEL 2
REMARK VINA RESULT:    -5.188      1.957      6.955
REMARK INTER + INTRA:          -6.376
REMARK INTER:                  -6.099
REMARK INTRA:                  -0.277
REMARK UNBOUND:                -0.278
REMARK SMILES O=c1cc(-c2ccc(O)c(O)c2)oc2cc(O)cc(O)c12
REMARK SMILES IDX 4 1 3 2 2 3 1 4 21 5 19 6 18 7 16 8 15 9 14 10 13 11 5 12
REMARK SMILES IDX 6 13 7 14 8 15 12 16 10 17 9 18 11 20 20 22 17 24
REMARK H PARENT 9 19 11 21 20 23 17 25
REMARK Flexibility Score: inf
ROOT
ATOM      1  C   UNL     1       1.359  -2.516 -11.129  1.00  0.00     0.138 A 
ATOM      2  C   UNL     1       2.478  -1.858 -11.658  1.00  0.00     0.100 A 
ATOM      3  C   UNL     1       3.748  -2.411 -11.487  1.00  0.00     0.197 A 
ATOM      4  O   UNL     1       4.739  -1.766 -11.919  1.00  0.00    -0.289 OA
ATOM      5  C   UNL     1       3.893  -3.645 -10.810  1.00  0.00     0.107 A 
ATOM      6  C   UNL     1       5.133  -4.323 -10.613  1.00  0.00     0.134 A 
ATOM      7  C   UNL     1       5.169  -5.481  -9.826  1.00  0.00     0.093 A 
ATOM      8  C   UNL     1       4.004  -6.018  -9.281  1.00  0.00     0.123 A 
ATOM      9  C   UNL     1       2.776  -5.394  -9.513  1.00  0.00     0.094 A 
ATOM     10  C   UNL     1       2.713  -4.218 -10.265  1.00  0.00     0.146 A 
ATOM     11  O   UNL     1       1.528  -3.646 -10.450  1.00  0.00    -0.456 OA
ENDROOT
BRANCH   1  12
ATOM     12  C   UNL     1      -0.014  -1.973 -11.283  1.00  0.00     0.021 A 
ATOM     13  C   UNL     1      -1.057  -2.832 -11.675  1.00  0.00     0.016 A 
ATOM     14  C   UNL     1      -2.356  -2.346 -11.834  1.00  0.00     0.051 A 
ATOM     15  C   UNL     1      -2.634  -0.991 -11.615  1.00  0.00     0.157 A 
ATOM     16  C   UNL     1      -0.300  -0.609 -11.078  1.00  0.00     0.062 A 
ATOM     17  C   UNL     1      -1.605  -0.121 -11.240  1.00  0.00     0.158 A 
BRANCH  15  18
ATOM     18  O   UNL     1      -3.930  -0.501 -11.772  1.00  0.00    -0.504 OA
ATOM     19  H   UNL     1      -4.718  -1.123 -11.914  1.00  0.00     0.293 HD
ENDBRANCH  15  18
BRANCH  17  20
ATOM     20  O   UNL     1      -1.883   1.229 -11.035  1.00  0.00    -0.504 OA
ATOM     21  H   UNL     1      -2.793   1.622 -11.244  1.00  0.00     0.293 HD
ENDBRANCH  17  20
ENDBRANCH   1  12
BRANCH   6  22
ATOM     22  O   UNL     1       6.344  -3.918 -11.183  1.00  0.00    -0.507 OA
ATOM     23  H   UNL     1       7.147  -3.597 -10.664  1.00  0.00     0.293 HD
ENDBRANCH   6  22
BRANCH   8  24
ATOM     24  O   UNL     1       4.075  -7.180  -8.516  1.00  0.00    -0.508 OA
ATOM     25  H   UNL     1       4.156  -7.146  -7.505  1.00  0.00     0.293 HD
ENDBRANCH   8  24
TORSDOF 5
ENDMDL
MODEL 3
REMARK VINA RESULT:    -5.082      6.791      8.335
REMARK INTER + INTRA:          -6.252
REMARK INTER:                  -5.973
REMARK INTRA:                  -0.278
REMARK UNBOUND:                -0.278
REMARK SMILES O=c1cc(-c2ccc(O)c(O)c2)oc2cc(O)cc(O)c12
REMARK SMILES IDX 4 1 3 2 2 3 1 4 21 5 19 6 18 7 16 8 15 9 14 10 13 11 5 12
REMARK SMILES IDX 6 13 7 14 8 15 12 16 10 17 9 18 11 20 20 22 17 24
REMARK H PARENT 9 19 11 21 20 23 17 25
REMARK Flexibility Score: inf
ROOT
ATOM      1  C   UNL     1      -5.793  -6.837  -8.858  1.00  0.00     0.138 A 
ATOM      2  C   UNL     1      -5.573  -5.967  -9.935  1.00  0.00     0.100 A 
ATOM      3  C   UNL     1      -6.282  -4.767 -10.009  1.00  0.00     0.197 A 
ATOM      4  O   UNL     1      -6.109  -4.037 -11.019  1.00  0.00    -0.289 OA
ATOM      5  C   UNL     1      -7.193  -4.424  -8.981  1.00  0.00     0.107 A 
ATOM      6  C   UNL     1      -7.940  -3.209  -8.930  1.00  0.00     0.134 A 
ATOM      7  C   UNL     1      -8.897  -3.031  -7.925  1.00  0.00     0.093 A 
ATOM      8  C   UNL     1      -9.093  -3.993  -6.935  1.00  0.00     0.123 A 
ATOM      9  C   UNL     1      -8.328  -5.162  -6.943  1.00  0.00     0.094 A 
ATOM     10  C   UNL     1      -7.390  -5.385  -7.954  1.00  0.00     0.146 A 
ATOM     11  O   UNL     1      -6.693  -6.516  -7.935  1.00  0.00    -0.456 OA
ENDROOT
BRANCH   1  12
ATOM     12  C   UNL     1      -5.064  -8.124  -8.730  1.00  0.00     0.021 A 
ATOM     13  C   UNL     1      -3.659  -8.120  -8.668  1.00  0.00     0.016 A 
ATOM     14  C   UNL     1      -2.949  -9.317  -8.555  1.00  0.00     0.051 A 
ATOM     15  C   UNL     1      -3.630 -10.540  -8.512  1.00  0.00     0.157 A 
ATOM     16  C   UNL     1      -5.741  -9.360  -8.699  1.00  0.00     0.062 A 
ATOM     17  C   UNL     1      -5.027 -10.562  -8.587  1.00  0.00     0.158 A 
BRANCH  15  18
ATOM     18  O   UNL     1      -2.925 -11.738  -8.397  1.00  0.00    -0.504 OA
ATOM     19  H   UNL     1      -3.403 -12.626  -8.298  1.00  0.00     0.293 HD
ENDBRANCH  15  18
BRANCH  17  20
ATOM     20  O   UNL     1      -5.701 -11.781  -8.555  1.00  0.00    -0.504 OA
ATOM     21  H   UNL     1      -6.040 -12.223  -9.402  1.00  0.00     0.293 HD
ENDBRANCH  17  20
ENDBRANCH   1  12
BRANCH   6  22
ATOM     22  O   UNL     1      -7.764  -2.146  -9.821  1.00  0.00    -0.507 OA
ATOM     23  H   UNL     1      -8.285  -2.016 -10.674  1.00  0.00     0.293 HD
ENDBRANCH   6  22
BRANCH   8  24
ATOM     24  O   UNL     1     -10.044  -3.774  -5.941  1.00  0.00    -0.508 OA
ATOM     25  H   UNL     1     -10.200  -4.447  -5.199  1.00  0.00     0.293 HD
ENDBRANCH   8  24
TORSDOF 5
ENDMDL
MODEL 4
REMARK VINA RESULT:    -5.030      6.259      9.592
REMARK INTER + INTRA:          -6.191
REMARK INTER:                  -5.893
REMARK INTRA:                  -0.298
REMARK UNBOUND:                -0.278
REMARK SMILES O=c1cc(-c2ccc(O)c(O)c2)oc2cc(O)cc(O)c12
REMARK SMILES IDX 4 1 3 2 2 3 1 4 21 5 19 6 18 7 16 8 15 9 14 10 13 11 5 12
REMARK SMILES IDX 6 13 7 14 8 15 12 16 10 17 9 18 11 20 20 22 17 24
REMARK H PARENT 9 19 11 21 20 23 17 25
REMARK Flexibility Score: inf
ROOT
ATOM      1  C   UNL     1      -6.104  -6.135  -8.869  1.00  0.00     0.138 A 
ATOM      2  C   UNL     1      -4.803  -5.870  -9.317  1.00  0.00     0.100 A 
ATOM      3  C   UNL     1      -3.938  -6.931  -9.589  1.00  0.00     0.197 A 
ATOM      4  O   UNL     1      -2.757  -6.661  -9.930  1.00  0.00    -0.289 OA
ATOM      5  C   UNL     1      -4.390  -8.263  -9.441  1.00  0.00     0.107 A 
ATOM      6  C   UNL     1      -3.610  -9.423  -9.729  1.00  0.00     0.134 A 
ATOM      7  C   UNL     1      -4.125 -10.691  -9.434  1.00  0.00     0.093 A 
ATOM      8  C   UNL     1      -5.411 -10.845  -8.919  1.00  0.00     0.123 A 
ATOM      9  C   UNL     1      -6.204  -9.720  -8.685  1.00  0.00     0.094 A 
ATOM     10  C   UNL     1      -5.706  -8.440  -8.937  1.00  0.00     0.146 A 
ATOM     11  O   UNL     1      -6.487  -7.394  -8.687  1.00  0.00    -0.456 OA
ENDROOT
BRANCH   1  12
ATOM     12  C   UNL     1      -7.066  -5.044  -8.567  1.00  0.00     0.021 A 
ATOM     13  C   UNL     1      -7.104  -3.908  -9.395  1.00  0.00     0.016 A 
ATOM     14  C   UNL     1      -7.994  -2.865  -9.129  1.00  0.00     0.051 A 
ATOM     15  C   UNL     1      -8.853  -2.934  -8.025  1.00  0.00     0.157 A 
ATOM     16  C   UNL     1      -7.924  -5.100  -7.451  1.00  0.00     0.062 A 
ATOM     17  C   UNL     1      -8.816  -4.051  -7.184  1.00  0.00     0.158 A 
BRANCH  15  18
ATOM     18  O   UNL     1      -9.743  -1.895  -7.757  1.00  0.00    -0.504 OA
ATOM     19  H   UNL     1     -10.706  -2.077  -7.497  1.00  0.00     0.293 HD
ENDBRANCH  15  18
BRANCH  17  20
ATOM     20  O   UNL     1      -9.664  -4.112  -6.080  1.00  0.00    -0.504 OA
ATOM     21  H   UNL     1     -10.172  -3.297  -5.754  1.00  0.00     0.293 HD
ENDBRANCH  17  20
ENDBRANCH   1  12
BRANCH   6  22
ATOM     22  O   UNL     1      -2.345  -9.386 -10.323  1.00  0.00    -0.507 OA
ATOM     23  H   UNL     1      -2.147  -9.006 -11.236  1.00  0.00     0.293 HD
ENDBRANCH   6  22
BRANCH   8  24
ATOM     24  O   UNL     1      -5.896 -12.124  -8.652  1.00  0.00    -0.508 OA
ATOM     25  H   UNL     1      -5.350 -12.952  -8.862  1.00  0.00     0.293 HD
ENDBRANCH   8  24
TORSDOF 5
ENDMDL
MODEL 5
REMARK VINA RESULT:    -4.964      3.973      7.387
REMARK INTER + INTRA:          -6.113
REMARK INTER:                  -5.799
REMARK INTRA:                  -0.315
REMARK UNBOUND:                -0.278
REMARK SMILES O=c1cc(-c2ccc(O)c(O)c2)oc2cc(O)cc(O)c12
REMARK SMILES IDX 4 1 3 2 2 3 1 4 21 5 19 6 18 7 16 8 15 9 14 10 13 11 5 12
REMARK SMILES IDX 6 13 7 14 8 15 12 16 10 17 9 18 11 20 20 22 17 24
REMARK H PARENT 9 19 11 21 20 23 17 25
REMARK Flexibility Score: inf
ROOT
ATOM      1  C   UNL     1       4.927  -6.894  -8.817  1.00  0.00     0.138 A 
ATOM      2  C   UNL     1       6.042  -6.296  -9.418  1.00  0.00     0.100 A 
ATOM      3  C   UNL     1       5.884  -5.113 -10.143  1.00  0.00     0.197 A 
ATOM      4  O   UNL     1       6.893  -4.634 -10.723  1.00  0.00    -0.289 OA
ATOM      5  C   UNL     1       4.607  -4.512 -10.238  1.00  0.00     0.107 A 
ATOM      6  C   UNL     1       4.335  -3.286 -10.916  1.00  0.00     0.134 A 
ATOM      7  C   UNL     1       3.011  -2.847 -11.043  1.00  0.00     0.093 A 
ATOM      8  C   UNL     1       1.958  -3.557 -10.467  1.00  0.00     0.123 A 
ATOM      9  C   UNL     1       2.218  -4.729  -9.754  1.00  0.00     0.094 A 
ATOM     10  C   UNL     1       3.525  -5.211  -9.640  1.00  0.00     0.146 A 
ATOM     11  O   UNL     1       3.730  -6.338  -8.966  1.00  0.00    -0.456 OA
ENDROOT
BRANCH   1  12
ATOM     12  C   UNL     1       5.039  -8.150  -8.033  1.00  0.00     0.021 A 
ATOM     13  C   UNL     1       6.205  -8.929  -8.140  1.00  0.00     0.016 A 
ATOM     14  C   UNL     1       6.333 -10.119  -7.419  1.00  0.00     0.051 A 
ATOM     15  C   UNL     1       5.295 -10.556  -6.588  1.00  0.00     0.157 A 
ATOM     16  C   UNL     1       3.994  -8.603  -7.204  1.00  0.00     0.062 A 
ATOM     17  C   UNL     1       4.123  -9.799  -6.482  1.00  0.00     0.158 A 
BRANCH  15  18
ATOM     18  O   UNL     1       5.419 -11.742  -5.866  1.00  0.00    -0.504 OA
ATOM     19  H   UNL     1       4.760 -11.990  -5.137  1.00  0.00     0.293 HD
ENDBRANCH  15  18
BRANCH  17  20
ATOM     20  O   UNL     1       3.087 -10.242  -5.662  1.00  0.00    -0.504 OA
ATOM     21  H   UNL     1       2.119 -10.010  -5.856  1.00  0.00     0.293 HD
ENDBRANCH  17  20
ENDBRANCH   1  12
BRANCH   6  22
ATOM     22  O   UNL     1       5.322  -2.456 -11.455  1.00  0.00    -0.507 OA
ATOM     23  H   UNL     1       6.135  -2.126 -10.957  1.00  0.00     0.293 HD
ENDBRANCH   6  22
BRANCH   8  24
ATOM     24  O   UNL     1       0.655  -3.082 -10.601  1.00  0.00    -0.508 OA
ATOM     25  H   UNL     1       0.450  -2.236 -11.121  1.00  0.00     0.293 HD
ENDBRANCH   8  24
TORSDOF 5
ENDMDL
MODEL 6
REMARK VINA RESULT:    -4.932      6.316      8.045
REMARK INTER + INTRA:          -6.075
REMARK INTER:                  -5.799
REMARK INTRA:                  -0.276
REMARK UNBOUND:                -0.278
REMARK SMILES O=c1cc(-c2ccc(O)c(O)c2)oc2cc(O)cc(O)c12
REMARK SMILES IDX 4 1 3 2 2 3 1 4 21 5 19 6 18 7 16 8 15 9 14 10 13 11 5 12
REMARK SMILES IDX 6 13 7 14 8 15 12 16 10 17 9 18 11 20 20 22 17 24
REMARK H PARENT 9 19 11 21 20 23 17 25
REMARK Flexibility Score: inf
ROOT
ATOM      1  C   UNL     1      -5.808  -6.817  -8.840  1.00  0.00     0.138 A 
ATOM      2  C   UNL     1      -6.900  -6.502  -8.020  1.00  0.00     0.100 A 
ATOM      3  C   UNL     1      -7.550  -5.276  -8.177  1.00  0.00     0.197 A 
ATOM      4  O   UNL     1      -8.486  -4.996  -7.385  1.00  0.00    -0.289 OA
ATOM      5  C   UNL     1      -7.121  -4.377  -9.182  1.00  0.00     0.107 A 
ATOM      6  C   UNL     1      -7.733  -3.118  -9.460  1.00  0.00     0.134 A 
ATOM      7  C   UNL     1      -7.150  -2.261 -10.401  1.00  0.00     0.093 A 
ATOM      8  C   UNL     1      -6.015  -2.641 -11.117  1.00  0.00     0.123 A 
ATOM      9  C   UNL     1      -5.440  -3.893 -10.892  1.00  0.00     0.094 A 
ATOM     10  C   UNL     1      -5.978  -4.756  -9.934  1.00  0.00     0.146 A 
ATOM     11  O   UNL     1      -5.392  -5.933  -9.740  1.00  0.00    -0.456 OA
ENDROOT
BRANCH   1  12
ATOM     12  C   UNL     1      -5.083  -8.108  -8.717  1.00  0.00     0.021 A 
ATOM     13  C   UNL     1      -3.678  -8.108  -8.665  1.00  0.00     0.016 A 
ATOM     14  C   UNL     1      -2.971  -9.308  -8.556  1.00  0.00     0.051 A 
ATOM     15  C   UNL     1      -3.656 -10.528  -8.508  1.00  0.00     0.157 A 
ATOM     16  C   UNL     1      -5.764  -9.340  -8.681  1.00  0.00     0.062 A 
ATOM     17  C   UNL     1      -5.053 -10.545  -8.574  1.00  0.00     0.158 A 
BRANCH  15  18
ATOM     18  O   UNL     1      -2.954 -11.728  -8.398  1.00  0.00    -0.504 OA
ATOM     19  H   UNL     1      -1.943 -11.747  -8.339  1.00  0.00     0.293 HD
ENDBRANCH  15  18
BRANCH  17  20
ATOM     20  O   UNL     1      -5.731 -11.762  -8.538  1.00  0.00    -0.504 OA
ATOM     21  H   UNL     1      -5.838 -12.285  -7.676  1.00  0.00     0.293 HD
ENDBRANCH  17  20
ENDBRANCH   1  12
BRANCH   6  22
ATOM     22  O   UNL     1      -8.918  -2.677  -8.863  1.00  0.00    -0.507 OA
ATOM     23  H   UNL     1      -9.172  -2.833  -7.900  1.00  0.00     0.293 HD
ENDBRANCH   6  22
BRANCH   8  24
ATOM     24  O   UNL     1      -5.472  -1.768 -12.057  1.00  0.00    -0.508 OA
ATOM     25  H   UNL     1      -6.050  -1.107 -12.563  1.00  0.00     0.293 HD
ENDBRANCH   8  24
TORSDOF 5
ENDMDL
MODEL 7
REMARK VINA RESULT:    -4.918      5.703      8.711
REMARK INTER + INTRA:          -6.059
REMARK INTER:                  -5.752
REMARK INTRA:                  -0.307
REMARK UNBOUND:                -0.278
REMARK SMILES O=c1cc(-c2ccc(O)c(O)c2)oc2cc(O)cc(O)c12
REMARK SMILES IDX 4 1 3 2 2 3 1 4 21 5 19 6 18 7 16 8 15 9 14 10 13 11 5 12
REMARK SMILES IDX 6 13 7 14 8 15 12 16 10 17 9 18 11 20 20 22 17 24
REMARK H PARENT 9 19 11 21 20 23 17 25
REMARK Flexibility Score: inf
ROOT
ATOM      1  C   UNL     1      -4.977  -6.763  -9.715  1.00  0.00     0.138 A 
ATOM      2  C   UNL     1      -3.695  -7.329  -9.686  1.00  0.00     0.100 A 
ATOM      3  C   UNL     1      -3.529  -8.639  -9.234  1.00  0.00     0.197 A 
ATOM      4  O   UNL     1      -2.359  -9.098  -9.160  1.00  0.00    -0.289 OA
ATOM      5  C   UNL     1      -4.658  -9.395  -8.839  1.00  0.00     0.107 A 
ATOM      6  C   UNL     1      -4.614 -10.753  -8.400  1.00  0.00     0.134 A 
ATOM      7  C   UNL     1      -5.781 -11.362  -7.924  1.00  0.00     0.093 A 
ATOM      8  C   UNL     1      -7.000 -10.685  -7.927  1.00  0.00     0.123 A 
ATOM      9  C   UNL     1      -7.066  -9.375  -8.405  1.00  0.00     0.094 A 
ATOM     10  C   UNL     1      -5.911  -8.728  -8.854  1.00  0.00     0.146 A 
ATOM     11  O   UNL     1      -6.013  -7.476  -9.288  1.00  0.00    -0.456 OA
ENDROOT
BRANCH   1  12
ATOM     12  C   UNL     1      -5.209  -5.375 -10.188  1.00  0.00     0.021 A 
ATOM     13  C   UNL     1      -4.325  -4.807 -11.122  1.00  0.00     0.016 A 
ATOM     14  C   UNL     1      -4.517  -3.501 -11.579  1.00  0.00     0.051 A 
ATOM     15  C   UNL     1      -5.589  -2.737 -11.101  1.00  0.00     0.157 A 
ATOM     16  C   UNL     1      -6.278  -4.596  -9.703  1.00  0.00     0.062 A 
ATOM     17  C   UNL     1      -6.469  -3.283 -10.160  1.00  0.00     0.158 A 
BRANCH  15  18
ATOM     18  O   UNL     1      -5.786  -1.433 -11.555  1.00  0.00    -0.504 OA
ATOM     19  H   UNL     1      -6.610  -0.902 -11.299  1.00  0.00     0.293 HD
ENDBRANCH  15  18
BRANCH  17  20
ATOM     20  O   UNL     1      -7.528  -2.516  -9.679  1.00  0.00    -0.504 OA
ATOM     21  H   UNL     1      -8.127  -2.847  -8.931  1.00  0.00     0.293 HD
ENDBRANCH  17  20
ENDBRANCH   1  12
BRANCH   6  22
ATOM     22  O   UNL     1      -3.464 -11.548  -8.435  1.00  0.00    -0.507 OA
ATOM     23  H   UNL     1      -2.544 -11.243  -8.159  1.00  0.00     0.293 HD
ENDBRANCH   6  22
BRANCH   8  24
ATOM     24  O   UNL     1      -8.144 -11.328  -7.459  1.00  0.00    -0.508 OA
ATOM     25  H   UNL     1      -8.404 -11.302  -6.479  1.00  0.00     0.293 HD
ENDBRANCH   8  24
TORSDOF 5
ENDMDL
MODEL 8
REMARK VINA RESULT:    -4.799      6.177      9.189
REMARK INTER + INTRA:          -5.919
REMARK INTER:                  -5.626
REMARK INTRA:                  -0.293
REMARK UNBOUND:                -0.278
REMARK SMILES O=c1cc(-c2ccc(O)c(O)c2)oc2cc(O)cc(O)c12
REMARK SMILES IDX 4 1 3 2 2 3 1 4 21 5 19 6 18 7 16 8 15 9 14 10 13 11 5 12
REMARK SMILES IDX 6 13 7 14 8 15 12 16 10 17 9 18 11 20 20 22 17 24
REMARK H PARENT 9 19 11 21 20 23 17 25
REMARK Flexibility Score: inf
ROOT
ATOM      1  C   UNL     1      -6.106  -5.942  -9.289  1.00  0.00     0.138 A 
ATOM      2  C   UNL     1      -4.816  -5.921  -9.836  1.00  0.00     0.100 A 
ATOM      3  C   UNL     1      -4.097  -7.111  -9.955  1.00  0.00     0.197 A 
ATOM      4  O   UNL     1      -2.918  -7.051 -10.392  1.00  0.00    -0.289 OA
ATOM      5  C   UNL     1      -4.687  -8.332  -9.551  1.00  0.00     0.107 A 
ATOM      6  C   UNL     1      -4.064  -9.612  -9.663  1.00  0.00     0.134 A 
ATOM      7  C   UNL     1      -4.698 -10.737  -9.123  1.00  0.00     0.093 A 
ATOM      8  C   UNL     1      -5.957 -10.640  -8.531  1.00  0.00     0.123 A 
ATOM      9  C   UNL     1      -6.600  -9.403  -8.464  1.00  0.00     0.094 A 
ATOM     10  C   UNL     1      -5.977  -8.255  -8.963  1.00  0.00     0.146 A 
ATOM     11  O   UNL     1      -6.616  -7.094  -8.868  1.00  0.00    -0.456 OA
ENDROOT
BRANCH   1  12
ATOM     12  C   UNL     1      -6.915  -4.705  -9.142  1.00  0.00     0.021 A 
ATOM     13  C   UNL     1      -7.997  -4.690  -8.244  1.00  0.00     0.016 A 
ATOM     14  C   UNL     1      -8.778  -3.542  -8.092  1.00  0.00     0.051 A 
ATOM     15  C   UNL     1      -8.498  -2.394  -8.842  1.00  0.00     0.157 A 
ATOM     16  C   UNL     1      -6.647  -3.550  -9.902  1.00  0.00     0.062 A 
ATOM     17  C   UNL     1      -7.434  -2.398  -9.751  1.00  0.00     0.158 A 
BRANCH  15  18
ATOM     18  O   UNL     1      -9.275  -1.245  -8.693  1.00  0.00    -0.504 OA
ATOM     19  H   UNL     1      -9.374  -0.786  -7.795  1.00  0.00     0.293 HD
ENDBRANCH  15  18
BRANCH  17  20
ATOM     20  O   UNL     1      -7.165  -1.257 -10.504  1.00  0.00    -0.504 OA
ATOM     21  H   UNL     1      -6.879  -1.316 -11.474  1.00  0.00     0.293 HD
ENDBRANCH  17  20
ENDBRANCH   1  12
BRANCH   6  22
ATOM     22  O   UNL     1      -2.845  -9.833 -10.312  1.00  0.00    -0.507 OA
ATOM     23  H   UNL     1      -1.938  -9.755  -9.878  1.00  0.00     0.293 HD
ENDBRANCH   6  22
BRANCH   8  24
ATOM     24  O   UNL     1      -6.564 -11.784  -8.017  1.00  0.00    -0.508 OA
ATOM     25  H   UNL     1      -6.291 -12.712  -8.322  1.00  0.00     0.293 HD
ENDBRANCH   8  24
TORSDOF 5
ENDMDL
MODEL 9
REMARK VINA RESULT:    -4.766      6.922      8.633
REMARK INTER + INTRA:          -5.880
REMARK INTER:                  -5.583
REMARK INTRA:                  -0.297
REMARK UNBOUND:                -0.278
REMARK SMILES O=c1cc(-c2ccc(O)c(O)c2)oc2cc(O)cc(O)c12
REMARK SMILES IDX 4 1 3 2 2 3 1 4 21 5 19 6 18 7 16 8 15 9 14 10 13 11 5 12
REMARK SMILES IDX 6 13 7 14 8 15 12 16 10 17 9 18 11 20 20 22 17 24
REMARK H PARENT 9 19 11 21 20 23 17 25
REMARK Flexibility Score: inf
ROOT
ATOM      1  C   UNL     1      -6.823  -6.541  -8.302  1.00  0.00     0.138 A 
ATOM      2  C   UNL     1      -7.618  -6.542  -7.148  1.00  0.00     0.100 A 
ATOM      3  C   UNL     1      -8.337  -5.396  -6.804  1.00  0.00     0.197 A 
ATOM      4  O   UNL     1      -8.992  -5.407  -5.729  1.00  0.00    -0.289 OA
ATOM      5  C   UNL     1      -8.282  -4.255  -7.639  1.00  0.00     0.107 A 
ATOM      6  C   UNL     1      -9.005  -3.045  -7.410  1.00  0.00     0.134 A 
ATOM      7  C   UNL     1      -8.782  -1.941  -8.241  1.00  0.00     0.093 A 
ATOM      8  C   UNL     1      -7.910  -2.020  -9.326  1.00  0.00     0.123 A 
ATOM      9  C   UNL     1      -7.239  -3.215  -9.593  1.00  0.00     0.094 A 
ATOM     10  C   UNL     1      -7.414  -4.324  -8.760  1.00  0.00     0.146 A 
ATOM     11  O   UNL     1      -6.747  -5.439  -9.039  1.00  0.00    -0.456 OA
ENDROOT
BRANCH   1  12
ATOM     12  C   UNL     1      -6.040  -7.734  -8.715  1.00  0.00     0.021 A 
ATOM     13  C   UNL     1      -6.609  -9.013  -8.582  1.00  0.00     0.016 A 
ATOM     14  C   UNL     1      -5.891 -10.152  -8.956  1.00  0.00     0.051 A 
ATOM     15  C   UNL     1      -4.590 -10.032  -9.459  1.00  0.00     0.157 A 
ATOM     16  C   UNL     1      -4.726  -7.623  -9.210  1.00  0.00     0.062 A 
ATOM     17  C   UNL     1      -4.005  -8.767  -9.583  1.00  0.00     0.158 A 
BRANCH  15  18
ATOM     18  O   UNL     1      -3.870 -11.166  -9.835  1.00  0.00    -0.504 OA
ATOM     19  H   UNL     1      -4.290 -11.897 -10.397  1.00  0.00     0.293 HD
ENDBRANCH  15  18
BRANCH  17  20
ATOM     20  O   UNL     1      -2.706  -8.652 -10.074  1.00  0.00    -0.504 OA
ATOM     21  H   UNL     1      -2.388  -9.196 -10.867  1.00  0.00     0.293 HD
ENDBRANCH  17  20
ENDBRANCH   1  12
BRANCH   6  22
ATOM     22  O   UNL     1      -9.962  -2.886  -6.404  1.00  0.00    -0.507 OA
ATOM     23  H   UNL     1      -9.789  -3.008  -5.418  1.00  0.00     0.293 HD
ENDBRANCH   6  22
BRANCH   8  24
ATOM     24  O   UNL     1      -7.725  -0.905 -10.141  1.00  0.00    -0.508 OA
ATOM     25  H   UNL     1      -7.257  -0.976 -11.038  1.00  0.00     0.293 HD
ENDBRANCH   8  24
TORSDOF 5
ENDMDL
