MODEL 1
REMARK VINA RESULT:    -5.895      0.000      0.000
REMARK INTER + INTRA:          -9.949
REMARK INTER:                  -8.997
REMARK INTRA:                  -0.953
REMARK UNBOUND:                -0.953
REMARK SMILES OC[C@H]1O[C@H](O[C@]2(CO)O[C@H](CO)[C@@H](O)[C@@H]2O)[C@@H](O)[C@H](O)[C@H]1O
REMARK SMILES IDX 6 1 5 2 3 3 22 4 4 5 20 6 18 7 2 8 1 9 23 11 21 13 19 15
REMARK SMILES IDX 7 17 16 18 10 19 14 20 11 21 8 22 9 23 17 25 15 27 12 29
REMARK SMILES IDX 13 30
REMARK H PARENT 1 10 23 12 21 14 19 16 9 24 17 26 15 28 13 31
REMARK Flexibility Score: inf
ROOT
ATOM      1  O   UNL     1      34.319   3.753  42.608  1.00  0.00    -0.313 OA
ENDROOT
BRANCH   1   2
ATOM      2  C   UNL     1      33.949   2.542  41.951  1.00  0.00     0.285 C 
ATOM      3  C   UNL     1      32.142   2.192  43.412  1.00  0.00     0.178 C 
ATOM      4  C   UNL     1      31.061   2.421  42.324  1.00  0.00     0.177 C 
ATOM      5  O   UNL     1      33.319   1.638  42.848  1.00  0.00    -0.341 OA
ATOM      6  C   UNL     1      31.615   3.284  41.164  1.00  0.00     0.179 C 
ATOM      7  C   UNL     1      33.039   2.857  40.739  1.00  0.00     0.202 C 
BRANCH   3   8
ATOM      8  C   UNL     1      31.641   1.280  44.542  1.00  0.00     0.191 C 
BRANCH   8   9
ATOM      9  O   UNL     1      32.147  -0.018  44.396  1.00  0.00    -0.394 OA
ATOM     10  H   UNL     1      32.926   0.064  43.788  1.00  0.00     0.210 HD
ENDBRANCH   8   9
ENDBRANCH   3   8
BRANCH   4  11
ATOM     11  O   UNL     1      30.544   1.208  41.830  1.00  0.00    -0.387 OA
ATOM     12  H   UNL     1      31.219   0.812  41.220  1.00  0.00     0.211 HD
ENDBRANCH   4  11
BRANCH   6  13
ATOM     13  O   UNL     1      31.571   4.656  41.474  1.00  0.00    -0.387 OA
ATOM     14  H   UNL     1      31.762   5.173  40.648  1.00  0.00     0.211 HD
ENDBRANCH   6  13
BRANCH   7  15
ATOM     15  O   UNL     1      32.952   1.726  39.908  1.00  0.00    -0.385 OA
ATOM     16  H   UNL     1      33.878   1.409  39.750  1.00  0.00     0.211 HD
ENDBRANCH   7  15
ENDBRANCH   1   2
BRANCH   1  17
ATOM     17  C   UNL     1      35.726   3.968  42.733  1.00  0.00     0.224 C 
ATOM     18  C   UNL     1      36.058   5.001  43.848  1.00  0.00     0.208 C 
ATOM     19  O   UNL     1      36.281   2.727  43.124  1.00  0.00    -0.337 OA
ATOM     20  C   UNL     1      37.059   4.301  44.756  1.00  0.00     0.180 C 
ATOM     21  C   UNL     1      37.296   2.954  44.076  1.00  0.00     0.179 C 
BRANCH  17  22
ATOM     22  C   UNL     1      36.366   4.356  41.366  1.00  0.00     0.225 C 
BRANCH  22  23
ATOM     23  O   UNL     1      37.097   5.551  41.459  1.00  0.00    -0.391 OA
ATOM     24  H   UNL     1      36.437   6.289  41.519  1.00  0.00     0.210 HD
ENDBRANCH  22  23
ENDBRANCH  17  22
BRANCH  18  25
ATOM     25  O   UNL     1      34.922   5.404  44.585  1.00  0.00    -0.385 OA
ATOM     26  H   UNL     1      34.126   4.950  44.203  1.00  0.00     0.211 HD
ENDBRANCH  18  25
BRANCH  20  27
ATOM     27  O   UNL     1      38.265   5.022  44.841  1.00  0.00    -0.387 OA
ATOM     28  H   UNL     1      38.397   5.465  43.958  1.00  0.00     0.211 HD
ENDBRANCH  20  27
BRANCH  21  29
ATOM     29  C   UNL     1      37.318   1.800  45.089  1.00  0.00     0.191 C 
BRANCH  29  30
ATOM     30  O   UNL     1      37.122   2.283  46.391  1.00  0.00    -0.394 OA
ATOM     31  H   UNL     1      37.545   1.627  47.005  1.00  0.00     0.210 HD
ENDBRANCH  29  30
ENDBRANCH  21  29
ENDBRANCH   1  17
TORSDOF 13
ENDMDL
MODEL 2
REMARK VINA RESULT:    -5.895      1.169      2.387
REMARK INTER + INTRA:          -9.949
REMARK INTER:                  -9.286
REMARK INTRA:                  -0.663
REMARK UNBOUND:                -0.953
REMARK SMILES OC[C@H]1O[C@H](O[C@]2(CO)O[C@H](CO)[C@@H](O)[C@@H]2O)[C@@H](O)[C@H](O)[C@H]1O
REMARK SMILES IDX 6 1 5 2 3 3 22 4 4 5 20 6 18 7 2 8 1 9 23 11 21 13 19 15
REMARK SMILES IDX 7 17 16 18 10 19 14 20 11 21 8 22 9 23 17 25 15 27 12 29
REMARK SMILES IDX 13 30
REMARK H PARENT 1 10 23 12 21 14 19 16 9 24 17 26 15 28 13 31
REMARK Flexibility Score: inf
ROOT
ATOM      1  O   UNL     1      34.142   3.992  42.811  1.00  0.00    -0.313 OA
ENDROOT
BRANCH   1   2
ATOM      2  C   UNL     1      33.985   2.771  42.091  1.00  0.00     0.285 C 
ATOM      3  C   UNL     1      32.123   2.140  43.379  1.00  0.00     0.178 C 
ATOM      4  C   UNL     1      31.116   2.274  42.208  1.00  0.00     0.177 C 
ATOM      5  O   UNL     1      33.405   1.761  42.904  1.00  0.00    -0.341 OA
ATOM      6  C   UNL     1      31.649   3.244  41.125  1.00  0.00     0.179 C 
ATOM      7  C   UNL     1      33.146   3.015  40.813  1.00  0.00     0.202 C 
BRANCH   3   8
ATOM      8  C   UNL     1      31.653   1.129  44.435  1.00  0.00     0.191 C 
BRANCH   8   9
ATOM      9  O   UNL     1      32.294  -0.104  44.265  1.00  0.00    -0.394 OA
ATOM     10  H   UNL     1      31.944  -0.691  44.983  1.00  0.00     0.210 HD
ENDBRANCH   8   9
ENDBRANCH   3   8
BRANCH   4  11
ATOM     11  O   UNL     1      30.802   1.026  41.636  1.00  0.00    -0.387 OA
ATOM     12  H   UNL     1      30.625   0.385  42.373  1.00  0.00     0.211 HD
ENDBRANCH   4  11
BRANCH   6  13
ATOM     13  O   UNL     1      31.404   4.587  41.468  1.00  0.00    -0.387 OA
ATOM     14  H   UNL     1      31.751   4.746  42.385  1.00  0.00     0.211 HD
ENDBRANCH   6  13
BRANCH   7  15
ATOM     15  O   UNL     1      33.274   1.916  39.946  1.00  0.00    -0.385 OA
ATOM     16  H   UNL     1      34.175   1.974  39.536  1.00  0.00     0.211 HD
ENDBRANCH   7  15
ENDBRANCH   1   2
BRANCH   1  17
ATOM     17  C   UNL     1      35.379   4.129  43.512  1.00  0.00     0.224 C 
ATOM     18  C   UNL     1      36.426   4.933  42.689  1.00  0.00     0.208 C 
ATOM     19  O   UNL     1      35.091   4.875  44.678  1.00  0.00    -0.337 OA
ATOM     20  C   UNL     1      36.887   6.050  43.614  1.00  0.00     0.180 C 
ATOM     21  C   UNL     1      36.144   5.781  44.920  1.00  0.00     0.179 C 
BRANCH  17  22
ATOM     22  C   UNL     1      35.930   2.744  43.969  1.00  0.00     0.225 C 
BRANCH  22  23
ATOM     23  O   UNL     1      35.340   2.327  45.173  1.00  0.00    -0.391 OA
ATOM     24  H   UNL     1      34.800   1.521  44.967  1.00  0.00     0.210 HD
ENDBRANCH  22  23
ENDBRANCH  17  22
BRANCH  18  25
ATOM     25  O   UNL     1      35.898   5.468  41.494  1.00  0.00    -0.385 OA
ATOM     26  H   UNL     1      35.832   4.735  40.827  1.00  0.00     0.211 HD
ENDBRANCH  18  25
BRANCH  20  27
ATOM     27  O   UNL     1      38.278   5.998  43.826  1.00  0.00    -0.387 OA
ATOM     28  H   UNL     1      38.707   6.372  43.007  1.00  0.00     0.211 HD
ENDBRANCH  20  27
BRANCH  21  29
ATOM     29  C   UNL     1      35.581   7.072  45.533  1.00  0.00     0.191 C 
BRANCH  29  30
ATOM     30  O   UNL     1      35.144   6.843  46.846  1.00  0.00    -0.394 OA
ATOM     31  H   UNL     1      34.155   6.756  46.807  1.00  0.00     0.210 HD
ENDBRANCH  29  30
ENDBRANCH  21  29
ENDBRANCH   1  17
TORSDOF 13
ENDMDL
MODEL 3
REMARK VINA RESULT:    -5.835      1.665      5.907
REMARK INTER + INTRA:          -9.857
REMARK INTER:                  -8.950
REMARK INTRA:                  -0.907
REMARK UNBOUND:                -0.953
REMARK SMILES OC[C@H]1O[C@H](O[C@]2(CO)O[C@H](CO)[C@@H](O)[C@@H]2O)[C@@H](O)[C@H](O)[C@H]1O
REMARK SMILES IDX 6 1 5 2 3 3 22 4 4 5 20 6 18 7 2 8 1 9 23 11 21 13 19 15
REMARK SMILES IDX 7 17 16 18 10 19 14 20 11 21 8 22 9 23 17 25 15 27 12 29
REMARK SMILES IDX 13 30
REMARK H PARENT 1 10 23 12 21 14 19 16 9 24 17 26 15 28 13 31
REMARK Flexibility Score: inf
ROOT
ATOM      1  O   UNL     1      36.522   3.060  43.235  1.00  0.00    -0.313 OA
ENDROOT
BRANCH   1   2
ATOM      2  C   UNL     1      37.226   3.622  44.341  1.00  0.00     0.285 C 
ATOM      3  C   UNL     1      37.890   1.505  45.115  1.00  0.00     0.178 C 
ATOM      4  C   UNL     1      39.392   1.727  44.802  1.00  0.00     0.177 C 
ATOM      5  O   UNL     1      37.254   2.729  45.445  1.00  0.00    -0.341 OA
ATOM      6  C   UNL     1      39.577   2.798  43.699  1.00  0.00     0.179 C 
ATOM      7  C   UNL     1      38.657   4.024  43.906  1.00  0.00     0.202 C 
BRANCH   3   8
ATOM      8  C   UNL     1      37.679   0.498  46.256  1.00  0.00     0.191 C 
BRANCH   8   9
ATOM      9  O   UNL     1      37.738   1.137  47.501  1.00  0.00    -0.394 OA
ATOM     10  H   UNL     1      38.702   1.258  47.696  1.00  0.00     0.210 HD
ENDBRANCH   8   9
ENDBRANCH   3   8
BRANCH   4  11
ATOM     11  O   UNL     1      40.125   2.077  45.952  1.00  0.00    -0.387 OA
ATOM     12  H   UNL     1      41.037   1.695  45.865  1.00  0.00     0.211 HD
ENDBRANCH   4  11
BRANCH   6  13
ATOM     13  O   UNL     1      39.406   2.250  42.413  1.00  0.00    -0.387 OA
ATOM     14  H   UNL     1      40.278   1.884  42.108  1.00  0.00     0.211 HD
ENDBRANCH   6  13
BRANCH   7  15
ATOM     15  O   UNL     1      39.225   4.868  44.875  1.00  0.00    -0.385 OA
ATOM     16  H   UNL     1      38.488   5.174  45.463  1.00  0.00     0.211 HD
ENDBRANCH   7  15
ENDBRANCH   1   2
BRANCH   1  17
ATOM     17  C   UNL     1      35.199   3.565  43.039  1.00  0.00     0.224 C 
ATOM     18  C   UNL     1      34.716   3.372  41.573  1.00  0.00     0.208 C 
ATOM     19  O   UNL     1      34.356   2.791  43.871  1.00  0.00    -0.337 OA
ATOM     20  C   UNL     1      33.384   2.643  41.685  1.00  0.00     0.180 C 
ATOM     21  C   UNL     1      33.150   2.529  43.190  1.00  0.00     0.179 C 
BRANCH  17  22
ATOM     22  C   UNL     1      35.082   5.048  43.505  1.00  0.00     0.225 C 
BRANCH  22  23
ATOM     23  O   UNL     1      35.621   5.930  42.555  1.00  0.00    -0.391 OA
ATOM     24  H   UNL     1      35.086   5.825  41.726  1.00  0.00     0.210 HD
ENDBRANCH  22  23
ENDBRANCH  17  22
BRANCH  18  25
ATOM     25  O   UNL     1      35.621   2.626  40.785  1.00  0.00    -0.385 OA
ATOM     26  H   UNL     1      36.188   3.263  40.277  1.00  0.00     0.211 HD
ENDBRANCH  18  25
BRANCH  20  27
ATOM     27  O   UNL     1      32.346   3.379  41.085  1.00  0.00    -0.387 OA
ATOM     28  H   UNL     1      31.568   2.762  41.001  1.00  0.00     0.211 HD
ENDBRANCH  20  27
BRANCH  21  29
ATOM     29  C   UNL     1      32.630   1.138  43.583  1.00  0.00     0.191 C 
BRANCH  29  30
ATOM     30  O   UNL     1      32.090   1.163  44.877  1.00  0.00    -0.394 OA
ATOM     31  H   UNL     1      32.818   0.885  45.495  1.00  0.00     0.210 HD
ENDBRANCH  29  30
ENDBRANCH  21  29
ENDBRANCH   1  17
TORSDOF 13
ENDMDL
MODEL 4
REMARK VINA RESULT:    -5.728      2.074      5.933
REMARK INTER + INTRA:          -9.695
REMARK INTER:                  -8.323
REMARK INTRA:                  -1.371
REMARK UNBOUND:                -0.953
REMARK SMILES OC[C@H]1O[C@H](O[C@]2(CO)O[C@H](CO)[C@@H](O)[C@@H]2O)[C@@H](O)[C@H](O)[C@H]1O
REMARK SMILES IDX 6 1 5 2 3 3 22 4 4 5 20 6 18 7 2 8 1 9 23 11 21 13 19 15
REMARK SMILES IDX 7 17 16 18 10 19 14 20 11 21 8 22 9 23 17 25 15 27 12 29
REMARK SMILES IDX 13 30
REMARK H PARENT 1 10 23 12 21 14 19 16 9 24 17 26 15 28 13 31
REMARK Flexibility Score: inf
ROOT
ATOM      1  O   UNL     1      37.299   3.745  43.384  1.00  0.00    -0.313 OA
ENDROOT
BRANCH   1   2
ATOM      2  C   UNL     1      36.986   4.771  42.444  1.00  0.00     0.285 C 
ATOM      3  C   UNL     1      37.099   6.444  44.090  1.00  0.00     0.178 C 
ATOM      4  C   UNL     1      38.370   7.109  43.501  1.00  0.00     0.177 C 
ATOM      5  O   UNL     1      36.312   5.856  43.067  1.00  0.00    -0.341 OA
ATOM      6  C   UNL     1      39.179   6.099  42.649  1.00  0.00     0.179 C 
ATOM      7  C   UNL     1      38.276   5.245  41.731  1.00  0.00     0.202 C 
BRANCH   3   8
ATOM      8  C   UNL     1      36.239   7.442  44.882  1.00  0.00     0.191 C 
BRANCH   8   9
ATOM      9  O   UNL     1      35.657   6.824  45.996  1.00  0.00    -0.394 OA
ATOM     10  H   UNL     1      35.570   5.866  45.758  1.00  0.00     0.210 HD
ENDBRANCH   8   9
ENDBRANCH   3   8
BRANCH   4  11
ATOM     11  O   UNL     1      38.063   8.255  42.742  1.00  0.00    -0.387 OA
ATOM     12  H   UNL     1      37.393   8.787  43.245  1.00  0.00     0.211 HD
ENDBRANCH   4  11
BRANCH   6  13
ATOM     13  O   UNL     1      39.997   5.284  43.454  1.00  0.00    -0.387 OA
ATOM     14  H   UNL     1      40.656   5.862  43.921  1.00  0.00     0.211 HD
ENDBRANCH   6  13
BRANCH   7  15
ATOM     15  O   UNL     1      37.937   5.994  40.590  1.00  0.00    -0.385 OA
ATOM     16  H   UNL     1      37.673   6.897  40.904  1.00  0.00     0.211 HD
ENDBRANCH   7  15
ENDBRANCH   1   2
BRANCH   1  17
ATOM     17  C   UNL     1      36.374   2.657  43.424  1.00  0.00     0.224 C 
ATOM     18  C   UNL     1      35.442   2.733  44.667  1.00  0.00     0.208 C 
ATOM     19  O   UNL     1      35.562   2.788  42.274  1.00  0.00    -0.337 OA
ATOM     20  C   UNL     1      34.028   2.654  44.110  1.00  0.00     0.180 C 
ATOM     21  C   UNL     1      34.231   2.465  42.609  1.00  0.00     0.179 C 
BRANCH  17  22
ATOM     22  C   UNL     1      37.107   1.284  43.324  1.00  0.00     0.225 C 
BRANCH  22  23
ATOM     23  O   UNL     1      36.732   0.423  44.367  1.00  0.00    -0.391 OA
ATOM     24  H   UNL     1      36.388   0.992  45.103  1.00  0.00     0.210 HD
ENDBRANCH  22  23
ENDBRANCH  17  22
BRANCH  18  25
ATOM     25  O   UNL     1      35.612   3.919  45.415  1.00  0.00    -0.385 OA
ATOM     26  H   UNL     1      36.519   4.277  45.229  1.00  0.00     0.211 HD
ENDBRANCH  18  25
BRANCH  20  27
ATOM     27  O   UNL     1      33.326   1.559  44.649  1.00  0.00    -0.387 OA
ATOM     28  H   UNL     1      32.362   1.811  44.654  1.00  0.00     0.211 HD
ENDBRANCH  20  27
BRANCH  21  29
ATOM     29  C   UNL     1      33.268   3.335  41.788  1.00  0.00     0.191 C 
BRANCH  29  30
ATOM     30  O   UNL     1      33.650   4.684  41.851  1.00  0.00    -0.394 OA
ATOM     31  H   UNL     1      32.899   5.172  42.282  1.00  0.00     0.210 HD
ENDBRANCH  29  30
ENDBRANCH  21  29
ENDBRANCH   1  17
TORSDOF 13
ENDMDL
MODEL 5
REMARK VINA RESULT:    -5.687     10.961     13.277
REMARK INTER + INTRA:          -9.631
REMARK INTER:                  -8.780
REMARK INTRA:                  -0.851
REMARK UNBOUND:                -0.953
REMARK SMILES OC[C@H]1O[C@H](O[C@]2(CO)O[C@H](CO)[C@@H](O)[C@@H]2O)[C@@H](O)[C@H](O)[C@H]1O
REMARK SMILES IDX 6 1 5 2 3 3 22 4 4 5 20 6 18 7 2 8 1 9 23 11 21 13 19 15
REMARK SMILES IDX 7 17 16 18 10 19 14 20 11 21 8 22 9 23 17 25 15 27 12 29
REMARK SMILES IDX 13 30
REMARK H PARENT 1 10 23 12 21 14 19 16 9 24 17 26 15 28 13 31
REMARK Flexibility Score: inf
ROOT
ATOM      1  O   UNL     1      21.381   3.487  40.028  1.00  0.00    -0.313 OA
ENDROOT
BRANCH   1   2
ATOM      2  C   UNL     1      22.329   3.096  41.019  1.00  0.00     0.285 C 
ATOM      3  C   UNL     1      23.049   5.311  41.339  1.00  0.00     0.178 C 
ATOM      4  C   UNL     1      22.475   5.418  42.775  1.00  0.00     0.177 C 
ATOM      5  O   UNL     1      23.443   3.979  41.048  1.00  0.00    -0.341 OA
ATOM      6  C   UNL     1      21.321   4.408  42.989  1.00  0.00     0.179 C 
ATOM      7  C   UNL     1      21.642   3.013  42.404  1.00  0.00     0.202 C 
BRANCH   3   8
ATOM      8  C   UNL     1      24.243   6.252  41.121  1.00  0.00     0.191 C 
BRANCH   8   9
ATOM      9  O   UNL     1      24.074   7.445  41.835  1.00  0.00    -0.394 OA
ATOM     10  H   UNL     1      23.969   8.156  41.151  1.00  0.00     0.210 HD
ENDBRANCH   8   9
ENDBRANCH   3   8
BRANCH   4  11
ATOM     11  O   UNL     1      23.470   5.240  43.756  1.00  0.00    -0.387 OA
ATOM     12  H   UNL     1      23.707   4.276  43.784  1.00  0.00     0.211 HD
ENDBRANCH   4  11
BRANCH   6  13
ATOM     13  O   UNL     1      20.104   4.900  42.483  1.00  0.00    -0.387 OA
ATOM     14  H   UNL     1      20.299   5.487  41.706  1.00  0.00     0.211 HD
ENDBRANCH   6  13
BRANCH   7  15
ATOM     15  O   UNL     1      22.470   2.316  43.301  1.00  0.00    -0.385 OA
ATOM     16  H   UNL     1      22.004   1.470  43.529  1.00  0.00     0.211 HD
ENDBRANCH   7  15
ENDBRANCH   1   2
BRANCH   1  17
ATOM     17  C   UNL     1      21.742   3.167  38.684  1.00  0.00     0.224 C 
ATOM     18  C   UNL     1      21.615   4.396  37.740  1.00  0.00     0.208 C 
ATOM     19  O   UNL     1      23.107   2.797  38.720  1.00  0.00    -0.337 OA
ATOM     20  C   UNL     1      22.969   4.515  37.055  1.00  0.00     0.180 C 
ATOM     21  C   UNL     1      23.757   3.319  37.583  1.00  0.00     0.179 C 
BRANCH  17  22
ATOM     22  C   UNL     1      20.940   1.938  38.157  1.00  0.00     0.225 C 
BRANCH  22  23
ATOM     23  O   UNL     1      20.349   2.204  36.911  1.00  0.00    -0.391 OA
ATOM     24  H   UNL     1      19.601   2.835  37.074  1.00  0.00     0.210 HD
ENDBRANCH  22  23
ENDBRANCH  17  22
BRANCH  18  25
ATOM     25  O   UNL     1      21.303   5.591  38.425  1.00  0.00    -0.385 OA
ATOM     26  H   UNL     1      22.020   5.764  39.091  1.00  0.00     0.211 HD
ENDBRANCH  18  25
BRANCH  20  27
ATOM     27  O   UNL     1      22.844   4.436  35.655  1.00  0.00    -0.387 OA
ATOM     28  H   UNL     1      22.547   5.335  35.343  1.00  0.00     0.211 HD
ENDBRANCH  20  27
BRANCH  21  29
ATOM     29  C   UNL     1      25.200   3.701  37.947  1.00  0.00     0.191 C 
BRANCH  29  30
ATOM     30  O   UNL     1      25.777   4.471  36.926  1.00  0.00    -0.394 OA
ATOM     31  H   UNL     1      26.089   5.315  37.348  1.00  0.00     0.210 HD
ENDBRANCH  29  30
ENDBRANCH  21  29
ENDBRANCH   1  17
TORSDOF 13
ENDMDL
MODEL 6
REMARK VINA RESULT:    -5.659      1.924      3.264
REMARK INTER + INTRA:          -9.590
REMARK INTER:                  -8.420
REMARK INTRA:                  -1.170
REMARK UNBOUND:                -0.953
REMARK SMILES OC[C@H]1O[C@H](O[C@]2(CO)O[C@H](CO)[C@@H](O)[C@@H]2O)[C@@H](O)[C@H](O)[C@H]1O
REMARK SMILES IDX 6 1 5 2 3 3 22 4 4 5 20 6 18 7 2 8 1 9 23 11 21 13 19 15
REMARK SMILES IDX 7 17 16 18 10 19 14 20 11 21 8 22 9 23 17 25 15 27 12 29
REMARK SMILES IDX 13 30
REMARK H PARENT 1 10 23 12 21 14 19 16 9 24 17 26 15 28 13 31
REMARK Flexibility Score: inf
ROOT
ATOM      1  O   UNL     1      36.882   3.273  43.558  1.00  0.00    -0.313 OA
ENDROOT
BRANCH   1   2
ATOM      2  C   UNL     1      36.551   2.336  42.535  1.00  0.00     0.285 C 
ATOM      3  C   UNL     1      34.245   2.621  42.889  1.00  0.00     0.178 C 
ATOM      4  C   UNL     1      33.996   3.308  41.521  1.00  0.00     0.177 C 
ATOM      5  O   UNL     1      35.313   1.691  42.803  1.00  0.00    -0.341 OA
ATOM      6  C   UNL     1      35.295   3.958  40.983  1.00  0.00     0.179 C 
ATOM      7  C   UNL     1      36.529   3.043  41.158  1.00  0.00     0.202 C 
BRANCH   3   8
ATOM      8  C   UNL     1      32.991   1.906  43.414  1.00  0.00     0.191 C 
BRANCH   8   9
ATOM      9  O   UNL     1      33.052   1.746  44.804  1.00  0.00    -0.394 OA
ATOM     10  H   UNL     1      32.748   2.608  45.187  1.00  0.00     0.210 HD
ENDBRANCH   8   9
ENDBRANCH   3   8
BRANCH   4  11
ATOM     11  O   UNL     1      33.465   2.415  40.571  1.00  0.00    -0.387 OA
ATOM     12  H   UNL     1      32.616   2.050  40.932  1.00  0.00     0.211 HD
ENDBRANCH   4  11
BRANCH   6  13
ATOM     13  O   UNL     1      35.517   5.222  41.560  1.00  0.00    -0.387 OA
ATOM     14  H   UNL     1      34.700   5.773  41.438  1.00  0.00     0.211 HD
ENDBRANCH   6  13
BRANCH   7  15
ATOM     15  O   UNL     1      36.540   2.082  40.132  1.00  0.00    -0.385 OA
ATOM     16  H   UNL     1      36.594   2.574  39.273  1.00  0.00     0.211 HD
ENDBRANCH   7  15
ENDBRANCH   1   2
BRANCH   1  17
ATOM     17  C   UNL     1      37.900   2.846  44.465  1.00  0.00     0.224 C 
ATOM     18  C   UNL     1      37.326   2.538  45.877  1.00  0.00     0.208 C 
ATOM     19  O   UNL     1      38.412   1.637  43.940  1.00  0.00    -0.337 OA
ATOM     20  C   UNL     1      37.794   1.126  46.199  1.00  0.00     0.180 C 
ATOM     21  C   UNL     1      38.659   0.741  45.001  1.00  0.00     0.179 C 
BRANCH  17  22
ATOM     22  C   UNL     1      39.077   3.867  44.520  1.00  0.00     0.225 C 
BRANCH  22  23
ATOM     23  O   UNL     1      38.615   5.173  44.748  1.00  0.00    -0.391 OA
ATOM     24  H   UNL     1      39.255   5.788  44.305  1.00  0.00     0.210 HD
ENDBRANCH  22  23
ENDBRANCH  17  22
BRANCH  18  25
ATOM     25  O   UNL     1      35.917   2.614  45.931  1.00  0.00    -0.385 OA
ATOM     26  H   UNL     1      35.637   3.484  45.544  1.00  0.00     0.211 HD
ENDBRANCH  18  25
BRANCH  20  27
ATOM     27  O   UNL     1      38.559   1.097  47.381  1.00  0.00    -0.387 OA
ATOM     28  H   UNL     1      38.120   0.441  47.990  1.00  0.00     0.211 HD
ENDBRANCH  20  27
BRANCH  21  29
ATOM     29  C   UNL     1      38.383  -0.696  44.535  1.00  0.00     0.191 C 
BRANCH  29  30
ATOM     30  O   UNL     1      38.681  -1.610  45.556  1.00  0.00    -0.394 OA
ATOM     31  H   UNL     1      38.435  -1.170  46.413  1.00  0.00     0.210 HD
ENDBRANCH  29  30
ENDBRANCH  21  29
ENDBRANCH   1  17
TORSDOF 13
ENDMDL
MODEL 7
REMARK VINA RESULT:    -5.539      2.123      5.950
REMARK INTER + INTRA:          -9.406
REMARK INTER:                  -8.281
REMARK INTRA:                  -1.125
REMARK UNBOUND:                -0.953
REMARK SMILES OC[C@H]1O[C@H](O[C@]2(CO)O[C@H](CO)[C@@H](O)[C@@H]2O)[C@@H](O)[C@H](O)[C@H]1O
REMARK SMILES IDX 6 1 5 2 3 3 22 4 4 5 20 6 18 7 2 8 1 9 23 11 21 13 19 15
REMARK SMILES IDX 7 17 16 18 10 19 14 20 11 21 8 22 9 23 17 25 15 27 12 29
REMARK SMILES IDX 13 30
REMARK H PARENT 1 10 23 12 21 14 19 16 9 24 17 26 15 28 13 31
REMARK Flexibility Score: inf
ROOT
ATOM      1  O   UNL     1      36.741   3.060  44.153  1.00  0.00    -0.313 OA
ENDROOT
BRANCH   1   2
ATOM      2  C   UNL     1      36.822   1.688  44.534  1.00  0.00     0.285 C 
ATOM      3  C   UNL     1      38.386   1.214  42.844  1.00  0.00     0.178 C 
ATOM      4  C   UNL     1      39.552   0.946  43.831  1.00  0.00     0.177 C 
ATOM      5  O   UNL     1      37.140   0.860  43.423  1.00  0.00    -0.341 OA
ATOM      6  C   UNL     1      39.311   1.663  45.182  1.00  0.00     0.179 C 
ATOM      7  C   UNL     1      37.853   1.517  45.676  1.00  0.00     0.202 C 
BRANCH   3   8
ATOM      8  C   UNL     1      38.563   0.458  41.519  1.00  0.00     0.191 C 
BRANCH   8   9
ATOM      9  O   UNL     1      37.958   1.152  40.464  1.00  0.00    -0.394 OA
ATOM     10  H   UNL     1      38.260   2.092  40.552  1.00  0.00     0.210 HD
ENDBRANCH   8   9
ENDBRANCH   3   8
BRANCH   4  11
ATOM     11  O   UNL     1      39.764  -0.430  44.036  1.00  0.00    -0.387 OA
ATOM     12  H   UNL     1      40.061  -0.559  44.974  1.00  0.00     0.211 HD
ENDBRANCH   4  11
BRANCH   6  13
ATOM     13  O   UNL     1      39.692   3.017  45.124  1.00  0.00    -0.387 OA
ATOM     14  H   UNL     1      40.422   3.111  44.457  1.00  0.00     0.211 HD
ENDBRANCH   6  13
BRANCH   7  15
ATOM     15  O   UNL     1      37.692   0.255  46.273  1.00  0.00    -0.385 OA
ATOM     16  H   UNL     1      37.167  -0.300  45.641  1.00  0.00     0.211 HD
ENDBRANCH   7  15
ENDBRANCH   1   2
BRANCH   1  17
ATOM     17  C   UNL     1      35.415   3.572  44.010  1.00  0.00     0.224 C 
ATOM     18  C   UNL     1      34.978   3.645  42.519  1.00  0.00     0.208 C 
ATOM     19  O   UNL     1      34.564   2.647  44.659  1.00  0.00    -0.337 OA
ATOM     20  C   UNL     1      33.659   2.888  42.453  1.00  0.00     0.180 C 
ATOM     21  C   UNL     1      33.383   2.496  43.903  1.00  0.00     0.179 C 
BRANCH  17  22
ATOM     22  C   UNL     1      35.254   4.943  44.736  1.00  0.00     0.225 C 
BRANCH  22  23
ATOM     23  O   UNL     1      36.487   5.427  45.201  1.00  0.00    -0.391 OA
ATOM     24  H   UNL     1      36.891   4.709  45.753  1.00  0.00     0.210 HD
ENDBRANCH  22  23
ENDBRANCH  17  22
BRANCH  18  25
ATOM     25  O   UNL     1      35.920   3.070  41.638  1.00  0.00    -0.385 OA
ATOM     26  H   UNL     1      36.159   3.749  40.953  1.00  0.00     0.211 HD
ENDBRANCH  18  25
BRANCH  20  27
ATOM     27  O   UNL     1      32.623   3.707  41.964  1.00  0.00    -0.387 OA
ATOM     28  H   UNL     1      32.479   4.422  42.643  1.00  0.00     0.211 HD
ENDBRANCH  20  27
BRANCH  21  29
ATOM     29  C   UNL     1      32.881   1.050  44.018  1.00  0.00     0.191 C 
BRANCH  29  30
ATOM     30  O   UNL     1      31.973   0.928  45.080  1.00  0.00    -0.394 OA
ATOM     31  H   UNL     1      31.669  -0.018  45.088  1.00  0.00     0.210 HD
ENDBRANCH  29  30
ENDBRANCH  21  29
ENDBRANCH   1  17
TORSDOF 13
ENDMDL
MODEL 8
REMARK VINA RESULT:    -5.533      3.048      5.850
REMARK INTER + INTRA:          -9.396
REMARK INTER:                  -8.057
REMARK INTRA:                  -1.339
REMARK UNBOUND:                -0.953
REMARK SMILES OC[C@H]1O[C@H](O[C@]2(CO)O[C@H](CO)[C@@H](O)[C@@H]2O)[C@@H](O)[C@H](O)[C@H]1O
REMARK SMILES IDX 6 1 5 2 3 3 22 4 4 5 20 6 18 7 2 8 1 9 23 11 21 13 19 15
REMARK SMILES IDX 7 17 16 18 10 19 14 20 11 21 8 22 9 23 17 25 15 27 12 29
REMARK SMILES IDX 13 30
REMARK H PARENT 1 10 23 12 21 14 19 16 9 24 17 26 15 28 13 31
REMARK Flexibility Score: inf
ROOT
ATOM      1  O   UNL     1      37.874   2.099  43.253  1.00  0.00    -0.313 OA
ENDROOT
BRANCH   1   2
ATOM      2  C   UNL     1      38.028   3.457  43.664  1.00  0.00     0.285 C 
ATOM      3  C   UNL     1      37.086   4.265  41.668  1.00  0.00     0.178 C 
ATOM      4  C   UNL     1      35.810   4.819  42.352  1.00  0.00     0.177 C 
ATOM      5  O   UNL     1      38.198   4.319  42.548  1.00  0.00    -0.341 OA
ATOM      6  C   UNL     1      35.534   4.087  43.689  1.00  0.00     0.179 C 
ATOM      7  C   UNL     1      36.817   3.887  44.528  1.00  0.00     0.202 C 
BRANCH   3   8
ATOM      8  C   UNL     1      37.424   5.022  40.375  1.00  0.00     0.191 C 
BRANCH   8   9
ATOM      9  O   UNL     1      38.132   6.197  40.655  1.00  0.00    -0.394 OA
ATOM     10  H   UNL     1      37.479   6.810  41.080  1.00  0.00     0.210 HD
ENDBRANCH   8   9
ENDBRANCH   3   8
BRANCH   4  11
ATOM     11  O   UNL     1      35.884   6.210  42.562  1.00  0.00    -0.387 OA
ATOM     12  H   UNL     1      36.823   6.437  42.789  1.00  0.00     0.211 HD
ENDBRANCH   4  11
BRANCH   6  13
ATOM     13  O   UNL     1      34.871   2.863  43.479  1.00  0.00    -0.387 OA
ATOM     14  H   UNL     1      34.119   3.015  42.849  1.00  0.00     0.211 HD
ENDBRANCH   6  13
BRANCH   7  15
ATOM     15  O   UNL     1      37.118   5.083  45.202  1.00  0.00    -0.385 OA
ATOM     16  H   UNL     1      37.620   5.656  44.566  1.00  0.00     0.211 HD
ENDBRANCH   7  15
ENDBRANCH   1   2
BRANCH   1  17
ATOM     17  C   UNL     1      38.679   1.156  43.963  1.00  0.00     0.224 C 
ATOM     18  C   UNL     1      37.827   0.263  44.910  1.00  0.00     0.208 C 
ATOM     19  O   UNL     1      39.253   0.312  42.984  1.00  0.00    -0.337 OA
ATOM     20  C   UNL     1      38.184  -1.169  44.536  1.00  0.00     0.180 C 
ATOM     21  C   UNL     1      39.260  -1.014  43.463  1.00  0.00     0.179 C 
BRANCH  17  22
ATOM     22  C   UNL     1      39.849   1.860  44.716  1.00  0.00     0.225 C 
BRANCH  22  23
ATOM     23  O   UNL     1      39.729   1.711  46.107  1.00  0.00    -0.391 OA
ATOM     24  H   UNL     1      39.934   2.593  46.512  1.00  0.00     0.210 HD
ENDBRANCH  22  23
ENDBRANCH  17  22
BRANCH  18  25
ATOM     25  O   UNL     1      36.438   0.477  44.771  1.00  0.00    -0.385 OA
ATOM     26  H   UNL     1      36.023   0.419  45.672  1.00  0.00     0.211 HD
ENDBRANCH  18  25
BRANCH  20  27
ATOM     27  O   UNL     1      38.696  -1.874  45.641  1.00  0.00    -0.387 OA
ATOM     28  H   UNL     1      39.675  -1.690  45.670  1.00  0.00     0.211 HD
ENDBRANCH  20  27
BRANCH  21  29
ATOM     29  C   UNL     1      39.043  -1.984  42.293  1.00  0.00     0.191 C 
BRANCH  29  30
ATOM     30  O   UNL     1      37.978  -2.855  42.567  1.00  0.00    -0.394 OA
ATOM     31  H   UNL     1      38.260  -3.756  42.257  1.00  0.00     0.210 HD
ENDBRANCH  29  30
ENDBRANCH  21  29
ENDBRANCH   1  17
TORSDOF 13
ENDMDL
MODEL 9
REMARK VINA RESULT:    -5.452     12.053     14.015
REMARK INTER + INTRA:          -9.273
REMARK INTER:                  -8.014
REMARK INTRA:                  -1.258
REMARK UNBOUND:                -0.953
REMARK SMILES OC[C@H]1O[C@H](O[C@]2(CO)O[C@H](CO)[C@@H](O)[C@@H]2O)[C@@H](O)[C@H](O)[C@H]1O
REMARK SMILES IDX 6 1 5 2 3 3 22 4 4 5 20 6 18 7 2 8 1 9 23 11 21 13 19 15
REMARK SMILES IDX 7 17 16 18 10 19 14 20 11 21 8 22 9 23 17 25 15 27 12 29
REMARK SMILES IDX 13 30
REMARK H PARENT 1 10 23 12 21 14 19 16 9 24 17 26 15 28 13 31
REMARK Flexibility Score: inf
ROOT
ATOM      1  O   UNL     1      21.605   4.067  39.244  1.00  0.00    -0.313 OA
ENDROOT
BRANCH   1   2
ATOM      2  C   UNL     1      21.055   3.584  38.020  1.00  0.00     0.285 C 
ATOM      3  C   UNL     1      21.864   5.434  36.817  1.00  0.00     0.178 C 
ATOM      4  C   UNL     1      22.889   4.607  35.998  1.00  0.00     0.177 C 
ATOM      5  O   UNL     1      20.726   4.653  37.143  1.00  0.00    -0.341 OA
ATOM      6  C   UNL     1      23.268   3.301  36.741  1.00  0.00     0.179 C 
ATOM      7  C   UNL     1      22.039   2.592  37.354  1.00  0.00     0.202 C 
BRANCH   3   8
ATOM      8  C   UNL     1      21.415   6.700  36.072  1.00  0.00     0.191 C 
BRANCH   8   9
ATOM      9  O   UNL     1      20.640   6.371  34.953  1.00  0.00    -0.394 OA
ATOM     10  H   UNL     1      20.764   7.117  34.312  1.00  0.00     0.210 HD
ENDBRANCH   8   9
ENDBRANCH   3   8
BRANCH   4  11
ATOM     11  O   UNL     1      22.417   4.314  34.704  1.00  0.00    -0.387 OA
ATOM     12  H   UNL     1      22.270   3.335  34.644  1.00  0.00     0.211 HD
ENDBRANCH   4  11
BRANCH   6  13
ATOM     13  O   UNL     1      24.257   3.532  37.716  1.00  0.00    -0.387 OA
ATOM     14  H   UNL     1      25.143   3.312  37.325  1.00  0.00     0.211 HD
ENDBRANCH   6  13
BRANCH   7  15
ATOM     15  O   UNL     1      21.373   1.871  36.347  1.00  0.00    -0.385 OA
ATOM     16  H   UNL     1      20.705   1.293  36.797  1.00  0.00     0.211 HD
ENDBRANCH   7  15
ENDBRANCH   1   2
BRANCH   1  17
ATOM     17  C   UNL     1      21.164   3.384  40.419  1.00  0.00     0.224 C 
ATOM     18  C   UNL     1      22.295   2.520  41.047  1.00  0.00     0.208 C 
ATOM     19  O   UNL     1      20.827   4.389  41.355  1.00  0.00    -0.337 OA
ATOM     20  C   UNL     1      22.374   2.962  42.501  1.00  0.00     0.180 C 
ATOM     21  C   UNL     1      21.249   3.986  42.638  1.00  0.00     0.179 C 
BRANCH  17  22
ATOM     22  C   UNL     1      19.875   2.552  40.142  1.00  0.00     0.225 C 
BRANCH  22  23
ATOM     23  O   UNL     1      20.080   1.186  40.393  1.00  0.00    -0.391 OA
ATOM     24  H   UNL     1      19.194   0.793  40.603  1.00  0.00     0.210 HD
ENDBRANCH  22  23
ENDBRANCH  17  22
BRANCH  18  25
ATOM     25  O   UNL     1      23.544   2.694  40.410  1.00  0.00    -0.385 OA
ATOM     26  H   UNL     1      23.620   3.644  40.130  1.00  0.00     0.211 HD
ENDBRANCH  18  25
BRANCH  20  27
ATOM     27  O   UNL     1      22.158   1.881  43.377  1.00  0.00    -0.387 OA
ATOM     28  H   UNL     1      22.580   2.128  44.246  1.00  0.00     0.211 HD
ENDBRANCH  20  27
BRANCH  21  29
ATOM     29  C   UNL     1      21.693   5.216  43.443  1.00  0.00     0.191 C 
BRANCH  29  30
ATOM     30  O   UNL     1      22.590   5.995  42.698  1.00  0.00    -0.394 OA
ATOM     31  H   UNL     1      23.177   5.361  42.206  1.00  0.00     0.210 HD
ENDBRANCH  29  30
ENDBRANCH  21  29
ENDBRANCH   1  17
TORSDOF 13
ENDMDL
