MODEL 1
REMARK VINA RESULT:    -3.537      0.000      0.000
REMARK INTER + INTRA:          -5.128
REMARK INTER:                  -4.571
REMARK INTRA:                  -0.558
REMARK UNBOUND:                -0.558
REMARK SMILES C=CC(=O)CCCCC
REMARK SMILES IDX 6 1 7 2 8 3 9 4 5 5 3 6 4 7 2 8 1 9
REMARK H PARENT
REMARK Flexibility Score: inf
ROOT
ATOM      1  C   UNL     1      55.302  18.345  -4.493  1.00  0.00     0.008 C 
ENDROOT
BRANCH   1   2
ATOM      2  C   UNL     1      55.132  17.208  -3.471  1.00  0.00     0.000 C 
BRANCH   2   3
ATOM      3  C   UNL     1      54.775  17.725  -2.069  1.00  0.00    -0.003 C 
ATOM      4  C   UNL     1      55.185  19.183  -1.854  1.00  0.00     0.004 C 
ENDBRANCH   2   3
ENDBRANCH   1   2
BRANCH   1   5
ATOM      5  C   UNL     1      54.158  18.378  -5.518  1.00  0.00     0.080 C 
BRANCH   5   6
ATOM      6  C   UNL     1      53.282  19.594  -5.352  1.00  0.00     0.155 C 
ATOM      7  O   UNL     1      53.649  20.676  -5.883  1.00  0.00    -0.295 OA
BRANCH   6   8
ATOM      8  C   UNL     1      52.025  19.589  -4.573  1.00  0.00     0.039 C 
ATOM      9  C   UNL     1      51.925  20.025  -3.317  1.00  0.00     0.012 C 
ENDBRANCH   6   8
ENDBRANCH   5   6
ENDBRANCH   1   5
TORSDOF 5
ENDMDL
MODEL 2
REMARK VINA RESULT:    -3.411      1.917      2.809
REMARK INTER + INTRA:          -4.966
REMARK INTER:                  -4.526
REMARK INTRA:                  -0.440
REMARK UNBOUND:                -0.558
REMARK SMILES C=CC(=O)CCCCC
REMARK SMILES IDX 6 1 7 2 8 3 9 4 5 5 3 6 4 7 2 8 1 9
REMARK H PARENT
REMARK Flexibility Score: inf
ROOT
ATOM      1  C   UNL     1      53.489  16.703  -4.546  1.00  0.00     0.008 C 
ENDROOT
BRANCH   1   2
ATOM      2  C   UNL     1      54.330  15.416  -4.500  1.00  0.00     0.000 C 
BRANCH   2   3
ATOM      3  C   UNL     1      55.265  15.366  -3.282  1.00  0.00    -0.003 C 
ATOM      4  C   UNL     1      54.842  16.331  -2.173  1.00  0.00     0.004 C 
ENDBRANCH   2   3
ENDBRANCH   1   2
BRANCH   1   5
ATOM      5  C   UNL     1      53.893  17.617  -5.713  1.00  0.00     0.080 C 
BRANCH   5   6
ATOM      6  C   UNL     1      54.436  18.940  -5.235  1.00  0.00     0.155 C 
ATOM      7  O   UNL     1      53.793  19.989  -5.511  1.00  0.00    -0.295 OA
BRANCH   6   8
ATOM      8  C   UNL     1      55.701  19.074  -4.481  1.00  0.00     0.039 C 
ATOM      9  C   UNL     1      56.859  19.444  -5.028  1.00  0.00     0.012 C 
ENDBRANCH   6   8
ENDBRANCH   5   6
ENDBRANCH   1   5
TORSDOF 5
ENDMDL
MODEL 3
REMARK VINA RESULT:    -3.402      1.866      2.859
REMARK INTER + INTRA:          -4.954
REMARK INTER:                  -4.350
REMARK INTRA:                  -0.604
REMARK UNBOUND:                -0.558
REMARK SMILES C=CC(=O)CCCCC
REMARK SMILES IDX 6 1 7 2 8 3 9 4 5 5 3 6 4 7 2 8 1 9
REMARK H PARENT
REMARK Flexibility Score: inf
ROOT
ATOM      1  C   UNL     1      54.431  18.641  -2.224  1.00  0.00     0.008 C 
ENDROOT
BRANCH   1   2
ATOM      2  C   UNL     1      54.787  17.316  -1.528  1.00  0.00     0.000 C 
BRANCH   2   3
ATOM      3  C   UNL     1      54.252  16.091  -2.283  1.00  0.00    -0.003 C 
ATOM      4  C   UNL     1      55.320  15.413  -3.142  1.00  0.00     0.004 C 
ENDBRANCH   2   3
ENDBRANCH   1   2
BRANCH   1   5
ATOM      5  C   UNL     1      55.599  19.191  -3.055  1.00  0.00     0.080 C 
BRANCH   5   6
ATOM      6  C   UNL     1      55.369  19.027  -4.536  1.00  0.00     0.155 C 
ATOM      7  O   UNL     1      56.338  19.216  -5.320  1.00  0.00    -0.295 OA
BRANCH   6   8
ATOM      8  C   UNL     1      54.055  18.682  -5.120  1.00  0.00     0.039 C 
ATOM      9  C   UNL     1      53.805  17.548  -5.774  1.00  0.00     0.012 C 
ENDBRANCH   6   8
ENDBRANCH   5   6
ENDBRANCH   1   5
TORSDOF 5
ENDMDL
MODEL 4
REMARK VINA RESULT:    -3.379      1.354      3.470
REMARK INTER + INTRA:          -4.924
REMARK INTER:                  -4.374
REMARK INTRA:                  -0.551
REMARK UNBOUND:                -0.558
REMARK SMILES C=CC(=O)CCCCC
REMARK SMILES IDX 6 1 7 2 8 3 9 4 5 5 3 6 4 7 2 8 1 9
REMARK H PARENT
REMARK Flexibility Score: inf
ROOT
ATOM      1  C   UNL     1      52.970  18.708  -5.344  1.00  0.00     0.008 C 
ENDROOT
BRANCH   1   2
ATOM      2  C   UNL     1      52.814  20.213  -5.618  1.00  0.00     0.000 C 
BRANCH   2   3
ATOM      3  C   UNL     1      51.863  20.898  -4.625  1.00  0.00    -0.003 C 
ATOM      4  C   UNL     1      51.636  20.071  -3.358  1.00  0.00     0.004 C 
ENDBRANCH   2   3
ENDBRANCH   1   2
BRANCH   1   5
ATOM      5  C   UNL     1      54.418  18.232  -5.532  1.00  0.00     0.080 C 
BRANCH   5   6
ATOM      6  C   UNL     1      55.298  18.621  -4.372  1.00  0.00     0.155 C 
ATOM      7  O   UNL     1      56.375  19.231  -4.612  1.00  0.00    -0.295 OA
BRANCH   6   8
ATOM      8  C   UNL     1      54.976  18.300  -2.964  1.00  0.00     0.039 C 
ATOM      9  C   UNL     1      55.036  19.182  -1.966  1.00  0.00     0.012 C 
ENDBRANCH   6   8
ENDBRANCH   5   6
ENDBRANCH   1   5
TORSDOF 5
ENDMDL
MODEL 5
REMARK VINA RESULT:    -3.344      1.145      1.310
REMARK INTER + INTRA:          -4.879
REMARK INTER:                  -4.338
REMARK INTRA:                  -0.542
REMARK UNBOUND:                -0.558
REMARK SMILES C=CC(=O)CCCCC
REMARK SMILES IDX 6 1 7 2 8 3 9 4 5 5 3 6 4 7 2 8 1 9
REMARK H PARENT
REMARK Flexibility Score: inf
ROOT
ATOM      1  C   UNL     1      54.834  19.379  -5.343  1.00  0.00     0.008 C 
ENDROOT
BRANCH   1   2
ATOM      2  C   UNL     1      55.757  18.731  -4.296  1.00  0.00     0.000 C 
BRANCH   2   3
ATOM      3  C   UNL     1      54.984  18.196  -3.081  1.00  0.00    -0.003 C 
ATOM      4  C   UNL     1      55.074  19.123  -1.868  1.00  0.00     0.004 C 
ENDBRANCH   2   3
ENDBRANCH   1   2
BRANCH   1   5
ATOM      5  C   UNL     1      53.535  18.584  -5.540  1.00  0.00     0.080 C 
BRANCH   5   6
ATOM      6  C   UNL     1      52.324  19.481  -5.587  1.00  0.00     0.155 C 
ATOM      7  O   UNL     1      51.556  19.404  -6.584  1.00  0.00    -0.295 OA
BRANCH   6   8
ATOM      8  C   UNL     1      52.003  20.468  -4.533  1.00  0.00     0.039 C 
ATOM      9  C   UNL     1      51.736  20.146  -3.267  1.00  0.00     0.012 C 
ENDBRANCH   6   8
ENDBRANCH   5   6
ENDBRANCH   1   5
TORSDOF 5
ENDMDL
MODEL 6
REMARK VINA RESULT:    -3.327      1.396      2.055
REMARK INTER + INTRA:          -4.857
REMARK INTER:                  -4.505
REMARK INTRA:                  -0.352
REMARK UNBOUND:                -0.558
REMARK SMILES C=CC(=O)CCCCC
REMARK SMILES IDX 6 1 7 2 8 3 9 4 5 5 3 6 4 7 2 8 1 9
REMARK H PARENT
REMARK Flexibility Score: inf
ROOT
ATOM      1  C   UNL     1      55.597  19.096  -3.436  1.00  0.00     0.008 C 
ENDROOT
BRANCH   1   2
ATOM      2  C   UNL     1      55.067  18.998  -1.996  1.00  0.00     0.000 C 
BRANCH   2   3
ATOM      3  C   UNL     1      54.279  17.703  -1.745  1.00  0.00    -0.003 C 
ATOM      4  C   UNL     1      55.020  16.729  -0.827  1.00  0.00     0.004 C 
ENDBRANCH   2   3
ENDBRANCH   1   2
BRANCH   1   5
ATOM      5  C   UNL     1      55.163  17.899  -4.296  1.00  0.00     0.080 C 
BRANCH   5   6
ATOM      6  C   UNL     1      54.139  18.288  -5.332  1.00  0.00     0.155 C 
ATOM      7  O   UNL     1      53.692  17.394  -6.101  1.00  0.00    -0.295 OA
BRANCH   6   8
ATOM      8  C   UNL     1      53.651  19.672  -5.513  1.00  0.00     0.039 C 
ATOM      9  C   UNL     1      52.411  20.069  -5.223  1.00  0.00     0.012 C 
ENDBRANCH   6   8
ENDBRANCH   5   6
ENDBRANCH   1   5
TORSDOF 5
ENDMDL
MODEL 7
REMARK VINA RESULT:    -3.295      1.789      3.275
REMARK INTER + INTRA:          -4.816
REMARK INTER:                  -4.257
REMARK INTRA:                  -0.559
REMARK UNBOUND:                -0.558
REMARK SMILES C=CC(=O)CCCCC
REMARK SMILES IDX 6 1 7 2 8 3 9 4 5 5 3 6 4 7 2 8 1 9
REMARK H PARENT
REMARK Flexibility Score: inf
ROOT
ATOM      1  C   UNL     1      54.518  17.465  -1.737  1.00  0.00     0.008 C 
ENDROOT
BRANCH   1   2
ATOM      2  C   UNL     1      55.043  16.289  -2.578  1.00  0.00     0.000 C 
BRANCH   2   3
ATOM      3  C   UNL     1      53.913  15.486  -3.240  1.00  0.00    -0.003 C 
ATOM      4  C   UNL     1      53.957  15.552  -4.767  1.00  0.00     0.004 C 
ENDBRANCH   2   3
ENDBRANCH   1   2
BRANCH   1   5
ATOM      5  C   UNL     1      54.945  18.824  -2.311  1.00  0.00     0.080 C 
BRANCH   5   6
ATOM      6  C   UNL     1      54.312  19.098  -3.652  1.00  0.00     0.155 C 
ATOM      7  O   UNL     1      53.061  19.243  -3.708  1.00  0.00    -0.295 OA
BRANCH   6   8
ATOM      8  C   UNL     1      55.082  19.178  -4.912  1.00  0.00     0.039 C 
ATOM      9  C   UNL     1      56.414  19.205  -4.971  1.00  0.00     0.012 C 
ENDBRANCH   6   8
ENDBRANCH   5   6
ENDBRANCH   1   5
TORSDOF 5
ENDMDL
MODEL 8
REMARK VINA RESULT:    -3.269      2.552      4.270
REMARK INTER + INTRA:          -4.782
REMARK INTER:                  -4.317
REMARK INTRA:                  -0.465
REMARK UNBOUND:                -0.558
REMARK SMILES C=CC(=O)CCCCC
REMARK SMILES IDX 6 1 7 2 8 3 9 4 5 5 3 6 4 7 2 8 1 9
REMARK H PARENT
REMARK Flexibility Score: inf
ROOT
ATOM      1  C   UNL     1      55.500  19.000  -3.403  1.00  0.00     0.008 C 
ENDROOT
BRANCH   1   2
ATOM      2  C   UNL     1      55.371  18.986  -4.936  1.00  0.00     0.000 C 
BRANCH   2   3
ATOM      3  C   UNL     1      53.912  18.872  -5.403  1.00  0.00    -0.003 C 
ATOM      4  C   UNL     1      53.269  20.233  -5.671  1.00  0.00     0.004 C 
ENDBRANCH   2   3
ENDBRANCH   1   2
BRANCH   1   5
ATOM      5  C   UNL     1      54.385  18.192  -2.721  1.00  0.00     0.080 C 
BRANCH   5   6
ATOM      6  C   UNL     1      54.872  16.850  -2.237  1.00  0.00     0.155 C 
ATOM      7  O   UNL     1      55.078  16.694  -1.003  1.00  0.00    -0.295 OA
BRANCH   6   8
ATOM      8  C   UNL     1      55.149  15.713  -3.141  1.00  0.00     0.039 C 
ATOM      9  C   UNL     1      54.369  15.370  -4.167  1.00  0.00     0.012 C 
ENDBRANCH   6   8
ENDBRANCH   5   6
ENDBRANCH   1   5
TORSDOF 5
ENDMDL
MODEL 9
REMARK VINA RESULT:    -3.243      1.957      3.895
REMARK INTER + INTRA:          -4.749
REMARK INTER:                  -4.259
REMARK INTRA:                  -0.489
REMARK UNBOUND:                -0.558
REMARK SMILES C=CC(=O)CCCCC
REMARK SMILES IDX 6 1 7 2 8 3 9 4 5 5 3 6 4 7 2 8 1 9
REMARK H PARENT
REMARK Flexibility Score: inf
ROOT
ATOM      1  C   UNL     1      54.877  18.818  -5.380  1.00  0.00     0.008 C 
ENDROOT
BRANCH   1   2
ATOM      2  C   UNL     1      53.642  19.735  -5.389  1.00  0.00     0.000 C 
BRANCH   2   3
ATOM      3  C   UNL     1      52.359  18.991  -5.790  1.00  0.00    -0.003 C 
ATOM      4  C   UNL     1      52.566  17.482  -5.919  1.00  0.00     0.004 C 
ENDBRANCH   2   3
ENDBRANCH   1   2
BRANCH   1   5
ATOM      5  C   UNL     1      55.776  19.068  -4.160  1.00  0.00     0.080 C 
BRANCH   5   6
ATOM      6  C   UNL     1      55.135  18.599  -2.878  1.00  0.00     0.155 C 
ATOM      7  O   UNL     1      55.202  19.346  -1.865  1.00  0.00    -0.295 OA
BRANCH   6   8
ATOM      8  C   UNL     1      54.455  17.293  -2.741  1.00  0.00     0.039 C 
ATOM      9  C   UNL     1      55.050  16.118  -2.947  1.00  0.00     0.012 C 
ENDBRANCH   6   8
ENDBRANCH   5   6
ENDBRANCH   1   5
TORSDOF 5
ENDMDL
